@<TRIPOS>MOLECULE
NONAME
43 45 1 0 0 
SMALL
USER_CHARGES


@<TRIPOS>ATOM
  1 CL       0.1380    -0.1660     1.9720 Cl    1 <1>  -0.1770 
  2 C       -0.0460    -1.8690     1.6340 C.ar  1 <1>   0.1770 
  3 C       -0.0370    -2.3310     0.3260 C.ar  1 <1>  -0.1440 
  4 C       -0.2000    -2.7380     2.6990 C.ar  1 <1>  -0.1500 
  5 C       -0.1910    -3.6900     0.1040 C.ar  1 <1>  -0.1500 
  6 C        0.1430    -1.3760    -0.8450 C.3   1 <1>  -0.0960 
  7 C       -0.3560    -4.0900     2.4560 C.ar  1 <1>  -0.1500 
  8 C       -0.3680    -4.5920     1.1560 C.ar  1 <1>   0.0860 
  9 C       -0.5670    -6.0080     0.9090 C.2   1 <1>   0.5440 
 10 O        0.2010    -6.8060     1.4130 O.2   1 <1>  -0.5700 
 11 N       -1.6100    -6.4780     0.1330 N.am  1 <1>  -0.6600 
 12 C       -2.8000    -5.6300    -0.1830 C.3   1 <1>   0.2200 
 13 C       -1.6460    -7.9200    -0.2610 C.3   1 <1>   0.0600 
 14 C       -4.1400    -6.2500     0.2060 C.3   1 <1>  -0.1600 
 15 C       -2.9430    -5.3270    -1.6710 C.3   1 <1>  -0.1600 
 16 C       -5.1690    -5.4770    -0.6280 C.3   1 <1>  -0.0800 
 17 C       -4.4050    -4.8930    -1.8320 C.3   1 <1>  -0.0800 
 18 C       -5.7850    -4.2820     0.1150 C.3   1 <1>  -0.1600 
 19 C       -4.5970    -3.3700    -1.7700 C.3   1 <1>  -0.1600 
 20 C       -5.8440    -3.1740    -0.9240 C.3   1 <1>   0.2000 
 21 O       -5.8130    -1.9420    -0.3090 O.3   1 <1>  -0.6800 
 22 H       -0.1940    -2.3550     3.7040 H     1 <1>   0.1500 
 23 H       -0.1730    -4.0780    -0.8990 H     1 <1>   0.1500 
 24 H        0.1280    -1.9030    -1.7820 H     1 <1>   0.0800 
 25 H        1.0850    -0.8630    -0.7580 H     1 <1>   0.0800 
 26 H       -0.6480    -0.6470    -0.8500 H     1 <1>   0.0800 
 27 H       -0.4710    -4.7770     3.2780 H     1 <1>   0.1500 
 28 H       -2.7300    -4.6910     0.3390 H     1 <1>   0.0800 
 29 H       -2.1470    -8.0500    -1.2020 H     1 <1>   0.0800 
 30 H       -2.1570    -8.4870     0.4980 H     1 <1>   0.0800 
 31 H       -0.6440    -8.3030    -0.3560 H     1 <1>   0.0800 
 32 H       -4.1830    -7.2820    -0.0870 H     1 <1>   0.0800 
 33 H       -4.3220    -6.1750     1.2630 H     1 <1>   0.0800 
 34 H       -2.2540    -4.5690    -1.9980 H     1 <1>   0.0800 
 35 H       -2.7830    -6.2180    -2.2490 H     1 <1>   0.0800 
 36 H       -5.9530    -6.1330    -0.9680 H     1 <1>   0.0800 
 37 H       -4.8160    -5.2740    -2.7520 H     1 <1>   0.0800 
 38 H       -5.1490    -3.9820     0.9300 H     1 <1>   0.0800 
 39 H       -6.7650    -4.5160     0.4910 H     1 <1>   0.0800 
 40 H       -4.7240    -2.9510    -2.7520 H     1 <1>   0.0800 
 41 H       -3.7550    -2.9070    -1.2870 H     1 <1>   0.0800 
 42 H       -6.7380    -3.2480    -1.5220 H     1 <1>   0.0800 
 43 H       -5.0160    -1.8670     0.2460 H     1 <1>   0.4000 
@<TRIPOS>BOND
  1   1   2  1   
  2   2   3  ar  
  3   2   4  ar  
  4   3   5  ar  
  5   3   6  1   
  6   4   7  ar  
  7   4  22  1   
  8   5   8  ar  
  9   5  23  1   
 10   6  24  1   
 11   6  25  1   
 12   6  26  1   
 13   7   8  ar  
 14   7  27  1   
 15   8   9  1   
 16   9  10  2   
 17   9  11  am  
 18  11  12  1   
 19  11  13  1   
 20  12  14  1   
 21  12  15  1   
 22  12  28  1   
 23  13  29  1   
 24  13  30  1   
 25  13  31  1   
 26  14  16  1   
 27  14  32  1   
 28  14  33  1   
 29  15  17  1   
 30  15  34  1   
 31  15  35  1   
 32  16  17  1   
 33  16  18  1   
 34  16  36  1   
 35  17  19  1   
 36  17  37  1   
 37  18  20  1   
 38  18  38  1   
 39  18  39  1   
 40  19  20  1   
 41  19  40  1   
 42  19  41  1   
 43  20  21  1   
 44  20  42  1   
 45  21  43  1   
@<TRIPOS>SUBSTRUCTURE
  1 ****  12 GROUP 4 **** **** 0

# MOE 2024.06 (io_trps.svl 2023.06)
