@<TRIPOS>MOLECULE
NONAME
61 64 1 0 0 
SMALL
USER_CHARGES


@<TRIPOS>ATOM
  1 O        0.0510    -0.4670    -1.1370 O.3   1 <1>  -0.5600 
  2 C        1.3430    -1.0270    -1.1180 C.3   1 <1>   0.2000 
  3 C       -0.0030     0.9100    -1.3600 C.3   1 <1>   0.1200 
  4 C        2.2490    -0.3190    -0.0710 C.3   1 <1>   0.5660 
  5 C        1.2210    -2.5240    -0.7920 C.3   1 <1>   0.1200 
  6 C        0.7340     1.6500    -0.2310 C.3   1 <1>   0.3430 
  7 N        2.1490     1.1750    -0.0920 N.4   1 <1>  -0.9590 
  8 C        3.7170    -0.6660    -0.2750 C.ar  1 <1>  -0.1430 
  9 O        0.9500    -2.6990     0.5630 O.3   1 <1>  -0.6800 
 10 C        2.8130     1.7700     1.0920 C.3   1 <1>   0.5240 
 11 C        4.4160    -1.2660     0.7620 C.ar  1 <1>  -0.1500 
 12 C        4.3800    -0.3790    -1.4640 C.ar  1 <1>  -0.1500 
 13 C        3.1160     3.2090     0.7510 C.2   1 <1>  -0.1810 
 14 C        5.7620    -1.5590     0.6330 C.ar  1 <1>   0.0820 
 15 C        5.7280    -0.6640    -1.5970 C.ar  1 <1>  -0.1500 
 16 C        4.2350     3.6680     0.0640 C.2   1 <1>   0.1080 
 17 C        2.4020     4.3250     1.0190 C.2   1 <1>  -0.3020 
 18 O        6.3630    -2.1580     1.6870 O.3   1 <1>  -0.3630 
 19 C        6.4330    -1.2320    -0.5510 C.ar  1 <1>   0.0820 
 20 N        4.2030     4.9470    -0.1000 N.2   1 <1>  -0.7070 
 21 C        5.3950     2.8420    -0.4530 C.3   1 <1>  -0.0590 
 22 N        3.0680     5.3880     0.4990 N.pl3 1 <1>   0.5930 
 23 C        6.8510    -3.4670     1.4810 C.3   1 <1>   0.0400 
 24 O        7.7570    -1.4420    -0.7390 O.3   1 <1>  -0.3630 
 25 C        2.6800     6.7600     0.5520 C.ar  1 <1>  -0.0230 
 26 C        8.6470    -0.7330     0.0970 C.3   1 <1>   0.0400 
 27 C        1.3370     7.1330     0.5930 C.ar  1 <1>  -0.1500 
 28 C        3.6440     7.7650     0.5640 C.ar  1 <1>  -0.1500 
 29 C        0.9730     8.4670     0.6530 C.ar  1 <1>  -0.1500 
 30 C        3.2820     9.0990     0.6230 C.ar  1 <1>  -0.1500 
 31 C        1.9450     9.4510     0.6690 C.ar  1 <1>  -0.1500 
 32 H        1.7490    -0.9210    -2.1070 H     1 <1>   0.0800 
 33 H        0.4270     1.1290    -2.3220 H     1 <1>   0.0800 
 34 H       -1.0400     1.1970    -1.3730 H     1 <1>   0.0800 
 35 H        1.9440    -0.6700     0.9010 H     1 <1>   0.0800 
 36 H        2.1420    -3.0370    -1.0130 H     1 <1>   0.0800 
 37 H        0.4240    -2.9660    -1.3670 H     1 <1>   0.0800 
 38 H        0.1980     1.4790     0.6880 H     1 <1>   0.0800 
 39 H        0.7220     2.7090    -0.4310 H     1 <1>   0.0800 
 40 H        2.6850     1.4980    -0.9020 H     1 <1>   0.4500 
 41 H        0.6290    -3.6100     0.7360 H     1 <1>   0.4000 
 42 H        2.1690     1.7140     1.9550 H     1 <1>   0.0800 
 43 H        3.7350     1.2590     1.3160 H     1 <1>   0.0800 
 44 H        3.9310    -1.5240     1.6880 H     1 <1>   0.1500 
 45 H        3.8720     0.0680    -2.3020 H     1 <1>   0.1500 
 46 H        6.2490    -0.4450    -2.5130 H     1 <1>   0.1500 
 47 H        1.4760     4.4470     1.5490 H     1 <1>   0.1500 
 48 H        5.5330     1.9510     0.1300 H     1 <1>   0.0800 
 49 H        6.2980     3.4230    -0.3970 H     1 <1>   0.0800 
 50 H        5.2280     2.5790    -1.4810 H     1 <1>   0.0800 
 51 H        7.2100    -3.8450     2.4210 H     1 <1>   0.0800 
 52 H        7.6540    -3.4440     0.7670 H     1 <1>   0.0800 
 53 H        6.0480    -4.0860     1.1200 H     1 <1>   0.0800 
 54 H        9.6490    -0.9170    -0.2480 H     1 <1>   0.0800 
 55 H        8.5430    -1.0770     1.1090 H     1 <1>   0.0800 
 56 H        8.4240     0.3170     0.0330 H     1 <1>   0.0800 
 57 H        0.5630     6.3880     0.5740 H     1 <1>   0.1500 
 58 H        4.6890     7.5030     0.5240 H     1 <1>   0.1500 
 59 H       -0.0670     8.7430     0.6860 H     1 <1>   0.1500 
 60 H        4.0400     9.8630     0.6320 H     1 <1>   0.1500 
 61 H        1.6620    10.4890     0.7160 H     1 <1>   0.1500 
@<TRIPOS>BOND
  1   1   2  1   
  2   1   3  1   
  3   2   4  1   
  4   2   5  1   
  5   2  32  1   
  6   3   6  1   
  7   3  33  1   
  8   3  34  1   
  9   4   7  1   
 10   4   8  1   
 11   4  35  1   
 12   5   9  1   
 13   5  36  1   
 14   5  37  1   
 15   6   7  1   
 16   6  38  1   
 17   6  39  1   
 18   7  10  1   
 19   7  40  1   
 20   8  11  ar  
 21   8  12  ar  
 22   9  41  1   
 23  10  13  1   
 24  10  42  1   
 25  10  43  1   
 26  11  14  ar  
 27  11  44  1   
 28  12  15  ar  
 29  12  45  1   
 30  13  16  1   
 31  13  17  2   
 32  14  18  1   
 33  14  19  ar  
 34  15  19  ar  
 35  15  46  1   
 36  16  20  2   
 37  16  21  1   
 38  17  22  1   
 39  17  47  1   
 40  18  23  1   
 41  19  24  1   
 42  20  22  1   
 43  21  48  1   
 44  21  49  1   
 45  21  50  1   
 46  22  25  1   
 47  23  51  1   
 48  23  52  1   
 49  23  53  1   
 50  24  26  1   
 51  25  27  ar  
 52  25  28  ar  
 53  26  54  1   
 54  26  55  1   
 55  26  56  1   
 56  27  29  ar  
 57  27  57  1   
 58  28  30  ar  
 59  28  58  1   
 60  29  31  ar  
 61  29  59  1   
 62  30  31  ar  
 63  30  60  1   
 64  31  61  1   
@<TRIPOS>SUBSTRUCTURE
  1 ****  10 GROUP 4 **** **** 0

# MOE 2024.06 (io_trps.svl 2023.06)
