@<TRIPOS>MOLECULE
NONAME
47 49 1 0 0 
SMALL
USER_CHARGES


@<TRIPOS>ATOM
  1 O        1.2830    -0.8040     1.4260 O.3   1 <1>  -0.0190 
  2 N        1.3000    -2.1010     1.4080 N.2   1 <1>  -0.4100 
  3 C        1.0040    -0.4740     0.1890 C.2   1 <1>   0.2980 
  4 C        1.0360    -2.4660     0.2160 C.2   1 <1>   0.3350 
  5 N        0.8440    -1.4450    -0.6160 N.2   1 <1>  -0.5650 
  6 C        0.9010     0.9970    -0.1700 C.3   1 <1>   0.0200 
  7 C        0.9560    -3.9170    -0.2670 C.3   1 <1>   0.2910 
  8 C       -0.3130     1.6640     0.4910 C.3   1 <1>  -0.2400 
  9 N       -0.3940    -4.5460    -0.1560 N.3   1 <1>  -0.8100 
 10 C       -0.3770    -5.9380    -0.6500 C.3   1 <1>   0.2530 
 11 C       -1.4240    -3.7380    -0.8430 C.3   1 <1>   0.2540 
 12 C        0.6090    -6.7930     0.1340 C.ar  1 <1>  -0.1430 
 13 C       -2.8110    -4.3480    -0.6890 C.ar  1 <1>  -0.1430 
 14 C        0.5960    -6.8280     1.5140 C.ar  1 <1>  -0.1500 
 15 C        1.5620    -7.5760    -0.4860 C.ar  1 <1>  -0.1500 
 16 C       -3.5600    -4.6960    -1.8030 C.ar  1 <1>  -0.1500 
 17 C       -3.3360    -4.5640     0.5760 C.ar  1 <1>  -0.1500 
 18 C        1.5110    -7.6180     2.1890 C.ar  1 <1>   0.1600 
 19 C        2.4310    -8.3320     0.2830 C.ar  1 <1>   0.1600 
 20 C       -4.8170    -5.2560    -1.6500 C.ar  1 <1>  -0.1500 
 21 C       -4.5930    -5.1240     0.7330 C.ar  1 <1>  -0.1500 
 22 N        2.4300    -8.3720     1.6060 N.ar  1 <1>  -0.6200 
 23 C       -5.3410    -5.4750    -0.3870 C.ar  1 <1>   0.0820 
 24 O       -6.5770    -6.0310    -0.3260 O.3   1 <1>  -0.3630 
 25 C       -7.2050    -6.2860     0.9100 C.3   1 <1>   0.0400 
 26 H        0.8190     1.0880    -1.2390 H     1 <1>   0.0800 
 27 H        1.8030     1.4940     0.1380 H     1 <1>   0.0800 
 28 H        1.6580    -4.4800     0.3220 H     1 <1>   0.0800 
 29 H        1.2860    -3.9510    -1.2900 H     1 <1>   0.0800 
 30 H       -1.2180     1.1710     0.1830 H     1 <1>   0.0800 
 31 H       -0.3690     2.6990     0.2050 H     1 <1>   0.0800 
 32 H       -0.2350     1.6050     1.5630 H     1 <1>   0.0800 
 33 H       -0.1290    -5.9500    -1.6970 H     1 <1>   0.0800 
 34 H       -1.3510    -6.3810    -0.5330 H     1 <1>   0.0800 
 35 H       -1.1750    -3.6360    -1.8850 H     1 <1>   0.0800 
 36 H       -1.4590    -2.7530    -0.4110 H     1 <1>   0.0800 
 37 H       -0.1180    -6.2400     2.0620 H     1 <1>   0.1500 
 38 H        1.6380    -7.6080    -1.5570 H     1 <1>   0.1500 
 39 H       -3.1730    -4.5330    -2.7930 H     1 <1>   0.1500 
 40 H       -2.7540    -4.2970     1.4420 H     1 <1>   0.1500 
 41 H        1.4860    -7.6280     3.2650 H     1 <1>   0.1500 
 42 H        3.1680    -8.9380    -0.2160 H     1 <1>   0.1500 
 43 H       -5.4010    -5.5270    -2.5110 H     1 <1>   0.1500 
 44 H       -4.9660    -5.2780     1.7260 H     1 <1>   0.1500 
 45 H       -8.1680    -6.7190     0.7120 H     1 <1>   0.0800 
 46 H       -7.3240    -5.3570     1.4390 H     1 <1>   0.0800 
 47 H       -6.6010    -6.9760     1.4720 H     1 <1>   0.0800 
@<TRIPOS>BOND
  1   1   2  1   
  2   1   3  1   
  3   2   4  2   
  4   3   5  2   
  5   3   6  1   
  6   4   5  1   
  7   4   7  1   
  8   6   8  1   
  9   6  26  1   
 10   6  27  1   
 11   7   9  1   
 12   7  28  1   
 13   7  29  1   
 14   8  30  1   
 15   8  31  1   
 16   8  32  1   
 17   9  10  1   
 18   9  11  1   
 19  10  12  1   
 20  10  33  1   
 21  10  34  1   
 22  11  13  1   
 23  11  35  1   
 24  11  36  1   
 25  12  14  ar  
 26  12  15  ar  
 27  13  16  ar  
 28  13  17  ar  
 29  14  18  ar  
 30  14  37  1   
 31  15  19  ar  
 32  15  38  1   
 33  16  20  ar  
 34  16  39  1   
 35  17  21  ar  
 36  17  40  1   
 37  18  22  ar  
 38  18  41  1   
 39  19  22  ar  
 40  19  42  1   
 41  20  23  ar  
 42  20  43  1   
 43  21  23  ar  
 44  21  44  1   
 45  23  24  1   
 46  24  25  1   
 47  25  45  1   
 48  25  46  1   
 49  25  47  1   
@<TRIPOS>SUBSTRUCTURE
  1 ****   9 GROUP 4 **** **** 0

# MOE 2024.06 (io_trps.svl 2023.06)
