@<TRIPOS>MOLECULE
NONAME
42 44 1 0 0 
SMALL
USER_CHARGES


@<TRIPOS>ATOM
  1 O       -1.0170    -0.4000     1.3360 O.2   1 <1>  -0.5700 
  2 C       -1.8690    -0.3770     0.4630 C.2   1 <1>   0.7160 
  3 N       -2.1410     0.8360    -0.1290 N.am  1 <1>  -0.7300 
  4 C       -2.5920    -1.5800     0.0330 C.2   1 <1>   0.4300 
  5 C       -1.5050     2.1400     0.1900 C.3   1 <1>   0.0600 
  6 N       -3.4670    -1.6060    -0.9200 N.2   1 <1>  -0.4100 
  7 N       -2.4330    -2.8010     0.5710 N.2   1 <1>  -0.5650 
  8 O       -3.9030    -2.8180    -1.0330 O.3   1 <1>  -0.0190 
  9 C       -3.2560    -3.4850    -0.1130 C.2   1 <1>   0.2980 
 10 C       -3.5130    -4.9850     0.0300 C.3   1 <1>   0.2900 
 11 N       -4.8690    -5.3300     0.5270 N.3   1 <1>  -0.8100 
 12 C       -5.9540    -4.9840    -0.4030 C.3   1 <1>   0.1100 
 13 C       -5.0000    -6.7700     0.8150 C.3   1 <1>   0.1100 
 14 C       -7.1000    -5.9090    -0.0120 C.3   1 <1>   0.2000 
 15 C       -6.3860    -7.2170     0.3140 C.3   1 <1>  -0.0800 
 16 O       -7.6510    -5.4240     1.1590 O.3   1 <1>  -0.6800 
 17 C       -6.2970    -8.1170    -0.9350 C.3   1 <1>  -0.0170 
 18 C       -5.5930    -9.4330    -0.6490 C.ar  1 <1>   0.1670 
 19 N       -4.3180    -9.5110    -1.0000 N.ar  1 <1>  -0.6200 
 20 C       -6.2970   -10.4680    -0.0510 C.ar  1 <1>  -0.1500 
 21 C       -3.7230   -10.6660    -0.7460 C.ar  1 <1>   0.1600 
 22 C       -5.6640   -11.6640     0.2100 C.ar  1 <1>  -0.1500 
 23 C       -4.3380   -11.7550    -0.1530 C.ar  1 <1>  -0.1500 
 24 H       -2.8580     0.8410    -0.8600 H     1 <1>   0.3700 
 25 H       -0.7720     2.0230     0.9700 H     1 <1>   0.0800 
 26 H       -2.2540     2.8380     0.5220 H     1 <1>   0.0800 
 27 H       -1.0180     2.5320    -0.6860 H     1 <1>   0.0800 
 28 H       -2.7870    -5.3700     0.7260 H     1 <1>   0.0800 
 29 H       -3.3410    -5.4610    -0.9190 H     1 <1>   0.0800 
 30 H       -6.2350    -3.9470    -0.3180 H     1 <1>   0.0800 
 31 H       -5.6560    -5.1920    -1.4160 H     1 <1>   0.0800 
 32 H       -4.2140    -7.3320     0.3410 H     1 <1>   0.0800 
 33 H       -4.9260    -6.9210     1.8790 H     1 <1>   0.0800 
 34 H       -7.8750    -5.9910    -0.7540 H     1 <1>   0.0800 
 35 H       -6.9100    -7.7560     1.0840 H     1 <1>   0.0800 
 36 H       -6.8990    -5.1450     1.7250 H     1 <1>   0.4000 
 37 H       -5.7770    -7.6070    -1.7270 H     1 <1>   0.0800 
 38 H       -7.2900    -8.3310    -1.2890 H     1 <1>   0.0800 
 39 H       -7.3320   -10.3410     0.2110 H     1 <1>   0.1500 
 40 H       -2.6870   -10.7500    -1.0270 H     1 <1>   0.1500 
 41 H       -6.1800   -12.4870     0.6730 H     1 <1>   0.1500 
 42 H       -3.7840   -12.6600     0.0200 H     1 <1>   0.1500 
@<TRIPOS>BOND
  1   1   2  2   
  2   2   3  am  
  3   2   4  1   
  4   3   5  1   
  5   3  24  1   
  6   4   6  2   
  7   4   7  1   
  8   5  25  1   
  9   5  26  1   
 10   5  27  1   
 11   6   8  1   
 12   7   9  2   
 13   8   9  1   
 14   9  10  1   
 15  10  11  1   
 16  10  28  1   
 17  10  29  1   
 18  11  12  1   
 19  11  13  1   
 20  12  14  1   
 21  12  30  1   
 22  12  31  1   
 23  13  15  1   
 24  13  32  1   
 25  13  33  1   
 26  14  15  1   
 27  14  16  1   
 28  14  34  1   
 29  15  17  1   
 30  15  35  1   
 31  16  36  1   
 32  17  18  1   
 33  17  37  1   
 34  17  38  1   
 35  18  19  ar  
 36  18  20  ar  
 37  19  21  ar  
 38  20  22  ar  
 39  20  39  1   
 40  21  23  ar  
 41  21  40  1   
 42  22  23  ar  
 43  22  41  1   
 44  23  42  1   
@<TRIPOS>SUBSTRUCTURE
  1 ****  11 GROUP 4 **** **** 0

# MOE 2024.06 (io_trps.svl 2023.06)
