@<TRIPOS>MOLECULE
NONAME
48 49 1 0 0 
SMALL
USER_CHARGES


@<TRIPOS>ATOM
  1 F        1.9840     1.1240    -0.8490 F     1 <1>  -0.1900 
  2 C        2.3980    -0.0920    -0.6190 C.ar  1 <1>   0.1900 
  3 C        1.7960    -1.1340    -1.2980 C.ar  1 <1>  -0.1500 
  4 C        3.4160    -0.2910     0.2920 C.ar  1 <1>  -0.1500 
  5 C        2.2290    -2.4290    -1.0510 C.ar  1 <1>  -0.1440 
  6 C        3.8500    -1.5840     0.5350 C.ar  1 <1>  -0.1440 
  7 C        3.2570    -2.6430    -0.1380 C.ar  1 <1>  -0.1500 
  8 C        1.5830    -3.6000    -1.7660 C.3   1 <1>   0.4870 
  9 C        4.9740    -1.8370     1.5260 C.3   1 <1>  -0.0970 
 10 N        0.7270    -4.3350    -0.8020 N.4   1 <1>  -0.9590 
 11 C        0.2270    -5.6320    -1.3390 C.3   1 <1>   0.3430 
 12 C       -0.3900    -3.5160    -0.2570 C.3   1 <1>   0.3430 
 13 C       -0.3480    -6.4740    -0.1820 C.3   1 <1>   0.2000 
 14 C       -1.0760    -4.2730     0.8810 C.3   1 <1>  -0.1600 
 15 O        0.7320    -6.6990     0.6760 O.3   1 <1>  -0.6800 
 16 C       -1.4980    -5.7410     0.5770 C.3   1 <1>   0.0000 
 17 C       -1.7520    -6.4510     1.9400 C.3   1 <1>   0.1200 
 18 C       -2.8500    -5.8020    -0.2070 C.3   1 <1>  -0.1600 
 19 O       -2.7510    -5.8030     2.6540 O.3   1 <1>  -0.6800 
 20 C       -2.9000    -5.4180    -1.6960 C.3   1 <1>  -0.1600 
 21 C       -4.3460    -5.4140    -2.1990 C.3   1 <1>  -0.2400 
 22 H        1.0120    -0.9130    -2.0000 H     1 <1>   0.1500 
 23 H        3.8540     0.5540     0.7940 H     1 <1>   0.1500 
 24 H        3.6120    -3.6410     0.0560 H     1 <1>   0.1500 
 25 H        2.3540    -4.2500    -2.1460 H     1 <1>   0.0800 
 26 H        0.9930    -3.2460    -2.5950 H     1 <1>   0.0800 
 27 H        4.8110    -2.7580     2.0560 H     1 <1>   0.0800 
 28 H        5.0300    -1.0400     2.2460 H     1 <1>   0.0800 
 29 H        5.9130    -1.8970     1.0060 H     1 <1>   0.0800 
 30 H        1.3140    -4.5980     0.0050 H     1 <1>   0.4500 
 31 H       -0.5130    -5.4550    -2.0960 H     1 <1>   0.0800 
 32 H        1.0370    -6.1840    -1.7880 H     1 <1>   0.0800 
 33 H       -0.0100    -2.5820     0.1270 H     1 <1>   0.0800 
 34 H       -1.1000    -3.2910    -1.0350 H     1 <1>   0.0800 
 35 H       -0.6830    -7.4290    -0.5510 H     1 <1>   0.0800 
 36 H       -0.3930    -4.2710     1.7140 H     1 <1>   0.0800 
 37 H       -1.9340    -3.7070     1.1990 H     1 <1>   0.0800 
 38 H        0.5460    -7.4380     1.2940 H     1 <1>   0.4000 
 39 H       -0.8710    -6.4420     2.5590 H     1 <1>   0.0800 
 40 H       -2.0620    -7.4710     1.7890 H     1 <1>   0.0800 
 41 H       -3.2330    -6.8060    -0.1340 H     1 <1>   0.0800 
 42 H       -3.5630    -5.1800     0.3100 H     1 <1>   0.0800 
 43 H       -2.9390    -6.2590     3.4990 H     1 <1>   0.4000 
 44 H       -2.4930    -4.4380    -1.8570 H     1 <1>   0.0800 
 45 H       -2.3560    -6.1350    -2.2850 H     1 <1>   0.0800 
 46 H       -4.9350    -4.6930    -1.6590 H     1 <1>   0.0800 
 47 H       -4.7940    -6.3850    -2.0740 H     1 <1>   0.0800 
 48 H       -4.3760    -5.1600    -3.2450 H     1 <1>   0.0800 
@<TRIPOS>BOND
  1   1   2  1   
  2   2   3  ar  
  3   2   4  ar  
  4   3   5  ar  
  5   3  22  1   
  6   4   6  ar  
  7   4  23  1   
  8   5   7  ar  
  9   5   8  1   
 10   6   7  ar  
 11   6   9  1   
 12   7  24  1   
 13   8  10  1   
 14   8  25  1   
 15   8  26  1   
 16   9  27  1   
 17   9  28  1   
 18   9  29  1   
 19  10  11  1   
 20  10  12  1   
 21  10  30  1   
 22  11  13  1   
 23  11  31  1   
 24  11  32  1   
 25  12  14  1   
 26  12  33  1   
 27  12  34  1   
 28  13  15  1   
 29  13  16  1   
 30  13  35  1   
 31  14  16  1   
 32  14  36  1   
 33  14  37  1   
 34  15  38  1   
 35  16  17  1   
 36  16  18  1   
 37  17  19  1   
 38  17  39  1   
 39  17  40  1   
 40  18  20  1   
 41  18  41  1   
 42  18  42  1   
 43  19  43  1   
 44  20  21  1   
 45  20  44  1   
 46  20  45  1   
 47  21  46  1   
 48  21  47  1   
 49  21  48  1   
@<TRIPOS>SUBSTRUCTURE
  1 ****  12 GROUP 4 **** **** 0

# MOE 2024.06 (io_trps.svl 2023.06)
