@<TRIPOS>MOLECULE
NONAME
42 44 1 0 0 
SMALL
USER_CHARGES


@<TRIPOS>ATOM
  1 S        2.3490    -1.0960    -0.3850 S.3   1 <1>  -0.4600 
  2 C        2.4800     0.3570    -1.4570 C.3   1 <1>   0.0700 
  3 C        3.7610    -0.8130     0.7190 C.3   1 <1>   0.0700 
  4 C        2.3870     1.6140    -0.5850 C.3   1 <1>   0.3430 
  5 C        3.6050     0.5570     1.3950 C.3   1 <1>   0.3430 
  6 N        3.4870     1.6900     0.4220 N.4   1 <1>  -0.9590 
  7 C        3.5600     2.9850     1.1530 C.3   1 <1>   0.4860 
  8 C        3.4430     4.1990     0.2390 C.ar  1 <1>  -0.1440 
  9 C        4.2930     4.4420    -0.8410 C.ar  1 <1>   0.0820 
 10 C        2.4360     5.1130     0.5110 C.ar  1 <1>  -0.1500 
 11 O        5.2740     3.6010    -1.2220 O.3   1 <1>  -0.3630 
 12 C        4.1090     5.5720    -1.6190 C.ar  1 <1>  -0.1500 
 13 C        2.2360     6.2600    -0.2560 C.ar  1 <1>   0.0530 
 14 C        6.4570     3.4600    -0.4280 C.3   1 <1>   0.0140 
 15 C        3.0990     6.4670    -1.3310 C.ar  1 <1>  -0.1500 
 16 C        1.1700     7.1780     0.0670 C.2   1 <1>  -0.0130 
 17 C        6.4180     2.1700     0.3690 C.2   1 <1>   0.9060 
 18 S        1.2980     8.8700    -0.4310 S.3   1 <1>  -0.0800 
 19 C       -0.0010     7.0150     0.7330 C.2   1 <1>  -0.1500 
 20 O        6.4420     2.2140     1.6020 O.co2 1 <1>  -0.9000 
 21 O        6.0920     1.1250    -0.2060 O.co2 1 <1>  -0.9000 
 22 C       -0.2460     9.2780     0.2880 C.2   1 <1>  -0.1100 
 23 C       -0.7970     8.1920     0.8580 C.2   1 <1>  -0.1500 
 24 H        1.6710     0.3080    -2.1640 H     1 <1>   0.0800 
 25 H        3.4240     0.3060    -1.9720 H     1 <1>   0.0800 
 26 H        4.6590    -0.8600     0.1280 H     1 <1>   0.0800 
 27 H        3.7680    -1.6050     1.4450 H     1 <1>   0.0800 
 28 H        1.4340     1.6250    -0.0830 H     1 <1>   0.0800 
 29 H        2.4370     2.4760    -1.2310 H     1 <1>   0.0800 
 30 H        4.4790     0.7210     2.0090 H     1 <1>   0.0800 
 31 H        2.7400     0.5350     2.0350 H     1 <1>   0.0800 
 32 H        4.3970     1.6190    -0.1020 H     1 <1>   0.4500 
 33 H        4.4790     3.0500     1.7070 H     1 <1>   0.0800 
 34 H        2.7600     3.0200     1.8710 H     1 <1>   0.0800 
 35 H        1.7800     4.9490     1.3480 H     1 <1>   0.1500 
 36 H        4.7640     5.7420    -2.4550 H     1 <1>   0.1500 
 37 H        6.5460     4.3010     0.2330 H     1 <1>   0.0800 
 38 H        7.2980     3.4290    -1.0930 H     1 <1>   0.0800 
 39 H        2.9790     7.3330    -1.9570 H     1 <1>   0.1500 
 40 H       -0.3460     6.0860     1.1500 H     1 <1>   0.1500 
 41 H       -0.5800    10.2970     0.2070 H     1 <1>   0.1500 
 42 H       -1.7440     8.1710     1.3680 H     1 <1>   0.1500 
@<TRIPOS>BOND
  1   1   2  1   
  2   1   3  1   
  3   2   4  1   
  4   2  24  1   
  5   2  25  1   
  6   3   5  1   
  7   3  26  1   
  8   3  27  1   
  9   4   6  1   
 10   4  28  1   
 11   4  29  1   
 12   5   6  1   
 13   5  30  1   
 14   5  31  1   
 15   6   7  1   
 16   6  32  1   
 17   7   8  1   
 18   7  33  1   
 19   7  34  1   
 20   8   9  ar  
 21   8  10  ar  
 22   9  11  1   
 23   9  12  ar  
 24  10  13  ar  
 25  10  35  1   
 26  11  14  1   
 27  12  15  ar  
 28  12  36  1   
 29  13  15  ar  
 30  13  16  1   
 31  14  17  1   
 32  14  37  1   
 33  14  38  1   
 34  15  39  1   
 35  16  18  1   
 36  16  19  2   
 37  17  20  ar  
 38  17  21  ar  
 39  18  22  1   
 40  19  23  1   
 41  19  40  1   
 42  22  23  2   
 43  22  41  1   
 44  23  42  1   
@<TRIPOS>SUBSTRUCTURE
  1 ****   8 GROUP 4 **** **** 0

# MOE 2024.06 (io_trps.svl 2023.06)
