@<TRIPOS>MOLECULE
NONAME
49 51 1 0 0 
SMALL
USER_CHARGES


@<TRIPOS>ATOM
  1 O       -1.7700     0.3940    -1.9830 O.2   1 <1>  -0.5700 
  2 C       -1.5640     0.2970    -0.7970 C.2   1 <1>   0.5690 
  3 N       -1.7960    -0.8710    -0.1400 N.am  1 <1>  -0.7300 
  4 C       -1.0380     1.5360    -0.0210 C.3   1 <1>   0.3410 
  5 C       -2.2250    -2.1430    -0.7720 C.3   1 <1>   0.2200 
  6 O       -0.4010     1.1470     1.1670 O.3   1 <1>  -0.6800 
  7 C        0.0000     2.3340    -0.8320 C.3   1 <1>  -0.1600 
  8 C       -2.2030     2.4620     0.3760 C.3   1 <1>  -0.1600 
  9 C       -3.6650    -2.4860    -0.4070 C.3   1 <1>  -0.0800 
 10 C       -1.4910    -3.2900    -0.0930 C.3   1 <1>   0.1200 
 11 C        0.5340     3.5730    -0.1000 C.3   1 <1>   0.3430 
 12 C       -1.7900     3.9110     0.6620 C.3   1 <1>   0.3430 
 13 C       -3.5240    -3.2060     0.9410 C.3   1 <1>   0.1200 
 14 C       -4.6580    -1.3090    -0.3970 C.3   1 <1>  -0.0170 
 15 O       -2.1610    -3.4640     1.1160 O.3   1 <1>  -0.5600 
 16 N       -0.3540     3.9610     1.0370 N.4   1 <1>  -0.9590 
 17 C       -6.0760    -1.8000    -0.1510 C.ar  1 <1>  -0.1440 
 18 C        0.0400     5.2670     1.6430 C.3   1 <1>   0.2630 
 19 C       -6.6560    -1.7830     1.1010 C.ar  1 <1>  -0.1500 
 20 C       -6.8570    -2.2930    -1.1770 C.ar  1 <1>  -0.1500 
 21 C       -7.9490    -2.2520     1.2640 C.ar  1 <1>   0.1600 
 22 C       -8.1420    -2.7360    -0.9080 C.ar  1 <1>   0.1600 
 23 N       -8.7050    -2.7300     0.2890 N.ar  1 <1>  -0.6200 
 24 H       -1.7050    -0.9350     0.8800 H     1 <1>   0.3700 
 25 H       -2.0590    -2.1220    -1.8360 H     1 <1>   0.0800 
 26 H        0.1640     0.3640     0.9920 H     1 <1>   0.4000 
 27 H        0.8180     1.6980    -1.1190 H     1 <1>   0.0800 
 28 H       -0.4600     2.6630    -1.7480 H     1 <1>   0.0800 
 29 H       -2.9180     2.4900    -0.4270 H     1 <1>   0.0800 
 30 H       -2.7170     2.0510     1.2280 H     1 <1>   0.0800 
 31 H       -4.0170    -3.2110    -1.1200 H     1 <1>   0.0800 
 32 H       -0.4530    -3.0770     0.0910 H     1 <1>   0.0800 
 33 H       -1.5860    -4.2000    -0.6610 H     1 <1>   0.0800 
 34 H        0.6210     4.3880    -0.8000 H     1 <1>   0.0800 
 35 H        1.5180     3.3570     0.2840 H     1 <1>   0.0800 
 36 H       -2.4020     4.3080     1.4570 H     1 <1>   0.0800 
 37 H       -1.9490     4.5130    -0.2190 H     1 <1>   0.0800 
 38 H       -4.0590    -4.1410     0.9490 H     1 <1>   0.0800 
 39 H       -3.8490    -2.5950     1.7640 H     1 <1>   0.0800 
 40 H       -4.6180    -0.8020    -1.3460 H     1 <1>   0.0800 
 41 H       -4.3910    -0.5970     0.3640 H     1 <1>   0.0800 
 42 H       -0.2360     3.2010     1.7360 H     1 <1>   0.4500 
 43 H       -0.0790     6.0640     0.9270 H     1 <1>   0.0800 
 44 H        1.0700     5.2360     1.9590 H     1 <1>   0.0800 
 45 H       -0.5750     5.4800     2.5030 H     1 <1>   0.0800 
 46 H       -6.1180    -1.4120     1.9540 H     1 <1>   0.1500 
 47 H       -6.4820    -2.3360    -2.1830 H     1 <1>   0.1500 
 48 H       -8.3850    -2.2320     2.2480 H     1 <1>   0.1500 
 49 H       -8.7360    -3.1170    -1.7200 H     1 <1>   0.1500 
@<TRIPOS>BOND
  1   1   2  2   
  2   2   3  am  
  3   2   4  1   
  4   3   5  1   
  5   3  24  1   
  6   4   6  1   
  7   4   7  1   
  8   4   8  1   
  9   5   9  1   
 10   5  10  1   
 11   5  25  1   
 12   6  26  1   
 13   7  11  1   
 14   7  27  1   
 15   7  28  1   
 16   8  12  1   
 17   8  29  1   
 18   8  30  1   
 19   9  13  1   
 20   9  14  1   
 21   9  31  1   
 22  10  15  1   
 23  10  32  1   
 24  10  33  1   
 25  11  16  1   
 26  11  34  1   
 27  11  35  1   
 28  12  16  1   
 29  12  36  1   
 30  12  37  1   
 31  13  15  1   
 32  13  38  1   
 33  13  39  1   
 34  14  17  1   
 35  14  40  1   
 36  14  41  1   
 37  16  18  1   
 38  16  42  1   
 39  17  19  ar  
 40  17  20  ar  
 41  18  43  1   
 42  18  44  1   
 43  18  45  1   
 44  19  21  ar  
 45  19  46  1   
 46  20  22  ar  
 47  20  47  1   
 48  21  23  ar  
 49  21  48  1   
 50  22  23  ar  
 51  22  49  1   
@<TRIPOS>SUBSTRUCTURE
  1 ****   3 GROUP 4 **** **** 0

# MOE 2024.06 (io_trps.svl 2023.06)
