@<TRIPOS>MOLECULE
NONAME
60 63 1 0 0 
SMALL
USER_CHARGES


@<TRIPOS>ATOM
  1 O       -0.5040     2.5070     3.3380 O.co2 1 <1>  -0.9000 
  2 C       -1.0620     2.1580     2.2960 C.2   1 <1>   0.9060 
  3 O       -0.7390     1.1310     1.6710 O.co2 1 <1>  -0.9000 
  4 C       -2.3420     2.8800     1.8090 C.3   1 <1>   0.4600 
  5 N       -3.3490     1.8650     1.2880 N.4   1 <1>  -0.9590 
  6 C       -2.0560     3.9110     0.7140 C.ar  1 <1>  -0.1430 
  7 C       -4.4710     2.4500     0.5090 C.3   1 <1>   0.3430 
  8 C       -3.7730     0.9810     2.4060 C.3   1 <1>   0.3430 
  9 C       -2.7410     5.1220     0.7270 C.ar  1 <1>   0.0830 
 10 C       -1.1360     3.6550    -0.2940 C.ar  1 <1>  -0.1500 
 11 C       -5.3290     1.3290    -0.0700 C.3   1 <1>  -0.1600 
 12 C       -4.6070    -0.1700     1.8510 C.3   1 <1>  -0.1600 
 13 O       -3.6450     5.3220     1.7230 O.3   1 <1>  -0.3630 
 14 C       -2.5040     6.0650    -0.2680 C.ar  1 <1>  -0.1500 
 15 C       -0.8950     4.6000    -1.2850 C.ar  1 <1>   0.0830 
 16 C       -5.7900     0.3610     1.0300 C.3   1 <1>   0.1000 
 17 C       -3.9910     6.6350     2.1120 C.3   1 <1>   0.0400 
 18 C       -1.5860     5.7990    -1.2680 C.ar  1 <1>  -0.1500 
 19 O       -0.0020     4.4180    -2.2910 O.3   1 <1>  -0.3620 
 20 C       -6.6970    -0.7380     0.4840 C.2   1 <1>   0.0060 
 21 C        0.9910     3.4190    -2.1940 C.3   1 <1>   0.0400 
 22 N       -7.9560    -0.7270     0.7480 N.2   1 <1>  -0.3380 
 23 N       -6.3660    -1.7910    -0.2880 N.pl3 1 <1>   0.0480 
 24 N       -8.4960    -1.7850     0.1560 N.2   1 <1>  -0.3380 
 25 C       -7.5480    -2.4080    -0.4520 C.2   1 <1>   0.0060 
 26 C       -5.0290    -2.1910    -0.8060 C.3   1 <1>   0.0960 
 27 C       -7.8070    -3.6830    -1.2410 C.3   1 <1>   0.0200 
 28 C       -5.0990    -2.8760    -2.1770 C.3   1 <1>  -0.1600 
 29 C       -6.6530    -4.6900    -1.1590 C.3   1 <1>  -0.1600 
 30 C       -5.4870    -4.3620    -2.1060 C.3   1 <1>  -0.1600 
 31 H       -2.7510     3.3900     2.6620 H     1 <1>   0.0800 
 32 H       -2.7330     1.2890     0.6890 H     1 <1>   0.4500 
 33 H       -4.0890     3.0590    -0.2950 H     1 <1>   0.0800 
 34 H       -5.0670     3.0790     1.1520 H     1 <1>   0.0800 
 35 H       -4.3520     1.5450     3.1180 H     1 <1>   0.0800 
 36 H       -2.9060     0.5810     2.9110 H     1 <1>   0.0800 
 37 H       -0.6060     2.7190    -0.3040 H     1 <1>   0.1500 
 38 H       -4.7690     0.8180    -0.8290 H     1 <1>   0.0800 
 39 H       -6.1940     1.7600    -0.5430 H     1 <1>   0.0800 
 40 H       -4.9790    -0.7590     2.6700 H     1 <1>   0.0800 
 41 H       -3.9650    -0.7980     1.2630 H     1 <1>   0.0800 
 42 H       -3.0240     7.0040    -0.2860 H     1 <1>   0.1500 
 43 H       -6.3980     0.9380     1.7090 H     1 <1>   0.0800 
 44 H       -4.5540     6.5770     3.0270 H     1 <1>   0.0800 
 45 H       -4.5930     7.0840     1.3430 H     1 <1>   0.0800 
 46 H       -3.0900     7.2010     2.2750 H     1 <1>   0.0800 
 47 H       -1.3940     6.5220    -2.0410 H     1 <1>   0.1500 
 48 H        1.6750     3.5460    -3.0140 H     1 <1>   0.0800 
 49 H        0.5250     2.4520    -2.2540 H     1 <1>   0.0800 
 50 H        1.5140     3.5340    -1.2600 H     1 <1>   0.0800 
 51 H       -4.5610    -2.8420    -0.0900 H     1 <1>   0.0800 
 52 H       -4.4230    -1.3130    -0.9040 H     1 <1>   0.0800 
 53 H       -8.0200    -3.4370    -2.2660 H     1 <1>   0.0800 
 54 H       -8.6910    -4.1440    -0.8360 H     1 <1>   0.0800 
 55 H       -4.1300    -2.8120    -2.6410 H     1 <1>   0.0800 
 56 H       -5.7850    -2.3380    -2.8100 H     1 <1>   0.0800 
 57 H       -7.0270    -5.6670    -1.4100 H     1 <1>   0.0800 
 58 H       -6.3040    -4.7380    -0.1420 H     1 <1>   0.0800 
 59 H       -4.6310    -4.9390    -1.7990 H     1 <1>   0.0800 
 60 H       -5.7440    -4.6880    -3.1000 H     1 <1>   0.0800 
@<TRIPOS>BOND
  1   1   2  ar  
  2   2   3  ar  
  3   2   4  1   
  4   4   5  1   
  5   4   6  1   
  6   4  31  1   
  7   5   7  1   
  8   5   8  1   
  9   5  32  1   
 10   6   9  ar  
 11   6  10  ar  
 12   7  11  1   
 13   7  33  1   
 14   7  34  1   
 15   8  12  1   
 16   8  35  1   
 17   8  36  1   
 18   9  13  1   
 19   9  14  ar  
 20  10  15  ar  
 21  10  37  1   
 22  11  16  1   
 23  11  38  1   
 24  11  39  1   
 25  12  16  1   
 26  12  40  1   
 27  12  41  1   
 28  13  17  1   
 29  14  18  ar  
 30  14  42  1   
 31  15  18  ar  
 32  15  19  1   
 33  16  20  1   
 34  16  43  1   
 35  17  44  1   
 36  17  45  1   
 37  17  46  1   
 38  18  47  1   
 39  19  21  1   
 40  20  22  2   
 41  20  23  1   
 42  21  48  1   
 43  21  49  1   
 44  21  50  1   
 45  22  24  1   
 46  23  25  1   
 47  23  26  1   
 48  24  25  2   
 49  25  27  1   
 50  26  28  1   
 51  26  51  1   
 52  26  52  1   
 53  27  29  1   
 54  27  53  1   
 55  27  54  1   
 56  28  30  1   
 57  28  55  1   
 58  28  56  1   
 59  29  30  1   
 60  29  57  1   
 61  29  58  1   
 62  30  59  1   
 63  30  60  1   
@<TRIPOS>SUBSTRUCTURE
  1 ****   5 GROUP 4 **** **** 0

# MOE 2024.06 (io_trps.svl 2023.06)
