@<TRIPOS>MOLECULE
NONAME
50 51 1 0 0 
SMALL
USER_CHARGES


@<TRIPOS>ATOM
  1 F       -0.0360     1.1390     0.3930 F     1 <1>  -0.3400 
  2 C        1.0470     0.3950     0.5890 C.3   1 <1>   1.0200 
  3 F        1.7580     1.0210     1.5190 F     1 <1>  -0.3400 
  4 F        1.7580     0.4630    -0.5310 F     1 <1>  -0.3400 
  5 C        0.7140    -1.0640     1.0190 C.3   1 <1>   0.1100 
  6 N        0.1030    -2.0050     0.0200 N.3   1 <1>  -0.8100 
  7 C        0.0880    -3.3870     0.5410 C.3   1 <1>   0.1100 
  8 C       -1.2580    -1.5900    -0.3990 C.3   1 <1>   0.1100 
  9 C       -0.4760    -4.3760    -0.4950 C.3   1 <1>   0.1400 
 10 C       -1.8630    -2.5570    -1.4310 C.3   1 <1>   0.1400 
 11 N       -1.8490    -3.9650    -0.9220 N.am  1 <1>  -0.6600 
 12 C       -2.9960    -4.7190    -0.9100 C.2   1 <1>   0.5690 
 13 O       -4.0330    -4.2900    -1.3570 O.2   1 <1>  -0.5700 
 14 C       -3.0230    -6.1540    -0.3640 C.3   1 <1>  -0.0190 
 15 C       -2.6830    -7.1500    -1.4890 C.3   1 <1>  -0.1600 
 16 C       -4.3890    -6.5120     0.2620 C.3   1 <1>  -0.1600 
 17 C       -2.8250    -8.6050    -1.0440 C.3   1 <1>   0.3430 
 18 C       -4.4710    -7.9780     0.6740 C.3   1 <1>   0.3430 
 19 N       -4.1990    -8.8360    -0.5160 N.4   1 <1>  -0.9590 
 20 C       -4.4050   -10.2940    -0.2270 C.3   1 <1>   0.3430 
 21 C       -5.8740   -10.6540     0.0290 C.3   1 <1>   0.1200 
 22 O       -5.9240   -12.0220     0.2450 O.3   1 <1>  -0.5600 
 23 C       -7.2040   -12.5260     0.4750 C.3   1 <1>   0.0400 
 24 H        0.0750    -1.0060     1.8820 H     1 <1>   0.0800 
 25 H        1.6470    -1.4900     1.3410 H     1 <1>   0.0800 
 26 H       -0.5070    -3.4350     1.4370 H     1 <1>   0.0800 
 27 H        1.0930    -3.6830     0.7870 H     1 <1>   0.0800 
 28 H       -1.2190    -0.6150    -0.8500 H     1 <1>   0.0800 
 29 H       -1.9090    -1.5390     0.4570 H     1 <1>   0.0800 
 30 H       -0.4650    -5.3650    -0.0820 H     1 <1>   0.0800 
 31 H        0.1710    -4.3750    -1.3560 H     1 <1>   0.0800 
 32 H       -1.2900    -2.5040    -2.3400 H     1 <1>   0.0800 
 33 H       -2.8660    -2.2400    -1.6580 H     1 <1>   0.0800 
 34 H       -2.2940    -6.2420     0.4180 H     1 <1>   0.0800 
 35 H       -1.6740    -6.9820    -1.8230 H     1 <1>   0.0800 
 36 H       -3.3290    -6.9750    -2.3330 H     1 <1>   0.0800 
 37 H       -5.1870    -6.3080    -0.4320 H     1 <1>   0.0800 
 38 H       -4.5560    -5.8910     1.1250 H     1 <1>   0.0800 
 39 H       -2.0980    -8.8240    -0.2780 H     1 <1>   0.0800 
 40 H       -2.6380    -9.2550    -1.8840 H     1 <1>   0.0800 
 41 H       -5.4550    -8.1800     1.0660 H     1 <1>   0.0800 
 42 H       -3.7480    -8.1820     1.4480 H     1 <1>   0.0800 
 43 H       -4.8550    -8.5530    -1.2580 H     1 <1>   0.4500 
 44 H       -3.8240   -10.5810     0.6340 H     1 <1>   0.0800 
 45 H       -4.0680   -10.8760    -1.0700 H     1 <1>   0.0800 
 46 H       -6.4810   -10.4240    -0.8300 H     1 <1>   0.0800 
 47 H       -6.2520   -10.1610     0.9070 H     1 <1>   0.0800 
 48 H       -7.1240   -13.5880     0.6290 H     1 <1>   0.0800 
 49 H       -7.8250   -12.3340    -0.3830 H     1 <1>   0.0800 
 50 H       -7.6190   -12.0660     1.3560 H     1 <1>   0.0800 
@<TRIPOS>BOND
  1   1   2  1   
  2   2   3  1   
  3   2   4  1   
  4   2   5  1   
  5   5   6  1   
  6   5  24  1   
  7   5  25  1   
  8   6   7  1   
  9   6   8  1   
 10   7   9  1   
 11   7  26  1   
 12   7  27  1   
 13   8  10  1   
 14   8  28  1   
 15   8  29  1   
 16   9  11  1   
 17   9  30  1   
 18   9  31  1   
 19  10  11  1   
 20  10  32  1   
 21  10  33  1   
 22  11  12  am  
 23  12  13  2   
 24  12  14  1   
 25  14  15  1   
 26  14  16  1   
 27  14  34  1   
 28  15  17  1   
 29  15  35  1   
 30  15  36  1   
 31  16  18  1   
 32  16  37  1   
 33  16  38  1   
 34  17  19  1   
 35  17  39  1   
 36  17  40  1   
 37  18  19  1   
 38  18  41  1   
 39  18  42  1   
 40  19  20  1   
 41  19  43  1   
 42  20  21  1   
 43  20  44  1   
 44  20  45  1   
 45  21  22  1   
 46  21  46  1   
 47  21  47  1   
 48  22  23  1   
 49  23  48  1   
 50  23  49  1   
 51  23  50  1   
@<TRIPOS>SUBSTRUCTURE
  1 ****  12 GROUP 4 **** **** 0

# MOE 2024.06 (io_trps.svl 2023.06)
