@<TRIPOS>MOLECULE
NONAME
34 36 1 0 0 
SMALL
USER_CHARGES


@<TRIPOS>ATOM
  1 O        0.2630    -0.2040     1.3160 O.2   1 <1>  -0.5700 
  2 C        1.1940    -0.7220     0.7270 C.2   1 <1>   0.7150 
  3 N        2.2380     0.0350     0.2820 N.am  1 <1>  -0.4930 
  4 C        1.2380    -2.1340     0.4850 C.2   1 <1>  -0.2370 
  5 C        2.4670     1.4300     0.3830 C.2   1 <1>   0.0630 
  6 N        0.1230    -2.9040     0.2660 N.pl3 1 <1>   0.2940 
  7 C        2.3350    -2.9610     0.4260 C.2   1 <1>  -0.1500 
  8 C        3.5110     2.1100    -0.1410 C.2   1 <1>  -0.3320 
  9 C        1.7000     2.4030     1.0260 C.2   1 <1>   0.1390 
 10 C        0.5330    -4.1830     0.0810 C.2   1 <1>  -0.3020 
 11 C       -1.2890    -2.4520     0.1940 C.3   1 <1>  -0.0910 
 12 C        1.8870    -4.2520     0.1720 C.2   1 <1>  -0.1500 
 13 N        3.3320     3.4120     0.1960 N.pl3 1 <1>   0.3140 
 14 C        4.6920     1.6030    -0.9580 C.3   1 <1>  -0.0600 
 15 N        2.2140     3.5910     0.9160 N.2   1 <1>  -0.7070 
 16 C       -2.2240    -3.0150    -0.8370 C.3   1 <1>  -0.2000 
 17 C       -1.7230    -1.6110    -0.9700 C.3   1 <1>  -0.2000 
 18 C        4.2000     4.5470    -0.1410 C.3   1 <1>   0.0160 
 19 H        2.9420    -0.4810    -0.2360 H     1 <1>   0.3700 
 20 H        3.3690    -2.6920     0.5610 H     1 <1>   0.1500 
 21 H        0.7840     2.2000     1.5550 H     1 <1>   0.1500 
 22 H       -0.1620    -4.9810    -0.1060 H     1 <1>   0.1500 
 23 H       -1.6730    -2.1980     1.1670 H     1 <1>   0.1000 
 24 H        2.5090    -5.1260     0.0730 H     1 <1>   0.1500 
 25 H        4.6270     0.5400    -1.1060 H     1 <1>   0.0800 
 26 H        5.6140     1.8180    -0.4480 H     1 <1>   0.0800 
 27 H        4.7060     2.0790    -1.9220 H     1 <1>   0.0800 
 28 H       -3.2580    -3.1590    -0.5780 H     1 <1>   0.1000 
 29 H       -1.8650    -3.7510    -1.5360 H     1 <1>   0.1000 
 30 H       -1.0090    -1.3830    -1.7420 H     1 <1>   0.1000 
 31 H       -2.4050    -0.7990    -0.7860 H     1 <1>   0.1000 
 32 H        5.1770     4.3800     0.2720 H     1 <1>   0.0800 
 33 H        3.7820     5.4450     0.2760 H     1 <1>   0.0800 
 34 H        4.2610     4.6410    -1.2080 H     1 <1>   0.0800 
@<TRIPOS>BOND
  1   1   2  2   
  2   2   3  am  
  3   2   4  1   
  4   3   5  1   
  5   3  19  1   
  6   4   6  1   
  7   4   7  2   
  8   5   8  2   
  9   5   9  1   
 10   6  10  1   
 11   6  11  1   
 12   7  12  1   
 13   7  20  1   
 14   8  13  1   
 15   8  14  1   
 16   9  15  2   
 17   9  21  1   
 18  10  12  2   
 19  10  22  1   
 20  11  16  1   
 21  11  17  1   
 22  11  23  1   
 23  12  24  1   
 24  13  15  1   
 25  13  18  1   
 26  14  25  1   
 27  14  26  1   
 28  14  27  1   
 29  16  17  1   
 30  16  28  1   
 31  16  29  1   
 32  17  30  1   
 33  17  31  1   
 34  18  32  1   
 35  18  33  1   
 36  18  34  1   
@<TRIPOS>SUBSTRUCTURE
  1 ****   2 GROUP 4 **** **** 0

# MOE 2024.06 (io_trps.svl 2023.06)
