@<TRIPOS>MOLECULE
NONAME
46 49 1 0 0 
SMALL
USER_CHARGES


@<TRIPOS>ATOM
  1 F        1.9150     0.7040    -2.5420 F     1 <1>  -0.1900 
  2 C        2.2720     1.5540    -1.6010 C.ar  1 <1>   0.1900 
  3 C        3.4490     1.3840    -0.8730 C.ar  1 <1>   0.4100 
  4 C        1.4770     2.6350    -1.3420 C.ar  1 <1>   0.1600 
  5 N        3.7700     2.2630     0.0580 N.ar  1 <1>  -0.6200 
  6 N        4.3320     0.3270    -1.0650 N.pl3 1 <1>  -0.8380 
  7 N        1.7980     3.5200    -0.4170 N.ar  1 <1>  -0.6200 
  8 C        2.9250     3.2640     0.2350 C.ar  1 <1>   0.7200 
  9 C        3.8330    -1.0730    -0.8990 C.3   1 <1>   0.2090 
 10 C        5.7800     0.4500    -0.6970 C.3   1 <1>   0.2090 
 11 N        3.3130     4.1400     1.1800 N.pl3 1 <1>  -0.8690 
 12 C        4.2250    -1.6380     0.4800 C.3   1 <1>   0.1200 
 13 C        6.0560    -0.1900     0.6750 C.3   1 <1>   0.1200 
 14 C        3.6470     5.5030     0.7640 C.3   1 <1>   0.3890 
 15 O        5.6030    -1.5160     0.7050 O.3   1 <1>  -0.5600 
 16 C        5.1440     5.5290     0.5310 C.2   1 <1>  -0.3320 
 17 N        5.7520     4.6170    -0.2890 N.pl3 1 <1>   0.0330 
 18 C        6.0830     6.3630     1.0400 C.2   1 <1>  -0.1500 
 19 C        7.0990     4.8720    -0.2970 C.ar  1 <1>  -0.1520 
 20 C        7.3380     5.9650     0.5280 C.ar  1 <1>   0.0000 
 21 C        8.1440     4.2270    -0.9610 C.ar  1 <1>  -0.1500 
 22 C        8.6450     6.4320     0.7000 C.ar  1 <1>  -0.1500 
 23 C        9.4250     4.6950    -0.7830 C.ar  1 <1>  -0.1500 
 24 C        9.6830     5.7950     0.0460 C.ar  1 <1>   0.0830 
 25 O       10.9900     6.1670     0.1460 O.3   1 <1>  -0.3630 
 26 C       11.3570     7.2810     0.9280 C.3   1 <1>   0.0400 
 27 H        0.5680     2.7820    -1.8990 H     1 <1>   0.1500 
 28 H        4.2550    -1.6940    -1.6700 H     1 <1>   0.0800 
 29 H        2.7630    -1.1060    -0.9970 H     1 <1>   0.0800 
 30 H        6.0780     1.4830    -0.6780 H     1 <1>   0.0800 
 31 H        6.3760    -0.0470    -1.4420 H     1 <1>   0.0800 
 32 H        4.0900     3.7530     1.7120 H     1 <1>   0.4000 
 33 H        3.9740    -2.6820     0.5380 H     1 <1>   0.0800 
 34 H        3.7030    -1.1120     1.2610 H     1 <1>   0.0800 
 35 H        5.5600     0.3640     1.4520 H     1 <1>   0.0800 
 36 H        7.1130    -0.1980     0.8750 H     1 <1>   0.0800 
 37 H        3.3730     6.1960     1.5410 H     1 <1>   0.0800 
 38 H        3.1200     5.7700    -0.1380 H     1 <1>   0.0800 
 39 H        5.2850     3.8150    -0.7320 H     1 <1>   0.2700 
 40 H        5.9490     7.1890     1.7160 H     1 <1>   0.1500 
 41 H        7.9430     3.3850    -1.5980 H     1 <1>   0.1500 
 42 H        8.7950     7.2760     1.3430 H     1 <1>   0.1500 
 43 H       10.2560     4.2250    -1.2770 H     1 <1>   0.1500 
 44 H       12.4230     7.4020     0.8560 H     1 <1>   0.0800 
 45 H       11.0780     7.0980     1.9500 H     1 <1>   0.0800 
 46 H       10.8640     8.1560     0.5430 H     1 <1>   0.0800 
@<TRIPOS>BOND
  1   1   2  1   
  2   2   3  ar  
  3   2   4  ar  
  4   3   5  ar  
  5   3   6  1   
  6   4   7  ar  
  7   4  27  1   
  8   5   8  ar  
  9   6   9  1   
 10   6  10  1   
 11   7   8  ar  
 12   8  11  1   
 13   9  12  1   
 14   9  28  1   
 15   9  29  1   
 16  10  13  1   
 17  10  30  1   
 18  10  31  1   
 19  11  14  1   
 20  11  32  1   
 21  12  15  1   
 22  12  33  1   
 23  12  34  1   
 24  13  15  1   
 25  13  35  1   
 26  13  36  1   
 27  14  16  1   
 28  14  37  1   
 29  14  38  1   
 30  16  17  1   
 31  16  18  2   
 32  17  19  1   
 33  17  39  1   
 34  18  20  1   
 35  18  40  1   
 36  19  20  ar  
 37  19  21  ar  
 38  20  22  ar  
 39  21  23  ar  
 40  21  41  1   
 41  22  24  ar  
 42  22  42  1   
 43  23  24  ar  
 44  23  43  1   
 45  24  25  1   
 46  25  26  1   
 47  26  44  1   
 48  26  45  1   
 49  26  46  1   
@<TRIPOS>SUBSTRUCTURE
  1 ****  17 GROUP 4 **** **** 0

# MOE 2024.06 (io_trps.svl 2023.06)
