@<TRIPOS>MOLECULE
NONAME
50 52 1 0 0 
SMALL
USER_CHARGES


@<TRIPOS>ATOM
  1 F       -1.1500     0.8080    -0.5690 F     1 <1>  -0.1900 
  2 C       -0.9160     2.0760    -0.3350 C.ar  1 <1>   0.1900 
  3 C        0.0760     2.4450     0.5580 C.ar  1 <1>   0.1900 
  4 C       -1.6870     3.0240    -0.9860 C.ar  1 <1>  -0.1440 
  5 F        0.7770     1.5180     1.1610 F     1 <1>  -0.1900 
  6 C        0.3320     3.7810     0.8290 C.ar  1 <1>  -0.1440 
  7 C       -1.4340     4.3650    -0.7200 C.ar  1 <1>  -0.1500 
  8 C       -2.7670     2.5960    -1.9590 C.3   1 <1>   0.4870 
  9 C       -0.4380     4.7350     0.1750 C.ar  1 <1>  -0.1500 
 10 C        1.4210     4.1960     1.8080 C.3   1 <1>  -0.0970 
 11 N       -4.0890     2.6710    -1.2870 N.4   1 <1>  -0.9590 
 12 C       -4.2490     1.7130    -0.1630 C.3   1 <1>   0.3430 
 13 C       -5.2330     2.5940    -2.2360 C.3   1 <1>   0.3430 
 14 C       -5.4490     2.1250     0.6950 C.3   1 <1>  -0.1600 
 15 C       -6.5750     2.6010    -1.4930 C.3   1 <1>  -0.1600 
 16 C       -6.4640     3.0430    -0.0190 C.3   1 <1>   0.2800 
 17 O       -5.8750     4.3320    -0.0470 O.3   1 <1>  -0.5600 
 18 C       -7.8280     3.0240     0.7390 C.3   1 <1>   0.2000 
 19 C       -6.5530     5.4040     0.5510 C.3   1 <1>   0.1200 
 20 O       -8.4680     1.7890     0.5900 O.3   1 <1>  -0.6800 
 21 C       -8.7750     4.2140     0.3950 C.3   1 <1>   0.2800 
 22 C       -7.9760     5.4650    -0.0050 C.3   1 <1>  -0.1600 
 23 O       -9.4510     4.5180     1.5600 O.3   1 <1>  -0.6800 
 24 C       -9.8730     3.9220    -0.6390 C.3   1 <1>  -0.2400 
 25 H       -2.0050     5.1390    -1.2070 H     1 <1>   0.1500 
 26 H       -2.5830     1.5910    -2.3020 H     1 <1>   0.0800 
 27 H       -2.7510     3.2540    -2.8120 H     1 <1>   0.0800 
 28 H       -0.2610     5.7820     0.3620 H     1 <1>   0.1500 
 29 H        1.4810     5.2660     1.8930 H     1 <1>   0.0800 
 30 H        2.3750     3.8270     1.4740 H     1 <1>   0.0800 
 31 H        1.2170     3.7860     2.7810 H     1 <1>   0.0800 
 32 H       -4.1830     3.6030    -0.8400 H     1 <1>   0.4500 
 33 H       -4.4050     0.7210    -0.5550 H     1 <1>   0.0800 
 34 H       -3.3650     1.6970     0.4540 H     1 <1>   0.0800 
 35 H       -5.1990     3.4450    -2.8970 H     1 <1>   0.0800 
 36 H       -5.1620     1.7000    -2.8350 H     1 <1>   0.0800 
 37 H       -5.1040     2.6070     1.5920 H     1 <1>   0.0800 
 38 H       -5.9370     1.2170     1.0050 H     1 <1>   0.0800 
 39 H       -6.9840     1.6070    -1.5330 H     1 <1>   0.0800 
 40 H       -7.2580     3.2360    -2.0230 H     1 <1>   0.0800 
 41 H       -7.5880     3.1020     1.7860 H     1 <1>   0.0800 
 42 H       -6.5520     5.2710     1.6210 H     1 <1>   0.0800 
 43 H       -6.0160     6.3070     0.3140 H     1 <1>   0.0800 
 44 H       -9.2960     1.8040     1.1140 H     1 <1>   0.4000 
 45 H       -7.9030     5.5340    -1.0750 H     1 <1>   0.0800 
 46 H       -8.4670     6.3570     0.3390 H     1 <1>   0.0800 
 47 H      -10.1430     5.1830     1.3790 H     1 <1>   0.4000 
 48 H       -9.4420     3.5950    -1.5660 H     1 <1>   0.0800 
 49 H      -10.4530     4.8050    -0.8370 H     1 <1>   0.0800 
 50 H      -10.5320     3.1460    -0.2910 H     1 <1>   0.0800 
@<TRIPOS>BOND
  1   1   2  1   
  2   2   3  ar  
  3   2   4  ar  
  4   3   5  1   
  5   3   6  ar  
  6   4   7  ar  
  7   4   8  1   
  8   6   9  ar  
  9   6  10  1   
 10   7   9  ar  
 11   7  25  1   
 12   8  11  1   
 13   8  26  1   
 14   8  27  1   
 15   9  28  1   
 16  10  29  1   
 17  10  30  1   
 18  10  31  1   
 19  11  12  1   
 20  11  13  1   
 21  11  32  1   
 22  12  14  1   
 23  12  33  1   
 24  12  34  1   
 25  13  15  1   
 26  13  35  1   
 27  13  36  1   
 28  14  16  1   
 29  14  37  1   
 30  14  38  1   
 31  15  16  1   
 32  15  39  1   
 33  15  40  1   
 34  16  17  1   
 35  16  18  1   
 36  17  19  1   
 37  18  20  1   
 38  18  21  1   
 39  18  41  1   
 40  19  22  1   
 41  19  42  1   
 42  19  43  1   
 43  20  44  1   
 44  21  22  1   
 45  21  23  1   
 46  21  24  1   
 47  22  45  1   
 48  22  46  1   
 49  23  47  1   
 50  24  48  1   
 51  24  49  1   
 52  24  50  1   
@<TRIPOS>SUBSTRUCTURE
  1 ****  11 GROUP 4 **** **** 0

# MOE 2024.06 (io_trps.svl 2023.06)
