@<TRIPOS>MOLECULE
NONAME
39 40 1 0 0 
SMALL
USER_CHARGES


@<TRIPOS>ATOM
  1 O        0.3130     0.2770    -0.2640 O.2   1 <1>  -0.5700 
  2 C        0.3000    -0.9370    -0.2130 C.2   1 <1>   0.7800 
  3 O        1.4140    -1.6300    -0.0480 O.3   1 <1>  -0.4300 
  4 N       -0.8380    -1.6550    -0.3150 N.am  1 <1>  -0.7300 
  5 C        2.6520    -0.9640     0.0540 C.3   1 <1>   0.2630 
  6 C       -2.1300    -1.1020    -0.7260 C.3   1 <1>   0.2200 
  7 C        3.7490    -2.0060     0.1990 C.ar  1 <1>  -0.1440 
  8 C       -2.7680    -0.3880     0.4700 C.3   1 <1>  -0.1600 
  9 C       -3.0280    -2.2320    -1.2390 C.3   1 <1>  -0.1600 
 10 C        4.1420    -2.4390     1.4570 C.ar  1 <1>  -0.1500 
 11 C        4.3670    -2.5330    -0.9250 C.ar  1 <1>  -0.1500 
 12 C       -4.1370     0.1620     0.0790 C.3   1 <1>   0.4230 
 13 C       -4.4300    -1.7130    -1.5940 C.3   1 <1>  -0.1600 
 14 C        5.1440    -3.3840     1.5900 C.ar  1 <1>  -0.1500 
 15 C        5.3700    -3.4780    -0.7930 C.ar  1 <1>  -0.1500 
 16 N       -4.7430     0.8100     1.2510 N.4   1 <1>  -0.8530 
 17 C       -5.0630    -0.9550    -0.4160 C.3   1 <1>  -0.1600 
 18 C        5.7600    -3.9040     0.4640 C.ar  1 <1>  -0.1500 
 19 H       -0.7280    -2.6700    -0.3320 H     1 <1>   0.3700 
 20 H        2.7990    -0.3760    -0.8360 H     1 <1>   0.0800 
 21 H        2.6230    -0.3140     0.9110 H     1 <1>   0.0800 
 22 H       -1.9620    -0.3930    -1.5220 H     1 <1>   0.0800 
 23 H       -2.8630    -1.0870     1.2820 H     1 <1>   0.0800 
 24 H       -2.1280     0.4230     0.7700 H     1 <1>   0.0800 
 25 H       -2.5840    -2.6730    -2.1150 H     1 <1>   0.0800 
 26 H       -3.1160    -2.9970    -0.4860 H     1 <1>   0.0800 
 27 H        3.6670    -2.0440     2.3380 H     1 <1>   0.1500 
 28 H        4.0680    -2.2110    -1.9070 H     1 <1>   0.1500 
 29 H       -4.0090     0.8870    -0.7110 H     1 <1>   0.0800 
 30 H       -4.3610    -1.0620    -2.4510 H     1 <1>   0.0800 
 31 H       -5.0600    -2.5430    -1.8720 H     1 <1>   0.0800 
 32 H        5.4450    -3.7160     2.5680 H     1 <1>   0.1500 
 33 H        5.8460    -3.8830    -1.6690 H     1 <1>   0.1500 
 34 H       -4.8700     0.1300     2.0080 H     1 <1>   0.4500 
 35 H       -5.6580     1.2090     1.0150 H     1 <1>   0.4500 
 36 H       -4.1380     1.5630     1.5950 H     1 <1>   0.4500 
 37 H       -5.2540    -1.6570     0.3770 H     1 <1>   0.0800 
 38 H       -6.0020    -0.5400    -0.7400 H     1 <1>   0.0800 
 39 H        6.5390    -4.6380     0.5670 H     1 <1>   0.1500 
@<TRIPOS>BOND
  1   1   2  2   
  2   2   3  1   
  3   2   4  am  
  4   3   5  1   
  5   4   6  1   
  6   4  19  1   
  7   5   7  1   
  8   5  20  1   
  9   5  21  1   
 10   6   8  1   
 11   6   9  1   
 12   6  22  1   
 13   7  10  ar  
 14   7  11  ar  
 15   8  12  1   
 16   8  23  1   
 17   8  24  1   
 18   9  13  1   
 19   9  25  1   
 20   9  26  1   
 21  10  14  ar  
 22  10  27  1   
 23  11  15  ar  
 24  11  28  1   
 25  12  16  1   
 26  12  17  1   
 27  12  29  1   
 28  13  17  1   
 29  13  30  1   
 30  13  31  1   
 31  14  18  ar  
 32  14  32  1   
 33  15  18  ar  
 34  15  33  1   
 35  16  34  1   
 36  16  35  1   
 37  16  36  1   
 38  17  37  1   
 39  17  38  1   
 40  18  39  1   
@<TRIPOS>SUBSTRUCTURE
  1 ****   2 GROUP 4 **** **** 0

# MOE 2024.06 (io_trps.svl 2023.06)
