@<TRIPOS>MOLECULE
NONAME
47 48 1 0 0 
SMALL
USER_CHARGES


@<TRIPOS>ATOM
  1 CL       1.7340    -1.2240     0.5920 Cl    1 <1>  -0.1770 
  2 C        0.9890    -2.7670     0.2590 C.ar  1 <1>   0.1770 
  3 C        0.2580    -2.9290    -0.9020 C.ar  1 <1>  -0.1500 
  4 C        1.1420    -3.8020     1.1610 C.ar  1 <1>  -0.1500 
  5 C       -0.3330    -4.1550    -1.1630 C.ar  1 <1>  -0.1500 
  6 C        0.5490    -5.0250     0.8950 C.ar  1 <1>  -0.1500 
  7 C       -0.1900    -5.2050    -0.2670 C.ar  1 <1>  -0.1430 
  8 C       -0.8450    -6.5450    -0.5590 C.3   1 <1>  -0.0160 
  9 C       -2.2940    -6.5530    -0.0630 C.3   1 <1>  -0.0990 
 10 C       -2.9480    -7.8880    -0.3330 C.2   1 <1>   0.5690 
 11 O       -3.3450    -8.1340    -1.4440 O.2   1 <1>  -0.5700 
 12 N       -3.0750    -8.7720     0.6840 N.am  1 <1>  -0.7300 
 13 C       -3.6790   -10.1160     0.5400 C.3   1 <1>   0.2200 
 14 C       -5.1990   -10.0020     0.6830 C.3   1 <1>  -0.0800 
 15 C       -3.2850   -11.0100     1.7130 C.3   1 <1>   0.1200 
 16 C       -5.5050   -10.7690     1.9770 C.3   1 <1>   0.1200 
 17 C       -5.9690   -10.4300    -0.5880 C.3   1 <1>  -0.0550 
 18 O       -4.2930   -10.8290     2.6540 O.3   1 <1>  -0.5600 
 19 S       -5.9050   -12.1650    -1.0640 S.o2  1 <1>   1.3330 
 20 O       -4.6030   -12.7010    -0.7320 O.2   1 <1>  -0.6500 
 21 O       -6.4080   -12.3000    -2.4110 O.2   1 <1>  -0.6500 
 22 N       -7.0460   -12.8970    -0.0390 N.am  1 <1>  -0.8490 
 23 C       -6.7270   -14.3020     0.2350 C.3   1 <1>   0.1160 
 24 C       -8.4250   -12.7910    -0.5300 C.3   1 <1>   0.1160 
 25 H        0.1540    -2.1090    -1.5890 H     1 <1>   0.1500 
 26 H        1.7170    -3.6490     2.0560 H     1 <1>   0.1500 
 27 H       -0.9040    -4.2870    -2.0660 H     1 <1>   0.1500 
 28 H        0.6660    -5.8340     1.5950 H     1 <1>   0.1500 
 29 H       -0.8270    -6.7350    -1.6190 H     1 <1>   0.0800 
 30 H       -0.2920    -7.3350    -0.0800 H     1 <1>   0.0800 
 31 H       -2.8530    -5.7900    -0.5730 H     1 <1>   0.0800 
 32 H       -2.3210    -6.3390     0.9890 H     1 <1>   0.0800 
 33 H       -2.8480    -8.5090     1.6450 H     1 <1>   0.3700 
 34 H       -3.3670   -10.5500    -0.3960 H     1 <1>   0.0800 
 35 H       -5.4580    -8.9740     0.8660 H     1 <1>   0.0800 
 36 H       -2.3330   -10.7520     2.1410 H     1 <1>   0.0800 
 37 H       -3.2870   -12.0460     1.4190 H     1 <1>   0.0800 
 38 H       -5.8200   -11.7800     1.8030 H     1 <1>   0.0800 
 39 H       -6.2270   -10.2640     2.5940 H     1 <1>   0.0800 
 40 H       -5.5750    -9.8500    -1.4020 H     1 <1>   0.0800 
 41 H       -6.9960   -10.1420    -0.4770 H     1 <1>   0.0800 
 42 H       -7.4630   -14.7330     0.8910 H     1 <1>   0.0800 
 43 H       -5.7660   -14.3750     0.7160 H     1 <1>   0.0800 
 44 H       -6.6970   -14.8640    -0.6840 H     1 <1>   0.0800 
 45 H       -9.1100   -13.1830     0.2030 H     1 <1>   0.0800 
 46 H       -8.5420   -13.3420    -1.4490 H     1 <1>   0.0800 
 47 H       -8.6780   -11.7610    -0.7130 H     1 <1>   0.0800 
@<TRIPOS>BOND
  1   1   2  1   
  2   2   3  ar  
  3   2   4  ar  
  4   3   5  ar  
  5   3  25  1   
  6   4   6  ar  
  7   4  26  1   
  8   5   7  ar  
  9   5  27  1   
 10   6   7  ar  
 11   6  28  1   
 12   7   8  1   
 13   8   9  1   
 14   8  29  1   
 15   8  30  1   
 16   9  10  1   
 17   9  31  1   
 18   9  32  1   
 19  10  11  2   
 20  10  12  am  
 21  12  13  1   
 22  12  33  1   
 23  13  14  1   
 24  13  15  1   
 25  13  34  1   
 26  14  16  1   
 27  14  17  1   
 28  14  35  1   
 29  15  18  1   
 30  15  36  1   
 31  15  37  1   
 32  16  18  1   
 33  16  38  1   
 34  16  39  1   
 35  17  19  1   
 36  17  40  1   
 37  17  41  1   
 38  19  20  2   
 39  19  21  2   
 40  19  22  am  
 41  22  23  1   
 42  22  24  1   
 43  23  42  1   
 44  23  43  1   
 45  23  44  1   
 46  24  45  1   
 47  24  46  1   
 48  24  47  1   
@<TRIPOS>SUBSTRUCTURE
  1 ****  12 GROUP 4 **** **** 0

# MOE 2024.06 (io_trps.svl 2023.06)
