@<TRIPOS>MOLECULE
NONAME
40 41 1 0 0 
SMALL
USER_CHARGES


@<TRIPOS>ATOM
  1 F       -0.0020     3.0510    -0.4050 F     1 <1>  -0.1900 
  2 C        1.3010     3.0770    -0.3290 C.ar  1 <1>   0.1900 
  3 C        1.9010     2.8680     0.8980 C.ar  1 <1>  -0.1500 
  4 C        2.0320     3.3120    -1.4770 C.ar  1 <1>  -0.1500 
  5 C        3.2840     2.8980     0.9720 C.ar  1 <1>  -0.1500 
  6 C        3.4140     3.3390    -1.3900 C.ar  1 <1>  -0.1500 
  7 C        4.0430     3.1330    -0.1680 C.ar  1 <1>  -0.1430 
  8 C        5.5590     3.1680    -0.0720 C.3   1 <1>  -0.0160 
  9 C        6.0270     4.5420     0.4230 C.3   1 <1>  -0.1600 
 10 C        7.5610     4.6300     0.4940 C.3   1 <1>  -0.0990 
 11 C        8.0330     5.9520     1.0700 C.2   1 <1>   0.5690 
 12 O        8.5210     5.9510     2.1700 O.2   1 <1>  -0.5700 
 13 N        7.8730     7.0700     0.3020 N.am  1 <1>  -0.4940 
 14 C        8.2260     8.3960     0.5780 C.2   1 <1>   0.2040 
 15 O        8.8540     8.7420     1.6760 O.3   1 <1>  -0.0190 
 16 C        8.0260     9.5160    -0.1470 C.2   1 <1>  -0.1810 
 17 N        9.0850    10.0300     1.7210 N.2   1 <1>  -0.4100 
 18 C        8.5980    10.5180     0.6370 C.2   1 <1>   0.1080 
 19 C        7.3490     9.6940    -1.4960 C.3   1 <1>  -0.0590 
 20 C        8.6580    11.9970     0.2950 C.3   1 <1>   0.0210 
 21 C        9.8810    12.3180    -0.5710 C.3   1 <1>  -0.2400 
 22 H        1.2980     2.6880     1.7690 H     1 <1>   0.1500 
 23 H        1.5280     3.4680    -2.4130 H     1 <1>   0.1500 
 24 H        3.7670     2.7390     1.9210 H     1 <1>   0.1500 
 25 H        3.9950     3.5210    -2.2770 H     1 <1>   0.1500 
 26 H        5.9890     2.9580    -1.0360 H     1 <1>   0.0800 
 27 H        5.8910     2.4020     0.6080 H     1 <1>   0.0800 
 28 H        5.6190     4.7200     1.4040 H     1 <1>   0.0800 
 29 H        5.6440     5.3030    -0.2350 H     1 <1>   0.0800 
 30 H        7.9890     4.5010    -0.4830 H     1 <1>   0.0800 
 31 H        7.9350     3.8400     1.1210 H     1 <1>   0.0800 
 32 H        7.4190     6.9260    -0.5930 H     1 <1>   0.3700 
 33 H        7.0000     8.7520    -1.8750 H     1 <1>   0.0800 
 34 H        8.0420    10.1140    -2.2020 H     1 <1>   0.0800 
 35 H        6.5070    10.3570    -1.3980 H     1 <1>   0.0800 
 36 H        8.7120    12.5610     1.2100 H     1 <1>   0.0800 
 37 H        7.7590    12.2860    -0.2170 H     1 <1>   0.0800 
 38 H       10.7800    12.0420    -0.0490 H     1 <1>   0.0800 
 39 H        9.9160    13.3710    -0.7880 H     1 <1>   0.0800 
 40 H        9.8400    11.7730    -1.4970 H     1 <1>   0.0800 
@<TRIPOS>BOND
  1   1   2  1   
  2   2   3  ar  
  3   2   4  ar  
  4   3   5  ar  
  5   3  22  1   
  6   4   6  ar  
  7   4  23  1   
  8   5   7  ar  
  9   5  24  1   
 10   6   7  ar  
 11   6  25  1   
 12   7   8  1   
 13   8   9  1   
 14   8  26  1   
 15   8  27  1   
 16   9  10  1   
 17   9  28  1   
 18   9  29  1   
 19  10  11  1   
 20  10  30  1   
 21  10  31  1   
 22  11  12  2   
 23  11  13  am  
 24  13  14  1   
 25  13  32  1   
 26  14  15  1   
 27  14  16  2   
 28  15  17  1   
 29  16  18  1   
 30  16  19  1   
 31  17  18  2   
 32  18  20  1   
 33  19  33  1   
 34  19  34  1   
 35  19  35  1   
 36  20  21  1   
 37  20  36  1   
 38  20  37  1   
 39  21  38  1   
 40  21  39  1   
 41  21  40  1   
@<TRIPOS>SUBSTRUCTURE
  1 ****   9 GROUP 4 **** **** 0

# MOE 2024.06 (io_trps.svl 2023.06)
