@<TRIPOS>MOLECULE
NONAME
47 50 1 0 0 
SMALL
USER_CHARGES


@<TRIPOS>ATOM
  1 O        2.0930    -0.7990     1.8120 O.2   1 <1>  -0.5700 
  2 C        2.5670    -0.4830     0.7430 C.2   1 <1>   0.7800 
  3 O        2.8820    -1.3840    -0.1760 O.3   1 <1>  -0.4300 
  4 N        2.8930     0.7720     0.3610 N.am  1 <1>  -0.6600 
  5 C        3.5050    -0.7730    -1.2880 C.3   1 <1>   0.1200 
  6 C        3.5980     0.7170    -0.9280 C.3   1 <1>   0.2200 
  7 C        3.2380     1.8450     1.3330 C.3   1 <1>   0.1400 
  8 C        5.0450     1.2250    -0.7720 C.3   1 <1>   0.2090 
  9 C        3.9400     3.0340     0.6480 C.3   1 <1>   0.2090 
 10 N        5.1080     2.6240    -0.2150 N.pl3 1 <1>  -0.8380 
 11 C        6.2900     3.2970    -0.1920 C.ar  1 <1>   0.4100 
 12 N        7.3560     2.5630     0.0540 N.ar  1 <1>  -0.6200 
 13 C        6.3780     4.7000    -0.4100 C.ar  1 <1>  -0.1430 
 14 C        8.5220     3.1700     0.1810 C.ar  1 <1>   0.7710 
 15 C        7.5940     5.2960    -0.2470 C.ar  1 <1>   0.2180 
 16 C        5.1420     5.4870    -0.8600 C.3   1 <1>  -0.0970 
 17 N        8.6440     4.4980     0.0540 N.ar  1 <1>  -0.1790 
 18 N        9.6280     2.4340     0.4520 N.pl3 1 <1>  -0.8380 
 19 C        7.8920     6.7840    -0.3830 C.3   1 <1>  -0.0970 
 20 C       11.0410     2.8860     0.5690 C.3   1 <1>   0.2090 
 21 C        9.5470     0.9610     0.6630 C.3   1 <1>   0.2090 
 22 C       11.8660     1.6070     0.5800 C.3   1 <1>  -0.1600 
 23 C       10.9290     0.5510     1.1540 C.3   1 <1>  -0.1600 
 24 H        2.8840    -0.9280    -2.1530 H     1 <1>   0.0800 
 25 H        4.4690    -1.2250    -1.4390 H     1 <1>   0.0800 
 26 H        3.0820     1.3100    -1.6620 H     1 <1>   0.0800 
 27 H        3.8880     1.4390     2.0890 H     1 <1>   0.0800 
 28 H        2.3380     2.1820     1.8170 H     1 <1>   0.0800 
 29 H        5.5390     1.2040    -1.7290 H     1 <1>   0.0800 
 30 H        5.5780     0.5620    -0.1110 H     1 <1>   0.0800 
 31 H        4.2740     3.7210     1.4060 H     1 <1>   0.0800 
 32 H        3.2150     3.5420     0.0360 H     1 <1>   0.0800 
 33 H        4.5170     4.8760    -1.4880 H     1 <1>   0.0800 
 34 H        5.4040     6.3500    -1.4440 H     1 <1>   0.0800 
 35 H        4.5690     5.8070    -0.0080 H     1 <1>   0.0800 
 36 H        9.5780     4.8590     0.1890 H     1 <1>   0.4570 
 37 H        7.0010     7.3780    -0.2920 H     1 <1>   0.0800 
 38 H        8.3400     6.9860    -1.3400 H     1 <1>   0.0800 
 39 H        8.5660     7.1080     0.3910 H     1 <1>   0.0800 
 40 H       11.1760     3.4090     1.5020 H     1 <1>   0.0800 
 41 H       11.3320     3.5140    -0.2570 H     1 <1>   0.0800 
 42 H        9.3260     0.4780    -0.2740 H     1 <1>   0.0800 
 43 H        8.7870     0.7080     1.3850 H     1 <1>   0.0800 
 44 H       12.7660     1.7120     1.1600 H     1 <1>   0.0800 
 45 H       12.1320     1.3480    -0.4310 H     1 <1>   0.0800 
 46 H       11.1860    -0.4440     0.8350 H     1 <1>   0.0800 
 47 H       10.9450     0.5880     2.2290 H     1 <1>   0.0800 
@<TRIPOS>BOND
  1   1   2  2   
  2   2   3  1   
  3   2   4  am  
  4   3   5  1   
  5   4   6  1   
  6   4   7  1   
  7   5   6  1   
  8   5  24  1   
  9   5  25  1   
 10   6   8  1   
 11   6  26  1   
 12   7   9  1   
 13   7  27  1   
 14   7  28  1   
 15   8  10  1   
 16   8  29  1   
 17   8  30  1   
 18   9  10  1   
 19   9  31  1   
 20   9  32  1   
 21  10  11  1   
 22  11  12  ar  
 23  11  13  ar  
 24  12  14  ar  
 25  13  15  ar  
 26  13  16  1   
 27  14  17  ar  
 28  14  18  1   
 29  15  17  ar  
 30  15  19  1   
 31  16  33  1   
 32  16  34  1   
 33  16  35  1   
 34  17  36  1   
 35  18  20  1   
 36  18  21  1   
 37  19  37  1   
 38  19  38  1   
 39  19  39  1   
 40  20  22  1   
 41  20  40  1   
 42  20  41  1   
 43  21  23  1   
 44  21  42  1   
 45  21  43  1   
 46  22  23  1   
 47  22  44  1   
 48  22  45  1   
 49  23  46  1   
 50  23  47  1   
@<TRIPOS>SUBSTRUCTURE
  1 ****  12 GROUP 4 **** **** 0

# MOE 2024.06 (io_trps.svl 2023.06)
