@<TRIPOS>MOLECULE
NONAME
49 52 1 0 0 
SMALL
USER_CHARGES


@<TRIPOS>ATOM
  1 O       -2.8380     0.8940    -1.7340 O.2   1 <1>  -0.5700 
  2 C       -2.6540    -0.1340    -1.1300 C.2   1 <1>   0.5690 
  3 N       -2.3260    -0.1080     0.1790 N.am  1 <1>  -0.7300 
  4 C       -2.7560    -1.4630    -1.8530 C.3   1 <1>  -0.0190 
  5 C       -2.1690    -1.3320     1.0080 C.3   1 <1>   0.2200 
  6 C       -1.4100    -2.2070    -1.8110 C.3   1 <1>   0.1200 
  7 C       -3.9410    -2.3250    -1.3700 C.3   1 <1>   0.1100 
  8 C       -0.9550    -2.1530     0.5220 C.3   1 <1>   0.1200 
  9 C       -3.4640    -2.1910     1.0730 C.3   1 <1>   0.1100 
 10 O       -1.2280    -2.9130    -0.6200 O.3   1 <1>  -0.5600 
 11 N       -4.4440    -1.9710    -0.0230 N.3   1 <1>  -0.8100 
 12 C       -5.7700    -2.5450     0.2610 C.3   1 <1>   0.2530 
 13 C       -5.7620    -4.0650     0.2780 C.ar  1 <1>  -0.1430 
 14 C       -5.5020    -4.7780     1.4240 C.ar  1 <1>   0.1600 
 15 C       -6.0330    -4.8000    -0.8510 C.ar  1 <1>   0.1600 
 16 N       -5.4960    -6.0870     1.4540 N.ar  1 <1>  -0.6200 
 17 N       -6.0380    -6.1100    -0.8560 N.ar  1 <1>  -0.6200 
 18 C       -5.7620    -6.7060     0.3040 C.ar  1 <1>   0.7200 
 19 N       -5.7550    -8.0840     0.3150 N.pl3 1 <1>  -0.8380 
 20 C       -5.1200    -8.8430     1.4330 C.3   1 <1>   0.2090 
 21 C       -6.3690    -8.8690    -0.7960 C.3   1 <1>   0.2090 
 22 C       -4.6080   -10.1980     0.9360 C.3   1 <1>  -0.1600 
 23 C       -6.8570   -10.2280    -0.2830 C.3   1 <1>  -0.1600 
 24 C       -5.7270   -11.0690     0.3350 C.3   1 <1>  -0.1600 
 25 H       -2.4010     0.7930     0.6500 H     1 <1>   0.3700 
 26 H       -2.9320    -1.2350    -2.8880 H     1 <1>   0.0800 
 27 H       -1.9390    -1.0140     2.0090 H     1 <1>   0.0800 
 28 H       -0.5850    -1.5290    -1.9490 H     1 <1>   0.0800 
 29 H       -1.3850    -2.9350    -2.6030 H     1 <1>   0.0800 
 30 H       -3.6690    -3.3680    -1.3970 H     1 <1>   0.0800 
 31 H       -4.7450    -2.1820    -2.0720 H     1 <1>   0.0800 
 32 H       -0.6780    -2.8520     1.2910 H     1 <1>   0.0800 
 33 H       -0.1110    -1.5150     0.3290 H     1 <1>   0.0800 
 34 H       -3.9470    -1.9570     2.0050 H     1 <1>   0.0800 
 35 H       -3.1950    -3.2340     1.1110 H     1 <1>   0.0800 
 36 H       -6.1180    -2.1740     1.2100 H     1 <1>   0.0800 
 37 H       -6.4650    -2.1980    -0.4840 H     1 <1>   0.0800 
 38 H       -5.2920    -4.2590     2.3430 H     1 <1>   0.1500 
 39 H       -6.2510    -4.2990    -1.7780 H     1 <1>   0.1500 
 40 H       -4.2940    -8.2800     1.8350 H     1 <1>   0.0800 
 41 H       -5.8460    -8.9850     2.2150 H     1 <1>   0.0800 
 42 H       -7.2030    -8.3280    -1.2110 H     1 <1>   0.0800 
 43 H       -5.6360    -9.0090    -1.5720 H     1 <1>   0.0800 
 44 H       -3.8570   -10.0120     0.1890 H     1 <1>   0.0800 
 45 H       -4.1350   -10.7240     1.7460 H     1 <1>   0.0800 
 46 H       -7.6160   -10.0450     0.4580 H     1 <1>   0.0800 
 47 H       -7.3160   -10.7730    -1.0880 H     1 <1>   0.0800 
 48 H       -6.1460   -11.6990     1.1010 H     1 <1>   0.0800 
 49 H       -5.2980   -11.7090    -0.4160 H     1 <1>   0.0800 
@<TRIPOS>BOND
  1   1   2  2   
  2   2   3  am  
  3   2   4  1   
  4   3   5  1   
  5   3  25  1   
  6   4   6  1   
  7   4   7  1   
  8   4  26  1   
  9   5   8  1   
 10   5   9  1   
 11   5  27  1   
 12   6  10  1   
 13   6  28  1   
 14   6  29  1   
 15   7  11  1   
 16   7  30  1   
 17   7  31  1   
 18   8  10  1   
 19   8  32  1   
 20   8  33  1   
 21   9  11  1   
 22   9  34  1   
 23   9  35  1   
 24  11  12  1   
 25  12  13  1   
 26  12  36  1   
 27  12  37  1   
 28  13  14  ar  
 29  13  15  ar  
 30  14  16  ar  
 31  14  38  1   
 32  15  17  ar  
 33  15  39  1   
 34  16  18  ar  
 35  17  18  ar  
 36  18  19  1   
 37  19  20  1   
 38  19  21  1   
 39  20  22  1   
 40  20  40  1   
 41  20  41  1   
 42  21  23  1   
 43  21  42  1   
 44  21  43  1   
 45  22  24  1   
 46  22  44  1   
 47  22  45  1   
 48  23  24  1   
 49  23  46  1   
 50  23  47  1   
 51  24  48  1   
 52  24  49  1   
@<TRIPOS>SUBSTRUCTURE
  1 ****  13 GROUP 4 **** **** 0

# MOE 2024.06 (io_trps.svl 2023.06)
