@<TRIPOS>MOLECULE
NONAME
45 46 1 0 0 
SMALL
USER_CHARGES


@<TRIPOS>ATOM
  1 O       -0.3970    -0.0210    -0.4720 O.2   1 <1>  -0.5700 
  2 C        0.6650    -0.5930    -0.3590 C.2   1 <1>   0.5690 
  3 N        1.8700     0.0540    -0.4930 N.am  1 <1>  -0.4940 
  4 C        0.6610    -2.1080    -0.0450 C.3   1 <1>   0.3170 
  5 C        2.1690     1.4160    -0.7400 C.2   1 <1>  -0.0880 
  6 N        2.0350    -2.6630    -0.3200 N.pl3 1 <1>   0.0480 
  7 C        0.2810    -2.3310     1.4340 C.3   1 <1>  -0.2400 
  8 C       -0.3710    -2.8610    -0.9150 C.3   1 <1>  -0.2400 
  9 N        3.2040     1.8340    -1.5200 N.pl3 1 <1>   0.3140 
 10 C        1.5590     2.5410    -0.2910 C.2   1 <1>  -0.1810 
 11 C        3.0640    -2.8130     0.5680 C.2   1 <1>  -0.3020 
 12 C        2.5540    -2.9570    -1.5490 C.2   1 <1>  -0.3020 
 13 N        3.2620     3.1820    -1.5910 N.2   1 <1>  -0.7070 
 14 C        4.1470     0.9890    -2.2840 C.3   1 <1>   0.0960 
 15 C        2.2760     3.5900    -0.8550 C.2   1 <1>   0.1390 
 16 C        0.3640     2.6980     0.6300 C.3   1 <1>  -0.0590 
 17 C        4.1880    -3.2090    -0.0810 C.2   1 <1>  -0.1500 
 18 C        3.8620    -3.3030    -1.4340 C.2   1 <1>  -0.1500 
 19 C        5.2070     0.3120    -1.3890 C.3   1 <1>  -0.0800 
 20 C        6.0500     1.3350    -0.6140 C.3   1 <1>  -0.2400 
 21 C        6.1300    -0.5620    -2.2470 C.3   1 <1>  -0.2400 
 22 H        2.6800    -0.5750    -0.4690 H     1 <1>   0.3700 
 23 H        0.9200    -1.7590     2.0820 H     1 <1>   0.0800 
 24 H        0.3460    -3.3730     1.6900 H     1 <1>   0.0800 
 25 H       -0.7290    -2.0010     1.6050 H     1 <1>   0.0800 
 26 H       -0.2200    -2.6470    -1.9570 H     1 <1>   0.0800 
 27 H       -1.3680    -2.5430    -0.6640 H     1 <1>   0.0800 
 28 H       -0.3010    -3.9220    -0.7520 H     1 <1>   0.0800 
 29 H        2.9610    -2.6360     1.6250 H     1 <1>   0.1500 
 30 H        1.9750    -2.9100    -2.4540 H     1 <1>   0.1500 
 31 H        4.6320     1.6130    -3.0120 H     1 <1>   0.0800 
 32 H        3.5770     0.2440    -2.8080 H     1 <1>   0.0800 
 33 H        2.0480     4.6310    -0.7040 H     1 <1>   0.1500 
 34 H        0.3060     1.8670     1.3080 H     1 <1>   0.0800 
 35 H       -0.5390     2.7320     0.0470 H     1 <1>   0.0800 
 36 H        0.4490     3.6040     1.2020 H     1 <1>   0.0800 
 37 H        5.1580    -3.4180     0.3390 H     1 <1>   0.1500 
 38 H        4.5420    -3.5980    -2.2160 H     1 <1>   0.1500 
 39 H        4.7090    -0.3290    -0.6830 H     1 <1>   0.0800 
 40 H        6.5390     2.0140    -1.2900 H     1 <1>   0.0800 
 41 H        6.7980     0.8370    -0.0240 H     1 <1>   0.0800 
 42 H        5.4300     1.9110     0.0520 H     1 <1>   0.0800 
 43 H        6.6790     0.0410    -2.9500 H     1 <1>   0.0800 
 44 H        5.5580    -1.2900    -2.7940 H     1 <1>   0.0800 
 45 H        6.8330    -1.0860    -1.6240 H     1 <1>   0.0800 
@<TRIPOS>BOND
  1   1   2  2   
  2   2   3  am  
  3   2   4  1   
  4   3   5  1   
  5   3  22  1   
  6   4   6  1   
  7   4   7  1   
  8   4   8  1   
  9   5   9  1   
 10   5  10  2   
 11   6  11  1   
 12   6  12  1   
 13   7  23  1   
 14   7  24  1   
 15   7  25  1   
 16   8  26  1   
 17   8  27  1   
 18   8  28  1   
 19   9  13  1   
 20   9  14  1   
 21  10  15  1   
 22  10  16  1   
 23  11  17  2   
 24  11  29  1   
 25  12  18  2   
 26  12  30  1   
 27  13  15  2   
 28  14  19  1   
 29  14  31  1   
 30  14  32  1   
 31  15  33  1   
 32  16  34  1   
 33  16  35  1   
 34  16  36  1   
 35  17  18  1   
 36  17  37  1   
 37  18  38  1   
 38  19  20  1   
 39  19  21  1   
 40  19  39  1   
 41  20  40  1   
 42  20  41  1   
 43  20  42  1   
 44  21  43  1   
 45  21  44  1   
 46  21  45  1   
@<TRIPOS>SUBSTRUCTURE
  1 ****   3 GROUP 4 **** **** 0

# MOE 2024.06 (io_trps.svl 2023.06)
