@<TRIPOS>MOLECULE
NONAME
49 51 1 0 0 
SMALL
USER_CHARGES


@<TRIPOS>ATOM
  1 S       -0.8430     0.3990     1.3420 S.o2  1 <1>   1.4470 
  2 O       -1.6120     1.5280     1.8200 O.2   1 <1>  -0.6500 
  3 O       -0.7320    -0.7760     2.1810 O.2   1 <1>  -0.6500 
  4 N       -1.4980    -0.0630    -0.1540 N.am  1 <1>  -0.8490 
  5 C        0.8210     0.9750     0.8980 C.ar  1 <1>  -0.0090 
  6 C       -0.8410    -1.2200    -0.8040 C.3   1 <1>   0.1960 
  7 C       -2.9570    -0.1240    -0.2070 C.3   1 <1>   0.1960 
  8 C        1.0230     1.8190    -0.1860 C.ar  1 <1>  -0.1500 
  9 C        1.9340     0.5920     1.6330 C.ar  1 <1>  -0.1500 
 10 C       -1.6760    -2.5270    -0.8720 C.3   1 <1>  -0.1060 
 11 C       -3.4940    -1.3500     0.5380 C.3   1 <1>  -0.1600 
 12 C        2.2860     2.2690    -0.5400 C.ar  1 <1>  -0.1440 
 13 C        3.2010     1.0330     1.2940 C.ar  1 <1>  -0.1500 
 14 C       -2.4820    -2.5270    -2.1800 C.2   1 <1>   0.9060 
 15 C       -2.6030    -2.5920     0.3690 C.3   1 <1>   0.2000 
 16 C       -0.7310    -3.7610    -0.9430 C.3   1 <1>  -0.0650 
 17 C        3.3870     1.8720     0.2090 C.ar  1 <1>  -0.1440 
 18 C        2.4290     3.1880    -1.7450 C.3   1 <1>  -0.0970 
 19 O       -3.6650    -2.9020    -2.1870 O.co2 1 <1>  -0.9000 
 20 O       -1.9220    -2.1880    -3.2290 O.co2 1 <1>  -0.9000 
 21 O       -3.4320    -3.6940     0.2820 O.3   1 <1>  -0.6800 
 22 C        0.2100    -3.9730     0.2580 C.3   1 <1>  -0.1950 
 23 C        4.7940     2.3380    -0.1360 C.3   1 <1>  -0.0970 
 24 C        1.5940    -3.4050     0.2980 C.3   1 <1>  -0.2000 
 25 C        1.3910    -4.8800     0.1170 C.3   1 <1>  -0.2000 
 26 H       -0.5470    -0.9240    -1.7970 H     1 <1>   0.0800 
 27 H        0.0740    -1.4150    -0.2810 H     1 <1>   0.0800 
 28 H       -3.3860     0.7750     0.2020 H     1 <1>   0.0800 
 29 H       -3.2590    -0.1780    -1.2410 H     1 <1>   0.0800 
 30 H        0.1630     2.1210    -0.7610 H     1 <1>   0.1500 
 31 H        1.8080    -0.0620     2.4790 H     1 <1>   0.1500 
 32 H       -4.4840    -1.5460     0.1660 H     1 <1>   0.0800 
 33 H       -3.5740    -1.1220     1.5840 H     1 <1>   0.0800 
 34 H        4.0420     0.7150     1.8860 H     1 <1>   0.1500 
 35 H       -2.0150    -2.7080     1.2610 H     1 <1>   0.0800 
 36 H       -1.3380    -4.6440    -1.0480 H     1 <1>   0.0800 
 37 H       -0.1410    -3.6890    -1.8410 H     1 <1>   0.0800 
 38 H        1.4740     3.3840    -2.1970 H     1 <1>   0.0800 
 39 H        3.0620     2.7300    -2.4830 H     1 <1>   0.0800 
 40 H        2.8600     4.1260    -1.4440 H     1 <1>   0.0800 
 41 H       -3.8080    -3.6510    -0.6450 H     1 <1>   0.4000 
 42 H       -0.3240    -4.0610     1.1890 H     1 <1>   0.1000 
 43 H        5.5150     1.9300     0.5490 H     1 <1>   0.0800 
 44 H        4.8500     3.4100    -0.0850 H     1 <1>   0.0800 
 45 H        5.0550     2.0190    -1.1290 H     1 <1>   0.0800 
 46 H        1.9560    -2.8350    -0.5400 H     1 <1>   0.1000 
 47 H        1.9590    -3.0320     1.2390 H     1 <1>   0.1000 
 48 H        1.6280    -5.5420     0.9320 H     1 <1>   0.1000 
 49 H        1.5980    -5.3170    -0.8450 H     1 <1>   0.1000 
@<TRIPOS>BOND
  1   1   2  2   
  2   1   3  2   
  3   1   4  am  
  4   1   5  1   
  5   4   6  1   
  6   4   7  1   
  7   5   8  ar  
  8   5   9  ar  
  9   6  10  1   
 10   6  26  1   
 11   6  27  1   
 12   7  11  1   
 13   7  28  1   
 14   7  29  1   
 15   8  12  ar  
 16   8  30  1   
 17   9  13  ar  
 18   9  31  1   
 19  10  14  1   
 20  10  15  1   
 21  10  16  1   
 22  11  15  1   
 23  11  32  1   
 24  11  33  1   
 25  12  17  ar  
 26  12  18  1   
 27  13  17  ar  
 28  13  34  1   
 29  14  19  ar  
 30  14  20  ar  
 31  15  21  1   
 32  15  35  1   
 33  16  22  1   
 34  16  36  1   
 35  16  37  1   
 36  17  23  1   
 37  18  38  1   
 38  18  39  1   
 39  18  40  1   
 40  21  41  1   
 41  22  24  1   
 42  22  25  1   
 43  22  42  1   
 44  23  43  1   
 45  23  44  1   
 46  23  45  1   
 47  24  25  1   
 48  24  46  1   
 49  24  47  1   
 50  25  48  1   
 51  25  49  1   
@<TRIPOS>SUBSTRUCTURE
  1 ****   6 GROUP 4 **** **** 0

# MOE 2024.06 (io_trps.svl 2023.06)
