@<TRIPOS>MOLECULE
NONAME
50 53 1 0 0 
SMALL
USER_CHARGES


@<TRIPOS>ATOM
  1 O       -1.7450     0.0800     0.9770 O.2   1 <1>  -0.5700 
  2 C       -2.4550     0.7420     0.2330 C.2   1 <1>   0.5440 
  3 N       -3.7040     0.2690    -0.1620 N.am  1 <1>  -0.2980 
  4 C       -2.0330     2.0240    -0.2640 C.ar  1 <1>   0.0860 
  5 N       -4.5500     0.9480    -1.0070 N.2   1 <1>  -0.5120 
  6 C       -4.1980    -1.0440     0.3310 C.3   1 <1>   0.1400 
  7 C       -2.9070     2.7090    -1.1190 C.ar  1 <1>   0.0860 
  8 C       -0.8070     2.6130     0.0620 C.ar  1 <1>  -0.1500 
  9 C       -4.1540     2.0900    -1.4420 C.2   1 <1>   0.3040 
 10 C       -3.8190    -2.1540    -0.6500 C.3   1 <1>   0.1400 
 11 C       -2.5310     3.9600    -1.6210 C.ar  1 <1>  -0.1500 
 12 C       -0.4520     3.8460    -0.4410 C.ar  1 <1>  -0.1500 
 13 N       -4.5400    -3.4080    -0.3110 N.am  1 <1>  -0.7300 
 14 C       -1.3190     4.5230    -1.2870 C.ar  1 <1>  -0.1500 
 15 C       -3.9740    -4.5750     0.1110 C.2   1 <1>   0.5690 
 16 O       -2.7730    -4.6690     0.2210 O.2   1 <1>  -0.5700 
 17 C       -4.9010    -5.7750     0.4450 C.3   1 <1>   0.2040 
 18 C       -6.3410    -5.2590     0.6820 C.ar  1 <1>  -0.1430 
 19 C       -4.3890    -6.5770     1.6600 C.3   1 <1>  -0.1600 
 20 C       -4.8250    -6.8370    -0.6690 C.3   1 <1>  -0.1600 
 21 C       -6.6850    -4.7070     1.9120 C.ar  1 <1>  -0.1500 
 22 C       -7.3080    -5.2840    -0.3180 C.ar  1 <1>  -0.1500 
 23 C       -3.3750    -7.6020     1.1360 C.3   1 <1>  -0.1600 
 24 C       -3.5800    -7.6760    -0.3780 C.3   1 <1>  -0.1600 
 25 C       -7.9570    -4.2130     2.1420 C.ar  1 <1>  -0.1500 
 26 C       -8.5810    -4.7910    -0.0910 C.ar  1 <1>  -0.1500 
 27 C       -8.9080    -4.2560     1.1410 C.ar  1 <1>  -0.1500 
 28 H       -5.2680    -0.9900     0.4210 H     1 <1>   0.0800 
 29 H       -3.7820    -1.2560     1.3010 H     1 <1>   0.0800 
 30 H       -0.1360     2.0850     0.7190 H     1 <1>   0.1500 
 31 H       -4.8020     2.6370    -2.1030 H     1 <1>   0.0600 
 32 H       -2.7550    -2.3170    -0.6120 H     1 <1>   0.0800 
 33 H       -4.0900    -1.8600    -1.6490 H     1 <1>   0.0800 
 34 H       -3.2000     4.4880    -2.2780 H     1 <1>   0.1500 
 35 H        0.4960     4.2870    -0.1800 H     1 <1>   0.1500 
 36 H       -5.5640    -3.3640    -0.3370 H     1 <1>   0.3700 
 37 H       -1.0370     5.4870    -1.6780 H     1 <1>   0.1500 
 38 H       -5.2110    -7.1100     2.1050 H     1 <1>   0.0800 
 39 H       -3.9470    -5.9360     2.4030 H     1 <1>   0.0800 
 40 H       -4.7830    -6.3940    -1.6490 H     1 <1>   0.0800 
 41 H       -5.6840    -7.4830    -0.6070 H     1 <1>   0.0800 
 42 H       -5.9620    -4.6500     2.7070 H     1 <1>   0.1500 
 43 H       -7.0890    -5.6830    -1.2930 H     1 <1>   0.1500 
 44 H       -3.5330    -8.5610     1.5980 H     1 <1>   0.0800 
 45 H       -2.3720    -7.2730     1.3490 H     1 <1>   0.0800 
 46 H       -2.7280    -7.2380    -0.8720 H     1 <1>   0.0800 
 47 H       -3.6980    -8.6900    -0.7180 H     1 <1>   0.0800 
 48 H       -8.2060    -3.7940     3.1020 H     1 <1>   0.1500 
 49 H       -9.3190    -4.8240    -0.8740 H     1 <1>   0.1500 
 50 H       -9.8990    -3.8740     1.3190 H     1 <1>   0.1500 
@<TRIPOS>BOND
  1   1   2  2   
  2   2   3  am  
  3   2   4  1   
  4   3   5  1   
  5   3   6  1   
  6   4   7  ar  
  7   4   8  ar  
  8   5   9  2   
  9   6  10  1   
 10   6  28  1   
 11   6  29  1   
 12   7   9  1   
 13   7  11  ar  
 14   8  12  ar  
 15   8  30  1   
 16   9  31  1   
 17  10  13  1   
 18  10  32  1   
 19  10  33  1   
 20  11  14  ar  
 21  11  34  1   
 22  12  14  ar  
 23  12  35  1   
 24  13  15  am  
 25  13  36  1   
 26  14  37  1   
 27  15  16  2   
 28  15  17  1   
 29  17  18  1   
 30  17  19  1   
 31  17  20  1   
 32  18  21  ar  
 33  18  22  ar  
 34  19  23  1   
 35  19  38  1   
 36  19  39  1   
 37  20  24  1   
 38  20  40  1   
 39  20  41  1   
 40  21  25  ar  
 41  21  42  1   
 42  22  26  ar  
 43  22  43  1   
 44  23  24  1   
 45  23  44  1   
 46  23  45  1   
 47  24  46  1   
 48  24  47  1   
 49  25  27  ar  
 50  25  48  1   
 51  26  27  ar  
 52  26  49  1   
 53  27  50  1   
@<TRIPOS>SUBSTRUCTURE
  1 ****  10 GROUP 4 **** **** 0

# MOE 2024.06 (io_trps.svl 2023.06)
