@<TRIPOS>MOLECULE
NONAME
51 54 1 0 0 
SMALL
USER_CHARGES


@<TRIPOS>ATOM
  1 O        1.4990    -0.8040    -1.4010 O.2   1 <1>  -0.5700 
  2 C        2.3820    -0.3880    -0.6970 C.2   1 <1>   0.5690 
  3 N        3.1450     0.6710    -1.0050 N.am  1 <1>  -0.7300 
  4 C        2.7690    -0.9530     0.6400 C.3   1 <1>  -0.0990 
  5 C        4.1410     0.9860     0.0230 C.3   1 <1>   0.3000 
  6 C        3.6090     0.1990     1.2360 C.3   1 <1>  -0.1860 
  7 C        5.5030     0.4740    -0.4900 C.3   1 <1>  -0.1600 
  8 C        4.1590     2.4980     0.2920 C.3   1 <1>  -0.1600 
  9 C        4.7290    -0.1700     2.1780 C.2   1 <1>   0.9060 
 10 C        6.0460     1.3270    -1.6190 C.3   1 <1>   0.3430 
 11 C        4.7950     3.2910    -0.8410 C.3   1 <1>   0.3430 
 12 O        5.0380    -1.3510     2.3300 O.co2 1 <1>  -0.9000 
 13 O        5.3770     0.7610     2.6680 O.co2 1 <1>  -0.9000 
 14 N        6.1430     2.7280    -1.1350 N.4   1 <1>  -0.9590 
 15 C        6.9430     3.5840    -2.0480 C.3   1 <1>   0.4860 
 16 C        7.0890     4.9650    -1.4370 C.ar  1 <1>  -0.1440 
 17 C        7.8250     5.1510    -0.2760 C.ar  1 <1>  -0.1500 
 18 C        6.4760     6.0590    -2.0280 C.ar  1 <1>  -0.1500 
 19 C        7.9340     6.4100     0.2840 C.ar  1 <1>  -0.1500 
 20 C        6.5930     7.3140    -1.4600 C.ar  1 <1>  -0.1500 
 21 C        7.3220     7.5230    -0.2900 C.ar  1 <1>   0.0530 
 22 C        7.4380     8.8380     0.3020 C.2   1 <1>   0.0870 
 23 O        8.0910     8.9990     1.4460 O.3   1 <1>  -0.2800 
 24 C        6.9780    10.0520    -0.1040 C.2   1 <1>  -0.1500 
 25 C        8.0610    10.2700     1.7800 C.2   1 <1>  -0.0400 
 26 C        7.3830    10.9810     0.8570 C.2   1 <1>  -0.1500 
 27 C        8.7450    10.7040     3.0580 C.3   1 <1>  -0.0600 
 28 H        2.9450     1.2250    -1.8330 H     1 <1>   0.3700 
 29 H        3.3560    -1.8400     0.4910 H     1 <1>   0.0800 
 30 H        1.9090    -1.1770     1.2430 H     1 <1>   0.0800 
 31 H        2.9440     0.8290     1.7960 H     1 <1>   0.0800 
 32 H        5.4130    -0.5500    -0.8080 H     1 <1>   0.0800 
 33 H        6.2420     0.4880     0.2910 H     1 <1>   0.0800 
 34 H        4.7160     2.6940     1.1910 H     1 <1>   0.0800 
 35 H        3.1570     2.8490     0.4640 H     1 <1>   0.0800 
 36 H        5.3900     1.2660    -2.4720 H     1 <1>   0.0800 
 37 H        7.0200     0.9580    -1.9020 H     1 <1>   0.0800 
 38 H        4.8780     4.3230    -0.5400 H     1 <1>   0.0800 
 39 H        4.1730     3.2380    -1.7190 H     1 <1>   0.0800 
 40 H        6.6340     2.7020    -0.2280 H     1 <1>   0.4500 
 41 H        6.4580     3.6580    -3.0070 H     1 <1>   0.0800 
 42 H        7.9220     3.1550    -2.1910 H     1 <1>   0.0800 
 43 H        8.3220     4.3270     0.2080 H     1 <1>   0.1500 
 44 H        5.9040     5.9510    -2.9340 H     1 <1>   0.1500 
 45 H        8.5070     6.5380     1.1860 H     1 <1>   0.1500 
 46 H        6.1100     8.1510    -1.9320 H     1 <1>   0.1500 
 47 H        6.4120    10.2920    -0.9850 H     1 <1>   0.1500 
 48 H        7.1800    12.0360     0.8350 H     1 <1>   0.1500 
 49 H        8.3050    10.1940     3.8950 H     1 <1>   0.0800 
 50 H        8.6370    11.7640     3.1960 H     1 <1>   0.0800 
 51 H        9.7900    10.4600     3.0100 H     1 <1>   0.0800 
@<TRIPOS>BOND
  1   1   2  2   
  2   2   3  am  
  3   2   4  1   
  4   3   5  1   
  5   3  28  1   
  6   4   6  1   
  7   4  29  1   
  8   4  30  1   
  9   5   6  1   
 10   5   7  1   
 11   5   8  1   
 12   6   9  1   
 13   6  31  1   
 14   7  10  1   
 15   7  32  1   
 16   7  33  1   
 17   8  11  1   
 18   8  34  1   
 19   8  35  1   
 20   9  12  ar  
 21   9  13  ar  
 22  10  14  1   
 23  10  36  1   
 24  10  37  1   
 25  11  14  1   
 26  11  38  1   
 27  11  39  1   
 28  14  15  1   
 29  14  40  1   
 30  15  16  1   
 31  15  41  1   
 32  15  42  1   
 33  16  17  ar  
 34  16  18  ar  
 35  17  19  ar  
 36  17  43  1   
 37  18  20  ar  
 38  18  44  1   
 39  19  21  ar  
 40  19  45  1   
 41  20  21  ar  
 42  20  46  1   
 43  21  22  1   
 44  22  23  1   
 45  22  24  2   
 46  23  25  1   
 47  24  26  1   
 48  24  47  1   
 49  25  26  2   
 50  25  27  1   
 51  26  48  1   
 52  27  49  1   
 53  27  50  1   
 54  27  51  1   
@<TRIPOS>SUBSTRUCTURE
  1 ****  11 GROUP 4 **** **** 0

# MOE 2024.06 (io_trps.svl 2023.06)
