@<TRIPOS>MOLECULE
NONAME
50 53 1 0 0 
SMALL
USER_CHARGES


@<TRIPOS>ATOM
  1 O        3.8940     0.4340     2.9730 O.3   1 <1>  -0.3630 
  2 C        4.1170    -0.2830     1.8470 C.ar  1 <1>   0.0830 
  3 C        3.4070    -0.1720     4.1520 C.3   1 <1>   0.0400 
  4 C        4.3800     0.4180     0.7010 C.ar  1 <1>  -0.1500 
  5 C        4.0910    -1.6860     1.8130 C.ar  1 <1>  -0.1500 
  6 C        4.6670    -0.2220    -0.5260 C.ar  1 <1>   0.0000 
  7 C        4.3280    -2.3340     0.6320 C.ar  1 <1>  -0.1500 
  8 C        4.6110    -1.6380    -0.5540 C.ar  1 <1>   0.3100 
  9 C        5.0130     0.4430    -1.7300 C.ar  1 <1>  -0.1440 
 10 N        4.8270    -2.3630    -1.6760 N.ar  1 <1>  -0.6200 
 11 C        5.2010    -0.3290    -2.8430 C.ar  1 <1>  -0.1500 
 12 C        5.2170     1.9570    -1.7980 C.3   1 <1>   0.3430 
 13 C        5.0890    -1.7210    -2.7680 C.ar  1 <1>   0.1600 
 14 O        4.5420     2.4260    -2.9130 O.3   1 <1>  -0.6800 
 15 C        6.7250     2.3160    -1.9460 C.3   1 <1>   0.4230 
 16 N        7.6600     1.5150    -1.0530 N.4   1 <1>  -0.9590 
 17 C        7.0070     3.8290    -1.7600 C.3   1 <1>  -0.1600 
 18 C        7.4430     1.8350     0.4160 C.3   1 <1>   0.3430 
 19 C        9.0730     1.8820    -1.3910 C.3   1 <1>   0.3430 
 20 C        8.0030     4.0620    -0.5960 C.3   1 <1>  -0.0800 
 21 C        7.4640     3.3660     0.6880 C.3   1 <1>   0.4180 
 22 C        9.3180     3.3650    -1.0330 C.3   1 <1>  -0.1600 
 23 O        6.1650     3.7730     0.8970 O.3   1 <1>  -0.6800 
 24 C        8.1950     3.6990     1.9790 C.2   1 <1>  -0.2880 
 25 C        9.1960     4.5680     2.1740 C.2   1 <1>  -0.3000 
 26 H        3.2270     0.6030     4.8760 H     1 <1>   0.0800 
 27 H        4.1480    -0.8560     4.5270 H     1 <1>   0.0800 
 28 H        2.4870    -0.6830     3.9290 H     1 <1>   0.0800 
 29 H        4.3540     1.4880     0.7770 H     1 <1>   0.1500 
 30 H        3.8850    -2.2560     2.7000 H     1 <1>   0.1500 
 31 H        4.3030    -3.4080     0.5790 H     1 <1>   0.1500 
 32 H        5.4400     0.1010    -3.8010 H     1 <1>   0.1500 
 33 H        4.7960     2.4660    -0.9530 H     1 <1>   0.0800 
 34 H        5.2370    -2.2930    -3.6690 H     1 <1>   0.1500 
 35 H        3.6050     2.1420    -2.8740 H     1 <1>   0.4000 
 36 H        6.9740     2.0690    -2.9640 H     1 <1>   0.0800 
 37 H        7.4910     0.5100    -1.2160 H     1 <1>   0.4500 
 38 H        7.4100     4.2210    -2.6770 H     1 <1>   0.0800 
 39 H        6.0900     4.3660    -1.5890 H     1 <1>   0.0800 
 40 H        6.5110     1.4320     0.7670 H     1 <1>   0.0800 
 41 H        8.2320     1.3800     0.9890 H     1 <1>   0.0800 
 42 H        9.7610     1.2570    -0.8430 H     1 <1>   0.0800 
 43 H        9.2470     1.7290    -2.4450 H     1 <1>   0.0800 
 44 H        8.1610     5.1140    -0.4310 H     1 <1>   0.0800 
 45 H       10.0530     3.4200    -0.2500 H     1 <1>   0.0800 
 46 H        9.7380     3.8670    -1.8870 H     1 <1>   0.0800 
 47 H        6.1850     4.6420     1.3470 H     1 <1>   0.4000 
 48 H        7.7950     3.1350     2.8070 H     1 <1>   0.1500 
 49 H        9.6490     4.7420     3.1370 H     1 <1>   0.1500 
 50 H        9.6520     5.1850     1.4190 H     1 <1>   0.1500 
@<TRIPOS>BOND
  1   1   2  1   
  2   1   3  1   
  3   2   4  ar  
  4   2   5  ar  
  5   3  26  1   
  6   3  27  1   
  7   3  28  1   
  8   4   6  ar  
  9   4  29  1   
 10   5   7  ar  
 11   5  30  1   
 12   6   8  ar  
 13   6   9  ar  
 14   7   8  ar  
 15   7  31  1   
 16   8  10  ar  
 17   9  11  ar  
 18   9  12  1   
 19  10  13  ar  
 20  11  13  ar  
 21  11  32  1   
 22  12  14  1   
 23  12  15  1   
 24  12  33  1   
 25  13  34  1   
 26  14  35  1   
 27  15  16  1   
 28  15  17  1   
 29  15  36  1   
 30  16  18  1   
 31  16  19  1   
 32  16  37  1   
 33  17  20  1   
 34  17  38  1   
 35  17  39  1   
 36  18  21  1   
 37  18  40  1   
 38  18  41  1   
 39  19  22  1   
 40  19  42  1   
 41  19  43  1   
 42  20  21  1   
 43  20  22  1   
 44  20  44  1   
 45  21  23  1   
 46  21  24  1   
 47  22  45  1   
 48  22  46  1   
 49  23  47  1   
 50  24  25  2   
 51  24  48  1   
 52  25  49  1   
 53  25  50  1   
@<TRIPOS>SUBSTRUCTURE
  1 ****  18 GROUP 4 **** **** 0

# MOE 2024.06 (io_trps.svl 2023.06)
