@<TRIPOS>MOLECULE
NONAME
50 52 1 0 0 
SMALL
USER_CHARGES


@<TRIPOS>ATOM
  1 O       -2.7500     0.6330    -1.1990 O.2   1 <1>  -0.5700 
  2 C       -2.2150     0.8400    -0.1350 C.2   1 <1>   0.5690 
  3 N       -1.8810    -0.1640     0.7200 N.am  1 <1>  -0.5790 
  4 C       -1.8920     2.2750     0.2890 C.3   1 <1>  -0.0190 
  5 C       -2.0250    -1.6080     0.4650 C.3   1 <1>   0.0540 
  6 C       -2.7360     3.3330    -0.4530 C.3   1 <1>  -0.1600 
  7 C       -0.3820     2.5710     0.1240 C.3   1 <1>  -0.1600 
  8 C       -0.9840    -2.2150    -0.4190 C.3   1 <1>  -0.2000 
  9 C       -0.9450    -2.4560     1.0600 C.3   1 <1>  -0.2000 
 10 C       -3.5030    -2.0500     0.4270 C.3   1 <1>   0.0780 
 11 C       -2.5030     4.7590     0.0910 C.3   1 <1>   0.2000 
 12 C       -0.0440     4.0750     0.0640 C.3   1 <1>  -0.1600 
 13 C       -3.7120    -3.5560     0.2970 C.ar  1 <1>  -0.1430 
 14 O       -2.6120     5.6680    -0.9770 O.3   1 <1>  -0.5600 
 15 C       -1.1120     4.9260     0.7570 C.3   1 <1>   0.2000 
 16 C       -3.8140    -4.3540     1.4260 C.ar  1 <1>  -0.1500 
 17 C       -3.8130    -4.1430    -0.9550 C.ar  1 <1>  -0.1500 
 18 C       -3.9140     5.9550    -1.3850 C.3   1 <1>   0.0400 
 19 O       -0.7250     6.2470     0.6780 O.3   1 <1>  -0.6800 
 20 C       -4.0060    -5.7190     1.3050 C.ar  1 <1>  -0.1500 
 21 C       -4.0050    -5.5080    -1.0760 C.ar  1 <1>  -0.1500 
 22 C       -4.1000    -6.3040     0.0530 C.ar  1 <1>  -0.1430 
 23 C       -4.3110    -7.8010    -0.0800 C.3   1 <1>  -0.0970 
 24 H       -1.3990     0.0590     1.5890 H     1 <1>   0.3700 
 25 H       -2.1390     2.3520     1.3330 H     1 <1>   0.0800 
 26 H       -3.7790     3.0860    -0.3660 H     1 <1>   0.0800 
 27 H       -2.4720     3.3010    -1.4970 H     1 <1>   0.0800 
 28 H        0.1510     2.1190     0.9430 H     1 <1>   0.0800 
 29 H       -0.0240     2.1120    -0.7830 H     1 <1>   0.0800 
 30 H       -1.2400    -3.0450    -1.0530 H     1 <1>   0.1000 
 31 H       -0.2630    -1.5610    -0.8750 H     1 <1>   0.1000 
 32 H       -0.1520    -1.9990     1.6250 H     1 <1>   0.1000 
 33 H       -1.1570    -3.4570     1.3930 H     1 <1>   0.1000 
 34 H       -3.9880    -1.7140     1.3250 H     1 <1>   0.0800 
 35 H       -3.9880    -1.5650    -0.4020 H     1 <1>   0.0800 
 36 H       -3.2500     5.0020     0.8270 H     1 <1>   0.0800 
 37 H        0.0100     4.3770    -0.9680 H     1 <1>   0.0800 
 38 H        0.9160     4.2500     0.5170 H     1 <1>   0.0800 
 39 H       -1.1600     4.6590     1.7990 H     1 <1>   0.0800 
 40 H       -3.7420    -3.9150     2.4050 H     1 <1>   0.1500 
 41 H       -3.7400    -3.5370    -1.8410 H     1 <1>   0.1500 
 42 H       -3.8630     6.6760    -2.1820 H     1 <1>   0.0800 
 43 H       -4.4640     6.3690    -0.5580 H     1 <1>   0.0800 
 44 H       -4.3860     5.0570    -1.7450 H     1 <1>   0.0800 
 45 H       -1.1220     6.5910    -0.1540 H     1 <1>   0.4000 
 46 H       -4.0820    -6.3240     2.1910 H     1 <1>   0.1500 
 47 H       -4.0800    -5.9460    -2.0550 H     1 <1>   0.1500 
 48 H       -3.8710    -8.3190     0.7530 H     1 <1>   0.0800 
 49 H       -3.8560    -8.1650    -0.9840 H     1 <1>   0.0800 
 50 H       -5.3640    -8.0180    -0.1080 H     1 <1>   0.0800 
@<TRIPOS>BOND
  1   1   2  2   
  2   2   3  am  
  3   2   4  1   
  4   3   5  1   
  5   3  24  1   
  6   4   6  1   
  7   4   7  1   
  8   4  25  1   
  9   5   8  1   
 10   5   9  1   
 11   5  10  1   
 12   6  11  1   
 13   6  26  1   
 14   6  27  1   
 15   7  12  1   
 16   7  28  1   
 17   7  29  1   
 18   8   9  1   
 19   8  30  1   
 20   8  31  1   
 21   9  32  1   
 22   9  33  1   
 23  10  13  1   
 24  10  34  1   
 25  10  35  1   
 26  11  14  1   
 27  11  15  1   
 28  11  36  1   
 29  12  15  1   
 30  12  37  1   
 31  12  38  1   
 32  13  16  ar  
 33  13  17  ar  
 34  14  18  1   
 35  15  19  1   
 36  15  39  1   
 37  16  20  ar  
 38  16  40  1   
 39  17  21  ar  
 40  17  41  1   
 41  18  42  1   
 42  18  43  1   
 43  18  44  1   
 44  19  45  1   
 45  20  22  ar  
 46  20  46  1   
 47  21  22  ar  
 48  21  47  1   
 49  22  23  1   
 50  23  48  1   
 51  23  49  1   
 52  23  50  1   
@<TRIPOS>SUBSTRUCTURE
  1 ****   3 GROUP 4 **** **** 0

# MOE 2024.06 (io_trps.svl 2023.06)
