@<TRIPOS>MOLECULE
NONAME
41 43 1 0 0 
SMALL
USER_CHARGES


@<TRIPOS>ATOM
  1 CL       0.7910     0.6630    -1.3260 Cl    1 <1>  -0.1770 
  2 C        0.6240     2.1580    -0.4310 C.ar  1 <1>   0.1770 
  3 C        1.7090     2.7530     0.2060 C.ar  1 <1>  -0.1440 
  4 C       -0.6380     2.7230    -0.3850 C.ar  1 <1>  -0.1500 
  5 C        1.4930     3.9400     0.8950 C.ar  1 <1>  -0.1500 
  6 C        3.1200     2.1710     0.1810 C.3   1 <1>   0.3640 
  7 C       -0.8350     3.9050     0.3050 C.ar  1 <1>  -0.1500 
  8 C        0.2320     4.5110     0.9440 C.ar  1 <1>  -0.1500 
  9 N        3.1160     0.8220     0.7930 N.am  1 <1>  -0.7300 
 10 C        3.7600     2.1820    -1.2320 C.3   1 <1>   0.2610 
 11 C        3.7720    -0.2360     0.2650 C.2   1 <1>   0.5690 
 12 O        4.8630     1.2890    -1.3120 O.3   1 <1>  -0.5600 
 13 C        4.1280     3.6250    -1.6040 C.2   1 <1>   0.5690 
 14 O        3.7630    -1.3050     0.8190 O.2   1 <1>  -0.5700 
 15 C        4.5230    -0.0580    -1.0590 C.3   1 <1>   0.1810 
 16 O        3.3680     4.1940    -2.3540 O.2   1 <1>  -0.5700 
 17 N        5.2300     4.2810    -1.0870 N.am  1 <1>  -0.6600 
 18 C        6.2860     3.6250    -0.2480 C.3   1 <1>   0.1400 
 19 C        5.4210     5.7400    -1.3270 C.3   1 <1>   0.1400 
 20 C        6.9650     4.6250     0.6960 C.3   1 <1>  -0.1600 
 21 C        5.3300     6.4900     0.0060 C.3   1 <1>  -0.1600 
 22 C        5.9700     5.6910     1.1470 C.3   1 <1>   0.6800 
 23 F        5.0160     5.1070     1.8670 F     1 <1>  -0.3400 
 24 F        6.5670     6.5190     1.9900 F     1 <1>  -0.3400 
 25 H       -1.4560     2.2400    -0.8880 H     1 <1>   0.1500 
 26 H        2.3050     4.4380     1.4000 H     1 <1>   0.1500 
 27 H        3.7320     2.7900     0.8130 H     1 <1>   0.0800 
 28 H       -1.8140     4.3520     0.3440 H     1 <1>   0.1500 
 29 H        0.0810     5.4320     1.4810 H     1 <1>   0.1500 
 30 H        2.5770     0.6860     1.6490 H     1 <1>   0.3700 
 31 H        3.0400     1.8490    -1.9560 H     1 <1>   0.0800 
 32 H        3.9120    -0.4140    -1.8690 H     1 <1>   0.0800 
 33 H        5.4330    -0.6280    -1.0330 H     1 <1>   0.0800 
 34 H        5.8480     2.8470     0.3510 H     1 <1>   0.0800 
 35 H        7.0200     3.1680    -0.8910 H     1 <1>   0.0800 
 36 H        6.3910     5.8900    -1.7720 H     1 <1>   0.0800 
 37 H        4.6880     6.1280    -2.0140 H     1 <1>   0.0800 
 38 H        7.7740     5.1020     0.1730 H     1 <1>   0.0800 
 39 H        7.3730     4.1130     1.5480 H     1 <1>   0.0800 
 40 H        4.2980     6.6880     0.2350 H     1 <1>   0.0800 
 41 H        5.8360     7.4310    -0.1090 H     1 <1>   0.0800 
@<TRIPOS>BOND
  1   1   2  1   
  2   2   3  ar  
  3   2   4  ar  
  4   3   5  ar  
  5   3   6  1   
  6   4   7  ar  
  7   4  25  1   
  8   5   8  ar  
  9   5  26  1   
 10   6   9  1   
 11   6  10  1   
 12   6  27  1   
 13   7   8  ar  
 14   7  28  1   
 15   8  29  1   
 16   9  11  am  
 17   9  30  1   
 18  10  12  1   
 19  10  13  1   
 20  10  31  1   
 21  11  14  2   
 22  11  15  1   
 23  12  15  1   
 24  13  16  2   
 25  13  17  am  
 26  15  32  1   
 27  15  33  1   
 28  17  18  1   
 29  17  19  1   
 30  18  20  1   
 31  18  34  1   
 32  18  35  1   
 33  19  21  1   
 34  19  36  1   
 35  19  37  1   
 36  20  22  1   
 37  20  38  1   
 38  20  39  1   
 39  21  22  1   
 40  21  40  1   
 41  21  41  1   
 42  22  23  1   
 43  22  24  1   
@<TRIPOS>SUBSTRUCTURE
  1 ****   6 GROUP 4 **** **** 0

# MOE 2024.06 (io_trps.svl 2023.06)
