@<TRIPOS>MOLECULE
NONAME
35 37 1 0 0 
SMALL
USER_CHARGES


@<TRIPOS>ATOM
  1 O       -0.6410     0.2010     0.3120 O.2   1 <1>  -0.5700 
  2 C       -1.6800     0.7810     0.0440 C.2   1 <1>   0.7160 
  3 N       -2.7640     0.0030    -0.3240 N.am  1 <1>  -0.6600 
  4 C       -1.7150     2.2380     0.1290 C.2   1 <1>   0.2030 
  5 C       -4.1180     0.4910    -0.6890 C.3   1 <1>   0.1400 
  6 C       -2.7170    -1.4800    -0.3740 C.3   1 <1>   0.1400 
  7 N       -2.7190     3.0430    -0.0830 N.2   1 <1>  -0.4100 
  8 C       -0.6170     3.0170     0.4690 C.2   1 <1>  -0.1500 
  9 C       -4.9270    -0.7670    -1.0090 C.3   1 <1>   0.2000 
 10 C       -4.1810    -1.9210    -0.3440 C.3   1 <1>  -0.0800 
 11 O       -2.3580     4.2910     0.0940 O.3   1 <1>  -0.0190 
 12 C       -1.0890     4.2650     0.4260 C.2   1 <1>  -0.0100 
 13 O       -6.2170    -0.6870    -0.5060 O.3   1 <1>  -0.6800 
 14 C       -4.4450    -3.2710    -1.0320 C.3   1 <1>  -0.0170 
 15 C       -3.7050    -4.4060    -0.3440 C.ar  1 <1>   0.1670 
 16 N       -2.4450    -4.5900    -0.7060 N.ar  1 <1>  -0.6200 
 17 C       -4.3600    -5.1750     0.6070 C.ar  1 <1>  -0.1500 
 18 C       -1.8110    -5.5780    -0.0950 C.ar  1 <1>   0.1600 
 19 C       -3.6870    -6.2010     1.2360 C.ar  1 <1>  -0.1500 
 20 C       -2.3740    -6.3990     0.8670 C.ar  1 <1>  -0.1500 
 21 H       -4.5430     1.0220     0.1460 H     1 <1>   0.0800 
 22 H       -4.0640     1.1360    -1.5490 H     1 <1>   0.0800 
 23 H       -2.2410    -1.7870    -1.2900 H     1 <1>   0.0800 
 24 H       -2.1670    -1.8840     0.4600 H     1 <1>   0.0800 
 25 H        0.3660     2.6490     0.7040 H     1 <1>   0.1500 
 26 H       -4.9860    -0.9000    -2.0760 H     1 <1>   0.0800 
 27 H       -4.4690    -1.9880     0.6900 H     1 <1>   0.0800 
 28 H       -0.5910     5.1980     0.6190 H     1 <1>   0.1500 
 29 H       -6.1950    -0.5350     0.4590 H     1 <1>   0.4000 
 30 H       -4.1380    -3.2280    -2.0620 H     1 <1>   0.0800 
 31 H       -5.5020    -3.4730    -1.0200 H     1 <1>   0.0800 
 32 H       -5.3860    -4.9740     0.8560 H     1 <1>   0.1500 
 33 H       -0.7840    -5.7420    -0.3750 H     1 <1>   0.1500 
 34 H       -4.1630    -6.8170     1.9790 H     1 <1>   0.1500 
 35 H       -1.7910    -7.1800     1.3180 H     1 <1>   0.1500 
@<TRIPOS>BOND
  1   1   2  2   
  2   2   3  am  
  3   2   4  1   
  4   3   5  1   
  5   3   6  1   
  6   4   7  2   
  7   4   8  1   
  8   5   9  1   
  9   5  21  1   
 10   5  22  1   
 11   6  10  1   
 12   6  23  1   
 13   6  24  1   
 14   7  11  1   
 15   8  12  2   
 16   8  25  1   
 17   9  10  1   
 18   9  13  1   
 19   9  26  1   
 20  10  14  1   
 21  10  27  1   
 22  11  12  1   
 23  12  28  1   
 24  13  29  1   
 25  14  15  1   
 26  14  30  1   
 27  14  31  1   
 28  15  16  ar  
 29  15  17  ar  
 30  16  18  ar  
 31  17  19  ar  
 32  17  32  1   
 33  18  20  ar  
 34  18  33  1   
 35  19  20  ar  
 36  19  34  1   
 37  20  35  1   
@<TRIPOS>SUBSTRUCTURE
  1 ****   6 GROUP 4 **** **** 0

# MOE 2024.06 (io_trps.svl 2023.06)
