@<TRIPOS>MOLECULE
NONAME
45 48 1 0 0 
SMALL
USER_CHARGES


@<TRIPOS>ATOM
  1 O       -1.3140     0.5030     1.8530 O.2   1 <1>  -0.5700 
  2 C       -1.7610     0.8970     0.7860 C.2   1 <1>   0.7160 
  3 N       -2.7530     0.1410     0.1940 N.am  1 <1>  -0.6600 
  4 C       -1.2600     2.1400     0.2020 C.2   1 <1>   0.2030 
  5 C       -2.7470    -1.3470     0.3920 C.3   1 <1>   0.3640 
  6 C       -4.0290     0.7840    -0.2260 C.3   1 <1>   0.1400 
  7 N       -1.5660     2.6640    -0.9780 N.2   1 <1>  -0.7070 
  8 C       -0.3340     2.9660     0.8560 C.2   1 <1>  -0.1500 
  9 C       -1.4060    -1.8900    -0.1170 C.ar  1 <1>  -0.1430 
 10 C       -3.9020    -2.1120    -0.3300 C.3   1 <1>   0.2000 
 11 C       -4.8390    -0.1230    -1.1500 C.3   1 <1>   0.1200 
 12 N       -0.8460     3.7920    -1.0650 N.pl3 1 <1>   0.3000 
 13 C       -0.0950     4.0020     0.0300 C.2   1 <1>  -0.2370 
 14 C       -0.6090    -2.6710     0.7070 C.ar  1 <1>  -0.1500 
 15 C       -0.9660    -1.6080    -1.4040 C.ar  1 <1>  -0.1500 
 16 O       -5.0590    -1.3390    -0.5110 O.3   1 <1>  -0.5600 
 17 C       -4.3520    -3.3770     0.4200 C.3   1 <1>   0.1200 
 18 C        0.8140     5.2010     0.2000 C.3   1 <1>  -0.0150 
 19 C        0.5960    -3.1760     0.2510 C.ar  1 <1>  -0.1500 
 20 C        0.2390    -2.1120    -1.8630 C.ar  1 <1>  -0.1500 
 21 O       -3.2840    -4.2100     0.7400 O.3   1 <1>  -0.6800 
 22 C        1.0530     5.7730     1.5600 C.3   1 <1>  -0.2000 
 23 C        0.2240     6.5250     0.5610 C.3   1 <1>  -0.2000 
 24 C        1.0200    -2.8990    -1.0360 C.ar  1 <1>  -0.1500 
 25 H       -2.8280    -1.5390     1.4480 H     1 <1>   0.0800 
 26 H       -4.6160     1.0040     0.6490 H     1 <1>   0.0800 
 27 H       -3.8370     1.7110    -0.7340 H     1 <1>   0.0800 
 28 H        0.0830     2.7700     1.8280 H     1 <1>   0.1500 
 29 H       -3.5730    -2.4020    -1.3120 H     1 <1>   0.0800 
 30 H       -4.3220    -0.2930    -2.0790 H     1 <1>   0.0800 
 31 H       -5.7970     0.3200    -1.3580 H     1 <1>   0.0800 
 32 H       -0.8810     4.4120    -1.8830 H     1 <1>   0.2700 
 33 H       -0.9260    -2.8900     1.7130 H     1 <1>   0.1500 
 34 H       -1.5580    -0.9850    -2.0520 H     1 <1>   0.1500 
 35 H       -5.0390    -3.9390    -0.1870 H     1 <1>   0.0800 
 36 H       -4.8340    -3.1050     1.3430 H     1 <1>   0.0800 
 37 H        1.6520     5.1900    -0.4770 H     1 <1>   0.1000 
 38 H        1.2030    -3.7820     0.9000 H     1 <1>   0.1500 
 39 H        0.5700    -1.8860    -2.8620 H     1 <1>   0.1500 
 40 H       -2.7150    -4.3780    -0.0400 H     1 <1>   0.4000 
 41 H        0.5610     5.3260     2.4060 H     1 <1>   0.1000 
 42 H        2.0380     6.1350     1.7990 H     1 <1>   0.1000 
 43 H        0.6320     7.4150     0.1150 H     1 <1>   0.1000 
 44 H       -0.8370     6.5940     0.7300 H     1 <1>   0.1000 
 45 H        1.9570    -3.2900    -1.3910 H     1 <1>   0.1500 
@<TRIPOS>BOND
  1   1   2  2   
  2   2   3  am  
  3   2   4  1   
  4   3   5  1   
  5   3   6  1   
  6   4   7  2   
  7   4   8  1   
  8   5   9  1   
  9   5  10  1   
 10   5  25  1   
 11   6  11  1   
 12   6  26  1   
 13   6  27  1   
 14   7  12  1   
 15   8  13  2   
 16   8  28  1   
 17   9  14  ar  
 18   9  15  ar  
 19  10  16  1   
 20  10  17  1   
 21  10  29  1   
 22  11  16  1   
 23  11  30  1   
 24  11  31  1   
 25  12  13  1   
 26  12  32  1   
 27  13  18  1   
 28  14  19  ar  
 29  14  33  1   
 30  15  20  ar  
 31  15  34  1   
 32  17  21  1   
 33  17  35  1   
 34  17  36  1   
 35  18  22  1   
 36  18  23  1   
 37  18  37  1   
 38  19  24  ar  
 39  19  38  1   
 40  20  24  ar  
 41  20  39  1   
 42  21  40  1   
 43  22  23  1   
 44  22  41  1   
 45  22  42  1   
 46  23  43  1   
 47  23  44  1   
 48  24  45  1   
@<TRIPOS>SUBSTRUCTURE
  1 ****   2 GROUP 4 **** **** 0

# MOE 2024.06 (io_trps.svl 2023.06)
