@<TRIPOS>MOLECULE
NONAME
45 47 1 0 0 
SMALL
USER_CHARGES


@<TRIPOS>ATOM
  1 O       -1.4550    -1.0760    -0.8480 O.3   1 <1>  -0.8290 
  2 C       -0.5620    -1.9540    -0.7500 C.ar  1 <1>   0.1390 
  3 N        0.3620    -2.0350    -1.7370 N.ar  1 <1>  -0.3100 
  4 C       -0.5560    -2.8200     0.3510 C.ar  1 <1>  -0.1440 
  5 N        1.3130    -2.9430    -1.6820 N.ar  1 <1>  -0.3100 
  6 C        0.4370    -3.7580     0.3960 C.ar  1 <1>  -0.1500 
  7 C       -1.6180    -2.7340     1.4420 C.3   1 <1>   0.0450 
  8 C        1.3430    -3.7690    -0.6490 C.ar  1 <1>   0.3920 
  9 C       -2.5110    -3.9690     1.4660 C.2   1 <1>   0.5690 
 10 O        2.3290    -4.6890    -0.6300 O.3   1 <1>  -0.5320 
 11 O       -2.4290    -4.6870     2.4410 O.2   1 <1>  -0.5700 
 12 N       -3.3720    -4.2730     0.4370 N.am  1 <1>  -0.6600 
 13 C       -4.0840    -5.5830     0.4160 C.3   1 <1>   0.1400 
 14 C       -3.5390    -3.3740    -0.7500 C.3   1 <1>   0.1400 
 15 C       -5.5080    -5.4420     0.9660 C.3   1 <1>   0.1400 
 16 C       -4.9070    -3.4750    -1.4370 C.3   1 <1>  -0.1600 
 17 N       -6.4410    -4.8240    -0.0290 N.am  1 <1>  -0.6600 
 18 C       -6.0830    -3.4410    -0.4570 C.3   1 <1>   0.1400 
 19 C       -7.5440    -5.4530    -0.5580 C.2   1 <1>   0.6300 
 20 O       -8.2160    -4.9410    -1.4250 O.2   1 <1>  -0.5700 
 21 C       -7.9650    -6.8540    -0.0870 C.3   1 <1>  -0.0950 
 22 C       -8.3930    -7.0710     1.3380 C.3   1 <1>  -0.2000 
 23 C       -9.4140    -7.0800     0.2400 C.3   1 <1>  -0.2000 
 24 C       -7.2320    -7.9750    -0.8360 C.3   1 <1>  -0.1450 
 25 H        0.5040    -4.4550     1.2070 H     1 <1>   0.1500 
 26 H       -2.2230    -1.8560     1.3290 H     1 <1>   0.0800 
 27 H       -1.1220    -2.6450     2.3890 H     1 <1>   0.0800 
 28 H        2.2360    -5.2550     0.1490 H     1 <1>   0.4500 
 29 H       -3.5480    -6.2840     1.0310 H     1 <1>   0.0800 
 30 H       -4.1030    -5.9840    -0.5810 H     1 <1>   0.0800 
 31 H       -2.7550    -3.5700    -1.4620 H     1 <1>   0.0800 
 32 H       -3.4290    -2.3540    -0.4310 H     1 <1>   0.0800 
 33 H       -5.4860    -4.8440     1.8610 H     1 <1>   0.0800 
 34 H       -5.8490    -6.4200     1.2430 H     1 <1>   0.0800 
 35 H       -4.9590    -4.3470    -2.0630 H     1 <1>   0.0800 
 36 H       -4.9870    -2.6220    -2.0870 H     1 <1>   0.0800 
 37 H       -6.9280    -2.9820    -0.9420 H     1 <1>   0.0800 
 38 H       -5.8400    -2.8410     0.4030 H     1 <1>   0.0800 
 39 H       -8.3860    -6.2350     2.0160 H     1 <1>   0.1000 
 40 H       -8.1540    -8.0000     1.8250 H     1 <1>   0.1000 
 41 H       -9.8730    -8.0120    -0.0370 H     1 <1>   0.1000 
 42 H      -10.0910    -6.2480     0.1500 H     1 <1>   0.1000 
 43 H       -6.1720    -7.9020    -0.6760 H     1 <1>   0.0800 
 44 H       -7.4260    -7.8880    -1.8910 H     1 <1>   0.0800 
 45 H       -7.5660    -8.9410    -0.5050 H     1 <1>   0.0800 
@<TRIPOS>BOND
  1   1   2  1   
  2   2   3  ar  
  3   2   4  ar  
  4   3   5  ar  
  5   4   6  ar  
  6   4   7  1   
  7   5   8  ar  
  8   6   8  ar  
  9   6  25  1   
 10   7   9  1   
 11   7  26  1   
 12   7  27  1   
 13   8  10  1   
 14   9  11  2   
 15   9  12  am  
 16  10  28  1   
 17  12  13  1   
 18  12  14  1   
 19  13  15  1   
 20  13  29  1   
 21  13  30  1   
 22  14  16  1   
 23  14  31  1   
 24  14  32  1   
 25  15  17  1   
 26  15  33  1   
 27  15  34  1   
 28  16  18  1   
 29  16  35  1   
 30  16  36  1   
 31  17  18  1   
 32  17  19  am  
 33  18  37  1   
 34  18  38  1   
 35  19  20  2   
 36  19  21  1   
 37  21  22  1   
 38  21  23  1   
 39  21  24  1   
 40  22  23  1   
 41  22  39  1   
 42  22  40  1   
 43  23  41  1   
 44  23  42  1   
 45  24  43  1   
 46  24  44  1   
 47  24  45  1   
@<TRIPOS>SUBSTRUCTURE
  1 ****  12 GROUP 4 **** **** 0

# MOE 2024.06 (io_trps.svl 2023.06)
