@<TRIPOS>MOLECULE
NONAME
50 53 1 0 0 
SMALL
USER_CHARGES


@<TRIPOS>ATOM
  1 O        2.1780    -3.4270    -3.2190 O.3   1 <1>  -0.5600 
  2 C        0.8330    -3.5360    -3.5610 C.3   1 <1>   0.2580 
  3 C        2.4050    -2.5090    -2.1950 C.3   1 <1>   0.1200 
  4 C        0.0700    -3.9910    -2.3250 C.2   1 <1>  -0.2880 
  5 C        1.8380    -3.0590    -0.8760 C.3   1 <1>  -0.0220 
  6 C        0.5300    -3.8490    -1.0720 C.2   1 <1>  -0.2760 
  7 C       -0.2040    -4.4060     0.1820 C.3   1 <1>   0.1380 
  8 C       -0.4780    -5.9410     0.1090 C.3   1 <1>   0.4230 
  9 C       -1.5590    -3.6660     0.3030 C.3   1 <1>   0.1200 
 10 C        0.5870    -4.2530     1.5130 C.3   1 <1>  -0.1600 
 11 N        0.7560    -6.7690    -0.1660 N.4   1 <1>  -0.9590 
 12 C       -1.7130    -6.3530    -0.7040 C.3   1 <1>  -0.1600 
 13 O       -2.5670    -4.5650     0.6690 O.3   1 <1>  -0.5600 
 14 C        1.6270    -5.3760     1.7620 C.3   1 <1>  -0.1600 
 15 C        1.9720    -6.2160     0.5210 C.3   1 <1>   0.3430 
 16 C        1.0520    -6.9570    -1.6220 C.3   1 <1>   0.4860 
 17 C       -2.9180    -5.4700    -0.3350 C.3   1 <1>   0.1200 
 18 C        2.2940    -7.8020    -1.8050 C.ar  1 <1>  -0.1430 
 19 C        2.2810    -9.1580    -1.5140 C.ar  1 <1>   0.1600 
 20 C        3.4640    -7.2280    -2.2660 C.ar  1 <1>  -0.1500 
 21 N        3.3250    -9.9590    -1.6180 N.ar  1 <1>  -0.6200 
 22 C        4.5580    -8.0560    -2.3910 C.ar  1 <1>  -0.1500 
 23 C        4.4390    -9.3940    -2.0560 C.ar  1 <1>   0.1600 
 24 H        0.4760    -2.5870    -3.9260 H     1 <1>   0.0800 
 25 H        0.7610    -4.2670    -4.3470 H     1 <1>   0.0800 
 26 H        3.4660    -2.3480    -2.1170 H     1 <1>   0.0800 
 27 H        1.9330    -1.5780    -2.4590 H     1 <1>   0.0800 
 28 H       -0.8680    -4.4360    -2.5920 H     1 <1>   0.1500 
 29 H        2.5980    -3.6620    -0.4220 H     1 <1>   0.0800 
 30 H        1.6660    -2.2140    -0.2340 H     1 <1>   0.0800 
 31 H       -0.7670    -6.1810     1.1200 H     1 <1>   0.0800 
 32 H       -1.8450    -3.2020    -0.6250 H     1 <1>   0.0800 
 33 H       -1.5130    -2.8960     1.0540 H     1 <1>   0.0800 
 34 H        1.0460    -3.2850     1.5930 H     1 <1>   0.0800 
 35 H       -0.1150    -4.2980     2.3300 H     1 <1>   0.0800 
 36 H        0.5850    -7.6980     0.2330 H     1 <1>   0.4500 
 37 H       -1.9650    -7.3730    -0.4750 H     1 <1>   0.0800 
 38 H       -1.5560    -6.2890    -1.7610 H     1 <1>   0.0800 
 39 H        1.2590    -6.0410     2.5250 H     1 <1>   0.0800 
 40 H        2.5330    -4.9400     2.1470 H     1 <1>   0.0800 
 41 H        2.6320    -7.0230     0.7990 H     1 <1>   0.0800 
 42 H        2.5100    -5.5940    -0.1730 H     1 <1>   0.0800 
 43 H        0.2230    -7.4330    -2.1160 H     1 <1>   0.0800 
 44 H        1.2230    -6.0030    -2.0890 H     1 <1>   0.0800 
 45 H       -3.7290    -6.0710     0.0420 H     1 <1>   0.0800 
 46 H       -3.2750    -4.9130    -1.1870 H     1 <1>   0.0800 
 47 H        1.3700    -9.6210    -1.1750 H     1 <1>   0.1500 
 48 H        3.5330    -6.1820    -2.5250 H     1 <1>   0.1500 
 49 H        5.4990    -7.6740    -2.7470 H     1 <1>   0.1500 
 50 H        5.3020   -10.0330    -2.1570 H     1 <1>   0.1500 
@<TRIPOS>BOND
  1   1   2  1   
  2   1   3  1   
  3   2   4  1   
  4   2  24  1   
  5   2  25  1   
  6   3   5  1   
  7   3  26  1   
  8   3  27  1   
  9   4   6  2   
 10   4  28  1   
 11   5   6  1   
 12   5  29  1   
 13   5  30  1   
 14   6   7  1   
 15   7   8  1   
 16   7   9  1   
 17   7  10  1   
 18   8  11  1   
 19   8  12  1   
 20   8  31  1   
 21   9  13  1   
 22   9  32  1   
 23   9  33  1   
 24  10  14  1   
 25  10  34  1   
 26  10  35  1   
 27  11  15  1   
 28  11  16  1   
 29  11  36  1   
 30  12  17  1   
 31  12  37  1   
 32  12  38  1   
 33  13  17  1   
 34  14  15  1   
 35  14  39  1   
 36  14  40  1   
 37  15  41  1   
 38  15  42  1   
 39  16  18  1   
 40  16  43  1   
 41  16  44  1   
 42  17  45  1   
 43  17  46  1   
 44  18  19  ar  
 45  18  20  ar  
 46  19  21  ar  
 47  19  47  1   
 48  20  22  ar  
 49  20  48  1   
 50  21  23  ar  
 51  22  23  ar  
 52  22  49  1   
 53  23  50  1   
@<TRIPOS>SUBSTRUCTURE
  1 ****  11 GROUP 4 **** **** 0

# MOE 2024.06 (io_trps.svl 2023.06)
