@<TRIPOS>MOLECULE
NONAME
48 49 1 0 0 
SMALL
USER_CHARGES


@<TRIPOS>ATOM
  1 O       -1.7950    -0.9490     0.2370 O.3   1 <1>  -0.3630 
  2 C       -2.3980     0.2390    -0.0110 C.ar  1 <1>   0.0830 
  3 C       -0.4230    -1.0350    -0.1030 C.3   1 <1>   0.0400 
  4 C       -3.2980     0.3090    -1.0680 C.ar  1 <1>  -0.1440 
  5 C       -2.1520     1.3610     0.7780 C.ar  1 <1>  -0.1440 
  6 C       -3.9060     1.5140    -1.3790 C.ar  1 <1>  -0.1500 
  7 C       -3.6340    -0.9430    -1.8460 C.3   1 <1>   0.4870 
  8 C       -2.7720     2.5560     0.4510 C.ar  1 <1>  -0.1500 
  9 C       -1.2450     1.3340     2.0010 C.3   1 <1>  -0.0960 
 10 C       -3.6390     2.6420    -0.6250 C.ar  1 <1>  -0.1440 
 11 N       -4.3280    -1.8460    -0.8990 N.4   1 <1>  -0.9590 
 12 C       -4.3010     3.9670    -0.9620 C.3   1 <1>  -0.0970 
 13 C       -4.2870    -3.2600    -1.3180 C.3   1 <1>   0.5230 
 14 C       -5.7130    -1.3570    -0.5860 C.3   1 <1>   0.3430 
 15 C       -4.6900    -4.0900    -0.1280 C.2   1 <1>  -0.3320 
 16 C       -5.9650    -1.2400     0.9220 C.3   1 <1>   0.1200 
 17 N       -3.9230    -4.3540     0.9550 N.pl3 1 <1>   0.0480 
 18 C       -5.8720    -4.7130     0.0770 C.2   1 <1>   0.0770 
 19 O       -7.2290    -0.7030     1.0930 O.3   1 <1>  -0.6800 
 20 C       -4.7110    -5.1110     1.7500 C.2   1 <1>   0.0360 
 21 C       -2.5320    -3.9590     1.2550 C.3   1 <1>   0.0160 
 22 N       -5.8850    -5.3410     1.2610 N.2   1 <1>  -0.5650 
 23 H       -0.1040    -2.0560     0.0080 H     1 <1>   0.0800 
 24 H        0.1510    -0.4070     0.5530 H     1 <1>   0.0800 
 25 H       -0.2910    -0.7160    -1.1220 H     1 <1>   0.0800 
 26 H       -4.5960     1.5880    -2.2030 H     1 <1>   0.1500 
 27 H       -2.7200    -1.3930    -2.1960 H     1 <1>   0.0800 
 28 H       -4.2630    -0.7140    -2.6910 H     1 <1>   0.0800 
 29 H       -2.5810     3.4350     1.0440 H     1 <1>   0.1500 
 30 H       -1.2330     0.3580     2.4510 H     1 <1>   0.0800 
 31 H       -1.5930     2.0330     2.7410 H     1 <1>   0.0800 
 32 H       -0.2430     1.6070     1.7220 H     1 <1>   0.0800 
 33 H       -3.7690    -1.7650    -0.0380 H     1 <1>   0.4500 
 34 H       -4.5400     4.0200    -2.0090 H     1 <1>   0.0800 
 35 H       -3.6430     4.7850    -0.7270 H     1 <1>   0.0800 
 36 H       -5.2060     4.0790    -0.3920 H     1 <1>   0.0800 
 37 H       -3.2940    -3.5360    -1.6340 H     1 <1>   0.0800 
 38 H       -4.9710    -3.4260    -2.1350 H     1 <1>   0.0800 
 39 H       -6.4450    -2.0240    -1.0100 H     1 <1>   0.0800 
 40 H       -5.8580    -0.3790    -1.0140 H     1 <1>   0.0800 
 41 H       -5.2560    -0.5720     1.3810 H     1 <1>   0.0800 
 42 H       -5.9450    -2.2030     1.4020 H     1 <1>   0.0800 
 43 H       -6.7390    -4.7470    -0.5640 H     1 <1>   0.1500 
 44 H       -7.4720    -0.6570     2.0420 H     1 <1>   0.4000 
 45 H       -4.3760    -5.4850     2.7030 H     1 <1>   0.1500 
 46 H       -1.9710    -3.8680     0.3440 H     1 <1>   0.0800 
 47 H       -2.0750    -4.7100     1.8740 H     1 <1>   0.0800 
 48 H       -2.5310    -3.0220     1.7810 H     1 <1>   0.0800 
@<TRIPOS>BOND
  1   1   2  1   
  2   1   3  1   
  3   2   4  ar  
  4   2   5  ar  
  5   3  23  1   
  6   3  24  1   
  7   3  25  1   
  8   4   6  ar  
  9   4   7  1   
 10   5   8  ar  
 11   5   9  1   
 12   6  10  ar  
 13   6  26  1   
 14   7  11  1   
 15   7  27  1   
 16   7  28  1   
 17   8  10  ar  
 18   8  29  1   
 19   9  30  1   
 20   9  31  1   
 21   9  32  1   
 22  10  12  1   
 23  11  13  1   
 24  11  14  1   
 25  11  33  1   
 26  12  34  1   
 27  12  35  1   
 28  12  36  1   
 29  13  15  1   
 30  13  37  1   
 31  13  38  1   
 32  14  16  1   
 33  14  39  1   
 34  14  40  1   
 35  15  17  1   
 36  15  18  2   
 37  16  19  1   
 38  16  41  1   
 39  16  42  1   
 40  17  20  1   
 41  17  21  1   
 42  18  22  1   
 43  18  43  1   
 44  19  44  1   
 45  20  22  2   
 46  20  45  1   
 47  21  46  1   
 48  21  47  1   
 49  21  48  1   
@<TRIPOS>SUBSTRUCTURE
  1 ****  11 GROUP 4 **** **** 0

# MOE 2024.06 (io_trps.svl 2023.06)
