@<TRIPOS>MOLECULE
NONAME
53 55 1 0 0 
SMALL
USER_CHARGES


@<TRIPOS>ATOM
  1 F       -1.5690     0.5430     0.7620 F     1 <1>  -0.1900 
  2 C       -0.2680     0.6450     0.6580 C.ar  1 <1>   0.1900 
  3 C        0.5340    -0.4650     0.9030 C.ar  1 <1>   0.0820 
  4 C        0.2630     1.8670     0.2910 C.ar  1 <1>  -0.1500 
  5 O       -0.0190    -1.6510     1.2600 O.3   1 <1>  -0.3630 
  6 C        1.9110    -0.3260     0.7880 C.ar  1 <1>  -0.1500 
  7 C        1.6390     1.9870     0.1690 C.ar  1 <1>  -0.1500 
  8 C        0.1920    -2.7680     0.4230 C.3   1 <1>   0.2000 
  9 C        2.4570     0.8950     0.4190 C.ar  1 <1>  -0.1500 
 10 C       -0.6380    -2.6170    -0.8550 C.3   1 <1>  -0.1600 
 11 C       -0.2270    -4.0220     1.1880 C.3   1 <1>  -0.1600 
 12 C       -0.5480    -3.8870    -1.7020 C.3   1 <1>   0.1100 
 13 C       -0.1430    -5.2500     0.2810 C.3   1 <1>   0.1100 
 14 N       -0.9830    -5.0470    -0.9120 N.3   1 <1>  -0.8100 
 15 C       -1.0300    -6.2760    -1.7590 C.3   1 <1>   0.1710 
 16 C       -1.7800    -7.4650    -1.1470 C.2   1 <1>   0.5690 
 17 O       -1.5160    -8.5820    -1.5250 O.2   1 <1>  -0.5700 
 18 N       -2.7270    -7.2340    -0.2060 N.am  1 <1>  -0.7300 
 19 C       -3.5750    -8.2530     0.4340 C.3   1 <1>   0.2840 
 20 C       -4.9430    -7.6570     0.7300 C.ar  1 <1>  -0.1430 
 21 C       -5.9010    -7.4650    -0.2610 C.ar  1 <1>  -0.1430 
 22 C       -5.2340    -7.3040     2.0390 C.ar  1 <1>  -0.1500 
 23 C       -7.1280    -6.9230     0.0870 C.ar  1 <1>  -0.1500 
 24 C       -5.6390    -7.8350    -1.7140 C.3   1 <1>  -0.0970 
 25 C       -6.4650    -6.7630     2.4120 C.ar  1 <1>  -0.1790 
 26 C       -7.4030    -6.5800     1.3970 C.ar  1 <1>  -0.1500 
 27 C       -6.7560    -6.4120     3.7980 C.2   1 <1>   0.9790 
 28 O       -7.8490    -5.9040     4.1120 O.co2 1 <1>  -0.9000 
 29 O       -5.9190    -6.6230     4.6960 O.co2 1 <1>  -0.9000 
 30 H       -0.3880     2.7020     0.1060 H     1 <1>   0.1500 
 31 H        2.5550    -1.1620     0.9940 H     1 <1>   0.1500 
 32 H        2.0720     2.9310    -0.1160 H     1 <1>   0.1500 
 33 H        1.2380    -2.8300     0.1810 H     1 <1>   0.0800 
 34 H        3.5250     0.9970     0.3290 H     1 <1>   0.1500 
 35 H       -0.2790    -1.7840    -1.4310 H     1 <1>   0.0800 
 36 H       -1.6680    -2.4410    -0.6000 H     1 <1>   0.0800 
 37 H       -1.2400    -3.9160     1.5360 H     1 <1>   0.0800 
 38 H        0.4160    -4.1590     2.0380 H     1 <1>   0.0800 
 39 H        0.4640    -4.0340    -2.0430 H     1 <1>   0.0800 
 40 H       -1.1860    -3.7770    -2.5630 H     1 <1>   0.0800 
 41 H       -0.4860    -6.1100     0.8320 H     1 <1>   0.0800 
 42 H        0.8780    -5.4230    -0.0140 H     1 <1>   0.0800 
 43 H       -0.0290    -6.5910    -1.9940 H     1 <1>   0.0800 
 44 H       -1.5260    -6.0450    -2.6840 H     1 <1>   0.0800 
 45 H       -2.9060    -6.2650     0.0780 H     1 <1>   0.3700 
 46 H       -3.1070    -8.5730     1.3490 H     1 <1>   0.0800 
 47 H       -3.6700    -9.1120    -0.2070 H     1 <1>   0.0800 
 48 H       -4.5000    -7.4450     2.8150 H     1 <1>   0.1500 
 49 H       -7.8840    -6.7620    -0.6590 H     1 <1>   0.1500 
 50 H       -4.8110    -7.2640    -2.0940 H     1 <1>   0.0800 
 51 H       -6.4990    -7.6300    -2.3240 H     1 <1>   0.0800 
 52 H       -5.4090    -8.8820    -1.7940 H     1 <1>   0.0800 
 53 H       -8.3600    -6.1600     1.6570 H     1 <1>   0.1500 
@<TRIPOS>BOND
  1   1   2  1   
  2   2   3  ar  
  3   2   4  ar  
  4   3   5  1   
  5   3   6  ar  
  6   4   7  ar  
  7   4  30  1   
  8   5   8  1   
  9   6   9  ar  
 10   6  31  1   
 11   7   9  ar  
 12   7  32  1   
 13   8  10  1   
 14   8  11  1   
 15   8  33  1   
 16   9  34  1   
 17  10  12  1   
 18  10  35  1   
 19  10  36  1   
 20  11  13  1   
 21  11  37  1   
 22  11  38  1   
 23  12  14  1   
 24  12  39  1   
 25  12  40  1   
 26  13  14  1   
 27  13  41  1   
 28  13  42  1   
 29  14  15  1   
 30  15  16  1   
 31  15  43  1   
 32  15  44  1   
 33  16  17  2   
 34  16  18  am  
 35  18  19  1   
 36  18  45  1   
 37  19  20  1   
 38  19  46  1   
 39  19  47  1   
 40  20  21  ar  
 41  20  22  ar  
 42  21  23  ar  
 43  21  24  1   
 44  22  25  ar  
 45  22  48  1   
 46  23  26  ar  
 47  23  49  1   
 48  24  50  1   
 49  24  51  1   
 50  24  52  1   
 51  25  26  ar  
 52  25  27  1   
 53  26  53  1   
 54  27  28  ar  
 55  27  29  ar  
@<TRIPOS>SUBSTRUCTURE
  1 ****  14 GROUP 4 **** **** 0

# MOE 2024.06 (io_trps.svl 2023.06)
