@<TRIPOS>MOLECULE
NONAME
56 59 1 0 0 
SMALL
USER_CHARGES


@<TRIPOS>ATOM
  1 CL       0.4940    -0.8520     0.7690 Cl    1 <1>  -0.1770 
  2 C       -0.1650    -2.2630    -0.0300 C.ar  1 <1>   0.1770 
  3 C        0.5090    -2.8360    -1.1000 C.ar  1 <1>  -0.1440 
  4 C       -1.3570    -2.7780     0.4370 C.ar  1 <1>  -0.1500 
  5 C       -0.0480    -3.9540    -1.7030 C.ar  1 <1>  -0.1500 
  6 C        1.8230    -2.2610    -1.6070 C.3   1 <1>  -0.0960 
  7 C       -1.9150    -3.8970    -0.1690 C.ar  1 <1>   0.1000 
  8 C       -1.2440    -4.4740    -1.2400 C.ar  1 <1>  -0.1500 
  9 N       -3.1120    -4.4530     0.2720 N.pl3 1 <1>  -0.8380 
 10 C       -4.2570    -3.5550     0.5090 C.3   1 <1>   0.2090 
 11 C       -3.0070    -5.5800     1.2130 C.3   1 <1>   0.2090 
 12 C       -5.5320    -4.3700     0.3200 C.3   1 <1>  -0.1600 
 13 C       -4.2520    -6.4450     1.0410 C.3   1 <1>  -0.1600 
 14 C       -5.5430    -5.6230     1.2140 C.3   1 <1>   0.4230 
 15 N       -6.7360    -6.4750     0.8930 N.4   1 <1>  -0.9590 
 16 C       -8.0550    -5.7860     0.9890 C.3   1 <1>   0.3430 
 17 C       -6.7750    -7.7830     1.6250 C.3   1 <1>   0.3430 
 18 C       -9.1200    -6.5850     0.2310 C.3   1 <1>  -0.1600 
 19 C       -8.0800    -8.5530     1.3750 C.3   1 <1>  -0.1600 
 20 C       -8.8130    -8.0860     0.1110 C.3   1 <1>   0.4240 
 21 O       -7.9260    -8.2470    -0.9360 O.3   1 <1>  -0.6800 
 22 C      -10.0720    -8.8780    -0.2510 C.ar  1 <1>  -0.1430 
 23 C      -10.6840    -8.6460    -1.4790 C.ar  1 <1>   0.1600 
 24 C      -10.6480    -9.8180     0.5900 C.ar  1 <1>  -0.1500 
 25 N      -11.7720    -9.2510    -1.9200 N.ar  1 <1>  -0.6200 
 26 C      -11.7850   -10.4570     0.1440 C.ar  1 <1>  -0.1500 
 27 C      -12.2990   -10.1430    -1.1000 C.ar  1 <1>   0.1600 
 28 H       -1.8430    -2.3120     1.2710 H     1 <1>   0.1500 
 29 H        0.4450    -4.4250    -2.5360 H     1 <1>   0.1500 
 30 H        2.5570    -2.2770    -0.8220 H     1 <1>   0.0800 
 31 H        1.6790    -1.2440    -1.9260 H     1 <1>   0.0800 
 32 H        2.1990    -2.8290    -2.4380 H     1 <1>   0.0800 
 33 H       -1.6740    -5.3380    -1.7130 H     1 <1>   0.1500 
 34 H       -4.2290    -2.7390    -0.1960 H     1 <1>   0.0800 
 35 H       -4.2030    -3.1500     1.5060 H     1 <1>   0.0800 
 36 H       -2.9310    -5.2060     2.2210 H     1 <1>   0.0800 
 37 H       -2.1200    -6.1550     0.9960 H     1 <1>   0.0800 
 38 H       -5.5930    -4.6540    -0.7160 H     1 <1>   0.0800 
 39 H       -6.3540    -3.7220     0.5530 H     1 <1>   0.0800 
 40 H       -4.1940    -7.2300     1.7700 H     1 <1>   0.0800 
 41 H       -4.2180    -6.8790     0.0570 H     1 <1>   0.0800 
 42 H       -5.6010    -5.3030     2.2420 H     1 <1>   0.0800 
 43 H       -6.6540    -6.7450    -0.1060 H     1 <1>   0.4500 
 44 H       -8.0100    -4.7960     0.5680 H     1 <1>   0.0800 
 45 H       -8.3360    -5.6980     2.0260 H     1 <1>   0.0800 
 46 H       -6.6530    -7.6210     2.6840 H     1 <1>   0.0800 
 47 H       -5.9540    -8.3940     1.2860 H     1 <1>   0.0800 
 48 H       -9.2600    -6.1620    -0.7490 H     1 <1>   0.0800 
 49 H      -10.0510    -6.4590     0.7550 H     1 <1>   0.0800 
 50 H       -8.7230    -8.4100     2.2250 H     1 <1>   0.0800 
 51 H       -7.8650    -9.6060     1.3150 H     1 <1>   0.0800 
 52 H       -8.1020    -9.1150    -1.3600 H     1 <1>   0.4000 
 53 H      -10.2540    -7.9190    -2.1480 H     1 <1>   0.1500 
 54 H      -10.2560   -10.0660     1.5600 H     1 <1>   0.1500 
 55 H      -12.2740   -11.1960     0.7530 H     1 <1>   0.1500 
 56 H      -13.1880   -10.6490    -1.4380 H     1 <1>   0.1500 
@<TRIPOS>BOND
  1   1   2  1   
  2   2   3  ar  
  3   2   4  ar  
  4   3   5  ar  
  5   3   6  1   
  6   4   7  ar  
  7   4  28  1   
  8   5   8  ar  
  9   5  29  1   
 10   6  30  1   
 11   6  31  1   
 12   6  32  1   
 13   7   8  ar  
 14   7   9  1   
 15   8  33  1   
 16   9  10  1   
 17   9  11  1   
 18  10  12  1   
 19  10  34  1   
 20  10  35  1   
 21  11  13  1   
 22  11  36  1   
 23  11  37  1   
 24  12  14  1   
 25  12  38  1   
 26  12  39  1   
 27  13  14  1   
 28  13  40  1   
 29  13  41  1   
 30  14  15  1   
 31  14  42  1   
 32  15  16  1   
 33  15  17  1   
 34  15  43  1   
 35  16  18  1   
 36  16  44  1   
 37  16  45  1   
 38  17  19  1   
 39  17  46  1   
 40  17  47  1   
 41  18  20  1   
 42  18  48  1   
 43  18  49  1   
 44  19  20  1   
 45  19  50  1   
 46  19  51  1   
 47  20  21  1   
 48  20  22  1   
 49  21  52  1   
 50  22  23  ar  
 51  22  24  ar  
 52  23  25  ar  
 53  23  53  1   
 54  24  26  ar  
 55  24  54  1   
 56  25  27  ar  
 57  26  27  ar  
 58  26  55  1   
 59  27  56  1   
@<TRIPOS>SUBSTRUCTURE
  1 ****  14 GROUP 4 **** **** 0

# MOE 2024.06 (io_trps.svl 2023.06)
