@<TRIPOS>MOLECULE
NONAME
52 55 1 0 0 
SMALL
USER_CHARGES


@<TRIPOS>ATOM
  1 O       -0.3960     0.5270    -1.4560 O.2   1 <1>  -0.5700 
  2 C       -0.3180     1.5500    -0.8140 C.2   1 <1>   0.5690 
  3 N       -1.4010     2.1460    -0.2210 N.am  1 <1>  -0.5090 
  4 C        1.0590     2.2080    -0.7060 C.3   1 <1>   0.1810 
  5 C       -1.2910     3.4900     0.4330 C.3   1 <1>   0.3640 
  6 C       -2.7420     1.5120    -0.1780 C.3   1 <1>   0.0490 
  7 O        1.1360     3.1770     0.3100 O.3   1 <1>  -0.5600 
  8 C       -2.3500     4.4460    -0.1270 C.ar  1 <1>  -0.1440 
  9 C        0.1030     4.1410     0.2620 C.3   1 <1>   0.2610 
 10 C       -3.3690     1.2480     1.1570 C.3   1 <1>  -0.2000 
 11 C       -2.8830     0.1080     0.3210 C.3   1 <1>  -0.2000 
 12 C       -3.0890     5.2380     0.7390 C.ar  1 <1>  -0.1500 
 13 C       -2.5760     4.5530    -1.4940 C.ar  1 <1>  -0.1500 
 14 C        0.3380     5.2600     1.2920 C.2   1 <1>   0.5690 
 15 C       -4.0350     6.1250     0.2550 C.ar  1 <1>  -0.1500 
 16 C       -3.5210     5.4380    -1.9810 C.ar  1 <1>  -0.1500 
 17 O       -0.2800     5.2290     2.3350 O.2   1 <1>  -0.5700 
 18 N        1.2120     6.2900     1.0240 N.am  1 <1>  -0.6600 
 19 C       -4.2550     6.2300    -1.1140 C.ar  1 <1>   0.0830 
 20 C        2.1710     6.3270    -0.1150 C.3   1 <1>   0.1400 
 21 C        1.2710     7.5040     1.8840 C.3   1 <1>   0.1400 
 22 O       -5.1570     7.0740    -1.6730 O.3   1 <1>  -0.3620 
 23 C        1.8510     7.5350    -1.0010 C.3   1 <1>  -0.1600 
 24 C        0.9510     8.7390     1.0340 C.3   1 <1>  -0.1600 
 25 C       -5.9440     7.9340    -0.8790 C.3   1 <1>   0.0400 
 26 C        1.8720     8.8420    -0.1930 C.3   1 <1>  -0.1600 
 27 H        1.3070     2.6740    -1.6410 H     1 <1>   0.0800 
 28 H        1.7930     1.4530    -0.4900 H     1 <1>   0.0800 
 29 H       -1.4740     3.3420     1.4830 H     1 <1>   0.0800 
 30 H       -3.3770     1.8290    -0.9890 H     1 <1>   0.1000 
 31 H        0.1330     4.5920    -0.7120 H     1 <1>   0.0800 
 32 H       -2.8290     1.4730     2.0590 H     1 <1>   0.1000 
 33 H       -4.4300     1.3850     1.2630 H     1 <1>   0.1000 
 34 H       -3.6070    -0.5310    -0.1530 H     1 <1>   0.1000 
 35 H       -1.9950    -0.4220     0.6160 H     1 <1>   0.1000 
 36 H       -2.9260     5.1740     1.8030 H     1 <1>   0.1500 
 37 H       -2.0220     3.9460    -2.1890 H     1 <1>   0.1500 
 38 H       -4.5850     6.7220     0.9570 H     1 <1>   0.1500 
 39 H       -3.6980     5.5200    -3.0380 H     1 <1>   0.1500 
 40 H        3.1690     6.4220     0.2780 H     1 <1>   0.0800 
 41 H        2.1360     5.4230    -0.6930 H     1 <1>   0.0800 
 42 H        0.5660     7.4350     2.6960 H     1 <1>   0.0800 
 43 H        2.2570     7.5900     2.3060 H     1 <1>   0.0800 
 44 H        2.5700     7.5940    -1.7980 H     1 <1>   0.0800 
 45 H        0.8790     7.3980    -1.4440 H     1 <1>   0.0800 
 46 H       -0.0750     8.6790     0.7130 H     1 <1>   0.0800 
 47 H        1.0540     9.6230     1.6380 H     1 <1>   0.0800 
 48 H       -6.5750     8.5080    -1.5330 H     1 <1>   0.0800 
 49 H       -5.2950     8.5910    -0.3270 H     1 <1>   0.0800 
 50 H       -6.5480     7.3410    -0.2160 H     1 <1>   0.0800 
 51 H        1.5580     9.6620    -0.8160 H     1 <1>   0.0800 
 52 H        2.8780     9.0410     0.1350 H     1 <1>   0.0800 
@<TRIPOS>BOND
  1   1   2  2   
  2   2   3  am  
  3   2   4  1   
  4   3   5  1   
  5   3   6  1   
  6   4   7  1   
  7   4  27  1   
  8   4  28  1   
  9   5   8  1   
 10   5   9  1   
 11   5  29  1   
 12   6  10  1   
 13   6  11  1   
 14   6  30  1   
 15   7   9  1   
 16   8  12  ar  
 17   8  13  ar  
 18   9  14  1   
 19   9  31  1   
 20  10  11  1   
 21  10  32  1   
 22  10  33  1   
 23  11  34  1   
 24  11  35  1   
 25  12  15  ar  
 26  12  36  1   
 27  13  16  ar  
 28  13  37  1   
 29  14  17  2   
 30  14  18  am  
 31  15  19  ar  
 32  15  38  1   
 33  16  19  ar  
 34  16  39  1   
 35  18  20  1   
 36  18  21  1   
 37  19  22  1   
 38  20  23  1   
 39  20  40  1   
 40  20  41  1   
 41  21  24  1   
 42  21  42  1   
 43  21  43  1   
 44  22  25  1   
 45  23  26  1   
 46  23  44  1   
 47  23  45  1   
 48  24  26  1   
 49  24  46  1   
 50  24  47  1   
 51  25  48  1   
 52  25  49  1   
 53  25  50  1   
 54  26  51  1   
 55  26  52  1   
@<TRIPOS>SUBSTRUCTURE
  1 ****   8 GROUP 4 **** **** 0

# MOE 2024.06 (io_trps.svl 2023.06)
