@<TRIPOS>MOLECULE
NONAME
36 36 1 0 0 
SMALL
USER_CHARGES


@<TRIPOS>ATOM
  1 S        0.3350    -0.0170     0.0820 S.o2  1 <1>   1.2040 
  2 O        0.5580    -0.8140     1.2650 O.2   1 <1>  -0.6500 
  3 O        1.3770     0.9150    -0.2860 O.2   1 <1>  -0.6500 
  4 C       -1.2550     0.8900     0.1810 C.ar  1 <1>  -0.0090 
  5 C        0.2070    -1.1050    -1.3250 C.3   1 <1>  -0.1350 
  6 C       -2.5530     0.3590     0.3450 C.ar  1 <1>  -0.1440 
  7 C       -1.1460     2.2770     0.0850 C.ar  1 <1>  -0.1500 
  8 C       -3.6330     1.2390     0.3810 C.ar  1 <1>  -0.1500 
  9 C       -2.9920    -1.1140     0.4850 C.3   1 <1>   0.0630 
 10 C       -2.2180     3.1590     0.1380 C.ar  1 <1>   0.0860 
 11 C       -3.4780     2.6030     0.2800 C.ar  1 <1>  -0.1500 
 12 C       -2.1200    -2.0440     1.3290 C.3   1 <1>  -0.2400 
 13 C       -3.3310    -1.7200    -0.8820 C.3   1 <1>  -0.2400 
 14 C       -2.0250     4.5920     0.0470 C.2   1 <1>   0.5440 
 15 O       -1.2140     5.0570    -0.7280 O.2   1 <1>  -0.5700 
 16 N       -2.7160     5.4170     0.8890 N.am  1 <1>  -0.4900 
 17 C       -3.0380     6.7560     0.6930 C.2   1 <1>   0.4500 
 18 N       -3.3970     7.2490    -0.4210 N.2   1 <1>  -0.5030 
 19 N       -3.6990     8.5950    -0.4740 N.pl3 1 <1>  -0.5690 
 20 H        1.1800    -1.4800    -1.5740 H     1 <1>   0.0800 
 21 H       -0.1770    -0.5750    -2.1750 H     1 <1>   0.0800 
 22 H       -0.4190    -1.9450    -1.1170 H     1 <1>   0.0800 
 23 H       -0.1730     2.7240    -0.0390 H     1 <1>   0.1500 
 24 H       -4.6370     0.8630     0.4860 H     1 <1>   0.1500 
 25 H       -3.9230    -1.1030     1.0280 H     1 <1>   0.0800 
 26 H       -4.3460     3.2400     0.3000 H     1 <1>   0.1500 
 27 H       -1.2790    -2.4230     0.7860 H     1 <1>   0.0800 
 28 H       -2.6990    -2.8940     1.6440 H     1 <1>   0.0800 
 29 H       -1.7770    -1.5350     2.2130 H     1 <1>   0.0800 
 30 H       -2.4900    -1.7080    -1.5440 H     1 <1>   0.0800 
 31 H       -4.1220    -1.1560    -1.3440 H     1 <1>   0.0800 
 32 H       -3.6670    -2.7350    -0.7680 H     1 <1>   0.0800 
 33 H       -3.0360     5.0120     1.7620 H     1 <1>   0.3700 
 34 H       -3.0040     7.3640     1.5800 H     1 <1>   0.0600 
 35 H       -3.0480     9.2140     0.0250 H     1 <1>   0.3110 
 36 H       -3.8620     8.9440    -1.4280 H     1 <1>   0.3110 
@<TRIPOS>BOND
  1   1   2  2   
  2   1   3  2   
  3   1   4  1   
  4   1   5  1   
  5   4   6  ar  
  6   4   7  ar  
  7   5  20  1   
  8   5  21  1   
  9   5  22  1   
 10   6   8  ar  
 11   6   9  1   
 12   7  10  ar  
 13   7  23  1   
 14   8  11  ar  
 15   8  24  1   
 16   9  12  1   
 17   9  13  1   
 18   9  25  1   
 19  10  11  ar  
 20  10  14  1   
 21  11  26  1   
 22  12  27  1   
 23  12  28  1   
 24  12  29  1   
 25  13  30  1   
 26  13  31  1   
 27  13  32  1   
 28  14  15  2   
 29  14  16  am  
 30  16  17  1   
 31  16  33  1   
 32  17  18  2   
 33  17  34  1   
 34  18  19  1   
 35  19  35  1   
 36  19  36  1   
@<TRIPOS>SUBSTRUCTURE
  1 ****   7 GROUP 4 **** **** 0

# MOE 2024.06 (io_trps.svl 2023.06)
