@<TRIPOS>MOLECULE
NONAME
35 36 1 0 0 
SMALL
USER_CHARGES


@<TRIPOS>ATOM
  1 O        0.2600     0.8260     0.5910 O.3   1 <1>  -0.6800 
  2 C        0.6770     1.3880    -0.6190 C.3   1 <1>   0.1200 
  3 C        1.3670     0.3050    -1.4720 C.3   1 <1>   0.3430 
  4 N        2.1430    -0.5890    -0.5710 N.4   1 <1>  -0.9590 
  5 C        3.5870    -0.2940    -0.4820 C.3   1 <1>   0.5230 
  6 C        1.8100    -2.0220    -0.6780 C.3   1 <1>   0.5230 
  7 C        3.7710     0.5980     0.7150 C.2   1 <1>  -0.3320 
  8 C        2.3390    -2.6320     0.5920 C.2   1 <1>  -0.3320 
  9 N        3.7280     0.1610     1.9980 N.pl3 1 <1>   0.3000 
 10 C        4.0150     1.9270     0.7630 C.2   1 <1>  -0.1500 
 11 N        3.3520    -3.5220     0.6900 N.pl3 1 <1>   0.0480 
 12 C        1.9340    -2.3630     1.8530 C.2   1 <1>   0.0770 
 13 N        3.9140     1.1750     2.8580 N.2   1 <1>  -0.7070 
 14 C        4.0930     2.2250     2.1180 C.2   1 <1>   0.1390 
 15 C        3.5220    -3.6890     2.0200 C.2   1 <1>   0.0360 
 16 C        4.1030    -4.2150    -0.3770 C.3   1 <1>   0.0160 
 17 N        2.7060    -2.9970     2.7450 N.2   1 <1>  -0.5650 
 18 H       -0.1700     1.5000     1.1650 H     1 <1>   0.4000 
 19 H        1.3640     2.1880    -0.3980 H     1 <1>   0.0800 
 20 H       -0.1800     1.7920    -1.1310 H     1 <1>   0.0800 
 21 H        2.0000     0.7590    -2.2160 H     1 <1>   0.0800 
 22 H        0.6020    -0.2590    -1.9810 H     1 <1>   0.0800 
 23 H        1.7630    -0.3140     0.3550 H     1 <1>   0.4500 
 24 H        3.9270     0.2020    -1.3770 H     1 <1>   0.0800 
 25 H        4.1600    -1.1960    -0.3470 H     1 <1>   0.0800 
 26 H        2.2650    -2.4630    -1.5500 H     1 <1>   0.0800 
 27 H        0.7400    -2.1530    -0.7250 H     1 <1>   0.0800 
 28 H        3.5710    -0.8060     2.3360 H     1 <1>   0.2700 
 29 H        4.1370     2.6430    -0.0320 H     1 <1>   0.1500 
 30 H        1.1310    -1.7190     2.1840 H     1 <1>   0.1500 
 31 H        4.2800     3.2070     2.5230 H     1 <1>   0.1500 
 32 H        4.2740    -4.3460     2.4260 H     1 <1>   0.1500 
 33 H        3.4190    -4.7650    -0.9990 H     1 <1>   0.0800 
 34 H        4.8010    -4.9040     0.0640 H     1 <1>   0.0800 
 35 H        4.6420    -3.5000    -0.9700 H     1 <1>   0.0800 
@<TRIPOS>BOND
  1   1   2  1   
  2   1  18  1   
  3   2   3  1   
  4   2  19  1   
  5   2  20  1   
  6   3   4  1   
  7   3  21  1   
  8   3  22  1   
  9   4   5  1   
 10   4   6  1   
 11   4  23  1   
 12   5   7  1   
 13   5  24  1   
 14   5  25  1   
 15   6   8  1   
 16   6  26  1   
 17   6  27  1   
 18   7   9  1   
 19   7  10  2   
 20   8  11  1   
 21   8  12  2   
 22   9  13  1   
 23   9  28  1   
 24  10  14  1   
 25  10  29  1   
 26  11  15  1   
 27  11  16  1   
 28  12  17  1   
 29  12  30  1   
 30  13  14  2   
 31  14  31  1   
 32  15  17  2   
 33  15  32  1   
 34  16  33  1   
 35  16  34  1   
 36  16  35  1   
@<TRIPOS>SUBSTRUCTURE
  1 ****   4 GROUP 4 **** **** 0

# MOE 2024.06 (io_trps.svl 2023.06)
