@<TRIPOS>MOLECULE
NONAME
52 56 1 0 0 
SMALL
USER_CHARGES


@<TRIPOS>ATOM
  1 O       -1.5910     1.5260     2.7260 O.2   1 <1>  -0.5700 
  2 C       -2.3630     1.5530     1.7820 C.2   1 <1>   0.5440 
  3 N       -3.5150     0.7860     1.8700 N.am  1 <1>  -0.6600 
  4 C       -2.0320     2.3990     0.6310 C.ar  1 <1>   0.3960 
  5 C       -4.6840     0.9020     0.9590 C.3   1 <1>   0.1400 
  6 C       -3.6510    -0.3320     2.8440 C.3   1 <1>   0.1400 
  7 N       -2.2610     1.9980    -0.6220 N.ar  1 <1>  -0.6200 
  8 C       -1.4520     3.6360     0.8450 C.ar  1 <1>  -0.1500 
  9 C       -4.7830    -0.3810     0.1340 C.3   1 <1>  -0.1600 
 10 C       -3.7460    -1.6440     2.0640 C.3   1 <1>  -0.1600 
 11 C       -1.9210     2.8310    -1.5830 C.ar  1 <1>   0.4770 
 12 C       -1.1390     4.4220    -0.2340 C.ar  1 <1>   0.1660 
 13 C       -4.8860    -1.6180     1.0390 C.3   1 <1>   0.4600 
 14 N       -1.3750     4.0260    -1.4610 N.ar  1 <1>  -0.6200 
 15 C       -2.1840     2.3740    -2.9980 C.3   1 <1>  -0.0960 
 16 C       -0.5020     5.7840    -0.0630 C.3   1 <1>  -0.0960 
 17 O       -6.0830    -1.5460     1.7840 O.3   1 <1>  -0.5600 
 18 C       -4.8810    -2.9000     0.2140 C.2   1 <1>  -0.3320 
 19 C       -7.2780    -1.9640     1.1660 C.3   1 <1>   0.1200 
 20 N       -3.8390    -3.3820    -0.5270 N.pl3 1 <1>   0.0330 
 21 C       -5.9290    -3.7410     0.1100 C.2   1 <1>  -0.1810 
 22 C       -7.2300    -3.4610     0.8180 C.3   1 <1>   0.0210 
 23 C       -4.2410    -4.5610    -1.1070 C.ar  1 <1>  -0.1520 
 24 C       -5.5550    -4.8170    -0.7220 C.ar  1 <1>   0.0000 
 25 C       -3.5580    -5.4430    -1.9490 C.ar  1 <1>  -0.1500 
 26 C       -6.1990    -5.9700    -1.1800 C.ar  1 <1>  -0.1500 
 27 C       -4.2040    -6.5730    -2.3930 C.ar  1 <1>  -0.1500 
 28 C       -5.5250    -6.8370    -2.0090 C.ar  1 <1>  -0.1500 
 29 H       -4.5970     1.7580     0.3160 H     1 <1>   0.0800 
 30 H       -5.5770     1.0250     1.5490 H     1 <1>   0.0800 
 31 H       -4.5400    -0.1850     3.4330 H     1 <1>   0.0800 
 32 H       -2.8080    -0.3670     3.5130 H     1 <1>   0.0800 
 33 H       -1.2510     3.9620     1.8490 H     1 <1>   0.1500 
 34 H       -3.9030    -0.4590    -0.4770 H     1 <1>   0.0800 
 35 H       -5.6250    -0.3340    -0.5280 H     1 <1>   0.0800 
 36 H       -3.9000    -2.4640     2.7410 H     1 <1>   0.0800 
 37 H       -2.8100    -1.8060     1.5640 H     1 <1>   0.0800 
 38 H       -2.6840     1.4230    -3.0040 H     1 <1>   0.0800 
 39 H       -1.2510     2.2830    -3.5210 H     1 <1>   0.0800 
 40 H       -2.7990     3.0970    -3.4990 H     1 <1>   0.0800 
 41 H       -0.3480     6.0120     0.9760 H     1 <1>   0.0800 
 42 H       -1.1380     6.5350    -0.4940 H     1 <1>   0.0800 
 43 H        0.4460     5.8030    -0.5670 H     1 <1>   0.0800 
 44 H       -7.4260    -1.3790     0.2770 H     1 <1>   0.0800 
 45 H       -8.0860    -1.7680     1.8480 H     1 <1>   0.0800 
 46 H       -2.9130    -2.9560    -0.6330 H     1 <1>   0.2700 
 47 H       -8.0600    -3.7120     0.1830 H     1 <1>   0.0800 
 48 H       -7.2900    -4.0500     1.7150 H     1 <1>   0.0800 
 49 H       -2.5440    -5.2340    -2.2380 H     1 <1>   0.1500 
 50 H       -7.2110    -6.1600    -0.8760 H     1 <1>   0.1500 
 51 H       -3.6990    -7.2680    -3.0420 H     1 <1>   0.1500 
 52 H       -6.0070    -7.7280    -2.3700 H     1 <1>   0.1500 
@<TRIPOS>BOND
  1   1   2  2   
  2   2   3  am  
  3   2   4  1   
  4   3   5  1   
  5   3   6  1   
  6   4   7  ar  
  7   4   8  ar  
  8   5   9  1   
  9   5  29  1   
 10   5  30  1   
 11   6  10  1   
 12   6  31  1   
 13   6  32  1   
 14   7  11  ar  
 15   8  12  ar  
 16   8  33  1   
 17   9  13  1   
 18   9  34  1   
 19   9  35  1   
 20  10  13  1   
 21  10  36  1   
 22  10  37  1   
 23  11  14  ar  
 24  11  15  1   
 25  12  14  ar  
 26  12  16  1   
 27  13  17  1   
 28  13  18  1   
 29  15  38  1   
 30  15  39  1   
 31  15  40  1   
 32  16  41  1   
 33  16  42  1   
 34  16  43  1   
 35  17  19  1   
 36  18  20  1   
 37  18  21  2   
 38  19  22  1   
 39  19  44  1   
 40  19  45  1   
 41  20  23  1   
 42  20  46  1   
 43  21  22  1   
 44  21  24  1   
 45  22  47  1   
 46  22  48  1   
 47  23  24  ar  
 48  23  25  ar  
 49  24  26  ar  
 50  25  27  ar  
 51  25  49  1   
 52  26  28  ar  
 53  26  50  1   
 54  27  28  ar  
 55  27  51  1   
 56  28  52  1   
@<TRIPOS>SUBSTRUCTURE
  1 ****   9 GROUP 4 **** **** 0

# MOE 2024.06 (io_trps.svl 2023.06)
