@<TRIPOS>MOLECULE
NONAME
57 59 1 0 0 
SMALL
USER_CHARGES


@<TRIPOS>ATOM
  1 O       -1.7930     0.6870    -2.4850 O.2   1 <1>  -0.5700 
  2 C       -2.3740     1.1190    -1.5080 C.2   1 <1>   0.5440 
  3 N       -3.1320     0.2550    -0.7420 N.am  1 <1>  -0.6600 
  4 C       -2.2710     2.5300    -1.1890 C.ar  1 <1>   0.0860 
  5 C       -3.0510    -1.2240    -0.9560 C.3   1 <1>   0.1400 
  6 C       -4.2440     0.7470     0.1260 C.3   1 <1>   0.1400 
  7 C       -2.6370     3.5020    -2.1170 C.ar  1 <1>  -0.1500 
  8 C       -1.7950     2.9660     0.0470 C.ar  1 <1>  -0.1500 
  9 C       -2.9700    -2.0320     0.3680 C.3   1 <1>   0.0000 
 10 C       -4.8410    -0.3740     0.9840 C.3   1 <1>  -0.1600 
 11 C       -2.5510     4.8510    -1.8210 C.ar  1 <1>  -0.1500 
 12 C       -1.7080     4.3130     0.3490 C.ar  1 <1>  -0.1500 
 13 C       -3.7120    -1.2610     1.5060 C.3   1 <1>   0.2000 
 14 C       -3.6530    -3.4050     0.1180 C.3   1 <1>   0.1200 
 15 C       -1.4920    -2.2890     0.7900 C.3   1 <1>  -0.1600 
 16 C       -2.0880     5.2670    -0.5820 C.ar  1 <1>  -0.1430 
 17 O       -4.2420    -2.1080     2.4690 O.3   1 <1>  -0.6800 
 18 O       -3.0920    -4.0870    -0.9570 O.3   1 <1>  -0.6800 
 19 C       -0.5760    -1.0510     0.8540 C.3   1 <1>  -0.1600 
 20 C       -1.9940     6.7480    -0.2470 C.3   1 <1>   0.2630 
 21 C        0.8200    -1.4330     1.3520 C.3   1 <1>  -0.2400 
 22 O       -0.6830     7.0410     0.1810 O.3   1 <1>  -0.3630 
 23 C       -0.3260     8.2930     0.5560 C.ar  1 <1>   0.0830 
 24 C       -1.2000     9.3790     0.5770 C.ar  1 <1>  -0.1500 
 25 C        0.9940     8.4740     0.9380 C.ar  1 <1>  -0.1500 
 26 C       -0.7460    10.6240     0.9770 C.ar  1 <1>  -0.1500 
 27 C        1.4450     9.7200     1.3370 C.ar  1 <1>  -0.1500 
 28 C        0.5740    10.7960     1.3570 C.ar  1 <1>  -0.1500 
 29 H       -3.9330    -1.5090    -1.5030 H     1 <1>   0.0800 
 30 H       -2.2050    -1.4730    -1.5740 H     1 <1>   0.0800 
 31 H       -3.8660     1.5110     0.7820 H     1 <1>   0.0800 
 32 H       -5.0120     1.1860    -0.4890 H     1 <1>   0.0800 
 33 H       -2.9870     3.1860    -3.0850 H     1 <1>   0.1500 
 34 H       -1.4840     2.2360     0.7730 H     1 <1>   0.1500 
 35 H       -5.5340    -0.9470     0.3950 H     1 <1>   0.0800 
 36 H       -5.3750     0.0700     1.8050 H     1 <1>   0.0800 
 37 H       -2.8400     5.5730    -2.5640 H     1 <1>   0.1500 
 38 H       -1.3330     4.6240     1.3100 H     1 <1>   0.1500 
 39 H       -3.0170    -0.6270     2.0250 H     1 <1>   0.0800 
 40 H       -4.7010    -3.2770    -0.0900 H     1 <1>   0.0800 
 41 H       -3.5480    -4.0400     0.9820 H     1 <1>   0.0800 
 42 H       -1.4950    -2.7700     1.7530 H     1 <1>   0.0800 
 43 H       -1.0430    -2.9810     0.0990 H     1 <1>   0.0800 
 44 H       -5.0150    -2.5890     2.1210 H     1 <1>   0.4000 
 45 H       -3.1200    -3.5560    -1.7760 H     1 <1>   0.4000 
 46 H       -0.4790    -0.6140    -0.1250 H     1 <1>   0.0800 
 47 H       -0.9810    -0.3050     1.5120 H     1 <1>   0.0800 
 48 H       -2.6730     6.9900     0.5520 H     1 <1>   0.0800 
 49 H       -2.2080     7.3530    -1.1100 H     1 <1>   0.0800 
 50 H        1.2670    -2.1580     0.6940 H     1 <1>   0.0800 
 51 H        0.7660    -1.8500     2.3420 H     1 <1>   0.0800 
 52 H        1.4520    -0.5630     1.3790 H     1 <1>   0.0800 
 53 H       -2.2280     9.2790     0.2880 H     1 <1>   0.1500 
 54 H        1.6630     7.6330     0.9190 H     1 <1>   0.1500 
 55 H       -1.4200    11.4630     0.9930 H     1 <1>   0.1500 
 56 H        2.4720     9.8510     1.6320 H     1 <1>   0.1500 
 57 H        0.9240    11.7650     1.6670 H     1 <1>   0.1500 
@<TRIPOS>BOND
  1   1   2  2   
  2   2   3  am  
  3   2   4  1   
  4   3   5  1   
  5   3   6  1   
  6   4   7  ar  
  7   4   8  ar  
  8   5   9  1   
  9   5  29  1   
 10   5  30  1   
 11   6  10  1   
 12   6  31  1   
 13   6  32  1   
 14   7  11  ar  
 15   7  33  1   
 16   8  12  ar  
 17   8  34  1   
 18   9  13  1   
 19   9  14  1   
 20   9  15  1   
 21  10  13  1   
 22  10  35  1   
 23  10  36  1   
 24  11  16  ar  
 25  11  37  1   
 26  12  16  ar  
 27  12  38  1   
 28  13  17  1   
 29  13  39  1   
 30  14  18  1   
 31  14  40  1   
 32  14  41  1   
 33  15  19  1   
 34  15  42  1   
 35  15  43  1   
 36  16  20  1   
 37  17  44  1   
 38  18  45  1   
 39  19  21  1   
 40  19  46  1   
 41  19  47  1   
 42  20  22  1   
 43  20  48  1   
 44  20  49  1   
 45  21  50  1   
 46  21  51  1   
 47  21  52  1   
 48  22  23  1   
 49  23  24  ar  
 50  23  25  ar  
 51  24  26  ar  
 52  24  53  1   
 53  25  27  ar  
 54  25  54  1   
 55  26  28  ar  
 56  26  55  1   
 57  27  28  ar  
 58  27  56  1   
 59  28  57  1   
@<TRIPOS>SUBSTRUCTURE
  1 ****   8 GROUP 4 **** **** 0

# MOE 2024.06 (io_trps.svl 2023.06)
