@<TRIPOS>MOLECULE
NONAME
52 54 1 0 0 
SMALL
USER_CHARGES


@<TRIPOS>ATOM
  1 O        2.4620     0.9290     1.7850 O.co2 1 <1>  -0.9000 
  2 C        2.3450     0.6960     0.5720 C.2   1 <1>   0.9060 
  3 O        2.4330    -0.4520     0.1370 O.co2 1 <1>  -0.9000 
  4 C        2.4250     1.8530    -0.4350 C.3   1 <1>  -0.1060 
  5 C        3.8100     1.6540    -1.0870 C.3   1 <1>   0.2000 
  6 C        2.4090     3.2550     0.2610 C.3   1 <1>  -0.1600 
  7 C        1.2730     1.7270    -1.4660 C.3   1 <1>  -0.0160 
  8 O        4.0680     2.6790    -1.9990 O.3   1 <1>  -0.6800 
  9 C        4.9240     1.6700    -0.0060 C.3   1 <1>   0.3430 
 10 C        3.7670     3.6870     0.8470 C.3   1 <1>   0.3430 
 11 C       -0.0960     2.0540    -0.8800 C.ar  1 <1>  -0.1440 
 12 N        4.5550     2.4820     1.2100 N.4   1 <1>  -0.9590 
 13 C       -0.7550     1.1280    -0.0870 C.ar  1 <1>  -0.1500 
 14 C       -0.6990     3.2770    -1.1360 C.ar  1 <1>  -0.1500 
 15 C        5.6600     2.7540     2.1570 C.3   1 <1>   0.5230 
 16 C       -1.9960     1.4210     0.4500 C.ar  1 <1>  -0.1500 
 17 C       -1.9420     3.5720    -0.6010 C.ar  1 <1>  -0.1500 
 18 C        6.6730     3.7220     1.5680 C.2   1 <1>   0.0060 
 19 C       -2.5910     2.6430     0.1940 C.ar  1 <1>  -0.1500 
 20 N        6.5160     5.0010     1.6010 N.2   1 <1>  -0.3380 
 21 N        7.8200     3.3800     0.9630 N.pl3 1 <1>   0.0480 
 22 N        7.5740     5.5410     1.0030 N.2   1 <1>  -0.3380 
 23 C        8.3320     4.5690     0.6350 C.2   1 <1>   0.0360 
 24 C        8.4170     2.0400     0.7180 C.3   1 <1>   0.1760 
 25 C        9.6800     1.8640     1.5660 C.3   1 <1>  -0.2400 
 26 C        8.7280     1.8530    -0.7720 C.3   1 <1>  -0.2400 
 27 H        3.8520     0.7220    -1.6280 H     1 <1>   0.0800 
 28 H        1.6690     3.2580     1.0440 H     1 <1>   0.0800 
 29 H        2.1140     4.0120    -0.4420 H     1 <1>   0.0800 
 30 H        1.4500     2.3850    -2.2960 H     1 <1>   0.0800 
 31 H        1.2490     0.7250    -1.8590 H     1 <1>   0.0800 
 32 H        3.4120     2.6530    -2.7240 H     1 <1>   0.4000 
 33 H        5.8230     2.0510    -0.4550 H     1 <1>   0.0800 
 34 H        5.0940     0.6530     0.3070 H     1 <1>   0.0800 
 35 H        3.6070     4.3110     1.7110 H     1 <1>   0.0800 
 36 H        4.3140     4.2570     0.1130 H     1 <1>   0.0800 
 37 H        3.8480     1.8850     1.7170 H     1 <1>   0.4500 
 38 H       -0.3020     0.1710     0.1210 H     1 <1>   0.1500 
 39 H       -0.2060     4.0070    -1.7510 H     1 <1>   0.1500 
 40 H        5.2520     3.1950     3.0520 H     1 <1>   0.0800 
 41 H        6.1420     1.8320     2.4340 H     1 <1>   0.0800 
 42 H       -2.4940     0.6940     1.0680 H     1 <1>   0.1500 
 43 H       -2.4040     4.5220    -0.8020 H     1 <1>   0.1500 
 44 H       -3.5550     2.8700     0.6130 H     1 <1>   0.1500 
 45 H        9.2720     4.6880     0.1260 H     1 <1>   0.1500 
 46 H        7.7050     1.2900     1.0110 H     1 <1>   0.0800 
 47 H       10.4340     2.5800     1.2880 H     1 <1>   0.0800 
 48 H       10.0860     0.8780     1.4230 H     1 <1>   0.0800 
 49 H        9.4520     1.9840     2.6110 H     1 <1>   0.0800 
 50 H        9.4890     2.5420    -1.0970 H     1 <1>   0.0800 
 51 H        7.8450     2.0030    -1.3680 H     1 <1>   0.0800 
 52 H        9.0860     0.8550    -0.9500 H     1 <1>   0.0800 
@<TRIPOS>BOND
  1   1   2  ar  
  2   2   3  ar  
  3   2   4  1   
  4   4   5  1   
  5   4   6  1   
  6   4   7  1   
  7   5   8  1   
  8   5   9  1   
  9   5  27  1   
 10   6  10  1   
 11   6  28  1   
 12   6  29  1   
 13   7  11  1   
 14   7  30  1   
 15   7  31  1   
 16   8  32  1   
 17   9  12  1   
 18   9  33  1   
 19   9  34  1   
 20  10  12  1   
 21  10  35  1   
 22  10  36  1   
 23  11  13  ar  
 24  11  14  ar  
 25  12  15  1   
 26  12  37  1   
 27  13  16  ar  
 28  13  38  1   
 29  14  17  ar  
 30  14  39  1   
 31  15  18  1   
 32  15  40  1   
 33  15  41  1   
 34  16  19  ar  
 35  16  42  1   
 36  17  19  ar  
 37  17  43  1   
 38  18  20  2   
 39  18  21  1   
 40  19  44  1   
 41  20  22  1   
 42  21  23  1   
 43  21  24  1   
 44  22  23  2   
 45  23  45  1   
 46  24  25  1   
 47  24  26  1   
 48  24  46  1   
 49  25  47  1   
 50  25  48  1   
 51  25  49  1   
 52  26  50  1   
 53  26  51  1   
 54  26  52  1   
@<TRIPOS>SUBSTRUCTURE
  1 ****  12 GROUP 4 **** **** 0

# MOE 2024.06 (io_trps.svl 2023.06)
