@<TRIPOS>MOLECULE
NONAME
51 54 1 0 0 
SMALL
USER_CHARGES


@<TRIPOS>ATOM
  1 S       -0.0730     0.1490    -0.1400 S.3   1 <1>  -0.2860 
  2 C       -1.3250    -1.1280    -0.3140 C.2   1 <1>   0.1960 
  3 C        1.5300    -0.7660    -0.2080 C.3   1 <1>   0.1500 
  4 O       -0.9440    -2.3760    -0.4890 O.3   1 <1>  -0.2800 
  5 C       -2.6650    -0.9990    -0.2920 C.2   1 <1>  -0.1500 
  6 C        1.7950    -1.3840     1.1700 C.3   1 <1>  -0.1600 
  7 C        2.6230     0.2290    -0.6100 C.3   1 <1>  -0.1600 
  8 C       -2.0510    -3.0960    -0.5840 C.2   1 <1>  -0.0400 
  9 C       -3.1440    -2.3040    -0.4730 C.2   1 <1>  -0.1500 
 10 C        3.1820    -2.0410     1.2180 C.3   1 <1>  -0.1600 
 11 C        4.0100    -0.4290    -0.5610 C.3   1 <1>  -0.1600 
 12 C       -1.9210    -4.5980    -0.7970 C.3   1 <1>   0.2900 
 13 C        4.2830    -1.0470     0.8190 C.3   1 <1>  -0.1600 
 14 N       -3.1830    -5.3090    -0.5170 N.3   1 <1>  -0.8100 
 15 C       -3.1360    -6.6880    -1.0650 C.3   1 <1>   0.1100 
 16 C       -3.4610    -5.3550     0.9370 C.3   1 <1>   0.1100 
 17 C       -4.4290    -7.4720    -0.7580 C.3   1 <1>   0.2510 
 18 C       -4.7520    -6.1380     1.2470 C.3   1 <1>   0.1100 
 19 N       -4.6630    -7.5110     0.7240 N.3   1 <1>  -0.8100 
 20 C       -4.4140    -8.8750    -1.4010 C.2   1 <1>   0.5690 
 21 C       -5.8530    -8.3230     1.0230 C.3   1 <1>   0.1100 
 22 O       -3.8520    -9.0740    -2.4520 O.2   1 <1>  -0.5700 
 23 N       -5.0680    -9.8940    -0.7830 N.am  1 <1>  -0.7300 
 24 C       -5.6490    -9.7900     0.5850 C.3   1 <1>   0.1400 
 25 H        1.4280    -1.5320    -0.9580 H     1 <1>   0.0800 
 26 H       -3.2530    -0.1090    -0.1680 H     1 <1>   0.1500 
 27 H        1.0400    -2.1170     1.3900 H     1 <1>   0.0800 
 28 H        1.7430    -0.6130     1.9190 H     1 <1>   0.0800 
 29 H        2.6050     1.0670     0.0660 H     1 <1>   0.0800 
 30 H        2.4290     0.5940    -1.6030 H     1 <1>   0.0800 
 31 H       -4.1780    -2.5970    -0.5160 H     1 <1>   0.1500 
 32 H        3.2010    -2.8820     0.5450 H     1 <1>   0.0800 
 33 H        3.3720    -2.4090     2.2120 H     1 <1>   0.0800 
 34 H        4.7650     0.3050    -0.7830 H     1 <1>   0.0800 
 35 H        4.0660    -1.1990    -1.3120 H     1 <1>   0.0800 
 36 H       -1.1390    -4.9830    -0.1650 H     1 <1>   0.0800 
 37 H       -1.6330    -4.7610    -1.8210 H     1 <1>   0.0800 
 38 H        5.2350    -1.5490     0.8060 H     1 <1>   0.0800 
 39 H        4.3350    -0.2620     1.5540 H     1 <1>   0.0800 
 40 H       -2.3010    -7.2260    -0.6510 H     1 <1>   0.0800 
 41 H       -3.0080    -6.6390    -2.1330 H     1 <1>   0.0800 
 42 H       -3.5630    -4.3550     1.3190 H     1 <1>   0.0800 
 43 H       -2.6410    -5.8260     1.4520 H     1 <1>   0.0800 
 44 H       -5.2400    -6.9400    -1.2210 H     1 <1>   0.0800 
 45 H       -5.5910    -5.6250     0.8090 H     1 <1>   0.0800 
 46 H       -4.8920    -6.1710     2.3140 H     1 <1>   0.0800 
 47 H       -6.7110    -7.9130     0.5170 H     1 <1>   0.0800 
 48 H       -6.0480    -8.3000     2.0810 H     1 <1>   0.0800 
 49 H       -4.9970   -10.8180    -1.2110 H     1 <1>   0.3700 
 50 H       -6.5930   -10.3060     0.6140 H     1 <1>   0.0800 
 51 H       -4.9830   -10.2700     1.2810 H     1 <1>   0.0800 
@<TRIPOS>BOND
  1   1   2  1   
  2   1   3  1   
  3   2   4  1   
  4   2   5  2   
  5   3   6  1   
  6   3   7  1   
  7   3  25  1   
  8   4   8  1   
  9   5   9  1   
 10   5  26  1   
 11   6  10  1   
 12   6  27  1   
 13   6  28  1   
 14   7  11  1   
 15   7  29  1   
 16   7  30  1   
 17   8   9  2   
 18   8  12  1   
 19   9  31  1   
 20  10  13  1   
 21  10  32  1   
 22  10  33  1   
 23  11  13  1   
 24  11  34  1   
 25  11  35  1   
 26  12  14  1   
 27  12  36  1   
 28  12  37  1   
 29  13  38  1   
 30  13  39  1   
 31  14  15  1   
 32  14  16  1   
 33  15  17  1   
 34  15  40  1   
 35  15  41  1   
 36  16  18  1   
 37  16  42  1   
 38  16  43  1   
 39  17  19  1   
 40  17  20  1   
 41  17  44  1   
 42  18  19  1   
 43  18  45  1   
 44  18  46  1   
 45  19  21  1   
 46  20  22  2   
 47  20  23  am  
 48  21  24  1   
 49  21  47  1   
 50  21  48  1   
 51  23  24  1   
 52  23  49  1   
 53  24  50  1   
 54  24  51  1   
@<TRIPOS>SUBSTRUCTURE
  1 ****  12 GROUP 4 **** **** 0

# MOE 2024.06 (io_trps.svl 2023.06)
