@<TRIPOS>MOLECULE
NONAME
42 43 1 0 0 
SMALL
USER_CHARGES


@<TRIPOS>ATOM
  1 O       -0.5670    -0.2050    -0.4200 O.co2 1 <1>  -0.9000 
  2 C        0.4510    -0.7940    -0.8400 C.2   1 <1>   0.9790 
  3 O        1.3960    -0.0760    -1.2360 O.co2 1 <1>  -0.9000 
  4 C        0.5790    -2.2640    -0.8820 C.ar  1 <1>   0.1310 
  5 N       -0.3990    -3.0990    -0.5100 N.ar  1 <1>  -0.6200 
  6 C        1.7670    -2.8210    -1.3270 C.ar  1 <1>  -0.1500 
  7 C       -0.1790    -4.4060    -0.5870 C.ar  1 <1>   0.7200 
  8 C        1.9030    -4.1850    -1.3720 C.ar  1 <1>   0.1660 
  9 N        0.9420    -4.9890    -1.0060 N.ar  1 <1>  -0.6200 
 10 N       -1.2080    -5.2400    -0.1950 N.pl3 1 <1>  -0.8380 
 11 C        3.1840    -4.8290    -1.8520 C.3   1 <1>  -0.0970 
 12 C       -1.5030    -6.4950    -0.9620 C.3   1 <1>   0.2090 
 13 C       -2.3520    -4.7090     0.5890 C.3   1 <1>   0.2090 
 14 C       -2.0330    -7.6420    -0.0710 C.3   1 <1>  -0.1060 
 15 C       -2.8520    -5.7730     1.5610 C.3   1 <1>  -0.1600 
 16 C       -2.7070    -8.6720    -0.9860 C.2   1 <1>   0.9060 
 17 C       -3.1630    -7.0750     0.8230 C.3   1 <1>   0.2000 
 18 C       -0.8660    -8.3930     0.6540 C.3   1 <1>  -0.1600 
 19 O       -2.5280    -8.6380    -2.2100 O.co2 1 <1>  -0.9000 
 20 O       -3.4370    -9.5350    -0.4710 O.co2 1 <1>  -0.9000 
 21 O       -3.5640    -8.0250     1.7400 O.3   1 <1>  -0.6800 
 22 C       -0.0420    -7.6450     1.7130 C.3   1 <1>  -0.1600 
 23 C        1.1740    -8.4690     2.1450 C.3   1 <1>  -0.2400 
 24 H        2.5700    -2.1750    -1.6330 H     1 <1>   0.1500 
 25 H        3.9090    -4.0860    -2.1270 H     1 <1>   0.0800 
 26 H        2.9730    -5.4480    -2.7050 H     1 <1>   0.0800 
 27 H        3.5890    -5.4430    -1.0690 H     1 <1>   0.0800 
 28 H       -2.2450    -6.2510    -1.7030 H     1 <1>   0.0800 
 29 H       -0.6330    -6.8370    -1.4960 H     1 <1>   0.0800 
 30 H       -2.0560    -3.8380     1.1490 H     1 <1>   0.0800 
 31 H       -3.1360    -4.4220    -0.0910 H     1 <1>   0.0800 
 32 H       -3.7470    -5.4150     2.0340 H     1 <1>   0.0800 
 33 H       -2.1130    -5.9210     2.3190 H     1 <1>   0.0800 
 34 H       -4.0140    -6.8890     0.1890 H     1 <1>   0.0800 
 35 H       -1.2710    -9.2770     1.1180 H     1 <1>   0.0800 
 36 H       -0.1910    -8.7370    -0.1120 H     1 <1>   0.0800 
 37 H       -3.6710    -8.8600     1.2030 H     1 <1>   0.4000 
 38 H        0.2990    -6.7010     1.3260 H     1 <1>   0.0800 
 39 H       -0.6520    -7.4640     2.5780 H     1 <1>   0.0800 
 40 H        1.8210    -8.6440     1.3030 H     1 <1>   0.0800 
 41 H        0.8590    -9.4160     2.5470 H     1 <1>   0.0800 
 42 H        1.7270    -7.9380     2.8980 H     1 <1>   0.0800 
@<TRIPOS>BOND
  1   1   2  ar  
  2   2   3  ar  
  3   2   4  1   
  4   4   5  ar  
  5   4   6  ar  
  6   5   7  ar  
  7   6   8  ar  
  8   6  24  1   
  9   7   9  ar  
 10   7  10  1   
 11   8   9  ar  
 12   8  11  1   
 13  10  12  1   
 14  10  13  1   
 15  11  25  1   
 16  11  26  1   
 17  11  27  1   
 18  12  14  1   
 19  12  28  1   
 20  12  29  1   
 21  13  15  1   
 22  13  30  1   
 23  13  31  1   
 24  14  16  1   
 25  14  17  1   
 26  14  18  1   
 27  15  17  1   
 28  15  32  1   
 29  15  33  1   
 30  16  19  ar  
 31  16  20  ar  
 32  17  21  1   
 33  17  34  1   
 34  18  22  1   
 35  18  35  1   
 36  18  36  1   
 37  21  37  1   
 38  22  23  1   
 39  22  38  1   
 40  22  39  1   
 41  23  40  1   
 42  23  41  1   
 43  23  42  1   
@<TRIPOS>SUBSTRUCTURE
  1 ****  10 GROUP 4 **** **** 0

# MOE 2024.06 (io_trps.svl 2023.06)
