@<TRIPOS>MOLECULE
NONAME
48 50 1 0 0 
SMALL
USER_CHARGES


@<TRIPOS>ATOM
  1 F        2.4260     1.5110    -0.7370 F     1 <1>  -0.1900 
  2 C        2.3430     0.3490    -0.1400 C.ar  1 <1>   0.1900 
  3 C        1.5950    -0.6540    -0.7500 C.ar  1 <1>   0.0820 
  4 C        3.0090     0.1890     1.0740 C.ar  1 <1>   0.0860 
  5 O        1.0060    -0.3610    -1.9500 O.3   1 <1>  -0.3630 
  6 C        1.5240    -1.8740    -0.0690 C.ar  1 <1>   0.1900 
  7 C        3.7880     1.2490     1.6670 C.2   1 <1>   0.5440 
  8 C        2.8910    -1.0470     1.7120 C.ar  1 <1>  -0.1500 
  9 C        0.0090    -1.1690    -2.5370 C.3   1 <1>   0.0400 
 10 F        0.8650    -2.8940    -0.5510 F     1 <1>  -0.1900 
 11 C        2.1560    -2.0740     1.1460 C.ar  1 <1>  -0.1500 
 12 O        3.3500     1.8150     2.6510 O.2   1 <1>  -0.5700 
 13 N        5.0230     1.6170     1.1750 N.am  1 <1>  -0.6600 
 14 C        5.7240     0.9370     0.0350 C.3   1 <1>   0.1400 
 15 C        5.7910     2.7400     1.7820 C.3   1 <1>   0.1400 
 16 C        5.7430     1.7800    -1.2540 C.3   1 <1>   0.1400 
 17 C        5.3950     4.0810     1.1510 C.3   1 <1>  -0.1600 
 18 N        6.2430     3.1710    -1.0150 N.am  1 <1>  -0.6600 
 19 C        5.2240     4.0510    -0.3750 C.3   1 <1>   0.1400 
 20 C        7.5600     3.4850    -1.2510 C.2   1 <1>   0.5690 
 21 O        8.3320     2.6430    -1.6480 O.2   1 <1>  -0.5700 
 22 C        8.1160     4.8880    -0.9980 C.3   1 <1>  -0.0190 
 23 C        8.8240     5.5110    -2.2220 C.3   1 <1>  -0.0220 
 24 C        9.1350     4.9420     0.1610 C.3   1 <1>  -0.0220 
 25 C        9.9470     6.2950    -1.5890 C.2   1 <1>  -0.2880 
 26 C       10.1150     5.9890    -0.3090 C.2   1 <1>  -0.2880 
 27 H        3.3800    -1.1910     2.6610 H     1 <1>   0.1500 
 28 H       -0.3890    -0.6430    -3.3860 H     1 <1>   0.0800 
 29 H       -0.7710    -1.3440    -1.8180 H     1 <1>   0.0800 
 30 H        0.4520    -2.0940    -2.8600 H     1 <1>   0.0800 
 31 H        2.0700    -3.0260     1.6410 H     1 <1>   0.1500 
 32 H        5.2620    -0.0100    -0.1770 H     1 <1>   0.0800 
 33 H        6.7410     0.7310     0.3210 H     1 <1>   0.0800 
 34 H        6.8440     2.5700     1.6340 H     1 <1>   0.0800 
 35 H        5.6150     2.7730     2.8440 H     1 <1>   0.0800 
 36 H        4.7550     1.8210    -1.6740 H     1 <1>   0.0800 
 37 H        6.3670     1.2860    -1.9790 H     1 <1>   0.0800 
 38 H        6.1330     4.8150     1.4140 H     1 <1>   0.0800 
 39 H        4.4670     4.4030     1.5890 H     1 <1>   0.0800 
 40 H        5.2680     5.0450    -0.7820 H     1 <1>   0.0800 
 41 H        4.2420     3.6690    -0.5980 H     1 <1>   0.0800 
 42 H        7.3280     5.5650    -0.7400 H     1 <1>   0.0800 
 43 H        8.1540     6.1470    -2.7730 H     1 <1>   0.0800 
 44 H        9.2330     4.7590    -2.8750 H     1 <1>   0.0800 
 45 H        9.6440     4.0010     0.2850 H     1 <1>   0.0800 
 46 H        8.6600     5.2260     1.0830 H     1 <1>   0.0800 
 47 H       10.5040     6.9890    -2.1970 H     1 <1>   0.1500 
 48 H       10.8430     6.3720     0.3880 H     1 <1>   0.1500 
@<TRIPOS>BOND
  1   1   2  1   
  2   2   3  ar  
  3   2   4  ar  
  4   3   5  1   
  5   3   6  ar  
  6   4   7  1   
  7   4   8  ar  
  8   5   9  1   
  9   6  10  1   
 10   6  11  ar  
 11   7  12  2   
 12   7  13  am  
 13   8  11  ar  
 14   8  27  1   
 15   9  28  1   
 16   9  29  1   
 17   9  30  1   
 18  11  31  1   
 19  13  14  1   
 20  13  15  1   
 21  14  16  1   
 22  14  32  1   
 23  14  33  1   
 24  15  17  1   
 25  15  34  1   
 26  15  35  1   
 27  16  18  1   
 28  16  36  1   
 29  16  37  1   
 30  17  19  1   
 31  17  38  1   
 32  17  39  1   
 33  18  19  1   
 34  18  20  am  
 35  19  40  1   
 36  19  41  1   
 37  20  21  2   
 38  20  22  1   
 39  22  23  1   
 40  22  24  1   
 41  22  42  1   
 42  23  25  1   
 43  23  43  1   
 44  23  44  1   
 45  24  26  1   
 46  24  45  1   
 47  24  46  1   
 48  25  26  2   
 49  25  47  1   
 50  26  48  1   
@<TRIPOS>SUBSTRUCTURE
  1 ****  14 GROUP 4 **** **** 0

# MOE 2024.06 (io_trps.svl 2023.06)
