@<TRIPOS>MOLECULE
NONAME
56 58 1 0 0 
SMALL
USER_CHARGES


@<TRIPOS>ATOM
  1 O        1.8260    -0.8390     2.5610 O.2   1 <1>  -0.5700 
  2 C        2.5110    -1.6290     1.9300 C.2   1 <1>   0.5440 
  3 N        3.7870    -1.2280     1.5880 N.am  1 <1>  -0.6600 
  4 C        1.9450    -2.8580     1.4300 C.ar  1 <1>   0.0860 
  5 C        4.3960     0.0130     2.1980 C.3   1 <1>   0.1400 
  6 C        4.3850    -1.6430     0.2810 C.3   1 <1>   0.1400 
  7 C        0.9130    -2.8180     0.4760 C.ar  1 <1>   0.1000 
  8 C        2.4470    -4.0940     1.8370 C.ar  1 <1>  -0.1500 
  9 C        4.0820     1.2990     1.3850 C.3   1 <1>   0.4230 
 10 C        4.2080    -0.5940    -0.8470 C.3   1 <1>  -0.0800 
 11 N        0.3900    -1.5840     0.0920 N.pl3 1 <1>  -0.8690 
 12 C        0.4440    -4.0180    -0.0580 C.ar  1 <1>  -0.1500 
 13 C        1.9610    -5.2710     1.3070 C.ar  1 <1>  -0.1500 
 14 N        2.8290     1.0550     0.5800 N.4   1 <1>  -0.9590 
 15 C        5.3200     1.7780     0.5820 C.3   1 <1>   0.1200 
 16 C        5.5000     0.1830    -1.1380 C.3   1 <1>   0.1200 
 17 C        3.0110     0.3730    -0.7420 C.3   1 <1>   0.3430 
 18 C       -0.7970    -1.4150    -0.7750 C.3   1 <1>   0.2090 
 19 C        0.9590    -5.2310     0.3520 C.ar  1 <1>  -0.1500 
 20 C        2.0100     2.3240     0.4110 C.3   1 <1>   0.2370 
 21 O        6.0380     0.7140     0.0240 O.3   1 <1>  -0.5600 
 22 C       -1.0840     0.0830    -0.9750 C.3   1 <1>  -0.0800 
 23 C        2.7090     3.4480    -0.3550 C.2   1 <1>   0.9060 
 24 C       -1.4000     0.8010     0.3490 C.3   1 <1>  -0.2400 
 25 C       -2.2540     0.2710    -1.9480 C.3   1 <1>  -0.2400 
 26 O        2.7260     3.3890    -1.5870 O.co2 1 <1>  -0.9000 
 27 O        3.3530     4.2720     0.3000 O.co2 1 <1>  -0.9000 
 28 H        4.0070     0.1410     3.1930 H     1 <1>   0.0800 
 29 H        5.4590    -0.1190     2.3020 H     1 <1>   0.0800 
 30 H        5.4330    -1.8470     0.4290 H     1 <1>   0.0800 
 31 H        3.9400    -2.5670    -0.0450 H     1 <1>   0.0800 
 32 H        3.2300    -4.1210     2.5740 H     1 <1>   0.1500 
 33 H        3.8670     2.0840     2.0910 H     1 <1>   0.0800 
 34 H        4.0310    -1.1550    -1.7460 H     1 <1>   0.0800 
 35 H        0.3490    -0.9250     0.8850 H     1 <1>   0.4000 
 36 H       -0.3330    -4.0120    -0.7980 H     1 <1>   0.1500 
 37 H        2.3570    -6.2190     1.6300 H     1 <1>   0.1500 
 38 H        2.3030     0.3900     1.1760 H     1 <1>   0.4500 
 39 H        5.9910     2.2700     1.2630 H     1 <1>   0.0800 
 40 H        5.0700     2.4870    -0.1870 H     1 <1>   0.0800 
 41 H        5.3380     0.9810    -1.8470 H     1 <1>   0.0800 
 42 H        6.2410    -0.4820    -1.5460 H     1 <1>   0.0800 
 43 H        2.1100    -0.1750    -0.9650 H     1 <1>   0.0800 
 44 H        3.1220     1.1220    -1.5100 H     1 <1>   0.0800 
 45 H       -0.6080    -1.8770    -1.7290 H     1 <1>   0.0800 
 46 H       -1.6470    -1.8960    -0.3200 H     1 <1>   0.0800 
 47 H        0.5810    -6.1480    -0.0670 H     1 <1>   0.1500 
 48 H        1.1010     2.1010    -0.1170 H     1 <1>   0.0800 
 49 H        1.7510     2.7180     1.3760 H     1 <1>   0.0800 
 50 H       -0.2130     0.5350    -1.4190 H     1 <1>   0.0800 
 51 H       -2.2570     0.3540     0.8240 H     1 <1>   0.0800 
 52 H       -1.6170     1.8390     0.1660 H     1 <1>   0.0800 
 53 H       -0.5700     0.7500     1.0300 H     1 <1>   0.0800 
 54 H       -3.1560    -0.1620    -1.5510 H     1 <1>   0.0800 
 55 H       -2.0360    -0.1950    -2.8930 H     1 <1>   0.0800 
 56 H       -2.4270     1.3180    -2.1250 H     1 <1>   0.0800 
@<TRIPOS>BOND
  1   1   2  2   
  2   2   3  am  
  3   2   4  1   
  4   3   5  1   
  5   3   6  1   
  6   4   7  ar  
  7   4   8  ar  
  8   5   9  1   
  9   5  28  1   
 10   5  29  1   
 11   6  10  1   
 12   6  30  1   
 13   6  31  1   
 14   7  11  1   
 15   7  12  ar  
 16   8  13  ar  
 17   8  32  1   
 18   9  14  1   
 19   9  15  1   
 20   9  33  1   
 21  10  16  1   
 22  10  17  1   
 23  10  34  1   
 24  11  18  1   
 25  11  35  1   
 26  12  19  ar  
 27  12  36  1   
 28  13  19  ar  
 29  13  37  1   
 30  14  17  1   
 31  14  20  1   
 32  14  38  1   
 33  15  21  1   
 34  15  39  1   
 35  15  40  1   
 36  16  21  1   
 37  16  41  1   
 38  16  42  1   
 39  17  43  1   
 40  17  44  1   
 41  18  22  1   
 42  18  45  1   
 43  18  46  1   
 44  19  47  1   
 45  20  23  1   
 46  20  48  1   
 47  20  49  1   
 48  22  24  1   
 49  22  25  1   
 50  22  50  1   
 51  23  26  ar  
 52  23  27  ar  
 53  24  51  1   
 54  24  52  1   
 55  24  53  1   
 56  25  54  1   
 57  25  55  1   
 58  25  56  1   
@<TRIPOS>SUBSTRUCTURE
  1 ****  17 GROUP 4 **** **** 0

# MOE 2024.06 (io_trps.svl 2023.06)
