@<TRIPOS>MOLECULE
NONAME
43 45 1 0 0 
SMALL
USER_CHARGES


@<TRIPOS>ATOM
  1 S        0.2800     0.5130     1.8690 S.o2  1 <1>   1.5000 
  2 O       -0.2570     1.6590     2.5680 O.2   1 <1>  -0.6500 
  3 O        0.8240    -0.5950     2.6200 O.2   1 <1>  -0.6500 
  4 N        1.5630     1.1200     0.9310 N.am  1 <1>  -0.8490 
  5 C       -0.9270    -0.0300     0.6350 C.2   1 <1>  -0.0220 
  6 C        2.5220     1.8720     1.7980 C.3   1 <1>   0.1960 
  7 C        2.2420     0.0440     0.1680 C.3   1 <1>   0.1960 
  8 S       -0.9630    -1.7360     0.1920 S.3   1 <1>  -0.0800 
  9 C       -1.8470     0.6370    -0.0950 C.2   1 <1>  -0.1500 
 10 C        3.5080     2.7540     0.9880 C.3   1 <1>   0.4230 
 11 C        3.3690     0.4840    -0.8060 C.3   1 <1>  -0.0800 
 12 C       -2.2420    -1.4740    -0.9780 C.2   1 <1>  -0.1400 
 13 C       -2.5920    -0.1770    -1.0050 C.2   1 <1>  -0.1500 
 14 N        2.9080     2.9440    -0.3860 N.4   1 <1>  -0.9590 
 15 C        4.9480     2.1790     1.0340 C.3   1 <1>   0.1200 
 16 C        4.7780     0.2100    -0.2570 C.3   1 <1>   0.1200 
 17 C        3.2960     1.9080    -1.3820 C.3   1 <1>   0.3430 
 18 C       -2.7440    -2.6820    -1.7410 C.3   1 <1>  -0.0600 
 19 C        3.2100     4.3350    -0.9260 C.3   1 <1>   0.2370 
 20 O        4.9530     0.7790     0.9940 O.3   1 <1>  -0.5600 
 21 C        4.7030     4.6480    -1.0280 C.2   1 <1>   0.9060 
 22 O        5.2500     5.1320    -0.0330 O.co2 1 <1>  -0.9000 
 23 O        5.3150     4.2290    -2.0130 O.co2 1 <1>  -0.9000 
 24 H        1.9750     2.5450     2.4350 H     1 <1>   0.0800 
 25 H        3.0460     1.1960     2.4540 H     1 <1>   0.0800 
 26 H        2.6390    -0.6890     0.8540 H     1 <1>   0.0800 
 27 H        1.5000    -0.4600    -0.4260 H     1 <1>   0.0800 
 28 H       -2.0370     1.6940    -0.0250 H     1 <1>   0.1500 
 29 H        3.5570     3.7190     1.4650 H     1 <1>   0.0800 
 30 H        3.2950    -0.1670    -1.6580 H     1 <1>   0.0800 
 31 H       -3.3560     0.2510    -1.6320 H     1 <1>   0.1500 
 32 H        1.9000     2.8070    -0.2200 H     1 <1>   0.4500 
 33 H        5.3930     2.4570     1.9720 H     1 <1>   0.0800 
 34 H        5.5780     2.5690     0.2530 H     1 <1>   0.0800 
 35 H        5.5440     0.5840    -0.9170 H     1 <1>   0.0800 
 36 H        4.9250    -0.8500    -0.1390 H     1 <1>   0.0800 
 37 H        2.5800     1.9240    -2.1870 H     1 <1>   0.0800 
 38 H        4.2570     2.1600    -1.8050 H     1 <1>   0.0800 
 39 H       -3.5230    -2.3930    -2.4230 H     1 <1>   0.0800 
 40 H       -3.1370    -3.4110    -1.0550 H     1 <1>   0.0800 
 41 H       -1.9400    -3.1260    -2.2990 H     1 <1>   0.0800 
 42 H        2.7900     4.4490    -1.9080 H     1 <1>   0.0800 
 43 H        2.7780     5.0780    -0.2810 H     1 <1>   0.0800 
@<TRIPOS>BOND
  1   1   2  2   
  2   1   3  2   
  3   1   4  am  
  4   1   5  1   
  5   4   6  1   
  6   4   7  1   
  7   5   8  1   
  8   5   9  2   
  9   6  10  1   
 10   6  24  1   
 11   6  25  1   
 12   7  11  1   
 13   7  26  1   
 14   7  27  1   
 15   8  12  1   
 16   9  13  1   
 17   9  28  1   
 18  10  14  1   
 19  10  15  1   
 20  10  29  1   
 21  11  16  1   
 22  11  17  1   
 23  11  30  1   
 24  12  13  2   
 25  12  18  1   
 26  13  31  1   
 27  14  17  1   
 28  14  19  1   
 29  14  32  1   
 30  15  20  1   
 31  15  33  1   
 32  15  34  1   
 33  16  20  1   
 34  16  35  1   
 35  16  36  1   
 36  17  37  1   
 37  17  38  1   
 38  18  39  1   
 39  18  40  1   
 40  18  41  1   
 41  19  21  1   
 42  19  42  1   
 43  19  43  1   
 44  21  22  ar  
 45  21  23  ar  
@<TRIPOS>SUBSTRUCTURE
  1 ****   4 GROUP 4 **** **** 0

# MOE 2024.06 (io_trps.svl 2023.06)
