@<TRIPOS>MOLECULE
NONAME
54 57 1 0 0 
SMALL
USER_CHARGES


@<TRIPOS>ATOM
  1 O       -2.8380     0.8280    -1.7170 O.2   1 <1>  -0.5700 
  2 C       -2.4260     0.8910    -0.5850 C.2   1 <1>   0.5690 
  3 N       -2.2790    -0.2120     0.1870 N.am  1 <1>  -0.7300 
  4 C       -2.0620     2.2330    -0.0020 C.3   1 <1>  -0.0990 
  5 C       -2.6330    -1.5810    -0.2460 C.3   1 <1>   0.2200 
  6 C       -0.5920     2.5600    -0.2750 C.3   1 <1>   0.0210 
  7 C       -4.0600    -1.8770     0.1760 C.3   1 <1>  -0.0800 
  8 C       -1.8430    -2.6110     0.5540 C.3   1 <1>   0.1200 
  9 C       -0.2170     3.8600     0.4040 C.2   1 <1>   0.1080 
 10 C       -3.8750    -2.3540     1.6180 C.3   1 <1>   0.1200 
 11 C       -4.7020    -2.9530    -0.7210 C.3   1 <1>  -0.0170 
 12 O       -2.5740    -2.8580     1.7190 O.3   1 <1>  -0.5600 
 13 N        0.0730     3.9070     1.6660 N.2   1 <1>  -0.7070 
 14 C       -0.1490     5.1140    -0.2030 C.2   1 <1>  -0.1810 
 15 C       -6.1750    -3.1550    -0.3810 C.ar  1 <1>  -0.1440 
 16 N        0.3430     5.2030     1.9020 N.pl3 1 <1>   0.3000 
 17 C        0.2160     5.9560     0.7890 C.2   1 <1>  -0.3320 
 18 C       -0.4350     5.4150    -1.6640 C.3   1 <1>  -0.0590 
 19 C       -7.1730    -2.2280    -0.7660 C.ar  1 <1>   0.0000 
 20 C       -6.5720    -4.2570     0.3180 C.ar  1 <1>  -0.1500 
 21 C        0.4640     7.4550     0.7820 C.3   1 <1>  -0.0600 
 22 C       -8.5080    -2.5050    -0.3830 C.ar  1 <1>   0.3100 
 23 C       -6.9280    -1.0490    -1.5080 C.ar  1 <1>  -0.1500 
 24 C       -7.9220    -4.4380     0.6410 C.ar  1 <1>   0.1600 
 25 N       -8.8650    -3.6100     0.3190 N.ar  1 <1>  -0.6200 
 26 C       -9.5200    -1.5990    -0.7410 C.ar  1 <1>  -0.1500 
 27 C       -7.9370    -0.1880    -1.8430 C.ar  1 <1>  -0.1500 
 28 C       -9.2510    -0.4630    -1.4550 C.ar  1 <1>  -0.1500 
 29 H       -1.9810    -0.1280     1.1620 H     1 <1>   0.3700 
 30 H       -2.6870     2.9890    -0.4400 H     1 <1>   0.0800 
 31 H       -2.2400     2.2270     1.0580 H     1 <1>   0.0800 
 32 H       -2.4750    -1.6810    -1.3070 H     1 <1>   0.0800 
 33 H       -0.4190     2.6270    -1.3330 H     1 <1>   0.0800 
 34 H        0.0350     1.7780     0.1160 H     1 <1>   0.0800 
 35 H       -4.6640    -0.9880     0.1480 H     1 <1>   0.0800 
 36 H       -0.8560    -2.2690     0.8110 H     1 <1>   0.0800 
 37 H       -1.7760    -3.5380     0.0130 H     1 <1>   0.0800 
 38 H       -4.5730    -3.1200     1.9050 H     1 <1>   0.0800 
 39 H       -3.9540    -1.5260     2.3020 H     1 <1>   0.0800 
 40 H       -4.1730    -3.8840    -0.6070 H     1 <1>   0.0800 
 41 H       -4.6170    -2.6700    -1.7550 H     1 <1>   0.0800 
 42 H        0.6120     5.5430     2.8320 H     1 <1>   0.2700 
 43 H       -1.4050     5.0370    -1.9320 H     1 <1>   0.0800 
 44 H        0.3070     4.9470    -2.2840 H     1 <1>   0.0800 
 45 H       -0.4200     6.4730    -1.8490 H     1 <1>   0.0800 
 46 H       -5.8710    -5.0060     0.6390 H     1 <1>   0.1500 
 47 H        0.3330     7.8620    -0.2030 H     1 <1>   0.0800 
 48 H        1.4690     7.6640     1.1030 H     1 <1>   0.0800 
 49 H       -0.2250     7.9460     1.4460 H     1 <1>   0.0800 
 50 H       -5.9270    -0.8140    -1.8220 H     1 <1>   0.1500 
 51 H       -8.1930    -5.3210     1.1950 H     1 <1>   0.1500 
 52 H      -10.5220    -1.8330    -0.4340 H     1 <1>   0.1500 
 53 H       -7.7340     0.7070    -2.4070 H     1 <1>   0.1500 
 54 H      -10.0360     0.2220    -1.7230 H     1 <1>   0.1500 
@<TRIPOS>BOND
  1   1   2  2   
  2   2   3  am  
  3   2   4  1   
  4   3   5  1   
  5   3  29  1   
  6   4   6  1   
  7   4  30  1   
  8   4  31  1   
  9   5   7  1   
 10   5   8  1   
 11   5  32  1   
 12   6   9  1   
 13   6  33  1   
 14   6  34  1   
 15   7  10  1   
 16   7  11  1   
 17   7  35  1   
 18   8  12  1   
 19   8  36  1   
 20   8  37  1   
 21   9  13  2   
 22   9  14  1   
 23  10  12  1   
 24  10  38  1   
 25  10  39  1   
 26  11  15  1   
 27  11  40  1   
 28  11  41  1   
 29  13  16  1   
 30  14  17  2   
 31  14  18  1   
 32  15  19  ar  
 33  15  20  ar  
 34  16  17  1   
 35  16  42  1   
 36  17  21  1   
 37  18  43  1   
 38  18  44  1   
 39  18  45  1   
 40  19  22  ar  
 41  19  23  ar  
 42  20  24  ar  
 43  20  46  1   
 44  21  47  1   
 45  21  48  1   
 46  21  49  1   
 47  22  25  ar  
 48  22  26  ar  
 49  23  27  ar  
 50  23  50  1   
 51  24  25  ar  
 52  24  51  1   
 53  26  28  ar  
 54  26  52  1   
 55  27  28  ar  
 56  27  53  1   
 57  28  54  1   
@<TRIPOS>SUBSTRUCTURE
  1 ****   3 GROUP 4 **** **** 0

# MOE 2024.06 (io_trps.svl 2023.06)
