@<TRIPOS>MOLECULE
NONAME
47 50 1 0 0 
SMALL
USER_CHARGES


@<TRIPOS>ATOM
  1 O        0.5410     0.0070     0.6800 O.2   1 <1>  -0.5700 
  2 C        1.3720    -0.8020     0.2980 C.2   1 <1>   0.5440 
  3 N        2.4910    -0.3690    -0.3770 N.am  1 <1>  -0.4200 
  4 C        1.2240    -2.2110     0.5250 C.ar  1 <1>   0.0860 
  5 C        3.4160    -1.2880    -0.8120 C.2   1 <1>   0.4500 
  6 C        2.6930     1.0810    -0.6300 C.3   1 <1>   0.0600 
  7 C        2.2290    -3.0540     0.0390 C.ar  1 <1>   0.1790 
  8 C        0.1420    -2.7830     1.2010 C.ar  1 <1>  -0.1500 
  9 N        3.3230    -2.5510    -0.6370 N.2   1 <1>  -0.6290 
 10 C        2.1290    -4.4250     0.2340 C.ar  1 <1>  -0.1500 
 11 C        0.0610    -4.1470     1.3810 C.ar  1 <1>  -0.1500 
 12 C        1.0510    -5.0030     0.8910 C.ar  1 <1>   0.0860 
 13 C        0.9650    -6.4400     1.0670 C.2   1 <1>   0.5440 
 14 O        1.8770    -7.0380     1.6030 O.2   1 <1>  -0.5700 
 15 N       -0.1240    -7.1560     0.6270 N.am  1 <1>  -0.6600 
 16 C       -1.1140    -6.6700    -0.3710 C.3   1 <1>   0.1400 
 17 C       -0.2000    -8.6360     0.7430 C.3   1 <1>   0.1400 
 18 C       -2.0710    -7.8450    -0.5650 C.3   1 <1>   0.2000 
 19 C       -1.1840    -9.0750    -0.3480 C.3   1 <1>  -0.0800 
 20 O       -3.0320    -7.7850     0.4330 O.3   1 <1>  -0.6800 
 21 C       -1.9420   -10.3760    -0.0200 C.3   1 <1>   0.0200 
 22 C       -1.0360   -11.5940     0.0480 C.2   1 <1>  -0.0400 
 23 O       -1.5450   -12.7310     0.4420 O.3   1 <1>  -0.0190 
 24 C        0.2630   -11.8020    -0.2220 C.2   1 <1>  -0.1500 
 25 N       -0.6590   -13.6840     0.4540 N.2   1 <1>  -0.4100 
 26 C        0.4410   -13.1530     0.0580 C.2   1 <1>   0.1080 
 27 C        1.7460   -13.9040    -0.0800 C.3   1 <1>  -0.0590 
 28 H        4.2700    -0.8930    -1.3360 H     1 <1>   0.0600 
 29 H        3.6130     1.2530    -1.1600 H     1 <1>   0.0800 
 30 H        2.7220     1.6080     0.3090 H     1 <1>   0.0800 
 31 H        1.8720     1.4610    -1.2140 H     1 <1>   0.0800 
 32 H       -0.6300    -2.1370     1.5840 H     1 <1>   0.1500 
 33 H        2.9180    -5.0550    -0.1380 H     1 <1>   0.1500 
 34 H       -0.7750    -4.5700     1.9130 H     1 <1>   0.1500 
 35 H       -1.6340    -5.7910    -0.0340 H     1 <1>   0.0800 
 36 H       -0.6030    -6.4570    -1.2940 H     1 <1>   0.0800 
 37 H        0.7700    -9.0820     0.6060 H     1 <1>   0.0800 
 38 H       -0.5690    -8.8910     1.7230 H     1 <1>   0.0800 
 39 H       -2.5670    -7.8350    -1.5200 H     1 <1>   0.0800 
 40 H       -0.6210    -9.2300    -1.2520 H     1 <1>   0.0800 
 41 H       -2.5860    -7.6580     1.2940 H     1 <1>   0.4000 
 42 H       -2.6910   -10.5520    -0.7720 H     1 <1>   0.0800 
 43 H       -2.4500   -10.2790     0.9240 H     1 <1>   0.0800 
 44 H        1.0220   -11.1280    -0.5730 H     1 <1>   0.1500 
 45 H        2.0840   -13.8640    -1.0980 H     1 <1>   0.0800 
 46 H        1.6090   -14.9320     0.2020 H     1 <1>   0.0800 
 47 H        2.4890   -13.4640     0.5600 H     1 <1>   0.0800 
@<TRIPOS>BOND
  1   1   2  2   
  2   2   3  am  
  3   2   4  1   
  4   3   5  1   
  5   3   6  1   
  6   4   7  ar  
  7   4   8  ar  
  8   5   9  2   
  9   5  28  1   
 10   6  29  1   
 11   6  30  1   
 12   6  31  1   
 13   7   9  1   
 14   7  10  ar  
 15   8  11  ar  
 16   8  32  1   
 17  10  12  ar  
 18  10  33  1   
 19  11  12  ar  
 20  11  34  1   
 21  12  13  1   
 22  13  14  2   
 23  13  15  am  
 24  15  16  1   
 25  15  17  1   
 26  16  18  1   
 27  16  35  1   
 28  16  36  1   
 29  17  19  1   
 30  17  37  1   
 31  17  38  1   
 32  18  19  1   
 33  18  20  1   
 34  18  39  1   
 35  19  21  1   
 36  19  40  1   
 37  20  41  1   
 38  21  22  1   
 39  21  42  1   
 40  21  43  1   
 41  22  23  1   
 42  22  24  2   
 43  23  25  1   
 44  24  26  1   
 45  24  44  1   
 46  25  26  2   
 47  26  27  1   
 48  27  45  1   
 49  27  46  1   
 50  27  47  1   
@<TRIPOS>SUBSTRUCTURE
  1 ****  13 GROUP 4 **** **** 0

# MOE 2024.06 (io_trps.svl 2023.06)
