@<TRIPOS>MOLECULE
NONAME
41 44 1 0 0 
SMALL
USER_CHARGES


@<TRIPOS>ATOM
  1 S       -2.9160     0.4520     2.6260 S.3   1 <1>  -0.4600 
  2 C       -2.9180     1.0540     0.9050 C.3   1 <1>   0.2510 
  3 C       -3.2310    -1.3110     2.3070 C.3   1 <1>   0.2510 
  4 C       -3.2080    -0.1940     0.1050 C.2   1 <1>   0.1080 
  5 C       -3.3670    -1.3710     0.8060 C.2   1 <1>  -0.1810 
  6 N       -3.3390    -0.3430    -1.1740 N.2   1 <1>  -0.7070 
  7 C       -3.6110    -2.3200    -0.1260 C.2   1 <1>  -0.0880 
  8 N       -3.5850    -1.6700    -1.3300 N.pl3 1 <1>   0.3140 
  9 N       -3.8620    -3.6900     0.1280 N.am  1 <1>  -0.4940 
 10 C       -3.8640    -2.2070    -2.6680 C.3   1 <1>   0.0160 
 11 C       -3.5080    -4.8310    -0.5530 C.2   1 <1>   0.5440 
 12 O       -2.8740    -4.7210    -1.5860 O.2   1 <1>  -0.5700 
 13 C       -3.8880    -6.1510    -0.0800 C.ar  1 <1>   0.0860 
 14 C       -4.2600    -6.4400     1.2520 C.ar  1 <1>   0.3930 
 15 C       -3.8920    -7.2180    -0.9780 C.ar  1 <1>  -0.1500 
 16 O       -4.2500    -5.4390     2.1640 O.3   1 <1>  -0.3620 
 17 N       -4.6270    -7.6400     1.7060 N.ar  1 <1>  -0.6200 
 18 C       -4.2650    -8.4530    -0.5080 C.ar  1 <1>  -0.1430 
 19 C       -4.5730    -5.6580     3.5270 C.3   1 <1>   0.0400 
 20 C       -4.6160    -8.6000     0.8070 C.ar  1 <1>   0.1670 
 21 C       -4.3510    -9.7600    -1.2590 C.3   1 <1>  -0.0170 
 22 C       -4.9940   -10.0260     1.1150 C.3   1 <1>  -0.0170 
 23 C       -5.0740   -10.6940    -0.2720 C.3   1 <1>  -0.1600 
 24 H       -1.9480     1.4580     0.6820 H     1 <1>   0.0800 
 25 H       -3.6920     1.7910     0.7990 H     1 <1>   0.0800 
 26 H       -4.1380    -1.5870     2.8140 H     1 <1>   0.0800 
 27 H       -2.3870    -1.8730     2.6640 H     1 <1>   0.0800 
 28 H       -4.2400    -3.8890     1.0590 H     1 <1>   0.3700 
 29 H       -4.2180    -1.4150    -3.3000 H     1 <1>   0.0800 
 30 H       -4.6100    -2.9750    -2.5960 H     1 <1>   0.0800 
 31 H       -2.9580    -2.6160    -3.0740 H     1 <1>   0.0800 
 32 H       -3.6100    -7.0790    -2.0080 H     1 <1>   0.1500 
 33 H       -4.4860    -4.7250     4.0540 H     1 <1>   0.0800 
 34 H       -3.8870    -6.3790     3.9360 H     1 <1>   0.0800 
 35 H       -5.5830    -6.0260     3.5910 H     1 <1>   0.0800 
 36 H       -3.3590   -10.1210    -1.4680 H     1 <1>   0.0800 
 37 H       -4.9020    -9.6530    -2.1770 H     1 <1>   0.0800 
 38 H       -5.9360   -10.0710     1.6320 H     1 <1>   0.0800 
 39 H       -4.2250   -10.4730     1.7170 H     1 <1>   0.0800 
 40 H       -4.6380   -11.6780    -0.2640 H     1 <1>   0.0800 
 41 H       -6.1080   -10.7730    -0.5600 H     1 <1>   0.0800 
@<TRIPOS>BOND
  1   1   2  1   
  2   1   3  1   
  3   2   4  1   
  4   2  24  1   
  5   2  25  1   
  6   3   5  1   
  7   3  26  1   
  8   3  27  1   
  9   4   5  1   
 10   4   6  2   
 11   5   7  2   
 12   6   8  1   
 13   7   8  1   
 14   7   9  1   
 15   8  10  1   
 16   9  11  am  
 17   9  28  1   
 18  10  29  1   
 19  10  30  1   
 20  10  31  1   
 21  11  12  2   
 22  11  13  1   
 23  13  14  ar  
 24  13  15  ar  
 25  14  16  1   
 26  14  17  ar  
 27  15  18  ar  
 28  15  32  1   
 29  16  19  1   
 30  17  20  ar  
 31  18  20  ar  
 32  18  21  1   
 33  19  33  1   
 34  19  34  1   
 35  19  35  1   
 36  20  22  1   
 37  21  23  1   
 38  21  36  1   
 39  21  37  1   
 40  22  23  1   
 41  22  38  1   
 42  22  39  1   
 43  23  40  1   
 44  23  41  1   
@<TRIPOS>SUBSTRUCTURE
  1 ****  11 GROUP 4 **** **** 0

# MOE 2024.06 (io_trps.svl 2023.06)
