@<TRIPOS>MOLECULE
NONAME
53 55 1 0 0 
SMALL
USER_CHARGES


@<TRIPOS>ATOM
  1 O       -0.4590     0.8470     1.5290 O.2   1 <1>  -0.5700 
  2 C       -0.4610     1.9490     1.0100 C.2   1 <1>   0.7150 
  3 N       -1.6680     2.5210     0.6750 N.am  1 <1>  -0.6600 
  4 C        0.7890     2.6200     0.7460 C.2   1 <1>  -0.2370 
  5 C       -2.9410     1.9480     1.1970 C.3   1 <1>   0.1400 
  6 C       -1.7820     3.5950    -0.3510 C.3   1 <1>   0.1400 
  7 N        1.9230     1.9830     0.3100 N.pl3 1 <1>   0.0480 
  8 C        1.0980     3.9510     0.8810 C.2   1 <1>  -0.1500 
  9 C       -4.0420     3.0130     1.2330 C.3   1 <1>  -0.1600 
 10 C       -3.1150     3.4720    -1.0880 C.3   1 <1>  -0.1600 
 11 C        2.8990     2.9090     0.1700 C.2   1 <1>  -0.3020 
 12 C        2.0780     0.5400     0.0360 C.3   1 <1>   0.0160 
 13 C        2.4320     4.1460     0.5140 C.2   1 <1>   0.0190 
 14 C       -4.3140     3.7000    -0.1340 C.3   1 <1>   0.2800 
 15 C        3.1290     5.4000     0.5160 C.1   1 <1>   0.5380 
 16 O       -4.3400     5.0810     0.1610 O.3   1 <1>  -0.5600 
 17 C       -5.6910     3.2310    -0.7360 C.3   1 <1>   0.2000 
 18 N        3.6770     6.4020     0.5120 N.1   1 <1>  -0.5570 
 19 C       -5.0140     5.9370    -0.7090 C.3   1 <1>   0.1200 
 20 O       -5.6420     3.1540    -2.1390 O.3   1 <1>  -0.6800 
 21 C       -6.8600     4.1720    -0.3130 C.3   1 <1>   0.3000 
 22 C       -6.5160     5.6150    -0.7380 C.3   1 <1>  -0.1600 
 23 N       -6.9970     4.2040     1.1630 N.am  1 <1>  -0.7300 
 24 C       -8.2080     3.7810    -0.9440 C.3   1 <1>  -0.2400 
 25 C       -7.5060     3.3680     2.0970 C.2   1 <1>   0.5690 
 26 O       -7.3410     3.6250     3.2600 O.2   1 <1>  -0.5700 
 27 C       -8.2430     2.0970     1.7530 C.3   1 <1>  -0.1790 
 28 H       -3.2380     1.1270     0.5680 H     1 <1>   0.0800 
 29 H       -2.7820     1.5650     2.1920 H     1 <1>   0.0800 
 30 H       -1.7230     4.5560     0.1320 H     1 <1>   0.0800 
 31 H       -0.9730     3.5130    -1.0560 H     1 <1>   0.0800 
 32 H        0.4390     4.7310     1.2210 H     1 <1>   0.1500 
 33 H       -3.7520     3.7480     1.9630 H     1 <1>   0.0800 
 34 H       -4.9290     2.5400     1.6070 H     1 <1>   0.0800 
 35 H       -3.1680     2.4880    -1.5200 H     1 <1>   0.0800 
 36 H       -3.1370     4.1720    -1.9010 H     1 <1>   0.0800 
 37 H        3.8900     2.6580    -0.1650 H     1 <1>   0.1500 
 38 H        3.0330     0.3550    -0.4200 H     1 <1>   0.0800 
 39 H        1.2940     0.2160    -0.6230 H     1 <1>   0.0800 
 40 H        2.0110    -0.0030     0.9620 H     1 <1>   0.0800 
 41 H       -5.9010     2.2300    -0.4070 H     1 <1>   0.0800 
 42 H       -4.8550     6.9450    -0.3640 H     1 <1>   0.0800 
 43 H       -4.5770     5.8440    -1.6870 H     1 <1>   0.0800 
 44 H       -5.4100     4.0230    -2.5150 H     1 <1>   0.4000 
 45 H       -7.0510     6.3180    -0.1230 H     1 <1>   0.0800 
 46 H       -6.8480     5.7920    -1.7450 H     1 <1>   0.0800 
 47 H       -6.4180     4.9440     1.5700 H     1 <1>   0.3700 
 48 H       -8.2000     3.9750    -2.0020 H     1 <1>   0.0800 
 49 H       -9.0100     4.3470    -0.5050 H     1 <1>   0.0800 
 50 H       -8.3990     2.7320    -0.8320 H     1 <1>   0.0800 
 51 H       -7.6850     1.5210     1.0410 H     1 <1>   0.0800 
 52 H       -9.2130     2.3350     1.3620 H     1 <1>   0.0800 
 53 H       -8.3710     1.5070     2.6420 H     1 <1>   0.0800 
@<TRIPOS>BOND
  1   1   2  2   
  2   2   3  am  
  3   2   4  1   
  4   3   5  1   
  5   3   6  1   
  6   4   7  1   
  7   4   8  2   
  8   5   9  1   
  9   5  28  1   
 10   5  29  1   
 11   6  10  1   
 12   6  30  1   
 13   6  31  1   
 14   7  11  1   
 15   7  12  1   
 16   8  13  1   
 17   8  32  1   
 18   9  14  1   
 19   9  33  1   
 20   9  34  1   
 21  10  14  1   
 22  10  35  1   
 23  10  36  1   
 24  11  13  2   
 25  11  37  1   
 26  12  38  1   
 27  12  39  1   
 28  12  40  1   
 29  13  15  1   
 30  14  16  1   
 31  14  17  1   
 32  15  18  3   
 33  16  19  1   
 34  17  20  1   
 35  17  21  1   
 36  17  41  1   
 37  19  22  1   
 38  19  42  1   
 39  19  43  1   
 40  20  44  1   
 41  21  22  1   
 42  21  23  1   
 43  21  24  1   
 44  22  45  1   
 45  22  46  1   
 46  23  25  am  
 47  23  47  1   
 48  24  48  1   
 49  24  49  1   
 50  24  50  1   
 51  25  26  2   
 52  25  27  1   
 53  27  51  1   
 54  27  52  1   
 55  27  53  1   
@<TRIPOS>SUBSTRUCTURE
  1 ****   6 GROUP 4 **** **** 0

# MOE 2024.06 (io_trps.svl 2023.06)
