@<TRIPOS>MOLECULE
NONAME
47 49 1 0 0 
SMALL
USER_CHARGES


@<TRIPOS>ATOM
  1 O       -0.4720     0.1130    -1.0620 O.2   1 <1>  -0.5700 
  2 C       -1.2610     1.0120    -0.8720 C.2   1 <1>   0.5690 
  3 N       -2.6170     0.7700    -0.8110 N.am  1 <1>  -0.6600 
  4 C       -0.6720     2.4090    -0.7180 C.3   1 <1>   0.0440 
  5 C       -3.6330     1.8390    -0.5560 C.3   1 <1>   0.2200 
  6 C       -3.1120    -0.6380    -0.9260 C.3   1 <1>   0.0600 
  7 C       -0.9210     3.0250     0.6630 C.ar  1 <1>  -0.1440 
  8 C       -4.2140     1.7550     0.8600 C.3   1 <1>  -0.1600 
  9 C       -4.8270     1.7990    -1.5100 C.3   1 <1>  -0.1600 
 10 C       -1.4700     4.2970     0.8120 C.ar  1 <1>   0.0830 
 11 C       -0.5910     2.2900     1.7910 C.ar  1 <1>  -0.1500 
 12 C       -5.7210     2.0440     0.7440 C.3   1 <1>  -0.0800 
 13 C       -5.9790     2.4170    -0.7170 C.3   1 <1>  -0.0800 
 14 O       -1.7800     4.9980    -0.3090 O.3   1 <1>  -0.3630 
 15 C       -1.6970     4.8050     2.0890 C.ar  1 <1>  -0.1500 
 16 C       -0.8130     2.8010     3.0570 C.ar  1 <1>  -0.1500 
 17 C       -6.1970     3.2480     1.5610 C.3   1 <1>  -0.1600 
 18 C       -6.0300     3.9560    -0.7720 C.3   1 <1>  -0.1600 
 19 C       -1.9760     6.3960    -0.2710 C.3   1 <1>   0.0400 
 20 C       -1.3690     4.0590     3.2060 C.ar  1 <1>  -0.1500 
 21 C       -6.0020     4.4680     0.6700 C.3   1 <1>   0.2000 
 22 O       -4.7590     5.0030     0.9270 O.3   1 <1>  -0.6800 
 23 H        0.3900     2.3500    -0.8690 H     1 <1>   0.0800 
 24 H       -1.0620     3.0190    -1.5090 H     1 <1>   0.0800 
 25 H       -3.1920     2.8110    -0.6730 H     1 <1>   0.0800 
 26 H       -4.0100    -0.7770    -0.3520 H     1 <1>   0.0800 
 27 H       -2.3700    -1.3280    -0.5620 H     1 <1>   0.0800 
 28 H       -3.3130    -0.8630    -1.9580 H     1 <1>   0.0800 
 29 H       -4.0700     0.7780     1.2830 H     1 <1>   0.0800 
 30 H       -3.7190     2.4650     1.4980 H     1 <1>   0.0800 
 31 H       -4.6240     2.3370    -2.4180 H     1 <1>   0.0800 
 32 H       -5.0990     0.7900    -1.7550 H     1 <1>   0.0800 
 33 H       -0.1590     1.3080     1.6880 H     1 <1>   0.1500 
 34 H       -6.2730     1.1580     1.0110 H     1 <1>   0.0800 
 35 H       -6.9240     2.0180    -1.0440 H     1 <1>   0.0800 
 36 H       -2.1370     5.7740     2.2320 H     1 <1>   0.1500 
 37 H       -0.5540     2.2190     3.9240 H     1 <1>   0.1500 
 38 H       -5.7030     3.3420     2.5130 H     1 <1>   0.0800 
 39 H       -7.2520     3.1350     1.7400 H     1 <1>   0.0800 
 40 H       -6.9590     4.2530    -1.2260 H     1 <1>   0.0800 
 41 H       -5.2270     4.3780    -1.3510 H     1 <1>   0.0800 
 42 H       -2.0670     6.7490    -1.2820 H     1 <1>   0.0800 
 43 H       -1.1260     6.8550     0.2030 H     1 <1>   0.0800 
 44 H       -2.8790     6.6150     0.2700 H     1 <1>   0.0800 
 45 H       -1.5470     4.4550     4.1900 H     1 <1>   0.1500 
 46 H       -6.7370     5.2340     0.8540 H     1 <1>   0.0800 
 47 H       -4.0690     4.3290     0.7650 H     1 <1>   0.4000 
@<TRIPOS>BOND
  1   1   2  2   
  2   2   3  am  
  3   2   4  1   
  4   3   5  1   
  5   3   6  1   
  6   4   7  1   
  7   4  23  1   
  8   4  24  1   
  9   5   8  1   
 10   5   9  1   
 11   5  25  1   
 12   6  26  1   
 13   6  27  1   
 14   6  28  1   
 15   7  10  ar  
 16   7  11  ar  
 17   8  12  1   
 18   8  29  1   
 19   8  30  1   
 20   9  13  1   
 21   9  31  1   
 22   9  32  1   
 23  10  14  1   
 24  10  15  ar  
 25  11  16  ar  
 26  11  33  1   
 27  12  13  1   
 28  12  17  1   
 29  12  34  1   
 30  13  18  1   
 31  13  35  1   
 32  14  19  1   
 33  15  20  ar  
 34  15  36  1   
 35  16  20  ar  
 36  16  37  1   
 37  17  21  1   
 38  17  38  1   
 39  17  39  1   
 40  18  21  1   
 41  18  40  1   
 42  18  41  1   
 43  19  42  1   
 44  19  43  1   
 45  19  44  1   
 46  20  45  1   
 47  21  22  1   
 48  21  46  1   
 49  22  47  1   
@<TRIPOS>SUBSTRUCTURE
  1 ****   5 GROUP 4 **** **** 0

# MOE 2024.06 (io_trps.svl 2023.06)
