@<TRIPOS>MOLECULE
NONAME
51 53 1 0 0 
SMALL
USER_CHARGES


@<TRIPOS>ATOM
  1 S       -0.8710     1.5370     2.0750 S.3   1 <1>  -0.0800 
  2 C       -0.3400     2.3290     0.6070 C.2   1 <1>  -0.1400 
  3 C        0.5230     2.1690     2.9410 C.2   1 <1>  -0.1100 
  4 C        0.8080     2.9960     0.7840 C.2   1 <1>  -0.1810 
  5 C       -1.1130     2.2550    -0.6810 C.3   1 <1>   0.0200 
  6 C        1.3010     2.9110     2.1290 C.2   1 <1>  -0.1500 
  7 C        1.4690     3.7490    -0.3730 C.3   1 <1>   0.4610 
  8 C       -0.6170     3.4060    -1.5720 C.3   1 <1>   0.1200 
  9 O        0.7900     3.4700    -1.5850 O.3   1 <1>  -0.5600 
 10 C        2.9070     3.2580    -0.5780 C.3   1 <1>  -0.1600 
 11 C        1.4510     5.2660    -0.1320 C.3   1 <1>  -0.1600 
 12 C        3.6260     4.0450    -1.6760 C.3   1 <1>   0.1400 
 13 C        2.1850     6.0140    -1.2460 C.3   1 <1>   0.1400 
 14 N        3.5770     5.4970    -1.3390 N.am  1 <1>  -0.6600 
 15 C        4.7240     6.2030    -1.0400 C.2   1 <1>   0.5690 
 16 O        5.8120     5.6790    -1.1430 O.2   1 <1>  -0.5700 
 17 C        4.6670     7.6740    -0.5450 C.3   1 <1>   0.2810 
 18 N        4.0640     7.7630     0.8190 N.am  1 <1>  -0.7300 
 19 C        6.0580     8.3420    -0.5100 C.3   1 <1>  -0.1600 
 20 C        2.9890     8.4530     1.2530 C.2   1 <1>   0.5690 
 21 C        6.0330     9.8480    -0.1760 C.3   1 <1>  -0.0990 
 22 O        2.4930     8.1770     2.3120 O.2   1 <1>  -0.5700 
 23 C        2.3730     9.5610     0.4330 C.3   1 <1>  -0.1790 
 24 C        7.4210    10.4580    -0.1320 C.2   1 <1>   0.5690 
 25 O        7.8340    10.9340     0.8910 O.2   1 <1>  -0.5700 
 26 N        8.1810    10.4750    -1.2400 N.am  1 <1>  -0.8000 
 27 H        0.6120     1.9150     3.9820 H     1 <1>   0.1500 
 28 H       -0.9400     1.3090    -1.1610 H     1 <1>   0.0800 
 29 H       -2.1660     2.3650    -0.4950 H     1 <1>   0.0800 
 30 H        2.2080     3.4070     2.4250 H     1 <1>   0.1500 
 31 H       -0.9990     4.3460    -1.2140 H     1 <1>   0.0800 
 32 H       -0.9500     3.2620    -2.5840 H     1 <1>   0.0800 
 33 H        3.4640     3.3660     0.3340 H     1 <1>   0.0800 
 34 H        2.8910     2.2130    -0.8260 H     1 <1>   0.0800 
 35 H        0.4400     5.6160    -0.0500 H     1 <1>   0.0800 
 36 H        1.9340     5.4830     0.8040 H     1 <1>   0.0800 
 37 H        3.1410     3.8840    -2.6240 H     1 <1>   0.0800 
 38 H        4.6420     3.7000    -1.7610 H     1 <1>   0.0800 
 39 H        2.1700     7.0670    -1.0510 H     1 <1>   0.0800 
 40 H        1.6860     5.8470    -2.1860 H     1 <1>   0.0800 
 41 H        4.0560     8.2180    -1.2410 H     1 <1>   0.0800 
 42 H        4.4300     7.0730     1.4800 H     1 <1>   0.3700 
 43 H        6.6770     7.8280     0.2070 H     1 <1>   0.0800 
 44 H        6.5170     8.2110    -1.4740 H     1 <1>   0.0800 
 45 H        5.5790     9.9990     0.7870 H     1 <1>   0.0800 
 46 H        5.4530    10.3810    -0.9050 H     1 <1>   0.0800 
 47 H        3.1290    10.1270    -0.0740 H     1 <1>   0.0800 
 48 H        1.8330    10.2230     1.0850 H     1 <1>   0.0800 
 49 H        1.6850     9.1510    -0.2810 H     1 <1>   0.0800 
 50 H        9.1170    10.8800    -1.1890 H     1 <1>   0.3700 
 51 H        7.9110    10.0610    -2.1310 H     1 <1>   0.3700 
@<TRIPOS>BOND
  1   1   2  1   
  2   1   3  1   
  3   2   4  2   
  4   2   5  1   
  5   3   6  2   
  6   3  27  1   
  7   4   6  1   
  8   4   7  1   
  9   5   8  1   
 10   5  28  1   
 11   5  29  1   
 12   6  30  1   
 13   7   9  1   
 14   7  10  1   
 15   7  11  1   
 16   8   9  1   
 17   8  31  1   
 18   8  32  1   
 19  10  12  1   
 20  10  33  1   
 21  10  34  1   
 22  11  13  1   
 23  11  35  1   
 24  11  36  1   
 25  12  14  1   
 26  12  37  1   
 27  12  38  1   
 28  13  14  1   
 29  13  39  1   
 30  13  40  1   
 31  14  15  am  
 32  15  16  2   
 33  15  17  1   
 34  17  18  1   
 35  17  19  1   
 36  17  41  1   
 37  18  20  am  
 38  18  42  1   
 39  19  21  1   
 40  19  43  1   
 41  19  44  1   
 42  20  22  2   
 43  20  23  1   
 44  21  24  1   
 45  21  45  1   
 46  21  46  1   
 47  23  47  1   
 48  23  48  1   
 49  23  49  1   
 50  24  25  2   
 51  24  26  am  
 52  26  50  1   
 53  26  51  1   
@<TRIPOS>SUBSTRUCTURE
  1 ****  14 GROUP 4 **** **** 0

# MOE 2024.06 (io_trps.svl 2023.06)
