@<TRIPOS>MOLECULE
NONAME
38 39 1 0 0 
SMALL
USER_CHARGES


@<TRIPOS>ATOM
  1 CL      -1.4640     0.0650    -1.0210 Cl    1 <1>  -0.1240 
  2 C       -1.4480    -1.5780    -0.4390 C.2   1 <1>   0.2640 
  3 O       -2.3030    -2.4330    -0.9450 O.3   1 <1>  -0.2800 
  4 C       -0.6600    -2.1450     0.4940 C.2   1 <1>  -0.1500 
  5 C       -2.1040    -3.6120    -0.3530 C.2   1 <1>   0.0550 
  6 C       -1.0870    -3.4740     0.5520 C.2   1 <1>  -0.1500 
  7 C       -2.9020    -4.7680    -0.7000 C.2   1 <1>   0.7150 
  8 O       -3.7390    -4.7400    -1.5830 O.2   1 <1>  -0.5700 
  9 N       -2.7430    -5.9370    -0.0110 N.am  1 <1>  -0.7300 
 10 C       -3.5040    -7.1800    -0.2720 C.3   1 <1>   0.2200 
 11 C       -4.8420    -7.1160     0.4730 C.3   1 <1>  -0.0800 
 12 C       -2.8010    -8.3630     0.3880 C.3   1 <1>   0.1200 
 13 C       -4.6940    -8.1640     1.5860 C.3   1 <1>   0.1200 
 14 C       -6.0740    -7.2450    -0.4530 C.3   1 <1>  -0.0550 
 15 O       -3.3290    -8.4110     1.6730 O.3   1 <1>  -0.5600 
 16 S       -6.3350    -8.8080    -1.3090 S.o2  1 <1>   1.3330 
 17 O       -5.0530    -9.3630    -1.6810 O.2   1 <1>  -0.6500 
 18 O       -7.3480    -8.6210    -2.3230 O.2   1 <1>  -0.6500 
 19 N       -7.0150    -9.8100    -0.1170 N.am  1 <1>  -0.8490 
 20 C       -8.4640    -9.6340     0.0390 C.3   1 <1>   0.1160 
 21 C       -6.7120   -11.2270    -0.3430 C.3   1 <1>   0.1160 
 22 H        0.1240    -1.6900     1.0720 H     1 <1>   0.1500 
 23 H       -0.6680    -4.2250     1.1980 H     1 <1>   0.1500 
 24 H       -2.2090    -5.9450     0.8570 H     1 <1>   0.3700 
 25 H       -3.6060    -7.3290    -1.3340 H     1 <1>   0.0800 
 26 H       -4.9290    -6.1600     0.9580 H     1 <1>   0.0800 
 27 H       -1.7330    -8.2490     0.4330 H     1 <1>   0.0800 
 28 H       -3.0510    -9.2850    -0.1090 H     1 <1>   0.0800 
 29 H       -5.1700    -9.0970     1.3530 H     1 <1>   0.0800 
 30 H       -5.0460    -7.8050     2.5370 H     1 <1>   0.0800 
 31 H       -5.9860    -6.4750    -1.1970 H     1 <1>   0.0800 
 32 H       -6.9530    -7.0170     0.1170 H     1 <1>   0.0800 
 33 H       -8.8200   -10.2190     0.8700 H     1 <1>   0.0800 
 34 H       -8.9800    -9.9440    -0.8550 H     1 <1>   0.0800 
 35 H       -8.6950    -8.6000     0.2290 H     1 <1>   0.0800 
 36 H       -7.1490   -11.8320     0.4320 H     1 <1>   0.0800 
 37 H       -5.6460   -11.3850    -0.3290 H     1 <1>   0.0800 
 38 H       -7.0960   -11.5440    -1.2990 H     1 <1>   0.0800 
@<TRIPOS>BOND
  1   1   2  1   
  2   2   3  1   
  3   2   4  2   
  4   3   5  1   
  5   4   6  1   
  6   4  22  1   
  7   5   6  2   
  8   5   7  1   
  9   6  23  1   
 10   7   8  2   
 11   7   9  am  
 12   9  10  1   
 13   9  24  1   
 14  10  11  1   
 15  10  12  1   
 16  10  25  1   
 17  11  13  1   
 18  11  14  1   
 19  11  26  1   
 20  12  15  1   
 21  12  27  1   
 22  12  28  1   
 23  13  15  1   
 24  13  29  1   
 25  13  30  1   
 26  14  16  1   
 27  14  31  1   
 28  14  32  1   
 29  16  17  2   
 30  16  18  2   
 31  16  19  am  
 32  19  20  1   
 33  19  21  1   
 34  20  33  1   
 35  20  34  1   
 36  20  35  1   
 37  21  36  1   
 38  21  37  1   
 39  21  38  1   
@<TRIPOS>SUBSTRUCTURE
  1 ****  10 GROUP 4 **** **** 0

# MOE 2024.06 (io_trps.svl 2023.06)
