@<TRIPOS>MOLECULE
NONAME
58 61 1 0 0 
SMALL
USER_CHARGES


@<TRIPOS>ATOM
  1 O       -1.9330     4.8920    -0.4710 O.2   1 <1>  -0.5700 
  2 C       -1.7170     3.9330     0.2470 C.2   1 <1>   0.5440 
  3 N       -2.7450     3.0490     0.5160 N.am  1 <1>  -0.6600 
  4 C       -0.3900     3.7570     0.8010 C.ar  1 <1>   0.0860 
  5 C       -3.9350     3.0110    -0.3810 C.3   1 <1>   0.2200 
  6 C       -2.6640     2.0800     1.6490 C.3   1 <1>   0.0600 
  7 C        0.4230     2.6630     0.4550 C.ar  1 <1>   0.0000 
  8 C        0.1020     4.7000     1.7020 C.ar  1 <1>  -0.1500 
  9 C       -5.1830     3.5940     0.2730 C.3   1 <1>  -0.1600 
 10 C       -4.3520     1.6110    -0.8290 C.3   1 <1>  -0.1600 
 11 C       -0.0050     1.6550    -0.4920 C.ar  1 <1>   0.0000 
 12 C        1.6810     2.5500     1.0400 C.ar  1 <1>  -0.1500 
 13 C        1.3530     4.5710     2.2730 C.ar  1 <1>  -0.1500 
 14 C       -6.3400     3.0340    -0.5650 C.3   1 <1>  -0.0800 
 15 C       -5.8060     1.7890    -1.2850 C.3   1 <1>  -0.0800 
 16 C       -0.3730     1.9910    -1.7930 C.ar  1 <1>  -0.1500 
 17 C       -0.0580     0.3110    -0.1300 C.ar  1 <1>  -0.1500 
 18 C        2.1460     3.4880     1.9410 C.ar  1 <1>  -0.1500 
 19 C       -7.5630     2.5610     0.2330 C.3   1 <1>  -0.1600 
 20 C       -6.7610     0.6450    -0.9100 C.3   1 <1>  -0.1600 
 21 C       -0.7870     1.0270    -2.6940 C.ar  1 <1>  -0.1500 
 22 C       -0.4700    -0.6580    -1.0260 C.ar  1 <1>  -0.1500 
 23 C       -8.0760     1.3260    -0.5130 C.3   1 <1>   0.4230 
 24 C       -0.8370    -0.3010    -2.3110 C.ar  1 <1>  -0.1500 
 25 N       -8.8550     1.7240    -1.7310 N.4   1 <1>  -0.9590 
 26 C      -10.0730     2.5330    -1.4040 C.3   1 <1>   0.2630 
 27 C       -9.2730     0.5480    -2.5600 C.3   1 <1>   0.2630 
 28 H       -3.7320     3.5820    -1.2730 H     1 <1>   0.0800 
 29 H       -3.6210     1.9840     2.1290 H     1 <1>   0.0800 
 30 H       -1.9530     2.4140     2.3840 H     1 <1>   0.0800 
 31 H       -2.3560     1.1170     1.2810 H     1 <1>   0.0800 
 32 H       -0.5150     5.5460     1.9510 H     1 <1>   0.1500 
 33 H       -5.2500     3.2650     1.2930 H     1 <1>   0.0800 
 34 H       -5.1560     4.6690     0.2480 H     1 <1>   0.0800 
 35 H       -3.7210     1.2600    -1.6280 H     1 <1>   0.0800 
 36 H       -4.3030     0.9210    -0.0090 H     1 <1>   0.0800 
 37 H        2.3090     1.7160     0.7770 H     1 <1>   0.1500 
 38 H        1.7110     5.3110     2.9690 H     1 <1>   0.1500 
 39 H       -6.6320     3.7650    -1.3010 H     1 <1>   0.0800 
 40 H       -5.8280     1.9660    -2.3480 H     1 <1>   0.0800 
 41 H       -0.3380     3.0230    -2.1000 H     1 <1>   0.1500 
 42 H        0.2260     0.0240     0.8670 H     1 <1>   0.1500 
 43 H        3.1230     3.3810     2.3800 H     1 <1>   0.1500 
 44 H       -8.2860     3.3410     0.3780 H     1 <1>   0.0800 
 45 H       -7.2470     2.2350     1.2100 H     1 <1>   0.0800 
 46 H       -6.3890     0.1400    -0.0360 H     1 <1>   0.0800 
 47 H       -6.8450    -0.0890    -1.6890 H     1 <1>   0.0800 
 48 H       -1.0670     1.3120    -3.6930 H     1 <1>   0.1500 
 49 H       -0.5040    -1.6920    -0.7260 H     1 <1>   0.1500 
 50 H       -8.6720     0.6950     0.1280 H     1 <1>   0.0800 
 51 H       -1.1560    -1.0530    -3.0120 H     1 <1>   0.1500 
 52 H       -8.2170     2.3090    -2.2910 H     1 <1>   0.4500 
 53 H      -10.7170     1.9860    -0.7340 H     1 <1>   0.0800 
 54 H      -10.6230     2.7590    -2.3030 H     1 <1>   0.0800 
 55 H       -9.8000     3.4650    -0.9380 H     1 <1>   0.0800 
 56 H       -9.8660    -0.1330    -1.9710 H     1 <1>   0.0800 
 57 H       -8.4130     0.0210    -2.9380 H     1 <1>   0.0800 
 58 H       -9.8610     0.8760    -3.4020 H     1 <1>   0.0800 
@<TRIPOS>BOND
  1   1   2  2   
  2   2   3  am  
  3   2   4  1   
  4   3   5  1   
  5   3   6  1   
  6   4   7  ar  
  7   4   8  ar  
  8   5   9  1   
  9   5  10  1   
 10   5  28  1   
 11   6  29  1   
 12   6  30  1   
 13   6  31  1   
 14   7  11  1   
 15   7  12  ar  
 16   8  13  ar  
 17   8  32  1   
 18   9  14  1   
 19   9  33  1   
 20   9  34  1   
 21  10  15  1   
 22  10  35  1   
 23  10  36  1   
 24  11  16  ar  
 25  11  17  ar  
 26  12  18  ar  
 27  12  37  1   
 28  13  18  ar  
 29  13  38  1   
 30  14  15  1   
 31  14  19  1   
 32  14  39  1   
 33  15  20  1   
 34  15  40  1   
 35  16  21  ar  
 36  16  41  1   
 37  17  22  ar  
 38  17  42  1   
 39  18  43  1   
 40  19  23  1   
 41  19  44  1   
 42  19  45  1   
 43  20  23  1   
 44  20  46  1   
 45  20  47  1   
 46  21  24  ar  
 47  21  48  1   
 48  22  24  ar  
 49  22  49  1   
 50  23  25  1   
 51  23  50  1   
 52  24  51  1   
 53  25  26  1   
 54  25  27  1   
 55  25  52  1   
 56  26  53  1   
 57  26  54  1   
 58  26  55  1   
 59  27  56  1   
 60  27  57  1   
 61  27  58  1   
@<TRIPOS>SUBSTRUCTURE
  1 ****   5 GROUP 4 **** **** 0

# MOE 2024.06 (io_trps.svl 2023.06)
