@<TRIPOS>MOLECULE
NONAME
50 52 1 0 0 
SMALL
USER_CHARGES


@<TRIPOS>ATOM
  1 O        3.4250     1.8930     1.7160 O.co2 1 <1>  -0.9000 
  2 C        2.5960     1.0510     1.3380 C.2   1 <1>   0.9060 
  3 O        2.2970     0.0900     2.0460 O.co2 1 <1>  -0.9000 
  4 C        2.1650     1.0190    -0.1360 C.3   1 <1>  -0.1060 
  5 C        2.9050    -0.2170    -0.6930 C.3   1 <1>   0.2000 
  6 C        2.6470     2.2810    -0.9270 C.3   1 <1>  -0.1600 
  7 C        0.6240     0.8610    -0.2270 C.3   1 <1>  -0.0170 
  8 O        2.6660    -0.3430    -2.0650 O.3   1 <1>  -0.6800 
  9 C        4.4350    -0.0760    -0.4700 C.3   1 <1>   0.3430 
 10 C        4.1130     2.2160    -1.3940 C.3   1 <1>   0.3430 
 11 C       -0.1350     2.1150     0.1940 C.ar  1 <1>  -0.1440 
 12 N        4.8910     1.3600    -0.4640 N.4   1 <1>  -0.9590 
 13 C       -0.6890     2.9590    -0.7570 C.ar  1 <1>  -0.1500 
 14 C       -0.2850     2.4210     1.5380 C.ar  1 <1>  -0.1500 
 15 C        6.3560     1.5340    -0.5000 C.3   1 <1>   0.4860 
 16 C       -1.3770     4.0970    -0.3710 C.ar  1 <1>  -0.1500 
 17 C       -0.9710     3.5590     1.9260 C.ar  1 <1>  -0.1500 
 18 C        6.7050     3.0050    -0.3570 C.ar  1 <1>  -0.1440 
 19 C       -1.5180     4.3980     0.9720 C.ar  1 <1>  -0.1500 
 20 C        6.2420     3.7330     0.7300 C.ar  1 <1>  -0.1500 
 21 C        7.4790     3.6360    -1.3200 C.ar  1 <1>  -0.1500 
 22 C        6.5370     5.0800     0.8540 C.ar  1 <1>  -0.1440 
 23 C        7.7820     4.9800    -1.1950 C.ar  1 <1>  -0.1500 
 24 C        7.3110     5.7000    -0.1120 C.ar  1 <1>  -0.1500 
 25 C        6.0090     5.8600     2.0440 C.3   1 <1>  -0.0970 
 26 H        2.5590    -1.1210    -0.2180 H     1 <1>   0.0800 
 27 H        2.5090     3.1580    -0.3170 H     1 <1>   0.0800 
 28 H        2.0410     2.4190    -1.8030 H     1 <1>   0.0800 
 29 H        0.3390     0.6160    -1.2330 H     1 <1>   0.0800 
 30 H        0.3080     0.0420     0.3970 H     1 <1>   0.0800 
 31 H        1.7180    -0.5240    -2.2180 H     1 <1>   0.4000 
 32 H        4.9490    -0.6360    -1.2310 H     1 <1>   0.0800 
 33 H        4.6710    -0.5070     0.4900 H     1 <1>   0.0800 
 34 H        4.5180     3.2150    -1.4250 H     1 <1>   0.0800 
 35 H        4.1560     1.7930    -2.3840 H     1 <1>   0.0800 
 36 H        4.5820     1.7200     0.4770 H     1 <1>   0.4500 
 37 H       -0.5870     2.7370    -1.8040 H     1 <1>   0.1500 
 38 H        0.1370     1.7750     2.2920 H     1 <1>   0.1500 
 39 H        6.8060     0.9850     0.3100 H     1 <1>   0.0800 
 40 H        6.7440     1.1570    -1.4310 H     1 <1>   0.0800 
 41 H       -1.8020     4.7470    -1.1150 H     1 <1>   0.1500 
 42 H       -1.0750     3.7860     2.9720 H     1 <1>   0.1500 
 43 H       -2.0500     5.2820     1.2750 H     1 <1>   0.1500 
 44 H        5.6390     3.2590     1.4910 H     1 <1>   0.1500 
 45 H        7.8530     3.0940    -2.1710 H     1 <1>   0.1500 
 46 H        8.3850     5.4700    -1.9410 H     1 <1>   0.1500 
 47 H        7.5500     6.7460    -0.0230 H     1 <1>   0.1500 
 48 H        5.8910     6.8990     1.7940 H     1 <1>   0.0800 
 49 H        6.6940     5.7750     2.8680 H     1 <1>   0.0800 
 50 H        5.0520     5.4740     2.3490 H     1 <1>   0.0800 
@<TRIPOS>BOND
  1   1   2  ar  
  2   2   3  ar  
  3   2   4  1   
  4   4   5  1   
  5   4   6  1   
  6   4   7  1   
  7   5   8  1   
  8   5   9  1   
  9   5  26  1   
 10   6  10  1   
 11   6  27  1   
 12   6  28  1   
 13   7  11  1   
 14   7  29  1   
 15   7  30  1   
 16   8  31  1   
 17   9  12  1   
 18   9  32  1   
 19   9  33  1   
 20  10  12  1   
 21  10  34  1   
 22  10  35  1   
 23  11  13  ar  
 24  11  14  ar  
 25  12  15  1   
 26  12  36  1   
 27  13  16  ar  
 28  13  37  1   
 29  14  17  ar  
 30  14  38  1   
 31  15  18  1   
 32  15  39  1   
 33  15  40  1   
 34  16  19  ar  
 35  16  41  1   
 36  17  19  ar  
 37  17  42  1   
 38  18  20  ar  
 39  18  21  ar  
 40  19  43  1   
 41  20  22  ar  
 42  20  44  1   
 43  21  23  ar  
 44  21  45  1   
 45  22  24  ar  
 46  22  25  1   
 47  23  24  ar  
 48  23  46  1   
 49  24  47  1   
 50  25  48  1   
 51  25  49  1   
 52  25  50  1   
@<TRIPOS>SUBSTRUCTURE
  1 ****   6 GROUP 4 **** **** 0

# MOE 2024.06 (io_trps.svl 2023.06)
