@<TRIPOS>MOLECULE
NONAME
49 52 1 0 0 
SMALL
USER_CHARGES


@<TRIPOS>ATOM
  1 O       -0.7910    -0.9280    -0.0640 O.2   1 <1>  -0.5700 
  2 C       -1.9110    -0.5500     0.1760 C.2   1 <1>   0.5690 
  3 N       -2.3970     0.6930    -0.0370 N.am  1 <1>  -0.6600 
  4 C       -2.9530    -1.4410     0.7880 C.3   1 <1>  -0.0990 
  5 C       -1.5890     1.8080    -0.6010 C.3   1 <1>   0.2200 
  6 C       -3.8070     0.8250     0.3720 C.3   1 <1>   0.1400 
  7 C       -4.2500    -0.6130     0.6880 C.3   1 <1>  -0.0800 
  8 C       -1.5250     2.9930     0.3600 C.3   1 <1>  -0.1600 
  9 C       -2.2270     2.3760    -1.8670 C.3   1 <1>  -0.1600 
 10 C       -5.1260    -0.6850     1.9450 C.3   1 <1>   0.2090 
 11 C       -2.6930     3.9150     0.0000 C.3   1 <1>  -0.1600 
 12 C       -3.0790     3.5810    -1.4450 C.3   1 <1>  -0.1600 
 13 N       -5.5280    -2.0850     2.1970 N.pl3 1 <1>  -0.8690 
 14 C       -6.6290    -2.6300     1.5910 C.ar  1 <1>   0.4100 
 15 N       -6.4140    -3.7410     0.8860 N.ar  1 <1>  -0.3100 
 16 C       -7.8850    -2.0650     1.7040 C.ar  1 <1>  -0.1500 
 17 N       -7.4030    -4.3240     0.2550 N.ar  1 <1>  -0.3100 
 18 C       -8.9210    -2.6810     1.0470 C.ar  1 <1>  -0.1500 
 19 C       -8.6460    -3.8250     0.3130 C.ar  1 <1>   0.3100 
 20 C       -9.7000    -4.5110    -0.4030 C.ar  1 <1>   0.0000 
 21 C      -10.6220    -3.8160    -1.1880 C.ar  1 <1>  -0.1500 
 22 C       -9.8340    -5.8980    -0.3310 C.ar  1 <1>  -0.1500 
 23 C      -11.6360    -4.4730    -1.8600 C.ar  1 <1>  -0.1500 
 24 C      -10.8450    -6.5610    -1.0010 C.ar  1 <1>  -0.1500 
 25 C      -11.7510    -5.8480    -1.7670 C.ar  1 <1>  -0.1500 
 26 H       -2.6750    -1.6370     1.8070 H     1 <1>   0.0800 
 27 H       -3.0280    -2.3640     0.2430 H     1 <1>   0.0800 
 28 H       -0.5960     1.4460    -0.8140 H     1 <1>   0.0800 
 29 H       -4.4000     1.2420    -0.4230 H     1 <1>   0.0800 
 30 H       -3.8640     1.4540     1.2430 H     1 <1>   0.0800 
 31 H       -4.8230    -0.9660    -0.1530 H     1 <1>   0.0800 
 32 H       -0.6050     3.5200     0.1760 H     1 <1>   0.0800 
 33 H       -1.5380     2.6820     1.3900 H     1 <1>   0.0800 
 34 H       -2.7920     1.6340    -2.4020 H     1 <1>   0.0800 
 35 H       -1.4380     2.7260    -2.5090 H     1 <1>   0.0800 
 36 H       -6.0000    -0.0690     1.8150 H     1 <1>   0.0800 
 37 H       -4.5800    -0.3180     2.7980 H     1 <1>   0.0800 
 38 H       -2.4120     4.9500     0.1010 H     1 <1>   0.0800 
 39 H       -3.5270     3.7230     0.6520 H     1 <1>   0.0800 
 40 H       -4.1260     3.3390    -1.5020 H     1 <1>   0.0800 
 41 H       -2.8870     4.4180    -2.0950 H     1 <1>   0.0800 
 42 H       -4.7340    -2.7320     2.1600 H     1 <1>   0.4000 
 43 H       -8.0340    -1.1840     2.2970 H     1 <1>   0.1500 
 44 H       -9.9220    -2.2960     1.1050 H     1 <1>   0.1500 
 45 H      -10.5410    -2.7470    -1.2800 H     1 <1>   0.1500 
 46 H       -9.1320    -6.4610     0.2600 H     1 <1>   0.1500 
 47 H      -12.3360    -3.9170    -2.4590 H     1 <1>   0.1500 
 48 H      -10.9270    -7.6310    -0.9280 H     1 <1>   0.1500 
 49 H      -12.5390    -6.3630    -2.2900 H     1 <1>   0.1500 
@<TRIPOS>BOND
  1   1   2  2   
  2   2   3  am  
  3   2   4  1   
  4   3   5  1   
  5   3   6  1   
  6   4   7  1   
  7   4  26  1   
  8   4  27  1   
  9   5   8  1   
 10   5   9  1   
 11   5  28  1   
 12   6   7  1   
 13   6  29  1   
 14   6  30  1   
 15   7  10  1   
 16   7  31  1   
 17   8  11  1   
 18   8  32  1   
 19   8  33  1   
 20   9  12  1   
 21   9  34  1   
 22   9  35  1   
 23  10  13  1   
 24  10  36  1   
 25  10  37  1   
 26  11  12  1   
 27  11  38  1   
 28  11  39  1   
 29  12  40  1   
 30  12  41  1   
 31  13  14  1   
 32  13  42  1   
 33  14  15  ar  
 34  14  16  ar  
 35  15  17  ar  
 36  16  18  ar  
 37  16  43  1   
 38  17  19  ar  
 39  18  19  ar  
 40  18  44  1   
 41  19  20  1   
 42  20  21  ar  
 43  20  22  ar  
 44  21  23  ar  
 45  21  45  1   
 46  22  24  ar  
 47  22  46  1   
 48  23  25  ar  
 49  23  47  1   
 50  24  25  ar  
 51  24  48  1   
 52  25  49  1   
@<TRIPOS>SUBSTRUCTURE
  1 ****  14 GROUP 4 **** **** 0

# MOE 2024.06 (io_trps.svl 2023.06)
