@<TRIPOS>MOLECULE
NONAME
21 21 1 0 0 
SMALL
USER_CHARGES


@<TRIPOS>ATOM
  1 F        0.6870     1.3090     1.2510 F     1 <1>  -0.3400 
  2 C       -0.1300     1.7800     0.3190 C.3   1 <1>   1.1640 
  3 F       -1.3600     1.4900     0.7210 F     1 <1>  -0.3400 
  4 F        0.0880     1.0540    -0.7710 F     1 <1>  -0.3400 
  5 C        0.0600     3.2760     0.0950 C.ar  1 <1>  -0.1440 
  6 C       -0.1500     4.1320     1.1620 C.ar  1 <1>   0.1600 
  7 C        0.4330     3.8220    -1.1200 C.ar  1 <1>  -0.1500 
  8 N       -0.0230     5.4470     1.1140 N.ar  1 <1>  -0.6200 
  9 C        0.5700     5.1930    -1.1840 C.ar  1 <1>  -0.1500 
 10 C        0.3350     5.9780    -0.0580 C.ar  1 <1>   0.1660 
 11 C        0.4870     7.5190    -0.1280 C.3   1 <1>   0.8230 
 12 F        0.7280     7.9220    -1.3790 F     1 <1>  -0.3400 
 13 F        1.5830     7.8900     0.5310 F     1 <1>  -0.3400 
 14 C       -0.7130     8.3310     0.4180 C.3   1 <1>   0.1200 
 15 O       -1.8070     8.3990    -0.4660 O.3   1 <1>  -0.6800 
 16 H       -0.4410     3.7170     2.1150 H     1 <1>   0.1500 
 17 H        0.6140     3.2140    -1.9910 H     1 <1>   0.1500 
 18 H        0.8620     5.6400    -2.1180 H     1 <1>   0.1500 
 19 H       -0.3970     9.3380     0.6250 H     1 <1>   0.0800 
 20 H       -1.0620     7.8850     1.3310 H     1 <1>   0.0800 
 21 H       -1.5390     8.7990    -1.3200 H     1 <1>   0.4000 
@<TRIPOS>BOND
  1   1   2  1   
  2   2   3  1   
  3   2   4  1   
  4   2   5  1   
  5   5   6  ar  
  6   5   7  ar  
  7   6   8  ar  
  8   6  16  1   
  9   7   9  ar  
 10   7  17  1   
 11   8  10  ar  
 12   9  10  ar  
 13   9  18  1   
 14  10  11  1   
 15  11  12  1   
 16  11  13  1   
 17  11  14  1   
 18  14  15  1   
 19  14  19  1   
 20  14  20  1   
 21  15  21  1   
@<TRIPOS>SUBSTRUCTURE
  1 ****  10 GROUP 4 **** **** 0

# MOE 2024.06 (io_trps.svl 2023.06)
