@<TRIPOS>MOLECULE
NONAME
36 36 1 0 0 
SMALL
USER_CHARGES


@<TRIPOS>ATOM
  1 O        0.0800    -0.2910    -0.3890 O.2   1 <1>  -0.5700 
  2 C        1.1760    -0.8130    -0.3400 C.2   1 <1>   0.6340 
  3 O        2.2430    -0.0620    -0.0200 O.3   1 <1>  -0.4300 
  4 C        1.3750    -2.2160    -0.6480 C.ar  1 <1>   0.0860 
  5 C        2.2840     1.3140     0.2970 C.3   1 <1>   0.2800 
  6 C        2.4370    -2.9970    -0.1370 C.ar  1 <1>   0.1000 
  7 C        0.4590    -2.8390    -1.5000 C.ar  1 <1>  -0.1500 
  8 C        1.8230     2.1470    -0.9040 C.3   1 <1>  -0.2400 
  9 C        3.7570     1.6120     0.5830 C.3   1 <1>  -0.2400 
 10 C        1.4580     1.5920     1.5580 C.3   1 <1>  -0.2400 
 11 N        3.3720    -2.4430     0.7280 N.pl3 1 <1>  -0.9000 
 12 C        2.5460    -4.3530    -0.4930 C.ar  1 <1>  -0.1430 
 13 C        0.5730    -4.1650    -1.8510 C.ar  1 <1>  -0.1500 
 14 C        1.6170    -4.9170    -1.3470 C.ar  1 <1>  -0.1500 
 15 C        3.6510    -5.2770     0.0250 C.3   1 <1>   0.3430 
 16 O        3.7740    -5.0960     1.3800 O.3   1 <1>  -0.6800 
 17 C        5.0060    -5.0060    -0.6220 C.3   1 <1>  -0.2400 
 18 H       -0.3620    -2.2640    -1.8960 H     1 <1>   0.1500 
 19 H        2.3760     1.8750    -1.7840 H     1 <1>   0.0800 
 20 H        1.9840     3.1920    -0.7090 H     1 <1>   0.0800 
 21 H        0.7730     2.0120    -1.0900 H     1 <1>   0.0800 
 22 H        4.3570     1.3920    -0.2820 H     1 <1>   0.0800 
 23 H        4.1040     1.0260     1.4140 H     1 <1>   0.0800 
 24 H        3.8850     2.6510     0.8270 H     1 <1>   0.0800 
 25 H        0.4090     1.4600     1.3710 H     1 <1>   0.0800 
 26 H        1.6050     2.6080     1.8750 H     1 <1>   0.0800 
 27 H        1.7590     0.9380     2.3560 H     1 <1>   0.0800 
 28 H        4.3300    -2.8150     0.7050 H     1 <1>   0.4000 
 29 H        3.3680    -1.4130     0.8000 H     1 <1>   0.4000 
 30 H       -0.1470    -4.6170    -2.5120 H     1 <1>   0.1500 
 31 H        1.6890    -5.9540    -1.6290 H     1 <1>   0.1500 
 32 H        3.3840    -6.3090    -0.1270 H     1 <1>   0.0800 
 33 H        3.3880    -4.2100     1.5720 H     1 <1>   0.4000 
 34 H        5.3200    -3.9920    -0.4640 H     1 <1>   0.0800 
 35 H        4.9340    -5.1760    -1.6800 H     1 <1>   0.0800 
 36 H        5.7430    -5.6770    -0.2190 H     1 <1>   0.0800 
@<TRIPOS>BOND
  1   1   2  2   
  2   2   3  1   
  3   2   4  1   
  4   3   5  1   
  5   4   6  ar  
  6   4   7  ar  
  7   5   8  1   
  8   5   9  1   
  9   5  10  1   
 10   6  11  1   
 11   6  12  ar  
 12   7  13  ar  
 13   7  18  1   
 14   8  19  1   
 15   8  20  1   
 16   8  21  1   
 17   9  22  1   
 18   9  23  1   
 19   9  24  1   
 20  10  25  1   
 21  10  26  1   
 22  10  27  1   
 23  11  28  1   
 24  11  29  1   
 25  12  14  ar  
 26  12  15  1   
 27  13  14  ar  
 28  13  30  1   
 29  14  31  1   
 30  15  16  1   
 31  15  17  1   
 32  15  32  1   
 33  16  33  1   
 34  17  34  1   
 35  17  35  1   
 36  17  36  1   
@<TRIPOS>SUBSTRUCTURE
  1 ****   4 GROUP 4 **** **** 0

# MOE 2024.06 (io_trps.svl 2023.06)
