@<TRIPOS>MOLECULE
NONAME
43 44 1 0 0 
SMALL
USER_CHARGES


@<TRIPOS>ATOM
  1 S        0.5560     0.3080     0.8630 S.o2  1 <1>   1.3330 
  2 O       -0.4620     0.2080     1.8840 O.2   1 <1>  -0.6500 
  3 O        1.8950     0.7120     1.2310 O.2   1 <1>  -0.6500 
  4 N        0.6640    -1.1860     0.0640 N.am  1 <1>  -0.8490 
  5 C       -0.0590     1.4050    -0.4120 C.3   1 <1>  -0.0550 
  6 C        1.8990    -1.3440    -0.7120 C.3   1 <1>   0.1160 
  7 C        0.5040    -2.3180     0.9810 C.3   1 <1>   0.1160 
  8 C       -0.2930     2.8390     0.0910 C.3   1 <1>  -0.0800 
  9 C       -0.8870     3.7360    -0.9860 C.3   1 <1>   0.2000 
 10 C        0.9870     3.5640     0.5180 C.3   1 <1>   0.2090 
 11 O       -2.2630     3.5630    -1.0430 O.3   1 <1>  -0.6800 
 12 C       -0.4920     5.1510    -0.5740 C.3   1 <1>   0.2090 
 13 N        0.7970     4.9930     0.1550 N.pl3 1 <1>  -0.8380 
 14 C        1.9060     5.6350    -0.3510 C.ar  1 <1>   0.4100 
 15 N        2.1760     5.4160    -1.6220 N.ar  1 <1>  -0.6200 
 16 C        2.7120     6.4460     0.4410 C.ar  1 <1>  -0.1440 
 17 C        3.2520     6.0180    -2.0800 C.ar  1 <1>   0.4700 
 18 C        3.8190     7.0020    -0.1610 C.ar  1 <1>   0.1670 
 19 C        2.3590     6.6840     1.9110 C.3   1 <1>  -0.0970 
 20 N        4.0960     6.7990    -1.4330 N.ar  1 <1>  -0.6200 
 21 C        4.8060     7.8860     0.5800 C.3   1 <1>  -0.0970 
 22 H        0.6320     1.4270    -1.2320 H     1 <1>   0.0800 
 23 H       -0.9890     1.0160    -0.7790 H     1 <1>   0.0800 
 24 H        1.8730    -2.2680    -1.2640 H     1 <1>   0.0800 
 25 H        2.7570    -1.3500    -0.0590 H     1 <1>   0.0800 
 26 H        2.0040    -0.5340    -1.4130 H     1 <1>   0.0800 
 27 H        0.5600    -3.2480     0.4420 H     1 <1>   0.0800 
 28 H       -0.4590    -2.2680     1.4630 H     1 <1>   0.0800 
 29 H        1.2710    -2.2980     1.7380 H     1 <1>   0.0800 
 30 H       -0.9490     2.8200     0.9440 H     1 <1>   0.0800 
 31 H       -0.4710     3.5180    -1.9550 H     1 <1>   0.0800 
 32 H        1.8420     3.1720    -0.0080 H     1 <1>   0.0800 
 33 H        1.1550     3.4660     1.5770 H     1 <1>   0.0800 
 34 H       -2.6660     3.7330    -0.1700 H     1 <1>   0.4000 
 35 H       -1.2190     5.5710     0.0970 H     1 <1>   0.0800 
 36 H       -0.3830     5.7860    -1.4370 H     1 <1>   0.0800 
 37 H        3.4760     5.8500    -3.1200 H     1 <1>   0.1500 
 38 H        2.7340     7.6270     2.2620 H     1 <1>   0.0800 
 39 H        2.7690     5.8950     2.5140 H     1 <1>   0.0800 
 40 H        1.2920     6.6960     2.0450 H     1 <1>   0.0800 
 41 H        4.9920     7.5070     1.5670 H     1 <1>   0.0800 
 42 H        4.4170     8.8850     0.6440 H     1 <1>   0.0800 
 43 H        5.7440     7.9160     0.0540 H     1 <1>   0.0800 
@<TRIPOS>BOND
  1   1   2  2   
  2   1   3  2   
  3   1   4  am  
  4   1   5  1   
  5   4   6  1   
  6   4   7  1   
  7   5   8  1   
  8   5  22  1   
  9   5  23  1   
 10   6  24  1   
 11   6  25  1   
 12   6  26  1   
 13   7  27  1   
 14   7  28  1   
 15   7  29  1   
 16   8   9  1   
 17   8  10  1   
 18   8  30  1   
 19   9  11  1   
 20   9  12  1   
 21   9  31  1   
 22  10  13  1   
 23  10  32  1   
 24  10  33  1   
 25  11  34  1   
 26  12  13  1   
 27  12  35  1   
 28  12  36  1   
 29  13  14  1   
 30  14  15  ar  
 31  14  16  ar  
 32  15  17  ar  
 33  16  18  ar  
 34  16  19  1   
 35  17  20  ar  
 36  17  37  1   
 37  18  20  ar  
 38  18  21  1   
 39  19  38  1   
 40  19  39  1   
 41  19  40  1   
 42  21  41  1   
 43  21  42  1   
 44  21  43  1   
@<TRIPOS>SUBSTRUCTURE
  1 ****  10 GROUP 4 **** **** 0

# MOE 2024.06 (io_trps.svl 2023.06)
