@<TRIPOS>MOLECULE
NONAME
48 49 1 0 0 
SMALL
USER_CHARGES


@<TRIPOS>ATOM
  1 S        0.4210    -0.0620    -1.2140 S.3   1 <1>  -0.0800 
  2 C        1.2240     1.1340    -0.2140 C.2   1 <1>  -0.1400 
  3 C        0.5550    -1.2810     0.0420 C.2   1 <1>  -0.1400 
  4 C        1.5530     0.6000     0.9810 C.2   1 <1>  -0.1500 
  5 C        1.3910     2.4960    -0.8560 C.3   1 <1>   0.5230 
  6 C        1.1750    -0.7730     1.1220 C.2   1 <1>  -0.1500 
  7 C        0.0030    -2.6690    -0.2430 C.3   1 <1>   0.0200 
  8 N        2.4200     3.2810    -0.1230 N.4   1 <1>  -0.9590 
  9 C       -1.4410    -2.8580     0.2630 C.3   1 <1>  -0.0800 
 10 C        2.3780     4.7190    -0.5360 C.3   1 <1>   0.3430 
 11 C        3.7750     2.6840    -0.3170 C.3   1 <1>   0.3430 
 12 C       -1.8840    -4.3130     0.0610 C.3   1 <1>  -0.2400 
 13 C       -2.4360    -1.9200    -0.4340 C.3   1 <1>  -0.2400 
 14 C        3.3950     5.5660     0.2460 C.3   1 <1>  -0.0190 
 15 C        4.8020     3.4680     0.5030 C.3   1 <1>  -0.1600 
 16 C        3.3480     6.9910    -0.2910 C.2   1 <1>   0.4480 
 17 C        4.8090     4.9600     0.1370 C.3   1 <1>  -0.1600 
 18 O        2.7420     7.2310    -1.2920 O.2   1 <1>  -0.5700 
 19 C        4.0890     8.0680     0.4970 C.3   1 <1>  -0.0990 
 20 C        3.7000     9.5020     0.1040 C.3   1 <1>  -0.2400 
 21 H        2.0470     1.0940     1.7990 H     1 <1>   0.1500 
 22 H        0.4420     3.0080    -0.8360 H     1 <1>   0.0800 
 23 H        1.6870     2.3740    -1.8850 H     1 <1>   0.0800 
 24 H        1.3850    -1.3160     2.0280 H     1 <1>   0.1500 
 25 H        0.6360    -3.3840     0.2510 H     1 <1>   0.0800 
 26 H        0.0550    -2.8680    -1.2990 H     1 <1>   0.0800 
 27 H        2.1790     3.2120     0.8730 H     1 <1>   0.4500 
 28 H       -1.4580    -2.6450     1.3190 H     1 <1>   0.0800 
 29 H        1.3910     5.1240    -0.3790 H     1 <1>   0.0800 
 30 H        2.6010     4.8000    -1.5880 H     1 <1>   0.0800 
 31 H        4.0450     2.7210    -1.3600 H     1 <1>   0.0800 
 32 H        3.7770     1.6510    -0.0050 H     1 <1>   0.0800 
 33 H       -1.8880    -4.5680    -0.9840 H     1 <1>   0.0800 
 34 H       -2.8770    -4.4580     0.4510 H     1 <1>   0.0800 
 35 H       -1.2210    -4.9840     0.5770 H     1 <1>   0.0800 
 36 H       -2.4050    -2.0560    -1.5010 H     1 <1>   0.0800 
 37 H       -2.2090    -0.8940    -0.2090 H     1 <1>   0.0800 
 38 H       -3.4370    -2.1170    -0.0930 H     1 <1>   0.0800 
 39 H        3.0920     5.5910     1.2770 H     1 <1>   0.0800 
 40 H        5.7800     3.0550     0.3210 H     1 <1>   0.0800 
 41 H        4.5940     3.3440     1.5520 H     1 <1>   0.0800 
 42 H        5.4890     5.4840     0.7880 H     1 <1>   0.0800 
 43 H        5.1700     5.0760    -0.8730 H     1 <1>   0.0800 
 44 H        5.1460     7.9430     0.3410 H     1 <1>   0.0800 
 45 H        3.8900     7.9360     1.5460 H     1 <1>   0.0800 
 46 H        3.9240     9.6790    -0.9340 H     1 <1>   0.0800 
 47 H        4.2450    10.2140     0.6980 H     1 <1>   0.0800 
 48 H        2.6460     9.6610     0.2570 H     1 <1>   0.0800 
@<TRIPOS>BOND
  1   1   2  1   
  2   1   3  1   
  3   2   4  2   
  4   2   5  1   
  5   3   6  2   
  6   3   7  1   
  7   4   6  1   
  8   4  21  1   
  9   5   8  1   
 10   5  22  1   
 11   5  23  1   
 12   6  24  1   
 13   7   9  1   
 14   7  25  1   
 15   7  26  1   
 16   8  10  1   
 17   8  11  1   
 18   8  27  1   
 19   9  12  1   
 20   9  13  1   
 21   9  28  1   
 22  10  14  1   
 23  10  29  1   
 24  10  30  1   
 25  11  15  1   
 26  11  31  1   
 27  11  32  1   
 28  12  33  1   
 29  12  34  1   
 30  12  35  1   
 31  13  36  1   
 32  13  37  1   
 33  13  38  1   
 34  14  16  1   
 35  14  17  1   
 36  14  39  1   
 37  15  17  1   
 38  15  40  1   
 39  15  41  1   
 40  16  18  2   
 41  16  19  1   
 42  17  42  1   
 43  17  43  1   
 44  19  20  1   
 45  19  44  1   
 46  19  45  1   
 47  20  46  1   
 48  20  47  1   
 49  20  48  1   
@<TRIPOS>SUBSTRUCTURE
  1 ****   5 GROUP 4 **** **** 0

# MOE 2024.06 (io_trps.svl 2023.06)
