@<TRIPOS>MOLECULE
NONAME
44 46 1 0 0 
SMALL
USER_CHARGES


@<TRIPOS>ATOM
  1 O        0.0420     1.0330     0.2660 O.2   1 <1>  -0.5700 
  2 C       -0.1600     2.1920    -0.0090 C.2   1 <1>   0.5690 
  3 N       -0.9270     3.0120     0.7730 N.am  1 <1>  -0.6600 
  4 C        0.4510     2.7450    -1.2970 C.3   1 <1>   0.1810 
  5 C       -1.2070     4.4320     0.3760 C.3   1 <1>   0.3640 
  6 C       -1.4870     2.5720     2.0840 C.3   1 <1>   0.0600 
  7 O        0.6200     4.1400    -1.2540 O.3   1 <1>  -0.5600 
  8 C       -2.7170     4.7230     0.4060 C.ar  1 <1>  -0.1430 
  9 C       -0.5710     4.8620    -0.9730 C.3   1 <1>   0.2610 
 10 C       -3.6930     3.9560    -0.2400 C.ar  1 <1>  -0.1430 
 11 C       -3.1200     5.8380     1.1340 C.ar  1 <1>  -0.1500 
 12 C       -0.2750     6.3650    -0.9350 C.2   1 <1>   0.5690 
 13 C       -5.0280     4.3160    -0.1300 C.ar  1 <1>  -0.1500 
 14 C       -3.3820     2.7140    -1.0700 C.3   1 <1>  -0.0960 
 15 C       -4.4520     6.1880     1.2340 C.ar  1 <1>  -0.1500 
 16 O       -1.1740     7.1590    -1.0690 O.2   1 <1>  -0.5700 
 17 N        1.0050     6.7780    -0.7410 N.am  1 <1>  -0.7300 
 18 C       -5.4110     5.4240     0.6010 C.ar  1 <1>  -0.1500 
 19 C        1.4590     8.1740    -0.6650 C.3   1 <1>   0.2350 
 20 C        2.5610     8.2570     0.3890 C.3   1 <1>  -0.1950 
 21 C        3.6530     9.2730     0.2790 C.3   1 <1>  -0.2000 
 22 C        3.9580     7.8130     0.0910 C.3   1 <1>  -0.2000 
 23 H       -0.1750     2.4980    -2.1340 H     1 <1>   0.0800 
 24 H        1.4190     2.3030    -1.4460 H     1 <1>   0.0800 
 25 H       -0.7440     5.0420     1.1320 H     1 <1>   0.0800 
 26 H       -1.1890     3.2560     2.8580 H     1 <1>   0.0800 
 27 H       -1.1320     1.5880     2.3390 H     1 <1>   0.0800 
 28 H       -2.5620     2.5450     2.0340 H     1 <1>   0.0800 
 29 H       -1.2600     4.6870    -1.7780 H     1 <1>   0.0800 
 30 H       -2.3930     6.4570     1.6300 H     1 <1>   0.1500 
 31 H       -5.7900     3.7330    -0.6170 H     1 <1>   0.1500 
 32 H       -4.2360     2.4150    -1.6490 H     1 <1>   0.0800 
 33 H       -3.1180     1.8960    -0.4240 H     1 <1>   0.0800 
 34 H       -2.5770     2.8970    -1.7540 H     1 <1>   0.0800 
 35 H       -4.7410     7.0570     1.7990 H     1 <1>   0.1500 
 36 H        1.7410     6.0660    -0.7240 H     1 <1>   0.3700 
 37 H       -6.4500     5.6910     0.6750 H     1 <1>   0.1500 
 38 H        1.8370     8.4740    -1.6280 H     1 <1>   0.0800 
 39 H        0.6380     8.8210    -0.4010 H     1 <1>   0.0800 
 40 H        2.1790     8.0740     1.3800 H     1 <1>   0.1000 
 41 H        3.6920     9.9190    -0.5820 H     1 <1>   0.1000 
 42 H        3.9990     9.7610     1.1740 H     1 <1>   0.1000 
 43 H        4.5110     7.2970     0.8570 H     1 <1>   0.1000 
 44 H        4.2010     7.4640    -0.8980 H     1 <1>   0.1000 
@<TRIPOS>BOND
  1   1   2  2   
  2   2   3  am  
  3   2   4  1   
  4   3   5  1   
  5   3   6  1   
  6   4   7  1   
  7   4  23  1   
  8   4  24  1   
  9   5   8  1   
 10   5   9  1   
 11   5  25  1   
 12   6  26  1   
 13   6  27  1   
 14   6  28  1   
 15   7   9  1   
 16   8  10  ar  
 17   8  11  ar  
 18   9  12  1   
 19   9  29  1   
 20  10  13  ar  
 21  10  14  1   
 22  11  15  ar  
 23  11  30  1   
 24  12  16  2   
 25  12  17  am  
 26  13  18  ar  
 27  13  31  1   
 28  14  32  1   
 29  14  33  1   
 30  14  34  1   
 31  15  18  ar  
 32  15  35  1   
 33  17  19  1   
 34  17  36  1   
 35  18  37  1   
 36  19  20  1   
 37  19  38  1   
 38  19  39  1   
 39  20  21  1   
 40  20  22  1   
 41  20  40  1   
 42  21  22  1   
 43  21  41  1   
 44  21  42  1   
 45  22  43  1   
 46  22  44  1   
@<TRIPOS>SUBSTRUCTURE
  1 ****   5 GROUP 4 **** **** 0

# MOE 2024.06 (io_trps.svl 2023.06)
