@<TRIPOS>MOLECULE
NONAME
48 50 1 0 0 
SMALL
USER_CHARGES


@<TRIPOS>ATOM
  1 F       -0.1790    -0.7130     2.3290 F     1 <1>  -0.1900 
  2 C        0.6320    -0.9930     1.3450 C.ar  1 <1>   0.1900 
  3 C        1.0700     0.0350     0.5360 C.ar  1 <1>  -0.1500 
  4 C        0.9970    -2.3100     1.1400 C.ar  1 <1>  -0.1500 
  5 C        1.8890    -0.3160    -0.5160 C.ar  1 <1>   0.1900 
  6 C        1.7990    -2.6580     0.0510 C.ar  1 <1>   0.0860 
  7 F        2.3220     0.6250    -1.3090 F     1 <1>  -0.1900 
  8 C        2.2570    -1.6250    -0.7690 C.ar  1 <1>  -0.1500 
  9 C        2.1340    -4.0400    -0.2430 C.2   1 <1>   0.5440 
 10 O        3.2780    -4.2970    -0.5650 O.2   1 <1>  -0.5700 
 11 N        1.2240    -5.0800    -0.1560 N.am  1 <1>  -0.6600 
 12 C       -0.1820    -5.1130    -0.6730 C.3   1 <1>   0.2200 
 13 C        1.7520    -6.4460     0.1370 C.3   1 <1>   0.0600 
 14 C       -0.6360    -3.9620    -1.5740 C.3   1 <1>  -0.1600 
 15 C       -1.1940    -5.1440     0.4660 C.3   1 <1>  -0.1600 
 16 C       -2.1650    -3.9070    -1.4340 C.3   1 <1>  -0.0800 
 17 C       -2.5180    -4.6570    -0.1380 C.3   1 <1>  -0.0800 
 18 C       -2.7060    -2.4790    -1.2640 C.3   1 <1>  -0.1600 
 19 C       -3.2530    -3.6530     0.7600 C.3   1 <1>  -0.1600 
 20 C       -2.7920    -2.2930     0.2500 C.3   1 <1>   0.4230 
 21 N       -3.6670    -1.1700     0.7030 N.4   1 <1>  -0.9590 
 22 C       -5.0760    -1.2050     0.1900 C.3   1 <1>   0.2630 
 23 C       -3.0330     0.1470     0.3880 C.3   1 <1>   0.2630 
 24 H        0.7970     1.0590     0.7140 H     1 <1>   0.1500 
 25 H        0.6680    -3.0700     1.8240 H     1 <1>   0.1500 
 26 H        2.8990    -1.8500    -1.6040 H     1 <1>   0.1500 
 27 H       -0.3090    -6.0180    -1.2450 H     1 <1>   0.0800 
 28 H        1.0610    -6.9900     0.7560 H     1 <1>   0.0800 
 29 H        2.6940    -6.3810     0.6550 H     1 <1>   0.0800 
 30 H        1.9050    -6.9810    -0.7840 H     1 <1>   0.0800 
 31 H       -0.2300    -3.0260    -1.2660 H     1 <1>   0.0800 
 32 H       -0.3450    -4.1450    -2.5940 H     1 <1>   0.0800 
 33 H       -1.2950    -6.1400     0.8600 H     1 <1>   0.0800 
 34 H       -0.8730    -4.4930     1.2540 H     1 <1>   0.0800 
 35 H       -2.6220    -4.3920    -2.2830 H     1 <1>   0.0800 
 36 H       -3.1470    -5.5050    -0.3580 H     1 <1>   0.0800 
 37 H       -3.6810    -2.4420    -1.7140 H     1 <1>   0.0800 
 38 H       -2.0720    -1.7470    -1.7310 H     1 <1>   0.0800 
 39 H       -3.0230    -3.7940     1.8020 H     1 <1>   0.0800 
 40 H       -4.3090    -3.7840     0.6090 H     1 <1>   0.0800 
 41 H       -1.7920    -2.1330     0.6200 H     1 <1>   0.0800 
 42 H       -3.7120    -1.2480     1.7310 H     1 <1>   0.4500 
 43 H       -5.0890    -1.1010    -0.8830 H     1 <1>   0.0800 
 44 H       -5.6470    -0.3960     0.6170 H     1 <1>   0.0800 
 45 H       -5.5540    -2.1330     0.4540 H     1 <1>   0.0800 
 46 H       -2.9530     0.2780    -0.6790 H     1 <1>   0.0800 
 47 H       -2.0450     0.1990     0.8170 H     1 <1>   0.0800 
 48 H       -3.6240     0.9530     0.7910 H     1 <1>   0.0800 
@<TRIPOS>BOND
  1   1   2  1   
  2   2   3  ar  
  3   2   4  ar  
  4   3   5  ar  
  5   3  24  1   
  6   4   6  ar  
  7   4  25  1   
  8   5   7  1   
  9   5   8  ar  
 10   6   8  ar  
 11   6   9  1   
 12   8  26  1   
 13   9  10  2   
 14   9  11  am  
 15  11  12  1   
 16  11  13  1   
 17  12  14  1   
 18  12  15  1   
 19  12  27  1   
 20  13  28  1   
 21  13  29  1   
 22  13  30  1   
 23  14  16  1   
 24  14  31  1   
 25  14  32  1   
 26  15  17  1   
 27  15  33  1   
 28  15  34  1   
 29  16  17  1   
 30  16  18  1   
 31  16  35  1   
 32  17  19  1   
 33  17  36  1   
 34  18  20  1   
 35  18  37  1   
 36  18  38  1   
 37  19  20  1   
 38  19  39  1   
 39  19  40  1   
 40  20  21  1   
 41  20  41  1   
 42  21  22  1   
 43  21  23  1   
 44  21  42  1   
 45  22  43  1   
 46  22  44  1   
 47  22  45  1   
 48  23  46  1   
 49  23  47  1   
 50  23  48  1   
@<TRIPOS>SUBSTRUCTURE
  1 ****   4 GROUP 4 **** **** 0

# MOE 2024.06 (io_trps.svl 2023.06)
