@<TRIPOS>MOLECULE
NONAME
45 47 1 0 0 
SMALL
USER_CHARGES


@<TRIPOS>ATOM
  1 F        2.1110    -3.2650     2.6270 F     1 <1>  -0.1900 
  2 C        1.1750    -3.6290     1.7890 C.ar  1 <1>   0.1900 
  3 C        1.3810    -3.6340     0.4040 C.ar  1 <1>   0.0820 
  4 C       -0.0330    -4.0070     2.3450 C.ar  1 <1>  -0.1500 
  5 O        2.5200    -3.2850    -0.2580 O.3   1 <1>  -0.3630 
  6 C        0.3260    -4.0360    -0.3990 C.ar  1 <1>  -0.1500 
  7 C       -1.0640    -4.4050     1.5150 C.ar  1 <1>  -0.1500 
  8 C        3.7210    -2.9540     0.4000 C.3   1 <1>   0.0400 
  9 C       -0.9010    -4.4380     0.1290 C.ar  1 <1>   0.0860 
 10 C       -1.9700    -4.8850    -0.7420 C.2   1 <1>   0.5440 
 11 O       -2.5360    -4.0660    -1.4410 O.2   1 <1>  -0.5700 
 12 N       -2.3790    -6.2030    -0.8000 N.am  1 <1>  -0.6600 
 13 C       -1.6680    -7.3010    -0.0450 C.3   1 <1>   0.3640 
 14 C       -3.6290    -6.5450    -1.5440 C.3   1 <1>   0.1400 
 15 C       -0.1930    -7.3240    -0.4600 C.ar  1 <1>  -0.1430 
 16 C       -2.2530    -8.7400    -0.2090 C.3   1 <1>   0.2000 
 17 C       -3.7320    -8.0320    -1.8790 C.3   1 <1>   0.1200 
 18 C        0.1720    -7.3320    -1.8010 C.ar  1 <1>  -0.1500 
 19 C        0.8040    -7.3250     0.5060 C.ar  1 <1>  -0.1500 
 20 O       -3.5610    -8.7700    -0.7140 O.3   1 <1>  -0.5600 
 21 C       -2.2930    -9.5140     1.1190 C.3   1 <1>   0.1200 
 22 C        1.5060    -7.3410    -2.1670 C.ar  1 <1>  -0.1500 
 23 C        2.1380    -7.3330     0.1420 C.ar  1 <1>  -0.1500 
 24 O       -1.0470    -9.5360     1.7370 O.3   1 <1>  -0.6800 
 25 C        2.4910    -7.3400    -1.1960 C.ar  1 <1>  -0.1500 
 26 H       -0.1600    -3.9850     3.4130 H     1 <1>   0.1500 
 27 H        0.4620    -4.0510    -1.4660 H     1 <1>   0.1500 
 28 H       -2.0110    -4.6950     1.9350 H     1 <1>   0.1500 
 29 H        4.4720    -2.7730    -0.3470 H     1 <1>   0.0800 
 30 H        4.0180    -3.7780     1.0240 H     1 <1>   0.0800 
 31 H        3.5670    -2.0630     0.9830 H     1 <1>   0.0800 
 32 H       -1.7200    -7.0520     0.9990 H     1 <1>   0.0800 
 33 H       -4.4770    -6.2600    -0.9470 H     1 <1>   0.0800 
 34 H       -3.6710    -5.9810    -2.4600 H     1 <1>   0.0800 
 35 H       -1.6460    -9.2930    -0.9030 H     1 <1>   0.0800 
 36 H       -2.9890    -8.3230    -2.6020 H     1 <1>   0.0800 
 37 H       -4.7080    -8.2550    -2.2720 H     1 <1>   0.0800 
 38 H       -0.5840    -7.3210    -2.5660 H     1 <1>   0.1500 
 39 H        0.5460    -7.3160     1.5520 H     1 <1>   0.1500 
 40 H       -2.6020   -10.5310     0.9490 H     1 <1>   0.0800 
 41 H       -2.9830    -9.0420     1.7970 H     1 <1>   0.0800 
 42 H        1.7790    -7.3420    -3.2080 H     1 <1>   0.1500 
 43 H        2.9020    -7.3290     0.8990 H     1 <1>   0.1500 
 44 H       -0.3910   -10.0150     1.1900 H     1 <1>   0.4000 
 45 H        3.5280    -7.3420    -1.4800 H     1 <1>   0.1500 
@<TRIPOS>BOND
  1   1   2  1   
  2   2   3  ar  
  3   2   4  ar  
  4   3   5  1   
  5   3   6  ar  
  6   4   7  ar  
  7   4  26  1   
  8   5   8  1   
  9   6   9  ar  
 10   6  27  1   
 11   7   9  ar  
 12   7  28  1   
 13   8  29  1   
 14   8  30  1   
 15   8  31  1   
 16   9  10  1   
 17  10  11  2   
 18  10  12  am  
 19  12  13  1   
 20  12  14  1   
 21  13  15  1   
 22  13  16  1   
 23  13  32  1   
 24  14  17  1   
 25  14  33  1   
 26  14  34  1   
 27  15  18  ar  
 28  15  19  ar  
 29  16  20  1   
 30  16  21  1   
 31  16  35  1   
 32  17  20  1   
 33  17  36  1   
 34  17  37  1   
 35  18  22  ar  
 36  18  38  1   
 37  19  23  ar  
 38  19  39  1   
 39  21  24  1   
 40  21  40  1   
 41  21  41  1   
 42  22  25  ar  
 43  22  42  1   
 44  23  25  ar  
 45  23  43  1   
 46  24  44  1   
 47  25  45  1   
@<TRIPOS>SUBSTRUCTURE
  1 ****  15 GROUP 4 **** **** 0

# MOE 2024.06 (io_trps.svl 2023.06)
