@<TRIPOS>MOLECULE
NONAME
52 55 1 0 0 
SMALL
USER_CHARGES


@<TRIPOS>ATOM
  1 O        0.2720     0.1300    -0.5440 O.2   1 <1>  -0.5700 
  2 C       -0.4020     1.0950    -0.8720 C.2   1 <1>   0.6300 
  3 N       -1.7660     1.0590    -0.6060 N.am  1 <1>  -0.6600 
  4 C        0.2350     2.2690    -1.4790 C.2   1 <1>   0.6550 
  5 C       -2.6730     2.2310    -0.8220 C.3   1 <1>   0.1400 
  6 C       -2.4410    -0.1110     0.0270 C.3   1 <1>   0.1400 
  7 O        0.0250     2.5560    -2.6480 O.2   1 <1>  -0.5700 
  8 C        1.0410     3.1400    -0.6550 C.2   1 <1>  -0.2370 
  9 C       -3.2670     2.7100     0.5170 C.3   1 <1>   0.1440 
 10 C       -3.0760     0.3110     1.3600 C.3   1 <1>  -0.1600 
 11 N        1.4570     4.4090    -0.9950 N.pl3 1 <1>   0.0480 
 12 C        1.5130     2.8850     0.6110 C.2   1 <1>  -0.1500 
 13 C       -4.1680     3.8940     0.2300 C.ar  1 <1>   0.1670 
 14 C       -3.9990     1.5350     1.2000 C.3   1 <1>  -0.1600 
 15 C       -2.1900     3.3390     1.4420 C.3   1 <1>  -0.1600 
 16 C        2.1510     4.9170     0.0500 C.2   1 <1>  -0.3020 
 17 C        1.2230     5.1370    -2.2590 C.3   1 <1>   0.0160 
 18 C        2.2050     4.0040     1.0540 C.2   1 <1>  -0.1500 
 19 N       -5.3550     3.8290    -0.3200 N.ar  1 <1>  -0.6200 
 20 C       -3.5800     5.0680     0.5930 C.ar  1 <1>  -0.1430 
 21 C       -2.2080     4.8540     1.1820 C.3   1 <1>  -0.0170 
 22 C       -5.9660     5.0030    -0.4940 C.ar  1 <1>   0.7200 
 23 C       -4.2830     6.2260     0.3750 C.ar  1 <1>   0.1600 
 24 N       -5.4770     6.2050    -0.1680 N.ar  1 <1>  -0.6200 
 25 N       -7.2220     4.9730    -1.0690 N.pl3 1 <1>  -0.8380 
 26 C       -8.0180     3.7190    -1.1730 C.3   1 <1>   0.1290 
 27 C       -7.8830     6.2030    -1.5870 C.3   1 <1>   0.1290 
 28 H       -3.4750     1.9320    -1.4750 H     1 <1>   0.0800 
 29 H       -2.1610     3.0470    -1.2980 H     1 <1>   0.0800 
 30 H       -1.7420    -0.9130     0.1970 H     1 <1>   0.0800 
 31 H       -3.2030    -0.4740    -0.6410 H     1 <1>   0.0800 
 32 H       -2.2910     0.5300     2.0620 H     1 <1>   0.0800 
 33 H       -3.6410    -0.5140     1.7550 H     1 <1>   0.0800 
 34 H        1.3860     1.9810     1.1860 H     1 <1>   0.1500 
 35 H       -4.8450     1.2550     0.5950 H     1 <1>   0.0800 
 36 H       -4.3810     1.8420     2.1580 H     1 <1>   0.0800 
 37 H       -1.2130     2.9190     1.2990 H     1 <1>   0.0800 
 38 H       -2.4710     3.1800     2.4690 H     1 <1>   0.0800 
 39 H        2.5840     5.9020     0.0360 H     1 <1>   0.1500 
 40 H        0.1660     5.2210    -2.4330 H     1 <1>   0.0800 
 41 H        1.6750     4.5940    -3.0690 H     1 <1>   0.0800 
 42 H        1.6570     6.1180    -2.2010 H     1 <1>   0.0800 
 43 H        2.6880     4.1050     2.0110 H     1 <1>   0.1500 
 44 H       -1.4530     5.1250     0.4630 H     1 <1>   0.0800 
 45 H       -2.0680     5.4130     2.0900 H     1 <1>   0.0800 
 46 H       -3.8630     7.1780     0.6480 H     1 <1>   0.1500 
 47 H       -7.7390     3.0280    -0.3960 H     1 <1>   0.0800 
 48 H       -7.8400     3.2600    -2.1290 H     1 <1>   0.0800 
 49 H       -9.0660     3.9370    -1.0700 H     1 <1>   0.0800 
 50 H       -7.1480     6.9140    -1.9230 H     1 <1>   0.0800 
 51 H       -8.4710     6.6500    -0.8060 H     1 <1>   0.0800 
 52 H       -8.5200     5.9580    -2.4190 H     1 <1>   0.0800 
@<TRIPOS>BOND
  1   1   2  2   
  2   2   3  am  
  3   2   4  1   
  4   3   5  1   
  5   3   6  1   
  6   4   7  2   
  7   4   8  1   
  8   5   9  1   
  9   5  28  1   
 10   5  29  1   
 11   6  10  1   
 12   6  30  1   
 13   6  31  1   
 14   8  11  1   
 15   8  12  2   
 16   9  13  1   
 17   9  14  1   
 18   9  15  1   
 19  10  14  1   
 20  10  32  1   
 21  10  33  1   
 22  11  16  1   
 23  11  17  1   
 24  12  18  1   
 25  12  34  1   
 26  13  19  ar  
 27  13  20  ar  
 28  14  35  1   
 29  14  36  1   
 30  15  21  1   
 31  15  37  1   
 32  15  38  1   
 33  16  18  2   
 34  16  39  1   
 35  17  40  1   
 36  17  41  1   
 37  17  42  1   
 38  18  43  1   
 39  19  22  ar  
 40  20  21  1   
 41  20  23  ar  
 42  21  44  1   
 43  21  45  1   
 44  22  24  ar  
 45  22  25  1   
 46  23  24  ar  
 47  23  46  1   
 48  25  26  1   
 49  25  27  1   
 50  26  47  1   
 51  26  48  1   
 52  26  49  1   
 53  27  50  1   
 54  27  51  1   
 55  27  52  1   
@<TRIPOS>SUBSTRUCTURE
  1 ****   5 GROUP 4 **** **** 0

# MOE 2024.06 (io_trps.svl 2023.06)
