@<TRIPOS>MOLECULE
NONAME
56 60 1 0 0 
SMALL
USER_CHARGES


@<TRIPOS>ATOM
  1 O       -1.8970    -0.6850    -1.6340 O.3   1 <1>  -0.6800 
  2 C       -2.8790    -1.0350    -0.7330 C.3   1 <1>   0.2000 
  3 C       -2.4570    -2.3280    -0.0340 C.3   1 <1>  -0.1600 
  4 C       -4.1860    -1.2110    -1.5060 C.3   1 <1>  -0.1600 
  5 C       -3.5870    -2.8350     0.8640 C.3   1 <1>   0.2090 
  6 C       -5.2920    -1.7530    -0.5990 C.3   1 <1>   0.2090 
  7 N       -4.8210    -3.0160     0.0470 N.pl3 1 <1>  -0.8380 
  8 C       -5.4740    -4.1970    -0.1130 C.ar  1 <1>   0.4100 
  9 N       -6.7800    -4.1560    -0.2930 N.ar  1 <1>  -0.6200 
 10 C       -4.7810    -5.4220    -0.0950 C.ar  1 <1>  -0.1500 
 11 C       -7.4450    -5.2940    -0.4330 C.ar  1 <1>   0.7710 
 12 C       -5.4740    -6.5740    -0.2490 C.ar  1 <1>   0.2110 
 13 N       -6.8150    -6.4820    -0.4150 N.ar  1 <1>  -0.1790 
 14 N       -8.7940    -5.2670    -0.6010 N.pl3 1 <1>  -0.8380 
 15 C       -9.5290    -3.9630    -0.7950 C.3   1 <1>   0.2090 
 16 C       -9.7260    -6.4470    -0.5300 C.3   1 <1>   0.2090 
 17 C      -10.4280    -3.6410     0.4210 C.3   1 <1>   0.1430 
 18 C      -11.1260    -6.0570    -0.0200 C.3   1 <1>  -0.1600 
 19 C      -11.4670    -2.6410    -0.0520 C.ar  1 <1>   0.1670 
 20 C      -11.0620    -4.9250     1.0190 C.3   1 <1>  -0.1600 
 21 C       -9.6690    -2.8350     1.5080 C.3   1 <1>  -0.1600 
 22 N      -12.4910    -2.9200    -0.8220 N.ar  1 <1>  -0.6200 
 23 C      -11.1980    -1.3830     0.4010 C.ar  1 <1>  -0.1440 
 24 C       -9.9480    -1.3450     1.2440 C.3   1 <1>  -0.0170 
 25 C      -13.2420    -1.8700    -1.1180 C.ar  1 <1>   0.7200 
 26 C      -12.0570    -0.3750     0.0370 C.ar  1 <1>   0.1600 
 27 N      -13.0980    -0.6110    -0.7290 N.ar  1 <1>  -0.6200 
 28 N      -14.2970    -2.1150    -1.8950 N.pl3 1 <1>  -0.9000 
 29 H       -1.0460    -0.5420    -1.1780 H     1 <1>   0.4000 
 30 H       -2.9790    -0.2340    -0.0180 H     1 <1>   0.0800 
 31 H       -1.5850    -2.1500     0.5670 H     1 <1>   0.0800 
 32 H       -2.2290    -3.0820    -0.7650 H     1 <1>   0.0800 
 33 H       -4.0390    -1.9010    -2.3180 H     1 <1>   0.0800 
 34 H       -4.4930    -0.2650    -1.9140 H     1 <1>   0.0800 
 35 H       -3.7850    -2.1120     1.6380 H     1 <1>   0.0800 
 36 H       -3.2980    -3.7520     1.3450 H     1 <1>   0.0800 
 37 H       -6.1750    -1.9250    -1.1890 H     1 <1>   0.0800 
 38 H       -5.5340    -1.0320     0.1630 H     1 <1>   0.0800 
 39 H       -3.7140    -5.4210     0.0220 H     1 <1>   0.1500 
 40 H       -5.0040    -7.5450    -0.2520 H     1 <1>   0.1500 
 41 H       -7.4060    -7.2890    -0.5670 H     1 <1>   0.4570 
 42 H      -10.1490    -4.0580    -1.6720 H     1 <1>   0.0800 
 43 H       -8.8650    -3.1390    -0.9850 H     1 <1>   0.0800 
 44 H       -9.3270    -7.1820     0.1480 H     1 <1>   0.0800 
 45 H       -9.8220    -6.8950    -1.5060 H     1 <1>   0.0800 
 46 H      -11.6040    -6.9200     0.4080 H     1 <1>   0.0800 
 47 H      -11.7340    -5.7410    -0.8510 H     1 <1>   0.0800 
 48 H      -12.0480    -4.7070     1.3910 H     1 <1>   0.0800 
 49 H      -10.4700    -5.2700     1.8480 H     1 <1>   0.0800 
 50 H       -8.6140    -3.0470     1.5170 H     1 <1>   0.0800 
 51 H      -10.0700    -3.0730     2.4780 H     1 <1>   0.0800 
 52 H       -9.1450    -0.8990     0.6840 H     1 <1>   0.0800 
 53 H      -10.1010    -0.8020     2.1610 H     1 <1>   0.0800 
 54 H      -11.8890     0.6340     0.3750 H     1 <1>   0.1500 
 55 H      -15.0160    -1.3970    -1.8780 H     1 <1>   0.4000 
 56 H      -14.6130    -3.0790    -1.9090 H     1 <1>   0.4000 
@<TRIPOS>BOND
  1   1   2  1   
  2   1  29  1   
  3   2   3  1   
  4   2   4  1   
  5   2  30  1   
  6   3   5  1   
  7   3  31  1   
  8   3  32  1   
  9   4   6  1   
 10   4  33  1   
 11   4  34  1   
 12   5   7  1   
 13   5  35  1   
 14   5  36  1   
 15   6   7  1   
 16   6  37  1   
 17   6  38  1   
 18   7   8  1   
 19   8   9  ar  
 20   8  10  ar  
 21   9  11  ar  
 22  10  12  ar  
 23  10  39  1   
 24  11  13  ar  
 25  11  14  1   
 26  12  13  ar  
 27  12  40  1   
 28  13  41  1   
 29  14  15  1   
 30  14  16  1   
 31  15  17  1   
 32  15  42  1   
 33  15  43  1   
 34  16  18  1   
 35  16  44  1   
 36  16  45  1   
 37  17  19  1   
 38  17  20  1   
 39  17  21  1   
 40  18  20  1   
 41  18  46  1   
 42  18  47  1   
 43  19  22  ar  
 44  19  23  ar  
 45  20  48  1   
 46  20  49  1   
 47  21  24  1   
 48  21  50  1   
 49  21  51  1   
 50  22  25  ar  
 51  23  24  1   
 52  23  26  ar  
 53  24  52  1   
 54  24  53  1   
 55  25  27  ar  
 56  25  28  1   
 57  26  27  ar  
 58  26  54  1   
 59  28  55  1   
 60  28  56  1   
@<TRIPOS>SUBSTRUCTURE
  1 ****  15 GROUP 4 **** **** 0

# MOE 2024.06 (io_trps.svl 2023.06)
