@<TRIPOS>MOLECULE
NONAME
48 51 1 0 0 
SMALL
USER_CHARGES


@<TRIPOS>ATOM
  1 O        0.4330    -0.2750     1.0680 O.3   1 <1>  -0.0190 
  2 N        0.6130     0.8820     0.4990 N.2   1 <1>  -0.4100 
  3 C        0.9540    -1.2480     0.3680 C.2   1 <1>  -0.0400 
  4 C        1.2630     0.6490    -0.5860 C.2   1 <1>   0.1080 
  5 C        1.5150    -0.7130    -0.7260 C.2   1 <1>  -0.1500 
  6 C        0.8590    -2.6790     0.8630 C.3   1 <1>   0.2900 
  7 C        1.6880     1.7190    -1.5730 C.3   1 <1>   0.0210 
  8 N       -0.3340    -3.3540     0.3260 N.3   1 <1>  -0.8100 
  9 C        3.1860     2.0220    -1.4550 C.3   1 <1>  -0.2400 
 10 C       -1.6260    -2.7450     0.7130 C.3   1 <1>   0.1100 
 11 C       -0.3860    -4.7900     0.6300 C.3   1 <1>   0.1100 
 12 C       -2.4670    -3.8550     1.3450 C.3   1 <1>   0.2000 
 13 C       -1.8710    -5.1270     0.7460 C.3   1 <1>  -0.0800 
 14 O       -2.2540    -3.8370     2.7160 O.3   1 <1>  -0.6800 
 15 C       -2.1660    -6.4290     1.5160 C.3   1 <1>  -0.0170 
 16 C       -1.5040    -7.6330     0.8500 C.ar  1 <1>  -0.1440 
 17 C       -2.0160    -8.2290    -0.3280 C.ar  1 <1>   0.0000 
 18 C       -0.3700    -8.1700     1.3850 C.ar  1 <1>  -0.1500 
 19 C       -1.2990    -9.3200    -0.8770 C.ar  1 <1>   0.3100 
 20 C       -3.1940    -7.8110    -0.9900 C.ar  1 <1>  -0.1500 
 21 C        0.2550    -9.2590     0.7680 C.ar  1 <1>   0.1600 
 22 N       -0.1690    -9.8220    -0.3180 N.ar  1 <1>  -0.6200 
 23 C       -1.7720    -9.9210    -2.0550 C.ar  1 <1>  -0.1500 
 24 C       -3.6300    -8.4200    -2.1350 C.ar  1 <1>  -0.1500 
 25 C       -2.9110    -9.4870    -2.6780 C.ar  1 <1>  -0.1500 
 26 H        2.0360    -1.1910    -1.5340 H     1 <1>   0.1500 
 27 H        0.8470    -2.6910     1.9390 H     1 <1>   0.0800 
 28 H        1.7330    -3.2110     0.5280 H     1 <1>   0.0800 
 29 H        1.4590     1.3900    -2.5700 H     1 <1>   0.0800 
 30 H        1.1250     2.6160    -1.3810 H     1 <1>   0.0800 
 31 H        3.7640     1.1400    -1.6640 H     1 <1>   0.0800 
 32 H        3.4140     2.3560    -0.4570 H     1 <1>   0.0800 
 33 H        3.4640     2.7940    -2.1500 H     1 <1>   0.0800 
 34 H       -1.5150    -1.9120     1.3860 H     1 <1>   0.0800 
 35 H       -2.1110    -2.3970    -0.1830 H     1 <1>   0.0800 
 36 H        0.0880    -5.3620    -0.1500 H     1 <1>   0.0800 
 37 H        0.1050    -4.9910     1.5670 H     1 <1>   0.0800 
 38 H       -3.5220    -3.7460     1.1600 H     1 <1>   0.0800 
 39 H       -2.2480    -5.2220    -0.2570 H     1 <1>   0.0800 
 40 H       -1.3010    -3.7030     2.8790 H     1 <1>   0.4000 
 41 H       -3.2280    -6.5840     1.5850 H     1 <1>   0.0800 
 42 H       -1.8020    -6.3450     2.5250 H     1 <1>   0.0800 
 43 H        0.0710    -7.7760     2.2820 H     1 <1>   0.1500 
 44 H       -3.7650    -6.9970    -0.5870 H     1 <1>   0.1500 
 45 H        1.1480    -9.6520     1.2250 H     1 <1>   0.1500 
 46 H       -1.2040   -10.7420    -2.4520 H     1 <1>   0.1500 
 47 H       -4.5270    -8.0900    -2.6300 H     1 <1>   0.1500 
 48 H       -3.2610    -9.9570    -3.5800 H     1 <1>   0.1500 
@<TRIPOS>BOND
  1   1   2  1   
  2   1   3  1   
  3   2   4  2   
  4   3   5  2   
  5   3   6  1   
  6   4   5  1   
  7   4   7  1   
  8   5  26  1   
  9   6   8  1   
 10   6  27  1   
 11   6  28  1   
 12   7   9  1   
 13   7  29  1   
 14   7  30  1   
 15   8  10  1   
 16   8  11  1   
 17   9  31  1   
 18   9  32  1   
 19   9  33  1   
 20  10  12  1   
 21  10  34  1   
 22  10  35  1   
 23  11  13  1   
 24  11  36  1   
 25  11  37  1   
 26  12  13  1   
 27  12  14  1   
 28  12  38  1   
 29  13  15  1   
 30  13  39  1   
 31  14  40  1   
 32  15  16  1   
 33  15  41  1   
 34  15  42  1   
 35  16  17  ar  
 36  16  18  ar  
 37  17  19  ar  
 38  17  20  ar  
 39  18  21  ar  
 40  18  43  1   
 41  19  22  ar  
 42  19  23  ar  
 43  20  24  ar  
 44  20  44  1   
 45  21  22  ar  
 46  21  45  1   
 47  23  25  ar  
 48  23  46  1   
 49  24  25  ar  
 50  24  47  1   
 51  25  48  1   
@<TRIPOS>SUBSTRUCTURE
  1 ****  11 GROUP 4 **** **** 0

# MOE 2024.06 (io_trps.svl 2023.06)
