@<TRIPOS>MOLECULE
NONAME
60 62 1 0 0 
SMALL
USER_CHARGES


@<TRIPOS>ATOM
  1 O        3.4250    -0.3050    -2.3380 O.2   1 <1>  -0.5700 
  2 C        2.8380    -0.2550    -1.2820 C.2   1 <1>   0.5690 
  3 N        2.8260     0.8800    -0.5150 N.am  1 <1>  -0.6600 
  4 C        2.1160    -1.5090    -0.8220 C.3   1 <1>  -0.0990 
  5 C        2.1560     0.9730     0.8070 C.3   1 <1>   0.1400 
  6 C        3.4800     2.1270    -1.0050 C.3   1 <1>   0.1400 
  7 C        2.7400    -2.1360     0.4350 C.3   1 <1>  -0.1600 
  8 C        2.8160     0.0390     1.8280 C.3   1 <1>  -0.1600 
  9 C        4.9720     2.0990    -0.6630 C.3   1 <1>  -0.0990 
 10 C        2.3450    -1.4210     1.7350 C.3   1 <1>  -0.1600 
 11 C        5.6850     3.3880    -1.0340 C.2   1 <1>   0.5690 
 12 O        5.0160     4.3430    -1.3570 O.2   1 <1>  -0.5700 
 13 N        7.0530     3.4650    -0.9680 N.am  1 <1>  -0.6600 
 14 C        7.9730     2.3730    -0.5170 C.3   1 <1>   0.1400 
 15 C        7.7600     4.7180    -1.3460 C.3   1 <1>   0.1400 
 16 C        8.5160     2.6260     0.8960 C.3   1 <1>   0.1400 
 17 C        7.8260     5.6920    -0.1660 C.3   1 <1>  -0.1600 
 18 N        9.2180     3.9420     1.0070 N.am  1 <1>  -0.6600 
 19 C        8.3050     5.1110     1.1750 C.3   1 <1>   0.1400 
 20 C       10.5870     4.0120     0.9120 C.2   1 <1>   0.5690 
 21 O       11.2420     3.0320     0.6370 O.2   1 <1>  -0.5700 
 22 C       11.3470     5.3100     1.1550 C.3   1 <1>   0.0440 
 23 C       11.2120     6.3140     0.0090 C.ar  1 <1>  -0.1440 
 24 C       10.8480     7.6400     0.2240 C.ar  1 <1>   0.0820 
 25 C       11.4650     5.8940    -1.2880 C.ar  1 <1>  -0.1500 
 26 O       10.5920     8.0890     1.4640 O.3   1 <1>  -0.5330 
 27 C       10.7340     8.5240    -0.8380 C.ar  1 <1>  -0.1500 
 28 C       11.3490     6.7740    -2.3510 C.ar  1 <1>  -0.1500 
 29 C       10.9830     8.0890    -2.1270 C.ar  1 <1>  -0.1500 
 30 H        2.1700    -2.2260    -1.6220 H     1 <1>   0.0800 
 31 H        1.0770    -1.2880    -0.6630 H     1 <1>   0.0800 
 32 H        1.1100     0.7380     0.7020 H     1 <1>   0.0800 
 33 H        2.2240     1.9840     1.1710 H     1 <1>   0.0800 
 34 H        3.0100     2.9900    -0.5660 H     1 <1>   0.0800 
 35 H        3.3620     2.2020    -2.0740 H     1 <1>   0.0800 
 36 H        3.8130    -2.1500     0.3340 H     1 <1>   0.0800 
 37 H        2.4100    -3.1580     0.5030 H     1 <1>   0.0800 
 38 H        2.5590     0.3980     2.8100 H     1 <1>   0.0800 
 39 H        3.8860     0.0970     1.7390 H     1 <1>   0.0800 
 40 H        5.4160     1.2870    -1.2060 H     1 <1>   0.0800 
 41 H        5.0950     1.9380     0.3900 H     1 <1>   0.0800 
 42 H        2.7730    -1.9660     2.5590 H     1 <1>   0.0800 
 43 H        1.2760    -1.4600     1.8520 H     1 <1>   0.0800 
 44 H        8.8030     2.3010    -1.1990 H     1 <1>   0.0800 
 45 H        7.4760     1.4220    -0.5310 H     1 <1>   0.0800 
 46 H        7.2470     5.1870    -2.1690 H     1 <1>   0.0800 
 47 H        8.7580     4.4870    -1.6760 H     1 <1>   0.0800 
 48 H        9.1960     1.8310     1.1510 H     1 <1>   0.0800 
 49 H        7.7050     2.5870     1.6020 H     1 <1>   0.0800 
 50 H        6.8510     6.1230    -0.0210 H     1 <1>   0.0800 
 51 H        8.4710     6.5010    -0.4470 H     1 <1>   0.0800 
 52 H        7.4440     4.7940     1.7360 H     1 <1>   0.0800 
 53 H        8.7850     5.8850     1.7480 H     1 <1>   0.0800 
 54 H       12.3880     5.0740     1.2720 H     1 <1>   0.0800 
 55 H       11.0180     5.7210     2.0890 H     1 <1>   0.0800 
 56 H       11.7570     4.8740    -1.4780 H     1 <1>   0.1500 
 57 H       10.4050     9.0440     1.4900 H     1 <1>   0.4500 
 58 H       10.4520     9.5470    -0.6700 H     1 <1>   0.1500 
 59 H       11.5470     6.4330    -3.3530 H     1 <1>   0.1500 
 60 H       10.8940     8.7710    -2.9550 H     1 <1>   0.1500 
@<TRIPOS>BOND
  1   1   2  2   
  2   2   3  am  
  3   2   4  1   
  4   3   5  1   
  5   3   6  1   
  6   4   7  1   
  7   4  30  1   
  8   4  31  1   
  9   5   8  1   
 10   5  32  1   
 11   5  33  1   
 12   6   9  1   
 13   6  34  1   
 14   6  35  1   
 15   7  10  1   
 16   7  36  1   
 17   7  37  1   
 18   8  10  1   
 19   8  38  1   
 20   8  39  1   
 21   9  11  1   
 22   9  40  1   
 23   9  41  1   
 24  10  42  1   
 25  10  43  1   
 26  11  12  2   
 27  11  13  am  
 28  13  14  1   
 29  13  15  1   
 30  14  16  1   
 31  14  44  1   
 32  14  45  1   
 33  15  17  1   
 34  15  46  1   
 35  15  47  1   
 36  16  18  1   
 37  16  48  1   
 38  16  49  1   
 39  17  19  1   
 40  17  50  1   
 41  17  51  1   
 42  18  19  1   
 43  18  20  am  
 44  19  52  1   
 45  19  53  1   
 46  20  21  2   
 47  20  22  1   
 48  22  23  1   
 49  22  54  1   
 50  22  55  1   
 51  23  24  ar  
 52  23  25  ar  
 53  24  26  1   
 54  24  27  ar  
 55  25  28  ar  
 56  25  56  1   
 57  26  57  1   
 58  27  29  ar  
 59  27  58  1   
 60  28  29  ar  
 61  28  59  1   
 62  29  60  1   
@<TRIPOS>SUBSTRUCTURE
  1 ****  13 GROUP 4 **** **** 0

# MOE 2024.06 (io_trps.svl 2023.06)
