@<TRIPOS>MOLECULE
NONAME
45 47 1 0 0 
SMALL
USER_CHARGES


@<TRIPOS>ATOM
  1 S       -0.2560     0.2430     1.2650 S.o2  1 <1>   1.4470 
  2 O       -1.2150     1.2730     1.5910 O.2   1 <1>  -0.6500 
  3 O        0.3660    -0.5340     2.3160 O.2   1 <1>  -0.6500 
  4 N       -1.0490    -0.8750     0.2660 N.am  1 <1>  -0.8490 
  5 C        1.0350     0.9100     0.1790 C.ar  1 <1>  -0.0090 
  6 C       -1.8100    -1.8600     1.0660 C.3   1 <1>   0.1960 
  7 C       -1.8010    -0.2660    -0.8570 C.3   1 <1>   0.1960 
  8 C        0.9430     2.1970    -0.3380 C.ar  1 <1>  -0.1500 
  9 C        2.1370     0.1370    -0.1840 C.ar  1 <1>  -0.1500 
 10 C       -2.7530    -2.6510     0.1390 C.3   1 <1>   0.4230 
 11 C       -3.3250    -0.3110    -0.6610 C.3   1 <1>  -0.1600 
 12 C        1.9280     2.6660    -1.1850 C.ar  1 <1>   0.1900 
 13 C        3.1210     0.6200    -1.0350 C.ar  1 <1>  -0.1500 
 14 N       -3.3010    -3.9590     0.6280 N.4   1 <1>  -0.9590 
 15 C       -3.8950    -1.7200    -0.3080 C.3   1 <1>  -0.1060 
 16 F        1.8190     3.8740    -1.6640 F     1 <1>  -0.1900 
 17 C        3.0190     1.9020    -1.5460 C.ar  1 <1>  -0.1500 
 18 C       -4.0030    -4.6860    -0.4670 C.3   1 <1>   0.3430 
 19 C       -2.3470    -4.8180     1.3780 C.3   1 <1>   0.2630 
 20 C       -4.9290    -1.5500     0.8180 C.2   1 <1>   0.9060 
 21 C       -4.5560    -2.4000    -1.5290 C.3   1 <1>  -0.1600 
 22 C       -5.0640    -3.8050    -1.1450 C.3   1 <1>  -0.1600 
 23 O       -5.9000    -0.8240     0.6210 O.co2 1 <1>  -0.9000 
 24 O       -4.7990    -2.2000     1.8680 O.co2 1 <1>  -0.9000 
 25 H       -1.1080    -2.5150     1.5480 H     1 <1>   0.0800 
 26 H       -2.3830    -1.3550     1.8280 H     1 <1>   0.0800 
 27 H       -1.4940     0.7560    -1.0120 H     1 <1>   0.0800 
 28 H       -1.5580    -0.8060    -1.7570 H     1 <1>   0.0800 
 29 H        0.1130     2.8340    -0.0840 H     1 <1>   0.1500 
 30 H        2.2250    -0.8620     0.2100 H     1 <1>   0.1500 
 31 H       -2.1620    -2.8750    -0.7310 H     1 <1>   0.0800 
 32 H       -3.5560     0.3790     0.1350 H     1 <1>   0.0800 
 33 H       -3.8160     0.0780    -1.5350 H     1 <1>   0.0800 
 34 H        3.9620     0.0000    -1.2960 H     1 <1>   0.1500 
 35 H       -4.0370    -3.6200     1.3060 H     1 <1>   0.4500 
 36 H        3.7670     2.3030    -2.2080 H     1 <1>   0.1500 
 37 H       -3.2810    -4.9940    -1.2050 H     1 <1>   0.0800 
 38 H       -4.4790    -5.5680    -0.0710 H     1 <1>   0.0800 
 39 H       -1.5140    -5.0910     0.7520 H     1 <1>   0.0800 
 40 H       -2.8440    -5.7140     1.7130 H     1 <1>   0.0800 
 41 H       -1.9800    -4.2940     2.2450 H     1 <1>   0.0800 
 42 H       -5.3900    -1.8040    -1.8640 H     1 <1>   0.0800 
 43 H       -3.8530    -2.4740    -2.3400 H     1 <1>   0.0800 
 44 H       -5.4260    -4.3060    -2.0250 H     1 <1>   0.0800 
 45 H       -5.9050    -3.7090    -0.4770 H     1 <1>   0.0800 
@<TRIPOS>BOND
  1   1   2  2   
  2   1   3  2   
  3   1   4  am  
  4   1   5  1   
  5   4   6  1   
  6   4   7  1   
  7   5   8  ar  
  8   5   9  ar  
  9   6  10  1   
 10   6  25  1   
 11   6  26  1   
 12   7  11  1   
 13   7  27  1   
 14   7  28  1   
 15   8  12  ar  
 16   8  29  1   
 17   9  13  ar  
 18   9  30  1   
 19  10  14  1   
 20  10  15  1   
 21  10  31  1   
 22  11  15  1   
 23  11  32  1   
 24  11  33  1   
 25  12  16  1   
 26  12  17  ar  
 27  13  17  ar  
 28  13  34  1   
 29  14  18  1   
 30  14  19  1   
 31  14  35  1   
 32  15  20  1   
 33  15  21  1   
 34  17  36  1   
 35  18  22  1   
 36  18  37  1   
 37  18  38  1   
 38  19  39  1   
 39  19  40  1   
 40  19  41  1   
 41  20  23  ar  
 42  20  24  ar  
 43  21  22  1   
 44  21  42  1   
 45  21  43  1   
 46  22  44  1   
 47  22  45  1   
@<TRIPOS>SUBSTRUCTURE
  1 ****   4 GROUP 4 **** **** 0

# MOE 2024.06 (io_trps.svl 2023.06)
