@<TRIPOS>MOLECULE
NONAME
42 44 1 0 0 
SMALL
USER_CHARGES


@<TRIPOS>ATOM
  1 F       -1.3070     0.0340     1.9960 F     1 <1>  -0.1900 
  2 C       -2.2270    -0.6960     1.4020 C.ar  1 <1>   0.1900 
  3 C       -3.0120    -0.2350     0.3510 C.ar  1 <1>   0.3920 
  4 C       -2.4190    -1.9760     1.8450 C.ar  1 <1>   0.1600 
  5 O       -2.9460     0.9970    -0.2070 O.3   1 <1>  -0.3630 
  6 N       -3.9160    -1.0180    -0.1950 N.ar  1 <1>  -0.6200 
  7 N       -3.3200    -2.7650     1.3020 N.ar  1 <1>  -0.6200 
  8 C       -2.0400     2.0060     0.1790 C.3   1 <1>   0.0400 
  9 C       -4.0360    -2.2470     0.3030 C.ar  1 <1>   0.7200 
 10 N       -4.9880    -3.0630    -0.2720 N.pl3 1 <1>  -0.8380 
 11 C       -4.8600    -4.5470    -0.2760 C.3   1 <1>   0.2090 
 12 C       -6.1050    -2.5140    -1.0930 C.3   1 <1>   0.2090 
 13 C       -6.1800    -5.1820     0.1600 C.3   1 <1>  -0.1600 
 14 C       -7.4240    -3.1590    -0.6680 C.3   1 <1>  -0.1600 
 15 C       -7.3310    -4.6820    -0.7190 C.3   1 <1>   0.2000 
 16 O       -8.5350    -5.1840    -0.2380 O.3   1 <1>  -0.5600 
 17 C       -8.8730    -6.4690    -0.6900 C.3   1 <1>   0.2630 
 18 C      -10.2020    -6.9550    -0.1180 C.ar  1 <1>   0.1670 
 19 N      -10.6050    -8.1400    -0.5620 N.ar  1 <1>  -0.6200 
 20 C      -10.9190    -6.1980     0.8010 C.ar  1 <1>  -0.1500 
 21 C      -11.7560    -8.5790    -0.0760 C.ar  1 <1>   0.1600 
 22 C      -12.1150    -6.6680     1.2980 C.ar  1 <1>  -0.1500 
 23 C      -12.5370    -7.8960     0.8390 C.ar  1 <1>  -0.1500 
 24 H       -1.8260    -2.3570     2.6570 H     1 <1>   0.1500 
 25 H       -2.2100     2.8630    -0.4470 H     1 <1>   0.0800 
 26 H       -1.0350     1.6490     0.0410 H     1 <1>   0.0800 
 27 H       -2.2210     2.2670     1.2070 H     1 <1>   0.0800 
 28 H       -4.0740    -4.8780     0.3810 H     1 <1>   0.0800 
 29 H       -4.6110    -4.8690    -1.2720 H     1 <1>   0.0800 
 30 H       -5.9080    -2.7160    -2.1320 H     1 <1>   0.0800 
 31 H       -6.1890    -1.4470    -0.9700 H     1 <1>   0.0800 
 32 H       -6.3640    -4.9200     1.1870 H     1 <1>   0.0800 
 33 H       -6.0860    -6.2490     0.0880 H     1 <1>   0.0800 
 34 H       -8.2080    -2.8230    -1.3200 H     1 <1>   0.0800 
 35 H       -7.6520    -2.8430     0.3350 H     1 <1>   0.0800 
 36 H       -7.1960    -4.9960    -1.7410 H     1 <1>   0.0800 
 37 H       -8.1000    -7.1560    -0.4000 H     1 <1>   0.0800 
 38 H       -8.9440    -6.4450    -1.7630 H     1 <1>   0.0800 
 39 H      -10.5460    -5.2440     1.1290 H     1 <1>   0.1500 
 40 H      -12.0960    -9.5380    -0.4280 H     1 <1>   0.1500 
 41 H      -12.6900    -6.1020     2.0100 H     1 <1>   0.1500 
 42 H      -13.4610    -8.3220     1.1850 H     1 <1>   0.1500 
@<TRIPOS>BOND
  1   1   2  1   
  2   2   3  ar  
  3   2   4  ar  
  4   3   5  1   
  5   3   6  ar  
  6   4   7  ar  
  7   4  24  1   
  8   5   8  1   
  9   6   9  ar  
 10   7   9  ar  
 11   8  25  1   
 12   8  26  1   
 13   8  27  1   
 14   9  10  1   
 15  10  11  1   
 16  10  12  1   
 17  11  13  1   
 18  11  28  1   
 19  11  29  1   
 20  12  14  1   
 21  12  30  1   
 22  12  31  1   
 23  13  15  1   
 24  13  32  1   
 25  13  33  1   
 26  14  15  1   
 27  14  34  1   
 28  14  35  1   
 29  15  16  1   
 30  15  36  1   
 31  16  17  1   
 32  17  18  1   
 33  17  37  1   
 34  17  38  1   
 35  18  19  ar  
 36  18  20  ar  
 37  19  21  ar  
 38  20  22  ar  
 39  20  39  1   
 40  21  23  ar  
 41  21  40  1   
 42  22  23  ar  
 43  22  41  1   
 44  23  42  1   
@<TRIPOS>SUBSTRUCTURE
  1 ****  14 GROUP 4 **** **** 0

# MOE 2024.06 (io_trps.svl 2023.06)
