@<TRIPOS>MOLECULE
NONAME
46 48 1 0 0 
SMALL
USER_CHARGES


@<TRIPOS>ATOM
  1 O        0.0770     0.9060     0.1100 O.2   1 <1>  -0.5700 
  2 C        0.0390     2.0990     0.2710 C.2   1 <1>   0.5690 
  3 N       -1.1170     2.7120     0.6060 N.am  1 <1>  -0.7300 
  4 C        1.2980     2.9430     0.0590 C.3   1 <1>   0.1810 
  5 C       -1.2460     4.1780     0.8010 C.3   1 <1>   0.3640 
  6 O        1.2060     4.2270     0.6340 O.3   1 <1>  -0.5600 
  7 C       -2.4850     4.6540     0.0430 C.ar  1 <1>  -0.1440 
  8 C        0.0190     4.9430     0.3230 C.3   1 <1>   0.2610 
  9 C       -2.7380     4.2400    -1.2600 C.ar  1 <1>  -0.1500 
 10 C       -3.3760     5.5240     0.6550 C.ar  1 <1>  -0.1500 
 11 C        0.0880     6.3730     0.8960 C.2   1 <1>   0.5690 
 12 C       -3.8610     4.6870    -1.9350 C.ar  1 <1>  -0.1500 
 13 C       -4.4990     5.9720    -0.0190 C.ar  1 <1>  -0.1500 
 14 O       -0.6610     6.6740     1.8010 O.2   1 <1>  -0.5700 
 15 N        0.9720     7.3010     0.3910 N.am  1 <1>  -0.6600 
 16 C       -4.7420     5.5540    -1.3150 C.ar  1 <1>  -0.1500 
 17 C        1.0530     8.6560     1.0280 C.3   1 <1>   0.3200 
 18 C        1.9510     7.0270    -0.7060 C.3   1 <1>   0.0600 
 19 C        2.4570     9.2380     1.0070 C.2   1 <1>  -0.0400 
 20 O        3.4200     8.6570     1.6730 O.3   1 <1>  -0.0190 
 21 C        2.9720    10.3170     0.3970 C.2   1 <1>  -0.1500 
 22 N        4.5520     9.2850     1.5350 N.2   1 <1>  -0.4100 
 23 C        4.3130    10.2920     0.7730 C.2   1 <1>   0.1080 
 24 C        5.3570    11.3080     0.3490 C.3   1 <1>   0.0210 
 25 C        5.7720    11.1060    -1.1130 C.3   1 <1>  -0.2400 
 26 H       -1.9600     2.1500     0.7330 H     1 <1>   0.3700 
 27 H        1.4800     3.0540    -0.9940 H     1 <1>   0.0800 
 28 H        2.1390     2.4440     0.5050 H     1 <1>   0.0800 
 29 H       -1.3850     4.3520     1.8550 H     1 <1>   0.0800 
 30 H       -0.0360     5.0230    -0.7460 H     1 <1>   0.0800 
 31 H       -2.0660     3.5620    -1.7580 H     1 <1>   0.1500 
 32 H       -3.1990     5.8640     1.6620 H     1 <1>   0.1500 
 33 H       -4.0500     4.3590    -2.9420 H     1 <1>   0.1500 
 34 H       -5.1820     6.6470     0.4660 H     1 <1>   0.1500 
 35 H       -5.6150     5.9020    -1.8390 H     1 <1>   0.1500 
 36 H        0.3870     9.3190     0.5060 H     1 <1>   0.0800 
 37 H        0.7300     8.6030     2.0540 H     1 <1>   0.0800 
 38 H        2.0200     7.8800    -1.3580 H     1 <1>   0.0800 
 39 H        1.6620     6.1770    -1.2950 H     1 <1>   0.0800 
 40 H        2.9210     6.8320    -0.2810 H     1 <1>   0.0800 
 41 H        2.5000    11.0450    -0.2360 H     1 <1>   0.1500 
 42 H        4.9610    12.2980     0.4840 H     1 <1>   0.0800 
 43 H        6.2200    11.2060     0.9830 H     1 <1>   0.0800 
 44 H        4.9250    11.2270    -1.7640 H     1 <1>   0.0800 
 45 H        6.1730    10.1170    -1.2460 H     1 <1>   0.0800 
 46 H        6.5250    11.8240    -1.3860 H     1 <1>   0.0800 
@<TRIPOS>BOND
  1   1   2  2   
  2   2   3  am  
  3   2   4  1   
  4   3   5  1   
  5   3  26  1   
  6   4   6  1   
  7   4  27  1   
  8   4  28  1   
  9   5   7  1   
 10   5   8  1   
 11   5  29  1   
 12   6   8  1   
 13   7   9  ar  
 14   7  10  ar  
 15   8  11  1   
 16   8  30  1   
 17   9  12  ar  
 18   9  31  1   
 19  10  13  ar  
 20  10  32  1   
 21  11  14  2   
 22  11  15  am  
 23  12  16  ar  
 24  12  33  1   
 25  13  16  ar  
 26  13  34  1   
 27  15  17  1   
 28  15  18  1   
 29  16  35  1   
 30  17  19  1   
 31  17  36  1   
 32  17  37  1   
 33  18  38  1   
 34  18  39  1   
 35  18  40  1   
 36  19  20  1   
 37  19  21  2   
 38  20  22  1   
 39  21  23  1   
 40  21  41  1   
 41  22  23  2   
 42  23  24  1   
 43  24  25  1   
 44  24  42  1   
 45  24  43  1   
 46  25  44  1   
 47  25  45  1   
 48  25  46  1   
@<TRIPOS>SUBSTRUCTURE
  1 ****  11 GROUP 4 **** **** 0

# MOE 2024.06 (io_trps.svl 2023.06)
