@<TRIPOS>MOLECULE
NONAME
48 50 1 0 0 
SMALL
USER_CHARGES


@<TRIPOS>ATOM
  1 O       -0.4230     0.2970     3.6000 O.2   1 <1>  -0.5700 
  2 C       -0.2600    -0.4650     2.6760 C.2   1 <1>   0.5690 
  3 N        0.4750    -0.1970     1.5570 N.am  1 <1>  -0.4940 
  4 C       -0.9260    -1.8420     2.7090 C.3   1 <1>   0.1710 
  5 C        1.1380     0.9390     1.0340 C.2   1 <1>  -0.0880 
  6 N       -1.1120    -2.4120     1.3420 N.3   1 <1>  -0.8100 
  7 N        1.5960     2.0410     1.6920 N.pl3 1 <1>   0.3140 
  8 C        1.4470     1.1200    -0.2720 C.2   1 <1>  -0.1810 
  9 C       -1.1950    -3.8770     1.3000 C.3   1 <1>   0.2530 
 10 C       -2.2210    -1.7610     0.6120 C.3   1 <1>   0.1100 
 11 N        2.1790     2.9140     0.8400 N.2   1 <1>  -0.7070 
 12 C        1.5920     2.3280     3.1310 C.3   1 <1>   0.0160 
 13 C        2.0840     2.3570    -0.3260 C.2   1 <1>   0.1080 
 14 C        1.1680     0.1880    -1.4410 C.3   1 <1>  -0.0590 
 15 C       -0.5360    -4.4050     0.0270 C.ar  1 <1>  -0.1430 
 16 C       -2.4830    -2.3720    -0.7740 C.3   1 <1>   0.1200 
 17 C        2.6270     3.0190    -1.5790 C.3   1 <1>   0.0210 
 18 C       -0.5900    -3.7630    -1.2160 C.ar  1 <1>   0.0830 
 19 C        0.1820    -5.5900     0.1300 C.ar  1 <1>  -0.1500 
 20 O       -1.2760    -2.6180    -1.4600 O.3   1 <1>  -0.3630 
 21 C        4.0820     2.6120    -1.8340 C.3   1 <1>  -0.2400 
 22 C        0.0840    -4.2980    -2.3030 C.ar  1 <1>  -0.1500 
 23 C        0.8420    -6.1240    -0.9630 C.ar  1 <1>  -0.1500 
 24 C        0.7980    -5.4750    -2.1820 C.ar  1 <1>  -0.1500 
 25 H        0.3830    -0.9750     0.8900 H     1 <1>   0.3700 
 26 H       -1.8710    -1.7690     3.2170 H     1 <1>   0.0800 
 27 H       -0.2840    -2.4820     3.2860 H     1 <1>   0.0800 
 28 H       -2.2200    -4.2030     1.3570 H     1 <1>   0.0800 
 29 H       -0.6730    -4.2890     2.1460 H     1 <1>   0.0800 
 30 H       -1.9940    -0.7170     0.4790 H     1 <1>   0.0800 
 31 H       -3.1260    -1.8240     1.1910 H     1 <1>   0.0800 
 32 H        1.8850     1.4460     3.6680 H     1 <1>   0.0800 
 33 H        0.6050     2.6280     3.4240 H     1 <1>   0.0800 
 34 H        2.2860     3.1210     3.3350 H     1 <1>   0.0800 
 35 H        0.7430    -0.7390    -1.1040 H     1 <1>   0.0800 
 36 H        2.0820    -0.0290    -1.9620 H     1 <1>   0.0800 
 37 H        0.4780     0.6520    -2.1210 H     1 <1>   0.0800 
 38 H       -3.0610    -1.6880    -1.3680 H     1 <1>   0.0800 
 39 H       -3.0270    -3.2970    -0.6990 H     1 <1>   0.0800 
 40 H        2.5700     4.0860    -1.4560 H     1 <1>   0.0800 
 41 H        2.0170     2.7510    -2.4220 H     1 <1>   0.0800 
 42 H        0.2390    -6.1100     1.0700 H     1 <1>   0.1500 
 43 H        4.6890     2.8960    -0.9920 H     1 <1>   0.0800 
 44 H        4.4570     3.0990    -2.7150 H     1 <1>   0.0800 
 45 H        4.1530     1.5470    -1.9630 H     1 <1>   0.0800 
 46 H        0.0410    -3.7860    -3.2470 H     1 <1>   0.1500 
 47 H        1.3950    -7.0420    -0.8630 H     1 <1>   0.1500 
 48 H        1.3140    -5.8840    -3.0330 H     1 <1>   0.1500 
@<TRIPOS>BOND
  1   1   2  2   
  2   2   3  am  
  3   2   4  1   
  4   3   5  1   
  5   3  25  1   
  6   4   6  1   
  7   4  26  1   
  8   4  27  1   
  9   5   7  1   
 10   5   8  2   
 11   6   9  1   
 12   6  10  1   
 13   7  11  1   
 14   7  12  1   
 15   8  13  1   
 16   8  14  1   
 17   9  15  1   
 18   9  28  1   
 19   9  29  1   
 20  10  16  1   
 21  10  30  1   
 22  10  31  1   
 23  11  13  2   
 24  12  32  1   
 25  12  33  1   
 26  12  34  1   
 27  13  17  1   
 28  14  35  1   
 29  14  36  1   
 30  14  37  1   
 31  15  18  ar  
 32  15  19  ar  
 33  16  20  1   
 34  16  38  1   
 35  16  39  1   
 36  17  21  1   
 37  17  40  1   
 38  17  41  1   
 39  18  20  1   
 40  18  22  ar  
 41  19  23  ar  
 42  19  42  1   
 43  21  43  1   
 44  21  44  1   
 45  21  45  1   
 46  22  24  ar  
 47  22  46  1   
 48  23  24  ar  
 49  23  47  1   
 50  24  48  1   
@<TRIPOS>SUBSTRUCTURE
  1 ****   3 GROUP 4 **** **** 0

# MOE 2024.06 (io_trps.svl 2023.06)
