@<TRIPOS>MOLECULE
NONAME
41 43 1 0 0 
SMALL
USER_CHARGES


@<TRIPOS>ATOM
  1 O        1.2760     0.3840     1.8950 O.3   1 <1>  -0.6800 
  2 C        1.7670     0.1310     0.6210 C.3   1 <1>   0.2000 
  3 C        2.6610    -1.1100     0.6470 C.3   1 <1>  -0.0800 
  4 C        2.6760     1.2710     0.1460 C.3   1 <1>   0.1100 
  5 C        3.8210    -0.7310    -0.2690 C.3   1 <1>   0.1100 
  6 C        1.9310    -2.3950     0.2210 C.3   1 <1>  -0.0170 
  7 N        4.0220     0.6930    -0.0210 N.3   1 <1>  -0.8100 
  8 C        2.8730    -3.5870     0.1660 C.ar  1 <1>   0.1670 
  9 C        4.8040     1.3490    -1.0830 C.3   1 <1>   0.2900 
 10 N        3.4680    -3.8170    -0.9940 N.ar  1 <1>  -0.6200 
 11 C        3.0730    -4.3690     1.3020 C.ar  1 <1>   0.1600 
 12 C        4.9940     2.8350    -0.8150 C.2   1 <1>   0.0070 
 13 C        4.2630    -4.8730    -0.9430 C.ar  1 <1>   0.1600 
 14 N        3.8710    -5.4220     1.3560 N.ar  1 <1>  -0.6200 
 15 N        4.6860     3.7630    -1.6520 N.2   1 <1>  -0.5650 
 16 N        5.5080     3.3480     0.3140 N.pl3 1 <1>   0.3140 
 17 C        4.4580    -5.6490     0.1930 C.ar  1 <1>   0.1600 
 18 C        5.0400     4.8610    -0.9770 C.2   1 <1>   0.3660 
 19 N        5.5380     4.6720     0.1990 N.2   1 <1>  -0.7070 
 20 C        5.9880     2.6690     1.5390 C.3   1 <1>   0.0960 
 21 C        7.4050     2.1110     1.3530 C.3   1 <1>  -0.2400 
 22 H        0.7030    -0.3440     2.1970 H     1 <1>   0.4000 
 23 H        0.9330     0.0260    -0.0520 H     1 <1>   0.0800 
 24 H        3.0710    -1.2360     1.6350 H     1 <1>   0.0800 
 25 H        2.7000     2.0800     0.8560 H     1 <1>   0.0800 
 26 H        2.3130     1.6400    -0.7980 H     1 <1>   0.0800 
 27 H        3.5480    -0.8970    -1.2990 H     1 <1>   0.0800 
 28 H        4.7110    -1.2940    -0.0390 H     1 <1>   0.0800 
 29 H        1.4860    -2.2590    -0.7490 H     1 <1>   0.0800 
 30 H        1.1360    -2.6010     0.9150 H     1 <1>   0.0800 
 31 H        5.7700     0.8820    -1.1540 H     1 <1>   0.0800 
 32 H        4.3060     1.2290    -2.0300 H     1 <1>   0.0800 
 33 H        2.5530    -4.1120     2.2080 H     1 <1>   0.1500 
 34 H        4.7870    -5.1390    -1.8440 H     1 <1>   0.1500 
 35 H        5.1270    -6.4900     0.1360 H     1 <1>   0.1500 
 36 H        4.9080     5.8400    -1.4100 H     1 <1>   0.1500 
 37 H        5.9840     3.3870     2.3390 H     1 <1>   0.0800 
 38 H        5.3050     1.8820     1.7980 H     1 <1>   0.0800 
 39 H        8.0830     2.9050     1.0930 H     1 <1>   0.0800 
 40 H        7.4170     1.3610     0.5840 H     1 <1>   0.0800 
 41 H        7.7400     1.6620     2.2710 H     1 <1>   0.0800 
@<TRIPOS>BOND
  1   1   2  1   
  2   1  22  1   
  3   2   3  1   
  4   2   4  1   
  5   2  23  1   
  6   3   5  1   
  7   3   6  1   
  8   3  24  1   
  9   4   7  1   
 10   4  25  1   
 11   4  26  1   
 12   5   7  1   
 13   5  27  1   
 14   5  28  1   
 15   6   8  1   
 16   6  29  1   
 17   6  30  1   
 18   7   9  1   
 19   8  10  ar  
 20   8  11  ar  
 21   9  12  1   
 22   9  31  1   
 23   9  32  1   
 24  10  13  ar  
 25  11  14  ar  
 26  11  33  1   
 27  12  15  2   
 28  12  16  1   
 29  13  17  ar  
 30  13  34  1   
 31  14  17  ar  
 32  15  18  1   
 33  16  19  1   
 34  16  20  1   
 35  17  35  1   
 36  18  19  2   
 37  18  36  1   
 38  20  21  1   
 39  20  37  1   
 40  20  38  1   
 41  21  39  1   
 42  21  40  1   
 43  21  41  1   
@<TRIPOS>SUBSTRUCTURE
  1 ****   5 GROUP 4 **** **** 0

# MOE 2024.06 (io_trps.svl 2023.06)
