@<TRIPOS>MOLECULE
NONAME
46 48 1 0 0 
SMALL
USER_CHARGES


@<TRIPOS>ATOM
  1 CL      -3.3000     2.8150    -2.5340 Cl    1 <1>  -0.1770 
  2 C       -1.9310     3.2170    -1.5250 C.ar  1 <1>   0.1770 
  3 C       -1.8060     2.6270    -0.2720 C.ar  1 <1>  -0.1440 
  4 C       -1.0020     4.1270    -2.0050 C.ar  1 <1>  -0.1500 
  5 C       -0.7110     2.9620     0.5160 C.ar  1 <1>  -0.1500 
  6 C       -2.8470     1.6390     0.2180 C.3   1 <1>   0.4870 
  7 C        0.0860     4.4640    -1.2170 C.ar  1 <1>  -0.1500 
  8 C        0.2090     3.8730     0.0270 C.ar  1 <1>   0.1900 
  9 N       -4.1040     2.3680     0.5190 N.4   1 <1>  -0.9590 
 10 F        1.2300     4.1870     0.7750 F     1 <1>  -0.1900 
 11 C       -3.9760     3.4080     1.5820 C.3   1 <1>   0.3430 
 12 C       -5.2820     1.4950     0.7210 C.3   1 <1>   0.3430 
 13 C       -5.3290     4.0800     1.8550 C.3   1 <1>  -0.1600 
 14 C       -6.5640     2.3260     0.5750 C.3   1 <1>  -0.1600 
 15 C       -6.3590     3.8480     0.7370 C.3   1 <1>   0.2800 
 16 O       -5.7560     4.3030    -0.4530 O.3   1 <1>  -0.5600 
 17 C       -7.6770     4.5920     1.0460 C.3   1 <1>  -0.1600 
 18 C       -6.4400     5.1860    -1.3000 C.3   1 <1>   0.1200 
 19 C       -8.6310     4.6970    -0.1580 C.3   1 <1>   0.2800 
 20 C       -7.8770     4.7050    -1.4940 C.3   1 <1>  -0.1600 
 21 O       -9.2750     5.9060    -0.0430 O.3   1 <1>  -0.6800 
 22 C       -9.7390     3.6440    -0.1420 C.3   1 <1>  -0.2400 
 23 H       -1.1300     4.5640    -2.9800 H     1 <1>   0.1500 
 24 H       -0.5530     2.5350     1.4910 H     1 <1>   0.1500 
 25 H       -2.4910     1.1310     1.0990 H     1 <1>   0.0800 
 26 H       -3.0250     0.9050    -0.5520 H     1 <1>   0.0800 
 27 H        0.8270     5.1680    -1.5570 H     1 <1>   0.1500 
 28 H       -4.3440     2.9240    -0.3280 H     1 <1>   0.4500 
 29 H       -3.2770     4.1600     1.2520 H     1 <1>   0.0800 
 30 H       -3.5970     2.9720     2.4920 H     1 <1>   0.0800 
 31 H       -5.2410     1.0580     1.7060 H     1 <1>   0.0800 
 32 H       -5.2900     0.6990    -0.0060 H     1 <1>   0.0800 
 33 H       -5.1710     5.1340     1.9970 H     1 <1>   0.0800 
 34 H       -5.7220     3.6990     2.7810 H     1 <1>   0.0800 
 35 H       -7.2600     1.9740     1.3160 H     1 <1>   0.0800 
 36 H       -7.0040     2.1200    -0.3830 H     1 <1>   0.0800 
 37 H       -7.4180     5.5820     1.3790 H     1 <1>   0.0800 
 38 H       -8.1800     4.1180     1.8690 H     1 <1>   0.0800 
 39 H       -5.9190     5.2080    -2.2410 H     1 <1>   0.0800 
 40 H       -6.4120     6.1700    -0.8650 H     1 <1>   0.0800 
 41 H       -7.8410     3.7150    -1.9100 H     1 <1>   0.0800 
 42 H       -8.3880     5.3240    -2.2100 H     1 <1>   0.0800 
 43 H       -8.6410     6.6400    -0.1300 H     1 <1>   0.4000 
 44 H       -9.3320     2.6540    -0.2210 H     1 <1>   0.0800 
 45 H      -10.4060     3.7990    -0.9720 H     1 <1>   0.0800 
 46 H      -10.3040     3.7090     0.7700 H     1 <1>   0.0800 
@<TRIPOS>BOND
  1   1   2  1   
  2   2   3  ar  
  3   2   4  ar  
  4   3   5  ar  
  5   3   6  1   
  6   4   7  ar  
  7   4  23  1   
  8   5   8  ar  
  9   5  24  1   
 10   6   9  1   
 11   6  25  1   
 12   6  26  1   
 13   7   8  ar  
 14   7  27  1   
 15   8  10  1   
 16   9  11  1   
 17   9  12  1   
 18   9  28  1   
 19  11  13  1   
 20  11  29  1   
 21  11  30  1   
 22  12  14  1   
 23  12  31  1   
 24  12  32  1   
 25  13  15  1   
 26  13  33  1   
 27  13  34  1   
 28  14  15  1   
 29  14  35  1   
 30  14  36  1   
 31  15  16  1   
 32  15  17  1   
 33  16  18  1   
 34  17  19  1   
 35  17  37  1   
 36  17  38  1   
 37  18  20  1   
 38  18  39  1   
 39  18  40  1   
 40  19  20  1   
 41  19  21  1   
 42  19  22  1   
 43  20  41  1   
 44  20  42  1   
 45  21  43  1   
 46  22  44  1   
 47  22  45  1   
 48  22  46  1   
@<TRIPOS>SUBSTRUCTURE
  1 ****   9 GROUP 4 **** **** 0

# MOE 2024.06 (io_trps.svl 2023.06)
