@<TRIPOS>MOLECULE
NONAME
54 59 1 0 0 
SMALL
USER_CHARGES


@<TRIPOS>ATOM
  1 S        1.0630    -0.3730     1.3010 S.3   1 <1>  -0.0800 
  2 C       -0.0800    -1.5220     0.5660 C.2   1 <1>  -0.0450 
  3 C        1.5390     0.2860    -0.2580 C.2   1 <1>  -0.1100 
  4 C       -0.0330    -1.3570    -0.7840 C.2   1 <1>   0.0620 
  5 C       -0.8320    -2.3820     1.4350 C.2   1 <1>   0.7150 
  6 C        0.8730    -0.3430    -1.2390 C.2   1 <1>   0.0620 
  7 O       -0.7580    -2.0710    -1.6730 O.3   1 <1>  -0.3420 
  8 O       -0.2950    -2.8570     2.4220 O.2   1 <1>  -0.5700 
  9 N       -2.1660    -2.6740     1.2160 N.am  1 <1>  -0.6600 
 10 O        1.0160    -0.0730    -2.5640 O.3   1 <1>  -0.3420 
 11 C       -0.8110    -1.6030    -3.0090 C.3   1 <1>   0.1200 
 12 C       -3.0660    -1.8250     0.3760 C.3   1 <1>   0.1400 
 13 C       -2.8700    -3.7670     1.9440 C.3   1 <1>   0.1400 
 14 C        0.5640    -1.0810    -3.4500 C.3   1 <1>   0.1200 
 15 C       -4.1870    -1.1980     1.2250 C.3   1 <1>   0.1430 
 16 C       -3.9940    -3.1840     2.8090 C.3   1 <1>  -0.1600 
 17 C       -5.0820    -0.3920     0.3020 C.ar  1 <1>   0.1670 
 18 C       -4.9510    -2.3040     1.9840 C.3   1 <1>  -0.1600 
 19 C       -3.6340    -0.1090     2.1850 C.3   1 <1>  -0.1600 
 20 N       -5.9380    -0.8930    -0.5560 N.ar  1 <1>  -0.6200 
 21 C       -4.8770     0.9450     0.4460 C.ar  1 <1>  -0.1440 
 22 C       -3.8220     1.2460     1.4810 C.3   1 <1>  -0.0170 
 23 C       -6.6250    -0.0040    -1.2860 C.ar  1 <1>   0.6200 
 24 C       -5.6150     1.7920    -0.3380 C.ar  1 <1>   0.1600 
 25 N       -6.4880     1.3280    -1.2040 N.ar  1 <1>  -0.6200 
 26 C       -7.5910    -0.5260    -2.2450 C.ar  1 <1>   0.0000 
 27 C       -7.9610     0.1970    -3.3840 C.ar  1 <1>  -0.1500 
 28 C       -8.1930    -1.7760    -2.0740 C.ar  1 <1>  -0.1500 
 29 C       -8.8760    -0.2950    -4.2960 C.ar  1 <1>  -0.1500 
 30 C       -9.1080    -2.2760    -2.9820 C.ar  1 <1>  -0.1500 
 31 C       -9.4520    -1.5360    -4.0980 C.ar  1 <1>  -0.1500 
 32 H        2.2700     1.0730    -0.2770 H     1 <1>   0.1500 
 33 H       -1.5440    -0.8170    -3.0590 H     1 <1>   0.0800 
 34 H       -1.1270    -2.4200    -3.6320 H     1 <1>   0.0800 
 35 H       -3.5000    -2.4380    -0.3950 H     1 <1>   0.0800 
 36 H       -2.5200    -1.0340    -0.1030 H     1 <1>   0.0800 
 37 H       -2.1830    -4.3190     2.5640 H     1 <1>   0.0800 
 38 H       -3.2830    -4.4510     1.2230 H     1 <1>   0.0800 
 39 H        1.2870    -1.8780    -3.4480 H     1 <1>   0.0800 
 40 H        0.5120    -0.6550    -4.4360 H     1 <1>   0.0800 
 41 H       -3.5540    -2.6090     3.6060 H     1 <1>   0.0800 
 42 H       -4.5450    -3.9900     3.2590 H     1 <1>   0.0800 
 43 H       -5.4610    -2.9270     1.2690 H     1 <1>   0.0800 
 44 H       -5.6990    -1.8680     2.6220 H     1 <1>   0.0800 
 45 H       -2.6070    -0.2760     2.4570 H     1 <1>   0.0800 
 46 H       -4.2200    -0.0980     3.0870 H     1 <1>   0.0800 
 47 H       -2.9110     1.5500     0.9940 H     1 <1>   0.0800 
 48 H       -4.1420     2.0090     2.1700 H     1 <1>   0.0800 
 49 H       -5.4900     2.8580    -0.2580 H     1 <1>   0.1500 
 50 H       -7.5240     1.1650    -3.5580 H     1 <1>   0.1500 
 51 H       -7.9420    -2.3680    -1.2110 H     1 <1>   0.1500 
 52 H       -9.1400     0.2870    -5.1620 H     1 <1>   0.1500 
 53 H       -9.5530    -3.2430    -2.8200 H     1 <1>   0.1500 
 54 H      -10.1650    -1.9220    -4.8060 H     1 <1>   0.1500 
@<TRIPOS>BOND
  1   1   2  1   
  2   1   3  1   
  3   2   4  2   
  4   2   5  1   
  5   3   6  2   
  6   3  32  1   
  7   4   6  1   
  8   4   7  1   
  9   5   8  2   
 10   5   9  am  
 11   6  10  1   
 12   7  11  1   
 13   9  12  1   
 14   9  13  1   
 15  10  14  1   
 16  11  14  1   
 17  11  33  1   
 18  11  34  1   
 19  12  15  1   
 20  12  35  1   
 21  12  36  1   
 22  13  16  1   
 23  13  37  1   
 24  13  38  1   
 25  14  39  1   
 26  14  40  1   
 27  15  17  1   
 28  15  18  1   
 29  15  19  1   
 30  16  18  1   
 31  16  41  1   
 32  16  42  1   
 33  17  20  ar  
 34  17  21  ar  
 35  18  43  1   
 36  18  44  1   
 37  19  22  1   
 38  19  45  1   
 39  19  46  1   
 40  20  23  ar  
 41  21  22  1   
 42  21  24  ar  
 43  22  47  1   
 44  22  48  1   
 45  23  25  ar  
 46  23  26  1   
 47  24  25  ar  
 48  24  49  1   
 49  26  27  ar  
 50  26  28  ar  
 51  27  29  ar  
 52  27  50  1   
 53  28  30  ar  
 54  28  51  1   
 55  29  31  ar  
 56  29  52  1   
 57  30  31  ar  
 58  30  53  1   
 59  31  54  1   
@<TRIPOS>SUBSTRUCTURE
  1 ****  12 GROUP 4 **** **** 0

# MOE 2024.06 (io_trps.svl 2023.06)
