@<TRIPOS>MOLECULE
NONAME
50 51 1 0 0 
SMALL
USER_CHARGES


@<TRIPOS>ATOM
  1 O        1.6910    -0.9610    -2.4890 O.2   1 <1>  -0.5700 
  2 C        1.8300    -1.1330    -1.3030 C.2   1 <1>   0.5690 
  3 N        1.9520    -0.0970    -0.4340 N.am  1 <1>  -0.7300 
  4 C        1.8320    -2.5810    -0.7850 C.3   1 <1>   0.4040 
  5 C        2.1270     1.3040    -0.8380 C.3   1 <1>   0.3640 
  6 N        0.4610    -3.2230    -0.7050 N.4   1 <1>  -0.9590 
  7 C        3.3310     1.8310    -0.0570 C.ar  1 <1>  -0.1440 
  8 C        0.8270     2.0590    -0.5690 C.3   1 <1>  -0.2400 
  9 C        0.5110    -4.5690    -0.0800 C.3   1 <1>   0.5240 
 10 C       -0.2060    -3.2630    -2.0510 C.3   1 <1>   0.2630 
 11 C        4.5830     1.9580    -0.6590 C.ar  1 <1>  -0.1440 
 12 C        3.1960     2.1650     1.2880 C.ar  1 <1>  -0.1500 
 13 C       -0.9070    -4.9790     0.2300 C.2   1 <1>  -0.1810 
 14 C        5.6570     2.4170     0.0870 C.ar  1 <1>  -0.1500 
 15 C        4.8280     1.6060    -2.1220 C.3   1 <1>  -0.0970 
 16 C        4.2710     2.6250     2.0280 C.ar  1 <1>  -0.1440 
 17 C       -1.6220    -5.9730    -0.4290 C.2   1 <1>   0.1390 
 18 C       -1.7660    -4.4990     1.1580 C.2   1 <1>  -0.3020 
 19 C        5.5050     2.7480     1.4200 C.ar  1 <1>  -0.1500 
 20 C        4.1030     2.9920     3.4920 C.3   1 <1>  -0.0970 
 21 N       -2.8230    -6.0920     0.0350 N.2   1 <1>  -0.7070 
 22 N       -2.9170    -5.1900     1.0240 N.pl3 1 <1>   0.3140 
 23 C       -4.1480    -5.0410     1.8100 C.3   1 <1>   0.0160 
 24 H        2.2060    -0.2250     0.5470 H     1 <1>   0.3700 
 25 H        2.2900    -2.5840     0.1890 H     1 <1>   0.0800 
 26 H        2.4580    -3.1570    -1.4450 H     1 <1>   0.0800 
 27 H        2.3160     1.3590    -1.8960 H     1 <1>   0.0800 
 28 H       -0.1390    -2.6500    -0.0960 H     1 <1>   0.4500 
 29 H        0.4860     1.9240     0.4390 H     1 <1>   0.0800 
 30 H        0.0650     1.7180    -1.2460 H     1 <1>   0.0800 
 31 H        0.9830     3.1090    -0.7440 H     1 <1>   0.0800 
 32 H        1.0750    -4.5350     0.8390 H     1 <1>   0.0800 
 33 H        0.9710    -5.2820    -0.7450 H     1 <1>   0.0800 
 34 H        0.3720    -3.8530    -2.7430 H     1 <1>   0.0800 
 35 H       -0.3030    -2.2660    -2.4540 H     1 <1>   0.0800 
 36 H       -1.1930    -3.6900    -1.9710 H     1 <1>   0.0800 
 37 H        2.2460     2.0730     1.7800 H     1 <1>   0.1500 
 38 H        6.6280     2.5230    -0.3650 H     1 <1>   0.1500 
 39 H        4.4980     0.6040    -2.3280 H     1 <1>   0.0800 
 40 H        5.8740     1.6670    -2.3640 H     1 <1>   0.0800 
 41 H        4.2980     2.2910    -2.7580 H     1 <1>   0.0800 
 42 H       -1.2500    -6.5870    -1.2350 H     1 <1>   0.1500 
 43 H       -1.6450    -3.7290     1.8990 H     1 <1>   0.1500 
 44 H        6.3530     3.1030     1.9800 H     1 <1>   0.1500 
 45 H        3.0900     3.2870     3.6950 H     1 <1>   0.0800 
 46 H        4.7510     3.8110     3.7470 H     1 <1>   0.0800 
 47 H        4.3520     2.1480     4.1100 H     1 <1>   0.0800 
 48 H       -3.9350    -4.5190     2.7230 H     1 <1>   0.0800 
 49 H       -4.5380    -6.0170     2.0340 H     1 <1>   0.0800 
 50 H       -4.8680    -4.4940     1.2320 H     1 <1>   0.0800 
@<TRIPOS>BOND
  1   1   2  2   
  2   2   3  am  
  3   2   4  1   
  4   3   5  1   
  5   3  24  1   
  6   4   6  1   
  7   4  25  1   
  8   4  26  1   
  9   5   7  1   
 10   5   8  1   
 11   5  27  1   
 12   6   9  1   
 13   6  10  1   
 14   6  28  1   
 15   7  11  ar  
 16   7  12  ar  
 17   8  29  1   
 18   8  30  1   
 19   8  31  1   
 20   9  13  1   
 21   9  32  1   
 22   9  33  1   
 23  10  34  1   
 24  10  35  1   
 25  10  36  1   
 26  11  14  ar  
 27  11  15  1   
 28  12  16  ar  
 29  12  37  1   
 30  13  17  1   
 31  13  18  2   
 32  14  19  ar  
 33  14  38  1   
 34  15  39  1   
 35  15  40  1   
 36  15  41  1   
 37  16  19  ar  
 38  16  20  1   
 39  17  21  2   
 40  17  42  1   
 41  18  22  1   
 42  18  43  1   
 43  19  44  1   
 44  20  45  1   
 45  20  46  1   
 46  20  47  1   
 47  21  22  1   
 48  22  23  1   
 49  23  48  1   
 50  23  49  1   
 51  23  50  1   
@<TRIPOS>SUBSTRUCTURE
  1 ****   3 GROUP 4 **** **** 0

# MOE 2024.06 (io_trps.svl 2023.06)
