@<TRIPOS>MOLECULE
NONAME
40 42 1 0 0 
SMALL
USER_CHARGES


@<TRIPOS>ATOM
  1 O        2.2900    -0.2430    -0.3300 O.2   1 <1>  -0.5700 
  2 C        1.5400    -0.9630     0.2800 C.2   1 <1>   0.5690 
  3 N        0.8570    -0.4920     1.3410 N.am  1 <1>  -0.8000 
  4 C        1.3620    -2.4230    -0.1520 C.3   1 <1>   0.1710 
  5 N        0.0050    -2.9910     0.1000 N.3   1 <1>  -0.8100 
  6 C       -1.0380    -2.3420    -0.7120 C.3   1 <1>   0.1100 
  7 C       -0.0680    -4.4300    -0.2100 C.3   1 <1>   0.1100 
  8 C       -2.1770    -3.3520    -0.7200 C.3   1 <1>   0.2000 
  9 C       -1.4270    -4.6740    -0.8930 C.3   1 <1>  -0.0800 
 10 O       -2.7670    -3.3090     0.5310 O.3   1 <1>  -0.6800 
 11 C       -2.1720    -5.9220    -0.3700 C.3   1 <1>  -0.0170 
 12 C       -1.4940    -7.2760    -0.6210 C.ar  1 <1>  -0.1430 
 13 C       -1.9640    -8.4330     0.0500 C.ar  1 <1>   0.0000 
 14 C       -0.4430    -7.4440    -1.4800 C.ar  1 <1>  -0.1500 
 15 C       -1.2940    -9.6590    -0.1880 C.ar  1 <1>   0.3100 
 16 C       -3.0650    -8.4500     0.9390 C.ar  1 <1>  -0.1500 
 17 C        0.1420    -8.7040    -1.6500 C.ar  1 <1>   0.1600 
 18 N       -0.2440    -9.7760    -1.0380 N.ar  1 <1>  -0.6200 
 19 C       -1.7310   -10.8170     0.4750 C.ar  1 <1>  -0.1500 
 20 C       -3.4680    -9.5970     1.5680 C.ar  1 <1>  -0.1500 
 21 C       -2.7930   -10.7970     1.3370 C.ar  1 <1>  -0.1500 
 22 H        0.9520     0.4790     1.6350 H     1 <1>   0.3700 
 23 H        0.1710    -1.0770     1.8210 H     1 <1>   0.3700 
 24 H        2.0880    -3.0040     0.3870 H     1 <1>   0.0800 
 25 H        1.5970    -2.4950    -1.2000 H     1 <1>   0.0800 
 26 H       -1.3430    -1.3970    -0.2970 H     1 <1>   0.0800 
 27 H       -0.6860    -2.1920    -1.7200 H     1 <1>   0.0800 
 28 H        0.7320    -4.7280    -0.8670 H     1 <1>   0.0800 
 29 H        0.0110    -4.9910     0.7070 H     1 <1>   0.0800 
 30 H       -2.9250    -3.1670    -1.4720 H     1 <1>   0.0800 
 31 H       -1.2550    -4.7920    -1.9470 H     1 <1>   0.0800 
 32 H       -2.0310    -3.2820     1.1780 H     1 <1>   0.4000 
 33 H       -3.1530    -5.9470    -0.8120 H     1 <1>   0.0800 
 34 H       -2.2990    -5.8050     0.6910 H     1 <1>   0.0800 
 35 H       -0.0250    -6.6420    -2.0530 H     1 <1>   0.1500 
 36 H       -3.6090    -7.5440     1.1290 H     1 <1>   0.1500 
 37 H        0.9690    -8.7870    -2.3340 H     1 <1>   0.1500 
 38 H       -1.1970   -11.7280     0.2790 H     1 <1>   0.1500 
 39 H       -4.3060    -9.5900     2.2430 H     1 <1>   0.1500 
 40 H       -3.1170   -11.6920     1.8390 H     1 <1>   0.1500 
@<TRIPOS>BOND
  1   1   2  2   
  2   2   3  am  
  3   2   4  1   
  4   3  22  1   
  5   3  23  1   
  6   4   5  1   
  7   4  24  1   
  8   4  25  1   
  9   5   6  1   
 10   5   7  1   
 11   6   8  1   
 12   6  26  1   
 13   6  27  1   
 14   7   9  1   
 15   7  28  1   
 16   7  29  1   
 17   8   9  1   
 18   8  10  1   
 19   8  30  1   
 20   9  11  1   
 21   9  31  1   
 22  10  32  1   
 23  11  12  1   
 24  11  33  1   
 25  11  34  1   
 26  12  13  ar  
 27  12  14  ar  
 28  13  15  ar  
 29  13  16  ar  
 30  14  17  ar  
 31  14  35  1   
 32  15  18  ar  
 33  15  19  ar  
 34  16  20  ar  
 35  16  36  1   
 36  17  18  ar  
 37  17  37  1   
 38  19  21  ar  
 39  19  38  1   
 40  20  21  ar  
 41  20  39  1   
 42  21  40  1   
@<TRIPOS>SUBSTRUCTURE
  1 ****  11 GROUP 4 **** **** 0

# MOE 2024.06 (io_trps.svl 2023.06)
