@<TRIPOS>MOLECULE
NONAME
46 48 1 0 0 
SMALL
USER_CHARGES


@<TRIPOS>ATOM
  1 S        1.9370     1.3000     1.0650 S.3   1 <1>  -0.3320 
  2 C        2.5130    -0.2700     0.4490 C.ar  1 <1>   0.7220 
  3 C        0.6400     1.8130    -0.1630 C.3   1 <1>   0.1310 
  4 N        1.9280    -0.7010    -0.6580 N.ar  1 <1>  -0.6200 
  5 N        3.4660    -0.8320     1.1700 N.ar  1 <1>  -0.6200 
  6 C        0.0660     3.1780     0.1820 C.2   1 <1>   0.5690 
  7 C        2.3680    -1.8580    -1.0950 C.ar  1 <1>   0.1660 
  8 C        3.8830    -1.9880     0.7060 C.ar  1 <1>   0.1600 
  9 O       -0.3590     3.8700    -0.7110 O.2   1 <1>  -0.5700 
 10 N        0.0470     3.6010     1.4710 N.am  1 <1>  -0.7300 
 11 C        3.3610    -2.5500    -0.4360 C.ar  1 <1>  -0.1500 
 12 C        1.7360    -2.4020    -2.3590 C.3   1 <1>  -0.0970 
 13 C       -0.4720     4.9060     1.9380 C.3   1 <1>   0.3200 
 14 C        0.6430     5.7080     2.5850 C.2   1 <1>   0.0070 
 15 N        0.6810     5.9930     3.8430 N.2   1 <1>  -0.3380 
 16 N        1.7040     6.2050     1.9350 N.pl3 1 <1>   0.0480 
 17 N        1.7950     6.6930     4.0530 N.2   1 <1>  -0.3380 
 18 C        2.3850     6.8020     2.9140 C.2   1 <1>   0.0370 
 19 C        2.0580     6.1070     0.4960 C.3   1 <1>   0.1760 
 20 C        3.2140     5.1130     0.2980 C.3   1 <1>  -0.1600 
 21 C        2.4090     7.4850    -0.0910 C.3   1 <1>  -0.1600 
 22 C        3.5750     4.9870    -1.1880 C.3   1 <1>  -0.1600 
 23 C        2.7730     7.3640    -1.5790 C.3   1 <1>  -0.1600 
 24 C        3.9120     6.3570    -1.7930 C.3   1 <1>  -0.1600 
 25 H       -0.1320     1.0670    -0.1490 H     1 <1>   0.0800 
 26 H        1.1080     1.8400    -1.1290 H     1 <1>   0.0800 
 27 H        4.6610    -2.4980     1.2500 H     1 <1>   0.1500 
 28 H        0.5110     3.0390     2.1920 H     1 <1>   0.3700 
 29 H        3.7200    -3.4960    -0.7950 H     1 <1>   0.1500 
 30 H        1.8890    -1.7080    -3.1650 H     1 <1>   0.0800 
 31 H        0.6800    -2.5290    -2.2080 H     1 <1>   0.0800 
 32 H        2.1650    -3.3490    -2.6290 H     1 <1>   0.0800 
 33 H       -1.2510     4.7350     2.6600 H     1 <1>   0.0800 
 34 H       -0.8930     5.4620     1.1180 H     1 <1>   0.0800 
 35 H        3.3190     7.3100     2.7570 H     1 <1>   0.1500 
 36 H        1.2010     5.7390    -0.0360 H     1 <1>   0.0800 
 37 H        2.9310     4.1470     0.6770 H     1 <1>   0.0800 
 38 H        4.0800     5.4480     0.8430 H     1 <1>   0.0800 
 39 H        3.2460     7.9080     0.4350 H     1 <1>   0.0800 
 40 H        1.5670     8.1470     0.0150 H     1 <1>   0.0800 
 41 H        2.7440     4.5560    -1.7220 H     1 <1>   0.0800 
 42 H        4.4170     4.3250    -1.3010 H     1 <1>   0.0800 
 43 H        3.0670     8.3270    -1.9590 H     1 <1>   0.0800 
 44 H        1.9070     7.0420    -2.1330 H     1 <1>   0.0800 
 45 H        4.1000     6.2470    -2.8470 H     1 <1>   0.0800 
 46 H        4.8130     6.7350    -1.3380 H     1 <1>   0.0800 
@<TRIPOS>BOND
  1   1   2  1   
  2   1   3  1   
  3   2   4  ar  
  4   2   5  ar  
  5   3   6  1   
  6   3  25  1   
  7   3  26  1   
  8   4   7  ar  
  9   5   8  ar  
 10   6   9  2   
 11   6  10  am  
 12   7  11  ar  
 13   7  12  1   
 14   8  11  ar  
 15   8  27  1   
 16  10  13  1   
 17  10  28  1   
 18  11  29  1   
 19  12  30  1   
 20  12  31  1   
 21  12  32  1   
 22  13  14  1   
 23  13  33  1   
 24  13  34  1   
 25  14  15  2   
 26  14  16  1   
 27  15  17  1   
 28  16  18  1   
 29  16  19  1   
 30  17  18  2   
 31  18  35  1   
 32  19  20  1   
 33  19  21  1   
 34  19  36  1   
 35  20  22  1   
 36  20  37  1   
 37  20  38  1   
 38  21  23  1   
 39  21  39  1   
 40  21  40  1   
 41  22  24  1   
 42  22  41  1   
 43  22  42  1   
 44  23  24  1   
 45  23  43  1   
 46  23  44  1   
 47  24  45  1   
 48  24  46  1   
@<TRIPOS>SUBSTRUCTURE
  1 ****   6 GROUP 4 **** **** 0

# MOE 2024.06 (io_trps.svl 2023.06)
