@<TRIPOS>MOLECULE
NONAME
48 51 1 0 0 
SMALL
USER_CHARGES


@<TRIPOS>ATOM
  1 S       -4.3220    -1.7620    -4.2400 S.3   1 <1>  -0.4600 
  2 C       -4.0080    -0.3530    -3.1270 C.3   1 <1>   0.2510 
  3 C       -4.2050    -3.1130    -3.0270 C.3   1 <1>   0.2510 
  4 C       -3.7910    -1.0160    -1.7870 C.2   1 <1>   0.1080 
  5 C       -3.8880    -2.3900    -1.7390 C.2   1 <1>  -0.1810 
  6 N       -3.5170    -0.4870    -0.6370 N.2   1 <1>  -0.7070 
  7 C       -3.6570    -2.7280    -0.4510 C.2   1 <1>  -0.0880 
  8 N       -3.4330    -1.5480     0.2060 N.pl3 1 <1>   0.3140 
  9 N       -3.6440    -4.0510     0.0500 N.am  1 <1>  -0.4940 
 10 C       -3.0580    -1.3270     1.6090 C.3   1 <1>   0.0160 
 11 C       -3.9130    -4.5780     1.2850 C.2   1 <1>   0.5690 
 12 O       -4.2250    -3.9060     2.2420 O.2   1 <1>  -0.5700 
 13 C       -3.8580    -6.1070     1.4050 C.3   1 <1>   0.2810 
 14 N       -5.1060    -6.6850     0.8030 N.am  1 <1>  -0.4200 
 15 C       -3.5300    -6.6520     2.8270 C.3   1 <1>  -0.0800 
 16 C       -5.1620    -6.9000    -0.5550 C.2   1 <1>   0.5440 
 17 C       -6.2520    -6.8460     1.5500 C.2   1 <1>   0.4500 
 18 C       -2.1530    -6.1550     3.3050 C.3   1 <1>  -0.2400 
 19 C       -3.5210    -8.1920     2.8790 C.3   1 <1>  -0.2400 
 20 O       -4.2300    -6.5390    -1.2610 O.2   1 <1>  -0.5700 
 21 C       -6.3450    -7.5040    -1.1000 C.ar  1 <1>   0.0860 
 22 N       -7.3470    -7.3270     1.1000 N.2   1 <1>  -0.6290 
 23 C       -7.4210    -7.7030    -0.2270 C.ar  1 <1>   0.1790 
 24 C       -6.4770    -7.8920    -2.4360 C.ar  1 <1>  -0.1500 
 25 C       -8.5910    -8.2810    -0.7040 C.ar  1 <1>  -0.1500 
 26 C       -7.6450    -8.4660    -2.8960 C.ar  1 <1>  -0.1500 
 27 C       -8.7070    -8.6620    -2.0250 C.ar  1 <1>  -0.1500 
 28 H       -4.8740     0.2830    -3.1260 H     1 <1>   0.0800 
 29 H       -3.1310     0.1640    -3.4680 H     1 <1>   0.0800 
 30 H       -3.4140    -3.7740    -3.3340 H     1 <1>   0.0800 
 31 H       -5.1530    -3.6170    -2.9910 H     1 <1>   0.0800 
 32 H       -3.5850    -4.7700    -0.6860 H     1 <1>   0.3700 
 33 H       -2.5920    -0.3650     1.7020 H     1 <1>   0.0800 
 34 H       -2.3720    -2.0920     1.9190 H     1 <1>   0.0800 
 35 H       -3.9430    -1.3590     2.2160 H     1 <1>   0.0800 
 36 H       -3.0320    -6.4240     0.7940 H     1 <1>   0.0800 
 37 H       -4.2610    -6.2810     3.5260 H     1 <1>   0.0800 
 38 H       -6.2060    -6.5430     2.5810 H     1 <1>   0.0600 
 39 H       -1.3730    -6.4820     2.6410 H     1 <1>   0.0800 
 40 H       -1.9410    -6.5360     4.2900 H     1 <1>   0.0800 
 41 H       -2.1280    -5.0810     3.3630 H     1 <1>   0.0800 
 42 H       -2.8080    -8.5920     2.1800 H     1 <1>   0.0800 
 43 H       -4.4880    -8.6020     2.6500 H     1 <1>   0.0800 
 44 H       -3.2540    -8.5300     3.8650 H     1 <1>   0.0800 
 45 H       -5.6520    -7.7400    -3.1110 H     1 <1>   0.1500 
 46 H       -9.4080    -8.4270    -0.0200 H     1 <1>   0.1500 
 47 H       -7.7370    -8.7620    -3.9270 H     1 <1>   0.1500 
 48 H       -9.6190    -9.1090    -2.3830 H     1 <1>   0.1500 
@<TRIPOS>BOND
  1   1   2  1   
  2   1   3  1   
  3   2   4  1   
  4   2  28  1   
  5   2  29  1   
  6   3   5  1   
  7   3  30  1   
  8   3  31  1   
  9   4   5  1   
 10   4   6  2   
 11   5   7  2   
 12   6   8  1   
 13   7   8  1   
 14   7   9  1   
 15   8  10  1   
 16   9  11  am  
 17   9  32  1   
 18  10  33  1   
 19  10  34  1   
 20  10  35  1   
 21  11  12  2   
 22  11  13  1   
 23  13  14  1   
 24  13  15  1   
 25  13  36  1   
 26  14  16  am  
 27  14  17  1   
 28  15  18  1   
 29  15  19  1   
 30  15  37  1   
 31  16  20  2   
 32  16  21  1   
 33  17  22  2   
 34  17  38  1   
 35  18  39  1   
 36  18  40  1   
 37  18  41  1   
 38  19  42  1   
 39  19  43  1   
 40  19  44  1   
 41  21  23  ar  
 42  21  24  ar  
 43  22  23  1   
 44  23  25  ar  
 45  24  26  ar  
 46  24  45  1   
 47  25  27  ar  
 48  25  46  1   
 49  26  27  ar  
 50  26  47  1   
 51  27  48  1   
@<TRIPOS>SUBSTRUCTURE
  1 ****   9 GROUP 4 **** **** 0

# MOE 2024.06 (io_trps.svl 2023.06)
