@<TRIPOS>MOLECULE
NONAME
43 45 1 0 0 
SMALL
USER_CHARGES


@<TRIPOS>ATOM
  1 S       -0.0320     0.7940     1.1510 S.o2  1 <1>   1.4470 
  2 O        0.7570    -0.0670     2.0060 O.2   1 <1>  -0.6500 
  3 O       -0.6480     1.9590     1.7490 O.2   1 <1>  -0.6500 
  4 N       -1.2620    -0.1650     0.4910 N.am  1 <1>  -0.8490 
  5 C        0.9600     1.2840    -0.2780 C.ar  1 <1>  -0.0090 
  6 C       -0.7330    -1.3320    -0.2590 C.3   1 <1>   0.1960 
  7 C       -2.2890    -0.4970     1.4670 C.3   1 <1>   0.1960 
  8 C        0.4380     2.0960    -1.2760 C.ar  1 <1>   0.1900 
  9 C        2.2730     0.8510    -0.4380 C.ar  1 <1>  -0.1500 
 10 C       -1.6680    -2.5670    -0.3410 C.3   1 <1>  -0.1060 
 11 C       -3.4970    -1.1380     0.7730 C.3   1 <1>  -0.1600 
 12 F       -0.7900     2.5280    -1.1790 F     1 <1>  -0.1900 
 13 C        1.1540     2.4860    -2.3980 C.ar  1 <1>  -0.1500 
 14 C        2.9930     1.2410    -1.5540 C.ar  1 <1>   0.1900 
 15 C       -1.3570    -3.3070    -1.6460 C.2   1 <1>   0.9060 
 16 C       -3.1080    -2.0220    -0.4220 C.3   1 <1>   0.2000 
 17 C       -1.5100    -3.5750     0.8440 C.3   1 <1>  -0.0650 
 18 C        2.4600     2.0500    -2.5420 C.ar  1 <1>  -0.1500 
 19 F        4.2250     0.8310    -1.6790 F     1 <1>  -0.1900 
 20 O       -0.2960    -3.0940    -2.2460 O.co2 1 <1>  -0.9000 
 21 O       -2.1930    -4.1110    -2.0870 O.co2 1 <1>  -0.9000 
 22 O       -4.0080    -3.0660    -0.5030 O.3   1 <1>  -0.6800 
 23 C       -0.0670    -3.8620     1.2880 C.3   1 <1>  -0.1950 
 24 C        0.8260    -4.7490     0.4840 C.3   1 <1>  -0.2000 
 25 C        0.3030    -5.2130     1.8140 C.3   1 <1>  -0.2000 
 26 H       -0.5570    -0.9750    -1.2600 H     1 <1>   0.0800 
 27 H        0.2290    -1.6330     0.1130 H     1 <1>   0.0800 
 28 H       -1.8740    -1.1570     2.2090 H     1 <1>   0.0800 
 29 H       -2.6180     0.3960     1.9740 H     1 <1>   0.0800 
 30 H        2.7350     0.2130     0.2960 H     1 <1>   0.1500 
 31 H       -4.1450    -0.3580     0.4180 H     1 <1>   0.0800 
 32 H       -4.0400    -1.7110     1.5020 H     1 <1>   0.0800 
 33 H        0.6930     3.1140    -3.1390 H     1 <1>   0.1500 
 34 H       -3.2020    -1.4490    -1.3300 H     1 <1>   0.0800 
 35 H       -2.0550    -3.2470     1.7060 H     1 <1>   0.0800 
 36 H       -1.9670    -4.5050     0.5480 H     1 <1>   0.0800 
 37 H        3.0530     2.3250    -3.3960 H     1 <1>   0.1500 
 38 H       -3.6120    -3.6980    -1.1740 H     1 <1>   0.4000 
 39 H        0.3840    -3.0260     1.7950 H     1 <1>   0.1000 
 40 H        0.4320    -5.1820    -0.4220 H     1 <1>   0.1000 
 41 H        1.8580    -4.4630     0.3800 H     1 <1>   0.1000 
 42 H        0.9870    -5.2770     2.6420 H     1 <1>   0.1000 
 43 H       -0.4340    -5.9970     1.8220 H     1 <1>   0.1000 
@<TRIPOS>BOND
  1   1   2  2   
  2   1   3  2   
  3   1   4  am  
  4   1   5  1   
  5   4   6  1   
  6   4   7  1   
  7   5   8  ar  
  8   5   9  ar  
  9   6  10  1   
 10   6  26  1   
 11   6  27  1   
 12   7  11  1   
 13   7  28  1   
 14   7  29  1   
 15   8  12  1   
 16   8  13  ar  
 17   9  14  ar  
 18   9  30  1   
 19  10  15  1   
 20  10  16  1   
 21  10  17  1   
 22  11  16  1   
 23  11  31  1   
 24  11  32  1   
 25  13  18  ar  
 26  13  33  1   
 27  14  18  ar  
 28  14  19  1   
 29  15  20  ar  
 30  15  21  ar  
 31  16  22  1   
 32  16  34  1   
 33  17  23  1   
 34  17  35  1   
 35  17  36  1   
 36  18  37  1   
 37  22  38  1   
 38  23  24  1   
 39  23  25  1   
 40  23  39  1   
 41  24  25  1   
 42  24  40  1   
 43  24  41  1   
 44  25  42  1   
 45  25  43  1   
@<TRIPOS>SUBSTRUCTURE
  1 ****   6 GROUP 4 **** **** 0

# MOE 2024.06 (io_trps.svl 2023.06)
