@<TRIPOS>MOLECULE
NONAME
43 45 1 0 0 
SMALL
USER_CHARGES


@<TRIPOS>ATOM
  1 CL      -0.8000    -0.8950    -0.0200 Cl    1 <1>  -0.1770 
  2 C        0.6930    -1.6650    -0.5050 C.ar  1 <1>   0.1770 
  3 C        1.2360    -2.7090     0.2350 C.ar  1 <1>  -0.1440 
  4 C        1.3060    -1.1990    -1.6540 C.ar  1 <1>  -0.1500 
  5 C        2.4220    -3.2790    -0.2080 C.ar  1 <1>  -0.1500 
  6 C        0.5890    -3.2530     1.5100 C.3   1 <1>   0.0450 
  7 C        2.4860    -1.7780    -2.0830 C.ar  1 <1>  -0.1500 
  8 C        3.0420    -2.8190    -1.3580 C.ar  1 <1>  -0.1500 
  9 C        0.2980    -4.7440     1.4240 C.2   1 <1>   0.5690 
 10 O        0.9250    -5.4850     2.1450 O.2   1 <1>  -0.5700 
 11 N       -0.6480    -5.2260     0.5620 N.am  1 <1>  -0.6600 
 12 C       -1.4790    -4.4390    -0.3860 C.3   1 <1>   0.1400 
 13 C       -0.8990    -6.6780     0.3770 C.3   1 <1>   0.1400 
 14 C       -2.5930    -5.3990    -0.7950 C.3   1 <1>   0.2000 
 15 C       -1.9070    -6.7680    -0.7740 C.3   1 <1>  -0.0800 
 16 O       -3.5740    -5.3560     0.1870 O.3   1 <1>  -0.6800 
 17 C       -2.8480    -7.9830    -0.6820 C.3   1 <1>   0.0210 
 18 C       -2.0580    -9.2760    -0.6550 C.2   1 <1>   0.1080 
 19 N       -1.3090    -9.6650    -1.6400 N.2   1 <1>  -0.7070 
 20 C       -2.0330   -10.1720     0.4090 C.2   1 <1>  -0.1500 
 21 N       -0.7810   -10.8320    -1.2260 N.pl3 1 <1>   0.3000 
 22 C       -1.2030   -11.1600     0.0130 C.2   1 <1>  -0.3320 
 23 C       -0.7820   -12.4150     0.7530 C.3   1 <1>  -0.0600 
 24 H        0.8620    -0.3880    -2.2040 H     1 <1>   0.1500 
 25 H        2.8700    -4.0910     0.3430 H     1 <1>   0.1500 
 26 H       -0.3240    -2.7470     1.7500 H     1 <1>   0.0800 
 27 H        1.2630    -3.0860     2.3310 H     1 <1>   0.0800 
 28 H        2.9720    -1.4220    -2.9750 H     1 <1>   0.1500 
 29 H        3.9600    -3.2740    -1.6880 H     1 <1>   0.1500 
 30 H       -1.8740    -3.5450     0.0630 H     1 <1>   0.0800 
 31 H       -0.8820    -4.1830    -1.2450 H     1 <1>   0.0800 
 32 H        0.0140    -7.1980     0.1380 H     1 <1>   0.0800 
 33 H       -1.3090    -7.0830     1.2860 H     1 <1>   0.0800 
 34 H       -3.0410    -5.1560    -1.7430 H     1 <1>   0.0800 
 35 H       -1.3390    -6.8610    -1.6830 H     1 <1>   0.0800 
 36 H       -3.1390    -5.4410     1.0590 H     1 <1>   0.4000 
 37 H       -3.5020    -7.9960    -1.5350 H     1 <1>   0.0800 
 38 H       -3.4570    -7.9270     0.2020 H     1 <1>   0.0800 
 39 H       -2.5680   -10.0710     1.3360 H     1 <1>   0.1500 
 40 H       -0.1380   -11.3780    -1.8120 H     1 <1>   0.2700 
 41 H       -1.2510   -12.4490     1.7210 H     1 <1>   0.0800 
 42 H        0.2850   -12.4260     0.8900 H     1 <1>   0.0800 
 43 H       -1.0750   -13.2900     0.2000 H     1 <1>   0.0800 
@<TRIPOS>BOND
  1   1   2  1   
  2   2   3  ar  
  3   2   4  ar  
  4   3   5  ar  
  5   3   6  1   
  6   4   7  ar  
  7   4  24  1   
  8   5   8  ar  
  9   5  25  1   
 10   6   9  1   
 11   6  26  1   
 12   6  27  1   
 13   7   8  ar  
 14   7  28  1   
 15   8  29  1   
 16   9  10  2   
 17   9  11  am  
 18  11  12  1   
 19  11  13  1   
 20  12  14  1   
 21  12  30  1   
 22  12  31  1   
 23  13  15  1   
 24  13  32  1   
 25  13  33  1   
 26  14  15  1   
 27  14  16  1   
 28  14  34  1   
 29  15  17  1   
 30  15  35  1   
 31  16  36  1   
 32  17  18  1   
 33  17  37  1   
 34  17  38  1   
 35  18  19  2   
 36  18  20  1   
 37  19  21  1   
 38  20  22  2   
 39  20  39  1   
 40  21  22  1   
 41  21  40  1   
 42  22  23  1   
 43  23  41  1   
 44  23  42  1   
 45  23  43  1   
@<TRIPOS>SUBSTRUCTURE
  1 ****  11 GROUP 4 **** **** 0

# MOE 2024.06 (io_trps.svl 2023.06)
