@<TRIPOS>MOLECULE
NONAME
55 59 1 0 0 
SMALL
USER_CHARGES


@<TRIPOS>ATOM
  1 O       -0.3470    -1.2790     0.8650 O.2   1 <1>  -0.5700 
  2 C       -0.5810    -0.1210     1.1310 C.2   1 <1>   0.5690 
  3 N       -1.8010     0.4530     0.8470 N.am  1 <1>  -0.6600 
  4 C        0.5410     0.6760     1.8180 C.3   1 <1>   0.1710 
  5 C       -2.1600     1.8800     1.1360 C.3   1 <1>   0.1400 
  6 C       -2.9040    -0.3290     0.2250 C.3   1 <1>   0.1400 
  7 N        1.1860     1.7020     0.9560 N.3   1 <1>  -0.8100 
  8 C       -2.6220     2.6200    -0.1360 C.3   1 <1>   0.1430 
  9 C       -3.3590     0.3500    -1.0710 C.3   1 <1>  -0.1600 
 10 C        2.0210     2.6270     1.7390 C.3   1 <1>   0.2530 
 11 C        1.9780     1.0800    -0.1150 C.3   1 <1>   0.1100 
 12 C       -3.1250     4.0110     0.2120 C.ar  1 <1>   0.1670 
 13 C       -3.7420     1.8250    -0.8450 C.3   1 <1>  -0.1600 
 14 C       -1.4410     2.9310    -1.0940 C.3   1 <1>  -0.1600 
 15 C        2.7230     3.6470     0.8470 C.ar  1 <1>  -0.1440 
 16 C        2.3830     2.1340    -1.1500 C.3   1 <1>  -0.0170 
 17 N       -3.9800     4.2940     1.1670 N.ar  1 <1>  -0.6200 
 18 C       -2.5780     4.9620    -0.5990 C.ar  1 <1>  -0.1440 
 19 C       -1.6360     4.3650    -1.6120 C.3   1 <1>  -0.0170 
 20 C        2.9110     3.4110    -0.5100 C.ar  1 <1>  -0.1440 
 21 C        3.1960     4.8260     1.4050 C.ar  1 <1>  -0.1500 
 22 C       -4.2540     5.5850     1.2790 C.ar  1 <1>   0.7200 
 23 C       -2.9450     6.2700    -0.3920 C.ar  1 <1>   0.1600 
 24 C        3.5660     4.3510    -1.2910 C.ar  1 <1>  -0.1500 
 25 C        3.8490     5.7620     0.6220 C.ar  1 <1>  -0.1500 
 26 N       -3.7970     6.5960     0.5540 N.ar  1 <1>  -0.6200 
 27 N       -5.1290     5.9090     2.2320 N.pl3 1 <1>  -0.9000 
 28 C        4.0350     5.5240    -0.7270 C.ar  1 <1>  -0.1500 
 29 H        1.2860    -0.0190     2.1650 H     1 <1>   0.0800 
 30 H        0.1180     1.1500     2.6840 H     1 <1>   0.0800 
 31 H       -1.3360     2.4140     1.5720 H     1 <1>   0.0800 
 32 H       -2.9630     1.8860     1.8540 H     1 <1>   0.0800 
 33 H       -3.7260    -0.3820     0.9180 H     1 <1>   0.0800 
 34 H       -2.5850    -1.3350     0.0100 H     1 <1>   0.0800 
 35 H       -4.2060    -0.1820    -1.4660 H     1 <1>   0.0800 
 36 H       -2.5670     0.2740    -1.7950 H     1 <1>   0.0800 
 37 H        2.7640     2.0730     2.2860 H     1 <1>   0.0800 
 38 H        1.3970     3.1490     2.4440 H     1 <1>   0.0800 
 39 H        1.4030     0.3140    -0.6080 H     1 <1>   0.0800 
 40 H        2.8600     0.6240     0.3040 H     1 <1>   0.0800 
 41 H       -3.9850     2.2900    -1.7840 H     1 <1>   0.0800 
 42 H       -4.6250     1.8580    -0.2300 H     1 <1>   0.0800 
 43 H       -1.3480     2.2230    -1.8960 H     1 <1>   0.0800 
 44 H       -0.5260     2.9190    -0.5340 H     1 <1>   0.0800 
 45 H        1.5260     2.3770    -1.7500 H     1 <1>   0.0800 
 46 H        3.1310     1.7160    -1.7990 H     1 <1>   0.0800 
 47 H       -2.1000     4.3600    -2.5830 H     1 <1>   0.0800 
 48 H       -0.7010     4.8970    -1.6510 H     1 <1>   0.0800 
 49 H        3.0570     5.0210     2.4530 H     1 <1>   0.1500 
 50 H       -2.5360     7.0530    -1.0070 H     1 <1>   0.1500 
 51 H        3.7100     4.1720    -2.3420 H     1 <1>   0.1500 
 52 H        4.2120     6.6730     1.0630 H     1 <1>   0.1500 
 53 H       -5.5650     6.8190     2.1200 H     1 <1>   0.4000 
 54 H       -5.7230     5.1490     2.5480 H     1 <1>   0.4000 
 55 H        4.5430     6.2490    -1.3370 H     1 <1>   0.1500 
@<TRIPOS>BOND
  1   1   2  2   
  2   2   3  am  
  3   2   4  1   
  4   3   5  1   
  5   3   6  1   
  6   4   7  1   
  7   4  29  1   
  8   4  30  1   
  9   5   8  1   
 10   5  31  1   
 11   5  32  1   
 12   6   9  1   
 13   6  33  1   
 14   6  34  1   
 15   7  10  1   
 16   7  11  1   
 17   8  12  1   
 18   8  13  1   
 19   8  14  1   
 20   9  13  1   
 21   9  35  1   
 22   9  36  1   
 23  10  15  1   
 24  10  37  1   
 25  10  38  1   
 26  11  16  1   
 27  11  39  1   
 28  11  40  1   
 29  12  17  ar  
 30  12  18  ar  
 31  13  41  1   
 32  13  42  1   
 33  14  19  1   
 34  14  43  1   
 35  14  44  1   
 36  15  20  ar  
 37  15  21  ar  
 38  16  20  1   
 39  16  45  1   
 40  16  46  1   
 41  17  22  ar  
 42  18  19  1   
 43  18  23  ar  
 44  19  47  1   
 45  19  48  1   
 46  20  24  ar  
 47  21  25  ar  
 48  21  49  1   
 49  22  26  ar  
 50  22  27  1   
 51  23  26  ar  
 52  23  50  1   
 53  24  28  ar  
 54  24  51  1   
 55  25  28  ar  
 56  25  52  1   
 57  27  53  1   
 58  27  54  1   
 59  28  55  1   
@<TRIPOS>SUBSTRUCTURE
  1 ****  14 GROUP 4 **** **** 0

# MOE 2024.06 (io_trps.svl 2023.06)
