@<TRIPOS>MOLECULE
NONAME
43 44 1 0 0 
SMALL
USER_CHARGES


@<TRIPOS>ATOM
  1 F       -1.0090     0.1190    -1.2980 F     1 <1>  -0.1900 
  2 C       -1.4050     0.9910    -0.3960 C.ar  1 <1>   0.1900 
  3 C       -0.8910     2.2840    -0.4230 C.ar  1 <1>   0.4100 
  4 C       -2.3200     0.6460     0.5670 C.ar  1 <1>   0.1660 
  5 N       -1.2820     3.1790     0.4710 N.ar  1 <1>  -0.6200 
  6 N        0.0380     2.6860    -1.3610 N.pl3 1 <1>  -0.8690 
  7 N       -2.7110     1.5400     1.4620 N.ar  1 <1>  -0.6200 
  8 C       -2.9310    -0.7470     0.6660 C.3   1 <1>  -0.0170 
  9 C       -2.1700     2.7420     1.3560 C.ar  1 <1>   0.4700 
 10 C        0.3540     4.1070    -1.6600 C.3   1 <1>   0.2090 
 11 C       -4.3310    -0.7910     0.0430 C.3   1 <1>  -0.2400 
 12 C        1.2370     4.7130    -0.5330 C.3   1 <1>   0.4230 
 13 N        0.8930     6.1410    -0.1750 N.4   1 <1>  -0.9590 
 14 C        2.7180     4.5990    -0.9340 C.3   1 <1>  -0.1600 
 15 C        1.8000     6.6790     0.8870 C.3   1 <1>   0.3430 
 16 C       -0.5200     6.2510     0.2930 C.3   1 <1>   0.3430 
 17 C        3.6670     5.1780     0.1170 C.3   1 <1>  -0.1600 
 18 C        3.2590     6.6150     0.4440 C.3   1 <1>  -0.1600 
 19 C       -0.9910     7.6960     0.1740 C.3   1 <1>  -0.2400 
 20 H        0.2050     2.0170    -2.1250 H     1 <1>   0.4000 
 21 H       -2.9930    -1.0260     1.7030 H     1 <1>   0.0800 
 22 H       -2.3010    -1.4670     0.1760 H     1 <1>   0.0800 
 23 H       -2.4990     3.4590     2.0910 H     1 <1>   0.1500 
 24 H       -0.5720     4.6380    -1.7730 H     1 <1>   0.0800 
 25 H        0.8690     4.1570    -2.6040 H     1 <1>   0.0800 
 26 H       -4.9810    -0.0950     0.5450 H     1 <1>   0.0800 
 27 H       -4.7470    -1.7790     0.1350 H     1 <1>   0.0800 
 28 H       -4.2840    -0.5310    -1.0000 H     1 <1>   0.0800 
 29 H        1.0810     4.1100     0.3470 H     1 <1>   0.0800 
 30 H        1.0110     6.7150    -1.0160 H     1 <1>   0.4500 
 31 H        2.8790     5.1000    -1.8730 H     1 <1>   0.0800 
 32 H        2.9570     3.5590    -1.0810 H     1 <1>   0.0800 
 33 H        1.6800     6.1020     1.7900 H     1 <1>   0.0800 
 34 H        1.5450     7.7030     1.1080 H     1 <1>   0.0800 
 35 H       -0.5990     5.9120     1.3140 H     1 <1>   0.0800 
 36 H       -1.1690     5.6310    -0.3010 H     1 <1>   0.0800 
 37 H        4.6800     5.1580    -0.2520 H     1 <1>   0.0800 
 38 H        3.6300     4.5760     1.0100 H     1 <1>   0.0800 
 39 H        3.8830     6.9880     1.2390 H     1 <1>   0.0800 
 40 H        3.4090     7.2520    -0.4100 H     1 <1>   0.0800 
 41 H       -0.4440     8.3480     0.8300 H     1 <1>   0.0800 
 42 H       -2.0280     7.7480     0.4550 H     1 <1>   0.0800 
 43 H       -0.9070     8.0430    -0.8400 H     1 <1>   0.0800 
@<TRIPOS>BOND
  1   1   2  1   
  2   2   3  ar  
  3   2   4  ar  
  4   3   5  ar  
  5   3   6  1   
  6   4   7  ar  
  7   4   8  1   
  8   5   9  ar  
  9   6  10  1   
 10   6  20  1   
 11   7   9  ar  
 12   8  11  1   
 13   8  21  1   
 14   8  22  1   
 15   9  23  1   
 16  10  12  1   
 17  10  24  1   
 18  10  25  1   
 19  11  26  1   
 20  11  27  1   
 21  11  28  1   
 22  12  13  1   
 23  12  14  1   
 24  12  29  1   
 25  13  15  1   
 26  13  16  1   
 27  13  30  1   
 28  14  17  1   
 29  14  31  1   
 30  14  32  1   
 31  15  18  1   
 32  15  33  1   
 33  15  34  1   
 34  16  19  1   
 35  16  35  1   
 36  16  36  1   
 37  17  18  1   
 38  17  37  1   
 39  17  38  1   
 40  18  39  1   
 41  18  40  1   
 42  19  41  1   
 43  19  42  1   
 44  19  43  1   
@<TRIPOS>SUBSTRUCTURE
  1 ****   5 GROUP 4 **** **** 0

# MOE 2024.06 (io_trps.svl 2023.06)
