@<TRIPOS>MOLECULE
NONAME
44 47 1 0 0 
SMALL
USER_CHARGES


@<TRIPOS>ATOM
  1 O       -0.7480     0.2580     1.7460 O.2   1 <1>  -0.5700 
  2 C       -1.5620     0.8750     1.0850 C.2   1 <1>   0.7150 
  3 N       -2.6350     0.1980     0.5610 N.am  1 <1>  -0.6600 
  4 C       -1.3940     2.2790     0.8550 C.2   1 <1>  -0.2370 
  5 C       -3.5730     0.7370    -0.4560 C.3   1 <1>   0.1400 
  6 C       -2.7890    -1.2740     0.6750 C.3   1 <1>   0.1400 
  7 N       -0.2410     2.8020     0.3350 N.pl3 1 <1>   0.2940 
  8 C       -2.2600     3.3200     1.0880 C.2   1 <1>  -0.1500 
  9 C       -4.6170    -0.3650    -0.6270 C.3   1 <1>   0.2000 
 10 C       -3.8240    -1.6550    -0.3900 C.3   1 <1>  -0.0800 
 11 C       -0.3960     4.1460     0.2470 C.2   1 <1>  -0.3020 
 12 C        0.9620     2.0460    -0.0890 C.3   1 <1>  -0.0910 
 13 C       -1.6280     4.4980     0.7010 C.2   1 <1>  -0.1500 
 14 O       -5.5660    -0.2140     0.3720 O.3   1 <1>  -0.6800 
 15 C       -4.6680    -2.8910    -0.0270 C.3   1 <1>  -0.0170 
 16 C        1.6620     2.3860    -1.3730 C.3   1 <1>  -0.2000 
 17 C        0.8650     1.1240    -1.2680 C.3   1 <1>  -0.2000 
 18 C       -3.7940    -4.1290     0.0980 C.ar  1 <1>  -0.1430 
 19 C       -3.3240    -4.5760     1.3170 C.ar  1 <1>  -0.1500 
 20 C       -3.4220    -4.8690    -1.0060 C.ar  1 <1>  -0.1500 
 21 C       -2.5260    -5.7070     1.3700 C.ar  1 <1>   0.1600 
 22 C       -2.6200    -5.9870    -0.8430 C.ar  1 <1>   0.1600 
 23 N       -2.1620    -6.4230     0.3190 N.ar  1 <1>  -0.6200 
 24 H       -4.0250     1.6620    -0.1430 H     1 <1>   0.0800 
 25 H       -3.0390     0.8890    -1.3780 H     1 <1>   0.0800 
 26 H       -1.8500    -1.7760     0.5070 H     1 <1>   0.0800 
 27 H       -3.1450    -1.5110     1.6630 H     1 <1>   0.0800 
 28 H       -3.2510     3.2590     1.5040 H     1 <1>   0.1500 
 29 H       -5.1150    -0.3340    -1.5810 H     1 <1>   0.0800 
 30 H       -3.2820    -1.8720    -1.2940 H     1 <1>   0.0800 
 31 H        0.3810     4.7830    -0.1340 H     1 <1>   0.1500 
 32 H        1.5440     1.7220     0.7560 H     1 <1>   0.1000 
 33 H       -2.0510     5.4870     0.7630 H     1 <1>   0.1500 
 34 H       -5.1040    -0.0810     1.2250 H     1 <1>   0.4000 
 35 H       -5.4090    -3.0530    -0.7900 H     1 <1>   0.0800 
 36 H       -5.1920    -2.7290     0.8990 H     1 <1>   0.0800 
 37 H        1.2810     3.1840    -1.9870 H     1 <1>   0.1000 
 38 H        2.7340     2.3060    -1.4170 H     1 <1>   0.1000 
 39 H        1.3910     0.1860    -1.2300 H     1 <1>   0.1000 
 40 H       -0.0690     1.0540    -1.7990 H     1 <1>   0.1000 
 41 H       -3.5700    -4.0580     2.2250 H     1 <1>   0.1500 
 42 H       -3.7490    -4.5900    -1.9910 H     1 <1>   0.1500 
 43 H       -2.1680    -6.0400     2.3290 H     1 <1>   0.1500 
 44 H       -2.3410    -6.5530    -1.7160 H     1 <1>   0.1500 
@<TRIPOS>BOND
  1   1   2  2   
  2   2   3  am  
  3   2   4  1   
  4   3   5  1   
  5   3   6  1   
  6   4   7  1   
  7   4   8  2   
  8   5   9  1   
  9   5  24  1   
 10   5  25  1   
 11   6  10  1   
 12   6  26  1   
 13   6  27  1   
 14   7  11  1   
 15   7  12  1   
 16   8  13  1   
 17   8  28  1   
 18   9  10  1   
 19   9  14  1   
 20   9  29  1   
 21  10  15  1   
 22  10  30  1   
 23  11  13  2   
 24  11  31  1   
 25  12  16  1   
 26  12  17  1   
 27  12  32  1   
 28  13  33  1   
 29  14  34  1   
 30  15  18  1   
 31  15  35  1   
 32  15  36  1   
 33  16  17  1   
 34  16  37  1   
 35  16  38  1   
 36  17  39  1   
 37  17  40  1   
 38  18  19  ar  
 39  18  20  ar  
 40  19  21  ar  
 41  19  41  1   
 42  20  22  ar  
 43  20  42  1   
 44  21  23  ar  
 45  21  43  1   
 46  22  23  ar  
 47  22  44  1   
@<TRIPOS>SUBSTRUCTURE
  1 ****   3 GROUP 4 **** **** 0

# MOE 2024.06 (io_trps.svl 2023.06)
