@<TRIPOS>MOLECULE
NONAME
42 45 1 0 0 
SMALL
USER_CHARGES


@<TRIPOS>ATOM
  1 CL       0.3600    -0.4850     0.5260 Cl    1 <1>  -0.1770 
  2 C       -0.8560    -1.6190    -0.0020 C.ar  1 <1>   0.1770 
  3 C       -2.0460    -1.7090     0.6970 C.ar  1 <1>  -0.1500 
  4 C       -0.6040    -2.4110    -1.1180 C.ar  1 <1>  -0.1500 
  5 C       -2.9700    -2.6240     0.2310 C.ar  1 <1>   0.0400 
  6 C       -1.5580    -3.3180    -1.5550 C.ar  1 <1>  -0.1500 
  7 S       -4.5540    -2.9940     0.8680 S.3   1 <1>  -0.0800 
  8 C       -2.7640    -3.4320    -0.8730 C.ar  1 <1>   0.2270 
  9 C       -4.7860    -4.2040    -0.4070 C.2   1 <1>   0.4620 
 10 N       -3.7870    -4.2970    -1.2100 N.2   1 <1>  -0.5650 
 11 N       -5.9550    -4.9310    -0.4430 N.pl3 1 <1>  -0.8220 
 12 C       -6.0640    -6.1410    -1.3330 C.3   1 <1>   0.2090 
 13 C       -7.2240    -4.4970     0.2000 C.3   1 <1>   0.2090 
 14 C       -6.7200    -7.3510    -0.6300 C.3   1 <1>  -0.1060 
 15 C       -7.8510    -5.6540     0.9720 C.3   1 <1>  -0.1600 
 16 C       -7.1770    -8.3430    -1.7020 C.2   1 <1>   0.9060 
 17 C       -8.0180    -6.8590     0.0540 C.3   1 <1>   0.2000 
 18 C       -5.7220    -8.1310     0.2870 C.3   1 <1>  -0.0650 
 19 O       -6.8350    -8.1980    -2.8800 O.co2 1 <1>  -0.9000 
 20 O       -7.9040    -9.2880    -1.3570 O.co2 1 <1>  -0.9000 
 21 O       -8.6110    -7.8770     0.7740 O.3   1 <1>  -0.6800 
 22 C       -4.7380    -7.3430     1.1690 C.3   1 <1>  -0.1950 
 23 C       -3.3500    -7.0380     0.6990 C.3   1 <1>  -0.2000 
 24 C       -3.5720    -8.0560     1.7780 C.3   1 <1>  -0.2000 
 25 H       -2.2390    -1.0970     1.5590 H     1 <1>   0.1500 
 26 H        0.3340    -2.3110    -1.6350 H     1 <1>   0.1500 
 27 H       -1.3900    -3.9440    -2.4130 H     1 <1>   0.1500 
 28 H       -6.6540    -5.8610    -2.1900 H     1 <1>   0.0800 
 29 H       -5.0950    -6.4330    -1.7010 H     1 <1>   0.0800 
 30 H       -7.0680    -3.6700     0.8660 H     1 <1>   0.0800 
 31 H       -7.9020    -4.1750    -0.5720 H     1 <1>   0.0800 
 32 H       -8.8170    -5.3490     1.3300 H     1 <1>   0.0800 
 33 H       -7.2460    -5.9020     1.8200 H     1 <1>   0.0800 
 34 H       -8.7180    -6.5910    -0.7210 H     1 <1>   0.0800 
 35 H       -6.2770    -8.7970     0.9220 H     1 <1>   0.0800 
 36 H       -5.1310    -8.7660    -0.3500 H     1 <1>   0.0800 
 37 H       -8.5710    -8.6750     0.1700 H     1 <1>   0.4000 
 38 H       -5.2160    -6.6060     1.7850 H     1 <1>   0.1000 
 39 H       -3.0700    -7.3570    -0.2900 H     1 <1>   0.1000 
 40 H       -2.9280    -6.0830     0.9550 H     1 <1>   0.1000 
 41 H       -3.2940    -7.8120     2.7880 H     1 <1>   0.1000 
 42 H       -3.4180    -9.0950     1.5450 H     1 <1>   0.1000 
@<TRIPOS>BOND
  1   1   2  1   
  2   2   3  ar  
  3   2   4  ar  
  4   3   5  ar  
  5   3  25  1   
  6   4   6  ar  
  7   4  26  1   
  8   5   7  1   
  9   5   8  ar  
 10   6   8  ar  
 11   6  27  1   
 12   7   9  1   
 13   8  10  1   
 14   9  10  2   
 15   9  11  1   
 16  11  12  1   
 17  11  13  1   
 18  12  14  1   
 19  12  28  1   
 20  12  29  1   
 21  13  15  1   
 22  13  30  1   
 23  13  31  1   
 24  14  16  1   
 25  14  17  1   
 26  14  18  1   
 27  15  17  1   
 28  15  32  1   
 29  15  33  1   
 30  16  19  ar  
 31  16  20  ar  
 32  17  21  1   
 33  17  34  1   
 34  18  22  1   
 35  18  35  1   
 36  18  36  1   
 37  21  37  1   
 38  22  23  1   
 39  22  24  1   
 40  22  38  1   
 41  23  24  1   
 42  23  39  1   
 43  23  40  1   
 44  24  41  1   
 45  24  42  1   
@<TRIPOS>SUBSTRUCTURE
  1 ****   9 GROUP 4 **** **** 0

# MOE 2024.06 (io_trps.svl 2023.06)
