@<TRIPOS>MOLECULE
NONAME
41 41 1 0 0 
SMALL
USER_CHARGES


@<TRIPOS>ATOM
  1 SI      -0.2170     0.3530     0.8450 Si    1 <1>   0.5390 
  2 O       -1.5100    -0.4360     0.2060 O.3   1 <1>  -0.5770 
  3 C        0.6920     1.1900    -0.5200 C.3   1 <1>  -0.0810 
  4 C        0.8250    -0.8600     1.6810 C.3   1 <1>  -0.3200 
  5 C       -0.8270     1.5500     2.0520 C.3   1 <1>  -0.3200 
  6 C       -2.4420    -1.1300     0.9680 C.3   1 <1>   0.1200 
  7 C        1.9400     1.9460    -0.0260 C.3   1 <1>  -0.2400 
  8 C        1.1700     0.1860    -1.5850 C.3   1 <1>  -0.2400 
  9 C       -0.1920     2.2170    -1.2510 C.3   1 <1>  -0.2400 
 10 C       -3.4820    -1.7830     0.0390 C.3   1 <1>   0.0000 
 11 C       -4.3900    -2.8030     0.7850 C.3   1 <1>   0.0000 
 12 C       -2.9250    -2.9850    -0.7800 C.3   1 <1>   0.0000 
 13 C       -4.2950    -0.7690    -0.7950 C.3   1 <1>   0.1200 
 14 C       -4.2270    -3.7530    -0.4310 C.3   1 <1>   0.0000 
 15 O       -3.4410    -0.0830    -1.6370 O.3   1 <1>  -0.6800 
 16 H        1.1540    -1.6340     1.0130 H     1 <1>   0.0800 
 17 H        0.3140    -1.3480     2.4890 H     1 <1>   0.0800 
 18 H        1.7090    -0.4170     2.1010 H     1 <1>   0.0800 
 19 H       -1.5150     2.2470     1.6120 H     1 <1>   0.0800 
 20 H       -0.0330     2.1280     2.4850 H     1 <1>   0.0800 
 21 H       -1.3440     1.0780     2.8660 H     1 <1>   0.0800 
 22 H       -2.9220    -0.4370     1.6370 H     1 <1>   0.0800 
 23 H       -1.9220    -1.8800     1.5390 H     1 <1>   0.0800 
 24 H        2.6300     1.2700     0.4470 H     1 <1>   0.0800 
 25 H        1.6670     2.7050     0.6850 H     1 <1>   0.0800 
 26 H        2.4480     2.4230    -0.8450 H     1 <1>   0.0800 
 27 H        1.8470    -0.5310    -1.1570 H     1 <1>   0.0800 
 28 H        1.6760     0.6870    -2.3910 H     1 <1>   0.0800 
 29 H        0.3310    -0.3500    -1.9970 H     1 <1>   0.0800 
 30 H       -0.5170     2.9900    -0.5780 H     1 <1>   0.0800 
 31 H       -1.0660     1.7400    -1.6600 H     1 <1>   0.0800 
 32 H        0.3430     2.6830    -2.0610 H     1 <1>   0.0800 
 33 H       -5.4000    -2.4690     0.9400 H     1 <1>   0.0000 
 34 H       -3.9350    -3.2060     1.6740 H     1 <1>   0.0000 
 35 H       -2.0570    -3.4370    -0.3300 H     1 <1>   0.0000 
 36 H       -2.8050    -2.7960    -1.8320 H     1 <1>   0.0000 
 37 H       -4.7730    -0.0510    -0.1520 H     1 <1>   0.0800 
 38 H       -5.0410    -1.2500    -1.4040 H     1 <1>   0.0800 
 39 H       -4.9990    -3.6210    -1.1700 H     1 <1>   0.0000 
 40 H       -4.0640    -4.7810    -0.1600 H     1 <1>   0.0000 
 41 H       -2.5640    -0.0190    -1.1790 H     1 <1>   0.4000 
@<TRIPOS>BOND
  1   1   2  1   
  2   1   3  1   
  3   1   4  1   
  4   1   5  1   
  5   2   6  1   
  6   3   7  1   
  7   3   8  1   
  8   3   9  1   
  9   4  16  1   
 10   4  17  1   
 11   4  18  1   
 12   5  19  1   
 13   5  20  1   
 14   5  21  1   
 15   6  10  1   
 16   6  22  1   
 17   6  23  1   
 18   7  24  1   
 19   7  25  1   
 20   7  26  1   
 21   8  27  1   
 22   8  28  1   
 23   8  29  1   
 24   9  30  1   
 25   9  31  1   
 26   9  32  1   
 27  10  11  1   
 28  10  12  1   
 29  10  13  1   
 30  11  14  1   
 31  11  33  1   
 32  11  34  1   
 33  12  14  1   
 34  12  35  1   
 35  12  36  1   
 36  13  15  1   
 37  13  37  1   
 38  13  38  1   
 39  14  39  1   
 40  14  40  1   
 41  15  41  1   
@<TRIPOS>SUBSTRUCTURE
  1 ****   2 GROUP 4 **** **** 0

# MOE 2024.06 (io_trps.svl 2023.06)
