@<TRIPOS>MOLECULE
NONAME
56 58 1 0 0 
SMALL
USER_CHARGES


@<TRIPOS>ATOM
  1 S        0.9170     1.1480     0.1130 S.o2  1 <1>   1.3330 
  2 O        2.0470     2.0430     0.2550 O.2   1 <1>  -0.6500 
  3 O        0.5060     0.3420     1.2360 O.2   1 <1>  -0.6500 
  4 N        1.1250     0.1800    -1.2600 N.am  1 <1>  -0.8490 
  5 C       -0.4540     2.2180    -0.3210 C.3   1 <1>  -0.0550 
  6 C        0.2570    -1.0050    -1.2740 C.3   1 <1>   0.1160 
  7 C        2.5200    -0.2360    -1.4480 C.3   1 <1>   0.1160 
  8 C       -1.0410     3.0190     0.8720 C.3   1 <1>  -0.0800 
  9 C       -1.6650     4.3250     0.3890 C.3   1 <1>   0.2000 
 10 C        0.0010     3.5160     1.8890 C.3   1 <1>   0.3430 
 11 O       -2.5170     4.7880     1.3810 O.3   1 <1>  -0.6800 
 12 C       -0.4600     5.2730     0.3100 C.3   1 <1>   0.3430 
 13 N        0.4510     4.8590     1.4220 N.4   1 <1>  -0.9590 
 14 C        1.9000     4.9200     1.0870 C.3   1 <1>   0.5230 
 15 C        2.3060     6.3790     0.9560 C.2   1 <1>  -0.1400 
 16 S        1.9990     7.4060     2.3460 S.3   1 <1>  -0.0800 
 17 C        2.8910     7.0910    -0.0280 C.2   1 <1>  -0.1500 
 18 C        2.6980     8.7940     1.5380 C.2   1 <1>  -0.1100 
 19 C        3.1210     8.4730     0.2960 C.2   1 <1>  -0.1810 
 20 C        3.8060     9.3830    -0.7200 C.3   1 <1>   0.5240 
 21 N        3.7480    10.8040    -0.2890 N.4   1 <1>  -0.9590 
 22 C        2.3920    11.4010    -0.3800 C.3   1 <1>   0.3430 
 23 C        4.6380    11.6930    -1.0720 C.3   1 <1>   0.3430 
 24 C        2.6410    12.9020    -0.3630 C.3   1 <1>  -0.1600 
 25 C        4.0940    13.0910    -0.8100 C.3   1 <1>  -0.1600 
 26 H       -0.1140     2.8850    -1.0890 H     1 <1>   0.0800 
 27 H       -1.2400     1.6240    -0.7470 H     1 <1>   0.0800 
 28 H        0.3730    -1.5390    -2.2030 H     1 <1>   0.0800 
 29 H       -0.7750    -0.7150    -1.1780 H     1 <1>   0.0800 
 30 H        0.5060    -1.6660    -0.4590 H     1 <1>   0.0800 
 31 H        2.6160    -0.8250    -2.3450 H     1 <1>   0.0800 
 32 H        2.8570    -0.8190    -0.6060 H     1 <1>   0.0800 
 33 H        3.1560     0.6280    -1.5470 H     1 <1>   0.0800 
 34 H       -1.7590     2.3920     1.3740 H     1 <1>   0.0800 
 35 H       -2.2100     4.2540    -0.5380 H     1 <1>   0.0800 
 36 H        0.8250     2.8350     2.0270 H     1 <1>   0.0800 
 37 H       -0.4910     3.6320     2.8430 H     1 <1>   0.0800 
 38 H       -3.3820     4.3260     1.3640 H     1 <1>   0.4000 
 39 H       -0.7700     6.3010     0.4070 H     1 <1>   0.0800 
 40 H        0.0360     5.1380    -0.6360 H     1 <1>   0.0800 
 41 H        0.2950     5.5180     2.1980 H     1 <1>   0.4500 
 42 H        2.4770     4.4610     1.8740 H     1 <1>   0.0800 
 43 H        2.1000     4.3910     0.1700 H     1 <1>   0.0800 
 44 H        3.1870     6.6870    -0.9840 H     1 <1>   0.1500 
 45 H        2.7150     9.7060     2.1090 H     1 <1>   0.1500 
 46 H        3.3300     9.2760    -1.6810 H     1 <1>   0.0800 
 47 H        4.8350     9.0740    -0.8190 H     1 <1>   0.0800 
 48 H        4.0490    10.8470     0.6920 H     1 <1>   0.4500 
 49 H        1.9310    11.1250    -1.3150 H     1 <1>   0.0800 
 50 H        1.7580    11.0910     0.4360 H     1 <1>   0.0800 
 51 H        5.6690    11.6030    -0.7680 H     1 <1>   0.0800 
 52 H        4.5520    11.4680    -2.1240 H     1 <1>   0.0800 
 53 H        1.9520    13.4050    -1.0200 H     1 <1>   0.0800 
 54 H        2.5020    13.2850     0.6330 H     1 <1>   0.0800 
 55 H        4.6680    13.5670    -0.0330 H     1 <1>   0.0800 
 56 H        4.1640    13.6940    -1.7000 H     1 <1>   0.0800 
@<TRIPOS>BOND
  1   1   2  2   
  2   1   3  2   
  3   1   4  am  
  4   1   5  1   
  5   4   6  1   
  6   4   7  1   
  7   5   8  1   
  8   5  26  1   
  9   5  27  1   
 10   6  28  1   
 11   6  29  1   
 12   6  30  1   
 13   7  31  1   
 14   7  32  1   
 15   7  33  1   
 16   8   9  1   
 17   8  10  1   
 18   8  34  1   
 19   9  11  1   
 20   9  12  1   
 21   9  35  1   
 22  10  13  1   
 23  10  36  1   
 24  10  37  1   
 25  11  38  1   
 26  12  13  1   
 27  12  39  1   
 28  12  40  1   
 29  13  14  1   
 30  13  41  1   
 31  14  15  1   
 32  14  42  1   
 33  14  43  1   
 34  15  16  1   
 35  15  17  2   
 36  16  18  1   
 37  17  19  1   
 38  17  44  1   
 39  18  19  2   
 40  18  45  1   
 41  19  20  1   
 42  20  21  1   
 43  20  46  1   
 44  20  47  1   
 45  21  22  1   
 46  21  23  1   
 47  21  48  1   
 48  22  24  1   
 49  22  49  1   
 50  22  50  1   
 51  23  25  1   
 52  23  51  1   
 53  23  52  1   
 54  24  25  1   
 55  24  53  1   
 56  24  54  1   
 57  25  55  1   
 58  25  56  1   
@<TRIPOS>SUBSTRUCTURE
  1 ****  14 GROUP 4 **** **** 0

# MOE 2024.06 (io_trps.svl 2023.06)
