@<TRIPOS>MOLECULE
NONAME
50 52 1 0 0 
SMALL
USER_CHARGES


@<TRIPOS>ATOM
  1 F       -0.3370    -1.3990    -1.1760 F     1 <1>  -0.1900 
  2 C       -0.0030    -2.4200    -0.4340 C.ar  1 <1>   0.1900 
  3 C       -0.3610    -3.6880    -0.8460 C.ar  1 <1>  -0.1500 
  4 C        0.6950    -2.1910     0.7350 C.ar  1 <1>  -0.1500 
  5 C       -0.0160    -4.7860    -0.0610 C.ar  1 <1>  -0.0230 
  6 C        1.0470    -3.2780     1.5160 C.ar  1 <1>  -0.1500 
  7 N       -0.3860    -6.1040    -0.4590 N.pl3 1 <1>   0.5930 
  8 C        0.6970    -4.5590     1.1190 C.ar  1 <1>  -0.1500 
  9 N       -0.5040    -6.4920    -1.7540 N.2   1 <1>  -0.7070 
 10 C       -0.6990    -7.1490     0.3500 C.2   1 <1>  -0.3020 
 11 C       -0.8560    -7.7350    -1.7280 C.2   1 <1>   0.1390 
 12 C       -1.0070    -8.2090    -0.4310 C.2   1 <1>  -0.1810 
 13 C       -1.4250    -9.6150    -0.0450 C.3   1 <1>   0.5240 
 14 N       -2.8970    -9.7040     0.0130 N.4   1 <1>  -0.9590 
 15 C       -3.5870    -9.6270    -1.3230 C.3   1 <1>   0.3430 
 16 C       -3.5380    -8.8390     1.0320 C.3   1 <1>   0.3430 
 17 C       -5.1310    -9.6220    -1.2080 C.3   1 <1>   0.2000 
 18 C       -5.0050    -9.2580     1.2580 C.3   1 <1>  -0.1600 
 19 O       -5.6460   -10.3810    -2.2430 O.3   1 <1>  -0.6800 
 20 C       -5.6120   -10.1830     0.1530 C.3   1 <1>  -0.1060 
 21 C       -5.0430   -11.6160     0.2450 C.2   1 <1>   0.9060 
 22 C       -7.1630   -10.2400     0.2880 C.3   1 <1>  -0.1600 
 23 O       -5.3540   -12.4310    -0.6260 O.co2 1 <1>  -0.9000 
 24 O       -4.1170   -11.8480     1.0360 O.co2 1 <1>  -0.9000 
 25 C       -7.9290    -8.9420    -0.0280 C.3   1 <1>  -0.1600 
 26 C       -9.4350    -9.1480     0.1540 C.3   1 <1>  -0.2400 
 27 H       -0.8990    -3.8160    -1.7700 H     1 <1>   0.1500 
 28 H        0.9550    -1.1870     1.0210 H     1 <1>   0.1500 
 29 H        1.5970    -3.1250     2.4300 H     1 <1>   0.1500 
 30 H        0.9920    -5.3880     1.7390 H     1 <1>   0.1500 
 31 H       -0.6820    -7.0620     1.4200 H     1 <1>   0.1500 
 32 H       -1.0110    -8.3160    -2.6240 H     1 <1>   0.1500 
 33 H       -1.0150    -9.8580     0.9220 H     1 <1>   0.0800 
 34 H       -1.0410   -10.3250    -0.7590 H     1 <1>   0.0800 
 35 H       -3.1110   -10.6730     0.3720 H     1 <1>   0.4500 
 36 H       -3.2840    -8.7340    -1.8410 H     1 <1>   0.0800 
 37 H       -3.2990   -10.4830    -1.9120 H     1 <1>   0.0800 
 38 H       -3.0040    -8.9130     1.9660 H     1 <1>   0.0800 
 39 H       -3.5010    -7.8140     0.7000 H     1 <1>   0.0800 
 40 H       -5.4850    -8.6170    -1.3490 H     1 <1>   0.0800 
 41 H       -5.0750    -9.7610     2.2070 H     1 <1>   0.0800 
 42 H       -5.5730    -8.3540     1.3550 H     1 <1>   0.0800 
 43 H       -5.6810   -11.3320    -1.9180 H     1 <1>   0.4000 
 44 H       -7.5330   -11.0060    -0.3750 H     1 <1>   0.0800 
 45 H       -7.4060   -10.5610     1.2870 H     1 <1>   0.0800 
 46 H       -7.6170    -8.1410     0.6160 H     1 <1>   0.0800 
 47 H       -7.7480    -8.6500    -1.0480 H     1 <1>   0.0800 
 48 H       -9.6580    -9.4250     1.1700 H     1 <1>   0.0800 
 49 H       -9.7880    -9.9250    -0.5020 H     1 <1>   0.0800 
 50 H       -9.9630    -8.2400    -0.0780 H     1 <1>   0.0800 
@<TRIPOS>BOND
  1   1   2  1   
  2   2   3  ar  
  3   2   4  ar  
  4   3   5  ar  
  5   3  27  1   
  6   4   6  ar  
  7   4  28  1   
  8   5   7  1   
  9   5   8  ar  
 10   6   8  ar  
 11   6  29  1   
 12   7   9  1   
 13   7  10  1   
 14   8  30  1   
 15   9  11  2   
 16  10  12  2   
 17  10  31  1   
 18  11  12  1   
 19  11  32  1   
 20  12  13  1   
 21  13  14  1   
 22  13  33  1   
 23  13  34  1   
 24  14  15  1   
 25  14  16  1   
 26  14  35  1   
 27  15  17  1   
 28  15  36  1   
 29  15  37  1   
 30  16  18  1   
 31  16  38  1   
 32  16  39  1   
 33  17  19  1   
 34  17  20  1   
 35  17  40  1   
 36  18  20  1   
 37  18  41  1   
 38  18  42  1   
 39  19  43  1   
 40  20  21  1   
 41  20  22  1   
 42  21  23  ar  
 43  21  24  ar  
 44  22  25  1   
 45  22  44  1   
 46  22  45  1   
 47  25  26  1   
 48  25  46  1   
 49  25  47  1   
 50  26  48  1   
 51  26  49  1   
 52  26  50  1   
@<TRIPOS>SUBSTRUCTURE
  1 ****  16 GROUP 4 **** **** 0

# MOE 2024.06 (io_trps.svl 2023.06)
