@<TRIPOS>MOLECULE
NONAME
57 61 1 0 0 
SMALL
USER_CHARGES


@<TRIPOS>ATOM
  1 O       -0.3270    -0.6680    -0.6670 O.2   1 <1>  -0.5700 
  2 C       -0.2630    -1.7190    -0.0680 C.2   1 <1>   0.5690 
  3 N        0.6050    -1.9100     0.9700 N.am  1 <1>  -0.6600 
  4 C       -1.2160    -2.8380    -0.5250 C.3   1 <1>   0.4040 
  5 C        1.5330    -0.8460     1.4230 C.3   1 <1>   0.1400 
  6 C        0.8140    -3.1570     1.7470 C.3   1 <1>   0.1400 
  7 N       -2.3190    -2.3290    -1.4250 N.4   1 <1>  -0.9590 
  8 C        2.1800    -1.4020     2.6860 C.3   1 <1>  -0.1600 
  9 C        2.1020    -2.9170     2.5250 C.3   1 <1>  -0.1600 
 10 C       -3.3280    -1.5280    -0.6490 C.3   1 <1>   0.3430 
 11 C       -2.9580    -3.3900    -2.2480 C.3   1 <1>   0.3430 
 12 C       -4.3330    -0.8330    -1.5820 C.3   1 <1>   0.1430 
 13 C       -3.9360    -2.7480    -3.2370 C.3   1 <1>  -0.1600 
 14 C       -5.3960    -0.1620    -0.7440 C.ar  1 <1>   0.1670 
 15 C       -4.9820    -1.8630    -2.5330 C.3   1 <1>  -0.1600 
 16 C       -3.7060     0.3610    -2.3510 C.3   1 <1>  -0.1600 
 17 N       -6.0330    -0.7340     0.2460 N.ar  1 <1>  -0.6200 
 18 C       -5.6150     1.1210    -1.1370 C.ar  1 <1>  -0.1440 
 19 C       -4.7280     1.5130    -2.2920 C.3   1 <1>  -0.0170 
 20 C       -6.9570     0.0280     0.8540 C.ar  1 <1>   0.6200 
 21 C       -6.5670     1.8370    -0.4590 C.ar  1 <1>   0.1600 
 22 N       -7.2400     1.2980     0.5320 N.ar  1 <1>  -0.6200 
 23 C       -7.7090    -0.5700     1.9470 C.ar  1 <1>   0.0000 
 24 C       -7.1410    -1.5250     2.7960 C.ar  1 <1>  -0.1500 
 25 C       -9.0380    -0.2160     2.1980 C.ar  1 <1>  -0.1500 
 26 C       -7.8570    -2.0950     3.8330 C.ar  1 <1>  -0.1500 
 27 C       -9.7600    -0.7820     3.2330 C.ar  1 <1>  -0.1500 
 28 C       -9.1700    -1.7250     4.0530 C.ar  1 <1>  -0.1500 
 29 H       -1.6400    -3.3140     0.3420 H     1 <1>   0.0800 
 30 H       -0.6270    -3.5650    -1.0560 H     1 <1>   0.0800 
 31 H        1.0050     0.0720     1.6190 H     1 <1>   0.0800 
 32 H        2.2770    -0.6770     0.6620 H     1 <1>   0.0800 
 33 H        0.9080    -4.0160     1.1040 H     1 <1>   0.0800 
 34 H       -0.0060    -3.2920     2.4320 H     1 <1>   0.0800 
 35 H       -1.8480    -1.6510    -2.0490 H     1 <1>   0.4500 
 36 H        1.6040    -1.0920     3.5410 H     1 <1>   0.0800 
 37 H        3.1910    -1.0530     2.8030 H     1 <1>   0.0800 
 38 H        2.9380    -3.2640     1.9410 H     1 <1>   0.0800 
 39 H        2.1030    -3.4290     3.4710 H     1 <1>   0.0800 
 40 H       -2.8310    -0.7780    -0.0550 H     1 <1>   0.0800 
 41 H       -3.8720    -2.1770     0.0180 H     1 <1>   0.0800 
 42 H       -3.4930    -4.0750    -1.6090 H     1 <1>   0.0800 
 43 H       -2.2090    -3.9430    -2.7920 H     1 <1>   0.0800 
 44 H       -4.4440    -3.5270    -3.7790 H     1 <1>   0.0800 
 45 H       -3.3840    -2.1720    -3.9590 H     1 <1>   0.0800 
 46 H       -5.5930    -1.3590    -3.2630 H     1 <1>   0.0800 
 47 H       -5.6380    -2.4980    -1.9590 H     1 <1>   0.0800 
 48 H       -3.4530     0.1230    -3.3690 H     1 <1>   0.0800 
 49 H       -2.8110     0.6880    -1.8480 H     1 <1>   0.0800 
 50 H       -5.3100     1.5570    -3.1970 H     1 <1>   0.0800 
 51 H       -4.2490     2.4620    -2.1220 H     1 <1>   0.0800 
 52 H       -6.7810     2.8580    -0.7290 H     1 <1>   0.1500 
 53 H       -6.1200    -1.8230     2.6420 H     1 <1>   0.1500 
 54 H       -9.5130     0.5170     1.5690 H     1 <1>   0.1500 
 55 H       -7.3930    -2.8280     4.4700 H     1 <1>   0.1500 
 56 H      -10.7820    -0.4880     3.4000 H     1 <1>   0.1500 
 57 H       -9.7300    -2.1670     4.8600 H     1 <1>   0.1500 
@<TRIPOS>BOND
  1   1   2  2   
  2   2   3  am  
  3   2   4  1   
  4   3   5  1   
  5   3   6  1   
  6   4   7  1   
  7   4  29  1   
  8   4  30  1   
  9   5   8  1   
 10   5  31  1   
 11   5  32  1   
 12   6   9  1   
 13   6  33  1   
 14   6  34  1   
 15   7  10  1   
 16   7  11  1   
 17   7  35  1   
 18   8   9  1   
 19   8  36  1   
 20   8  37  1   
 21   9  38  1   
 22   9  39  1   
 23  10  12  1   
 24  10  40  1   
 25  10  41  1   
 26  11  13  1   
 27  11  42  1   
 28  11  43  1   
 29  12  14  1   
 30  12  15  1   
 31  12  16  1   
 32  13  15  1   
 33  13  44  1   
 34  13  45  1   
 35  14  17  ar  
 36  14  18  ar  
 37  15  46  1   
 38  15  47  1   
 39  16  19  1   
 40  16  48  1   
 41  16  49  1   
 42  17  20  ar  
 43  18  19  1   
 44  18  21  ar  
 45  19  50  1   
 46  19  51  1   
 47  20  22  ar  
 48  20  23  1   
 49  21  22  ar  
 50  21  52  1   
 51  23  24  ar  
 52  23  25  ar  
 53  24  26  ar  
 54  24  53  1   
 55  25  27  ar  
 56  25  54  1   
 57  26  28  ar  
 58  26  55  1   
 59  27  28  ar  
 60  27  56  1   
 61  28  57  1   
@<TRIPOS>SUBSTRUCTURE
  1 ****  10 GROUP 4 **** **** 0

# MOE 2024.06 (io_trps.svl 2023.06)
