@<TRIPOS>MOLECULE
NONAME
53 56 1 0 0 
SMALL
USER_CHARGES


@<TRIPOS>ATOM
  1 O        0.8190     3.5250     3.5190 O.2   1 <1>  -0.5700 
  2 C        0.3280     3.5940     2.4150 C.2   1 <1>   0.5690 
  3 N       -0.9640     3.1810     2.1860 N.am  1 <1>  -0.6600 
  4 C        1.2040     4.1750     1.3060 C.3   1 <1>   0.0440 
  5 C       -1.6370     3.2950     0.8480 C.3   1 <1>   0.1400 
  6 C       -1.7230     2.4670     3.2570 C.3   1 <1>   0.1400 
  7 C        1.3530     3.2780     0.0730 C.ar  1 <1>  -0.1440 
  8 C       -3.1710     3.3350     0.9650 C.3   1 <1>   0.1440 
  9 C       -2.6920     1.4410     2.6550 C.3   1 <1>  -0.1600 
 10 C        1.9050     2.0010     0.1430 C.ar  1 <1>  -0.1440 
 11 C        0.9070     3.7570    -1.1520 C.ar  1 <1>  -0.1500 
 12 C       -3.7980     3.4990    -0.4080 C.ar  1 <1>   0.1670 
 13 C       -3.6950     2.0500     1.6520 C.3   1 <1>  -0.1600 
 14 C       -3.6610     4.6150     1.6990 C.3   1 <1>  -0.1600 
 15 C        1.9790     1.2290    -1.0060 C.ar  1 <1>  -0.1500 
 16 C        2.4260     1.4100     1.4470 C.3   1 <1>  -0.0970 
 17 C        0.9750     2.9820    -2.2950 C.ar  1 <1>  -0.1430 
 18 N       -3.4920     2.7900    -1.4730 N.ar  1 <1>  -0.6200 
 19 C       -4.7310     4.4910    -0.4260 C.ar  1 <1>  -0.1430 
 20 C       -4.8830     5.1410     0.9260 C.3   1 <1>  -0.0170 
 21 C        1.5160     1.7110    -2.2160 C.ar  1 <1>  -0.1500 
 22 C        0.4490     3.5270    -3.6090 C.3   1 <1>  -0.0970 
 23 C       -4.1650     3.1210    -2.5650 C.ar  1 <1>   0.4770 
 24 C       -5.3700     4.7490    -1.6130 C.ar  1 <1>   0.1600 
 25 N       -5.0900     4.0620    -2.7020 N.ar  1 <1>  -0.6200 
 26 C       -3.8420     2.3270    -3.8080 C.3   1 <1>  -0.0970 
 27 H        2.1820     4.3670     1.7070 H     1 <1>   0.0800 
 28 H        0.7930     5.1270     1.0300 H     1 <1>   0.0800 
 29 H       -1.3530     2.4490     0.2450 H     1 <1>   0.0800 
 30 H       -1.3110     4.1850     0.3440 H     1 <1>   0.0800 
 31 H       -2.2630     3.1890     3.8450 H     1 <1>   0.0800 
 32 H       -1.0350     1.9590     3.9120 H     1 <1>   0.0800 
 33 H       -3.2280     0.9460     3.4460 H     1 <1>   0.0800 
 34 H       -2.1030     0.6930     2.1530 H     1 <1>   0.0800 
 35 H        0.4880     4.7450    -1.2250 H     1 <1>   0.1500 
 36 H       -3.8980     1.3060     0.9010 H     1 <1>   0.0800 
 37 H       -4.6280     2.2580     2.1450 H     1 <1>   0.0800 
 38 H       -2.8900     5.3650     1.6600 H     1 <1>   0.0800 
 39 H       -3.8970     4.4360     2.7330 H     1 <1>   0.0800 
 40 H        2.3970     0.2390    -0.9650 H     1 <1>   0.1500 
 41 H        3.0140     2.1310     1.9850 H     1 <1>   0.0800 
 42 H        3.0460     0.5530     1.2580 H     1 <1>   0.0800 
 43 H        1.6020     1.1020     2.0640 H     1 <1>   0.0800 
 44 H       -4.8760     6.2150     0.8560 H     1 <1>   0.0800 
 45 H       -5.7970     4.8080     1.3860 H     1 <1>   0.0800 
 46 H        1.5790     1.0920    -3.0920 H     1 <1>   0.1500 
 47 H        0.9620     4.4390    -3.8580 H     1 <1>   0.0800 
 48 H       -0.6030     3.7300    -3.5220 H     1 <1>   0.0800 
 49 H        0.5980     2.8210    -4.4060 H     1 <1>   0.0800 
 50 H       -6.1160     5.5230    -1.6760 H     1 <1>   0.1500 
 51 H       -2.8750     1.8670    -3.7150 H     1 <1>   0.0800 
 52 H       -3.8400     2.9750    -4.6640 H     1 <1>   0.0800 
 53 H       -4.5840     1.5650    -3.9430 H     1 <1>   0.0800 
@<TRIPOS>BOND
  1   1   2  2   
  2   2   3  am  
  3   2   4  1   
  4   3   5  1   
  5   3   6  1   
  6   4   7  1   
  7   4  27  1   
  8   4  28  1   
  9   5   8  1   
 10   5  29  1   
 11   5  30  1   
 12   6   9  1   
 13   6  31  1   
 14   6  32  1   
 15   7  10  ar  
 16   7  11  ar  
 17   8  12  1   
 18   8  13  1   
 19   8  14  1   
 20   9  13  1   
 21   9  33  1   
 22   9  34  1   
 23  10  15  ar  
 24  10  16  1   
 25  11  17  ar  
 26  11  35  1   
 27  12  18  ar  
 28  12  19  ar  
 29  13  36  1   
 30  13  37  1   
 31  14  20  1   
 32  14  38  1   
 33  14  39  1   
 34  15  21  ar  
 35  15  40  1   
 36  16  41  1   
 37  16  42  1   
 38  16  43  1   
 39  17  21  ar  
 40  17  22  1   
 41  18  23  ar  
 42  19  20  1   
 43  19  24  ar  
 44  20  44  1   
 45  20  45  1   
 46  21  46  1   
 47  22  47  1   
 48  22  48  1   
 49  22  49  1   
 50  23  25  ar  
 51  23  26  1   
 52  24  25  ar  
 53  24  50  1   
 54  26  51  1   
 55  26  52  1   
 56  26  53  1   
@<TRIPOS>SUBSTRUCTURE
  1 ****   5 GROUP 4 **** **** 0

# MOE 2024.06 (io_trps.svl 2023.06)
