@<TRIPOS>MOLECULE
NONAME
46 49 1 0 0 
SMALL
USER_CHARGES


@<TRIPOS>ATOM
  1 S       -4.8290    -1.5220    -0.3970 S.3   1 <1>  -0.0800 
  2 C       -3.2210    -1.7170    -1.0560 C.2   1 <1>   0.2280 
  3 C       -4.4850    -2.7950     0.7370 C.2   1 <1>  -0.1100 
  4 N       -2.5230    -2.6240    -0.4960 N.2   1 <1>  -0.5650 
  5 C       -3.2360    -3.2420     0.5280 C.2   1 <1>   0.0460 
  6 C       -2.5590    -4.3610     1.3100 C.3   1 <1>   0.3210 
  7 N       -2.7550    -5.6590     0.6010 N.am  1 <1>  -0.6600 
  8 C       -3.7820    -6.4880     0.9740 C.2   1 <1>   0.5690 
  9 C       -1.9140    -5.8460    -0.6140 C.3   1 <1>   0.0600 
 10 O       -4.2770    -6.4050     2.0780 O.2   1 <1>  -0.5700 
 11 C       -4.3800    -7.4840    -0.0320 C.3   1 <1>   0.2610 
 12 O       -3.7210    -8.7320     0.0030 O.3   1 <1>  -0.5600 
 13 C       -5.8950    -7.6540     0.2120 C.3   1 <1>   0.3640 
 14 C       -4.1300    -9.6160    -1.0140 C.3   1 <1>   0.1810 
 15 N       -6.4670    -8.8070    -0.5520 N.am  1 <1>  -0.5090 
 16 C       -6.6050    -6.3490    -0.1480 C.ar  1 <1>  -0.1430 
 17 C       -5.6510    -9.7200    -1.1730 C.2   1 <1>   0.5690 
 18 C       -7.9460    -8.9320    -0.5460 C.3   1 <1>   0.0490 
 19 C       -7.0490    -5.5100     0.8650 C.ar  1 <1>   0.1600 
 20 C       -6.8000    -5.9600    -1.4610 C.ar  1 <1>  -0.1500 
 21 O       -6.0750   -10.6050    -1.8790 O.2   1 <1>  -0.5700 
 22 C       -8.6580    -9.0050     0.7700 C.3   1 <1>  -0.2000 
 23 C       -8.5770   -10.2140    -0.1030 C.3   1 <1>  -0.2000 
 24 N       -7.6500    -4.3460     0.6790 N.ar  1 <1>  -0.6200 
 25 C       -7.4240    -4.7490    -1.6720 C.ar  1 <1>  -0.1500 
 26 C       -7.8230    -3.9930    -0.5830 C.ar  1 <1>   0.1600 
 27 H       -2.9450    -1.0700    -1.8690 H     1 <1>   0.1500 
 28 H       -5.2580    -3.0770     1.4310 H     1 <1>   0.1500 
 29 H       -2.9840    -4.4080     2.2970 H     1 <1>   0.0800 
 30 H       -1.5100    -4.1520     1.4150 H     1 <1>   0.0800 
 31 H       -0.9100    -5.5140    -0.4180 H     1 <1>   0.0800 
 32 H       -2.3160    -5.2670    -1.4280 H     1 <1>   0.0800 
 33 H       -1.8780    -6.8840    -0.8950 H     1 <1>   0.0800 
 34 H       -4.2430    -7.0760    -1.0160 H     1 <1>   0.0800 
 35 H       -6.0480    -7.8610     1.2560 H     1 <1>   0.0800 
 36 H       -3.6990    -9.2870    -1.9420 H     1 <1>   0.0800 
 37 H       -3.7340   -10.5870    -0.7780 H     1 <1>   0.0800 
 38 H       -8.4110    -8.3920    -1.3540 H     1 <1>   0.1000 
 39 H       -6.8960    -5.8070     1.8900 H     1 <1>   0.1500 
 40 H       -6.4840    -6.5710    -2.2900 H     1 <1>   0.1500 
 41 H       -8.1000    -9.0140     1.6890 H     1 <1>   0.1000 
 42 H       -9.6100    -8.5120     0.8690 H     1 <1>   0.1000 
 43 H       -9.4660   -10.5470    -0.6080 H     1 <1>   0.1000 
 44 H       -7.9350   -11.0300     0.1820 H     1 <1>   0.1000 
 45 H       -7.6040    -4.3920    -2.6690 H     1 <1>   0.1500 
 46 H       -8.3080    -3.0480    -0.7610 H     1 <1>   0.1500 
@<TRIPOS>BOND
  1   1   2  1   
  2   1   3  1   
  3   2   4  2   
  4   2  27  1   
  5   3   5  2   
  6   3  28  1   
  7   4   5  1   
  8   5   6  1   
  9   6   7  1   
 10   6  29  1   
 11   6  30  1   
 12   7   8  am  
 13   7   9  1   
 14   8  10  2   
 15   8  11  1   
 16   9  31  1   
 17   9  32  1   
 18   9  33  1   
 19  11  12  1   
 20  11  13  1   
 21  11  34  1   
 22  12  14  1   
 23  13  15  1   
 24  13  16  1   
 25  13  35  1   
 26  14  17  1   
 27  14  36  1   
 28  14  37  1   
 29  15  17  am  
 30  15  18  1   
 31  16  19  ar  
 32  16  20  ar  
 33  17  21  2   
 34  18  22  1   
 35  18  23  1   
 36  18  38  1   
 37  19  24  ar  
 38  19  39  1   
 39  20  25  ar  
 40  20  40  1   
 41  22  23  1   
 42  22  41  1   
 43  22  42  1   
 44  23  43  1   
 45  23  44  1   
 46  24  26  ar  
 47  25  26  ar  
 48  25  45  1   
 49  26  46  1   
@<TRIPOS>SUBSTRUCTURE
  1 ****  16 GROUP 4 **** **** 0

# MOE 2024.06 (io_trps.svl 2023.06)
