@<TRIPOS>MOLECULE
NONAME
52 55 1 0 0 
SMALL
USER_CHARGES


@<TRIPOS>ATOM
  1 O        1.0170    -0.0810     0.7080 O.2   1 <1>  -0.5700 
  2 C        1.9600    -0.8210     0.4820 C.2   1 <1>   0.7160 
  3 N        3.1640    -0.5320     1.1210 N.am  1 <1>  -0.6600 
  4 C        1.7820    -1.9390    -0.4480 C.2   1 <1>   0.1410 
  5 C        4.3820    -1.3790     0.9740 C.3   1 <1>   0.1400 
  6 C        3.3020     0.6300     2.0470 C.3   1 <1>   0.1400 
  7 N        2.7360    -2.3520    -1.3460 N.2   1 <1>  -0.5650 
  8 C        0.6750    -2.7300    -0.6120 C.2   1 <1>  -0.3320 
  9 C        5.2150    -0.9370    -0.2440 C.3   1 <1>   0.3430 
 10 C        4.4930     1.5200     1.6740 C.3   1 <1>  -0.1600 
 11 C        2.1910    -3.3250    -1.9940 C.2   1 <1>   0.0360 
 12 N        0.9360    -3.6020    -1.5940 N.pl3 1 <1>   0.0330 
 13 C       -0.6630    -2.7150     0.1140 C.3   1 <1>  -0.0600 
 14 N        5.8020     0.4390    -0.1280 N.4   1 <1>  -0.9590 
 15 C        4.8200     1.5230     0.1800 C.3   1 <1>   0.3430 
 16 C        6.6370     0.7370    -1.3200 C.3   1 <1>   0.4860 
 17 C        7.3780     2.0540    -1.1270 C.ar  1 <1>  -0.1440 
 18 C        8.4660     2.1890    -0.2520 C.ar  1 <1>  -0.0230 
 19 C        6.9420     3.1510    -1.8580 C.ar  1 <1>  -0.1500 
 20 N        8.9910     1.1050     0.5150 N.pl3 1 <1>   0.5930 
 21 C        9.0690     3.4390    -0.1280 C.ar  1 <1>  -0.1500 
 22 C        7.5580     4.3800    -1.7240 C.ar  1 <1>  -0.1500 
 23 N        8.2270     0.2870     1.2940 N.2   1 <1>  -0.7070 
 24 C       10.2900     0.7390     0.6080 C.2   1 <1>  -0.3020 
 25 C        8.6220     4.5250    -0.8550 C.ar  1 <1>  -0.1500 
 26 C        9.0610    -0.5360     1.8550 C.2   1 <1>   0.1390 
 27 C       10.3710    -0.3040     1.4580 C.2   1 <1>  -0.1500 
 28 H        4.0900    -2.4080     0.8480 H     1 <1>   0.0800 
 29 H        4.9810    -1.3300     1.8670 H     1 <1>   0.0800 
 30 H        3.4110     0.2710     3.0560 H     1 <1>   0.0800 
 31 H        2.4090     1.2330     2.0210 H     1 <1>   0.0800 
 32 H        4.5930    -0.9850    -1.1210 H     1 <1>   0.0800 
 33 H        6.0140    -1.6480    -0.3760 H     1 <1>   0.0800 
 34 H        5.3600     1.2440     2.2490 H     1 <1>   0.0800 
 35 H        4.2410     2.5240     1.9660 H     1 <1>   0.0800 
 36 H        2.6660    -3.8800    -2.7860 H     1 <1>   0.1500 
 37 H        0.3150    -4.3250    -1.9710 H     1 <1>   0.2700 
 38 H       -0.6530    -2.0140     0.9290 H     1 <1>   0.0800 
 39 H       -0.8820    -3.6890     0.5140 H     1 <1>   0.0800 
 40 H       -1.4490    -2.4320    -0.5630 H     1 <1>   0.0800 
 41 H        6.4830     0.4190     0.6570 H     1 <1>   0.4500 
 42 H        5.2520     2.4800    -0.0590 H     1 <1>   0.0800 
 43 H        3.9200     1.4030    -0.4040 H     1 <1>   0.0800 
 44 H        6.0130     0.7940    -2.1970 H     1 <1>   0.0800 
 45 H        7.3550    -0.0530    -1.4670 H     1 <1>   0.0800 
 46 H        6.1160     3.0650    -2.5450 H     1 <1>   0.1500 
 47 H        9.9000     3.5730     0.5450 H     1 <1>   0.1500 
 48 H        7.2140     5.2270    -2.2950 H     1 <1>   0.1500 
 49 H       11.0710     1.2430     0.0690 H     1 <1>   0.1500 
 50 H        9.1020     5.4830    -0.7470 H     1 <1>   0.1500 
 51 H        8.7740    -1.3100     2.5490 H     1 <1>   0.1500 
 52 H       11.2400    -0.8540     1.7800 H     1 <1>   0.1500 
@<TRIPOS>BOND
  1   1   2  2   
  2   2   3  am  
  3   2   4  1   
  4   3   5  1   
  5   3   6  1   
  6   4   7  1   
  7   4   8  2   
  8   5   9  1   
  9   5  28  1   
 10   5  29  1   
 11   6  10  1   
 12   6  30  1   
 13   6  31  1   
 14   7  11  2   
 15   8  12  1   
 16   8  13  1   
 17   9  14  1   
 18   9  32  1   
 19   9  33  1   
 20  10  15  1   
 21  10  34  1   
 22  10  35  1   
 23  11  12  1   
 24  11  36  1   
 25  12  37  1   
 26  13  38  1   
 27  13  39  1   
 28  13  40  1   
 29  14  15  1   
 30  14  16  1   
 31  14  41  1   
 32  15  42  1   
 33  15  43  1   
 34  16  17  1   
 35  16  44  1   
 36  16  45  1   
 37  17  18  ar  
 38  17  19  ar  
 39  18  20  1   
 40  18  21  ar  
 41  19  22  ar  
 42  19  46  1   
 43  20  23  1   
 44  20  24  1   
 45  21  25  ar  
 46  21  47  1   
 47  22  25  ar  
 48  22  48  1   
 49  23  26  2   
 50  24  27  2   
 51  24  49  1   
 52  25  50  1   
 53  26  27  1   
 54  26  51  1   
 55  27  52  1   
@<TRIPOS>SUBSTRUCTURE
  1 ****  14 GROUP 4 **** **** 0

# MOE 2024.06 (io_trps.svl 2023.06)
