@<TRIPOS>MOLECULE
NONAME
48 51 1 0 0 
SMALL
USER_CHARGES


@<TRIPOS>ATOM
  1 O        2.5150    -0.9820     2.4560 O.2   1 <1>  -0.5700 
  2 C        2.0550    -1.4250     1.4150 C.2   1 <1>   0.5440 
  3 N        1.9210    -0.5380     0.3600 N.am  1 <1>  -0.6600 
  4 C        1.7120    -2.8490     1.3470 C.ar  1 <1>   0.3960 
  5 C        2.3760     0.8680     0.4360 C.3   1 <1>   0.1400 
  6 C        1.4960    -0.8780    -1.0180 C.3   1 <1>   0.1400 
  7 N        0.7160    -3.2950     0.5590 N.ar  1 <1>  -0.6200 
  8 C        2.4560    -3.7300     2.1410 C.ar  1 <1>   0.1600 
  9 C        2.5830     1.2850    -1.0150 C.3   1 <1>  -0.1600 
 10 C        1.5990     0.4260    -1.8030 C.3   1 <1>  -0.1600 
 11 C        0.5370    -4.5960     0.6160 C.ar  1 <1>   0.4100 
 12 N        2.2950    -5.0460     2.2020 N.ar  1 <1>  -0.6200 
 13 N       -0.4830    -5.0340    -0.1870 N.pl3 1 <1>  -0.8690 
 14 C        1.3180    -5.4450     1.4150 C.ar  1 <1>   0.1600 
 15 C       -1.4430    -6.0800     0.2640 C.3   1 <1>   0.2090 
 16 C       -1.2690    -7.3620    -0.5540 C.3   1 <1>   0.2090 
 17 N       -2.1620    -8.4250    -0.0120 N.pl3 1 <1>  -0.8380 
 18 C       -3.3320    -8.7320    -0.6950 C.ar  1 <1>   0.1000 
 19 C       -1.5100    -9.7120     0.3790 C.3   1 <1>   0.2090 
 20 C       -3.6010   -10.0820    -0.6970 C.ar  1 <1>  -0.1430 
 21 C       -4.2010    -7.8590    -1.3360 C.ar  1 <1>  -0.1500 
 22 C       -2.5270   -10.8190     0.0580 C.3   1 <1>  -0.0170 
 23 C       -4.7180   -10.5960    -1.3280 C.ar  1 <1>  -0.1500 
 24 C       -5.3240    -8.3590    -1.9740 C.ar  1 <1>  -0.1500 
 25 C       -5.5830    -9.7230    -1.9710 C.ar  1 <1>  -0.1500 
 26 H        3.2850     0.9560     1.0070 H     1 <1>   0.0800 
 27 H        1.6030     1.4600     0.8950 H     1 <1>   0.0800 
 28 H        0.4850    -1.2500    -1.0260 H     1 <1>   0.0800 
 29 H        2.1610    -1.6210    -1.4240 H     1 <1>   0.0800 
 30 H        3.2330    -3.3140     2.7600 H     1 <1>   0.1500 
 31 H        3.5920     1.0460    -1.3040 H     1 <1>   0.0800 
 32 H        2.4170     2.3380    -1.1560 H     1 <1>   0.0800 
 33 H        0.6330     0.9000    -1.8170 H     1 <1>   0.0800 
 34 H        1.9200     0.2580    -2.8150 H     1 <1>   0.0800 
 35 H       -0.9410    -4.2410    -0.6470 H     1 <1>   0.4000 
 36 H        1.1090    -6.4970     1.3840 H     1 <1>   0.1500 
 37 H       -2.4480    -5.7160     0.1430 H     1 <1>   0.0800 
 38 H       -1.2890    -6.3010     1.3060 H     1 <1>   0.0800 
 39 H       -0.2440    -7.6800    -0.4990 H     1 <1>   0.0800 
 40 H       -1.5130    -7.1710    -1.5850 H     1 <1>   0.0800 
 41 H       -1.2740    -9.7030     1.4290 H     1 <1>   0.0800 
 42 H       -0.6120    -9.8650    -0.1940 H     1 <1>   0.0800 
 43 H       -4.0030    -6.8060    -1.3320 H     1 <1>   0.1500 
 44 H       -2.9260   -11.2380     0.9630 H     1 <1>   0.0800 
 45 H       -2.0820   -11.5920    -0.5410 H     1 <1>   0.0800 
 46 H       -4.9140   -11.6530    -1.3210 H     1 <1>   0.1500 
 47 H       -6.0010    -7.6880    -2.4720 H     1 <1>   0.1500 
 48 H       -6.4570   -10.1050    -2.4680 H     1 <1>   0.1500 
@<TRIPOS>BOND
  1   1   2  2   
  2   2   3  am  
  3   2   4  1   
  4   3   5  1   
  5   3   6  1   
  6   4   7  ar  
  7   4   8  ar  
  8   5   9  1   
  9   5  26  1   
 10   5  27  1   
 11   6  10  1   
 12   6  28  1   
 13   6  29  1   
 14   7  11  ar  
 15   8  12  ar  
 16   8  30  1   
 17   9  10  1   
 18   9  31  1   
 19   9  32  1   
 20  10  33  1   
 21  10  34  1   
 22  11  13  1   
 23  11  14  ar  
 24  12  14  ar  
 25  13  15  1   
 26  13  35  1   
 27  14  36  1   
 28  15  16  1   
 29  15  37  1   
 30  15  38  1   
 31  16  17  1   
 32  16  39  1   
 33  16  40  1   
 34  17  18  1   
 35  17  19  1   
 36  18  20  ar  
 37  18  21  ar  
 38  19  22  1   
 39  19  41  1   
 40  19  42  1   
 41  20  22  1   
 42  20  23  ar  
 43  21  24  ar  
 44  21  43  1   
 45  22  44  1   
 46  22  45  1   
 47  23  25  ar  
 48  23  46  1   
 49  24  25  ar  
 50  24  47  1   
 51  25  48  1   
@<TRIPOS>SUBSTRUCTURE
  1 ****  13 GROUP 4 **** **** 0

# MOE 2024.06 (io_trps.svl 2023.06)
