@<TRIPOS>MOLECULE
NONAME
52 54 1 0 0 
SMALL
USER_CHARGES


@<TRIPOS>ATOM
  1 N       -1.4260    -0.1420     1.0870 N.ar  1 <1>  -0.6200 
  2 C       -2.0570     0.8090     0.4310 C.ar  1 <1>   0.4100 
  3 C       -0.3140     0.2100     1.6940 C.ar  1 <1>   0.4760 
  4 N       -3.2450     0.4450    -0.1670 N.pl3 1 <1>  -0.8380 
  5 C       -1.5490     2.1040     0.3640 C.ar  1 <1>  -0.1440 
  6 N        0.2540     1.3980     1.7220 N.ar  1 <1>  -0.6200 
  7 C        0.4050    -0.8800     2.4520 C.3   1 <1>  -0.0970 
  8 C       -3.2560    -0.6640    -1.1710 C.3   1 <1>   0.2090 
  9 C       -4.5230     0.9620     0.3850 C.3   1 <1>   0.2090 
 10 C       -0.3800     2.3360     1.0470 C.ar  1 <1>   0.1600 
 11 C       -2.2690     3.1950    -0.4360 C.3   1 <1>  -0.0160 
 12 C       -3.3850    -2.0690    -0.5470 C.3   1 <1>   0.2090 
 13 C       -5.6030    -0.1060     0.5870 C.3   1 <1>  -0.1600 
 14 C       -1.3750     4.3600    -0.8910 C.3   1 <1>  -0.1600 
 15 N       -4.7340    -2.3460     0.0530 N.pl3 1 <1>  -0.8380 
 16 C       -5.0820    -1.4200     1.1710 C.3   1 <1>   0.2090 
 17 C       -2.1380     5.3250    -1.8040 C.3   1 <1>  -0.2400 
 18 C       -5.5200    -3.3810    -0.3450 C.ar  1 <1>   0.1000 
 19 C       -6.2050    -4.1900     0.5720 C.ar  1 <1>  -0.1500 
 20 C       -5.6830    -3.6900    -1.7010 C.ar  1 <1>  -0.1500 
 21 C       -6.9990    -5.2280     0.1540 C.ar  1 <1>   0.2180 
 22 C       -6.4790    -4.7320    -2.0940 C.ar  1 <1>   0.2110 
 23 N       -7.1270    -5.4850    -1.1710 N.ar  1 <1>  -0.1790 
 24 C       -7.7450    -6.1140     1.1380 C.3   1 <1>  -0.0970 
 25 H       -0.2500    -1.7140     2.6230 H     1 <1>   0.0800 
 26 H        0.7420    -0.5010     3.3990 H     1 <1>   0.0800 
 27 H        1.2530    -1.2070     1.8810 H     1 <1>   0.0800 
 28 H       -2.3270    -0.6270    -1.7130 H     1 <1>   0.0800 
 29 H       -4.0510    -0.5070    -1.8780 H     1 <1>   0.0800 
 30 H       -4.9030     1.7270    -0.2700 H     1 <1>   0.0800 
 31 H       -4.3160     1.4220     1.3370 H     1 <1>   0.0800 
 32 H        0.0700     3.3110     1.0550 H     1 <1>   0.1500 
 33 H       -3.0780     3.5810     0.1580 H     1 <1>   0.0800 
 34 H       -2.6960     2.7450    -1.3160 H     1 <1>   0.0800 
 35 H       -2.6310    -2.1910     0.2100 H     1 <1>   0.0800 
 36 H       -3.1770    -2.7980    -1.3080 H     1 <1>   0.0800 
 37 H       -6.1140    -0.2930    -0.3390 H     1 <1>   0.0800 
 38 H       -6.3270     0.3020     1.2670 H     1 <1>   0.0800 
 39 H       -0.5230     3.9710    -1.4240 H     1 <1>   0.0800 
 40 H       -1.0210     4.9070    -0.0350 H     1 <1>   0.0800 
 41 H       -5.8530    -1.8520     1.7810 H     1 <1>   0.0800 
 42 H       -4.2200    -1.2470     1.7960 H     1 <1>   0.0800 
 43 H       -2.4800     4.8180    -2.6890 H     1 <1>   0.0800 
 44 H       -1.4950     6.1340    -2.1030 H     1 <1>   0.0800 
 45 H       -2.9890     5.7380    -1.2900 H     1 <1>   0.0800 
 46 H       -6.0820    -3.9890     1.6200 H     1 <1>   0.1500 
 47 H       -5.1780    -3.0840    -2.4310 H     1 <1>   0.1500 
 48 H       -6.6060    -4.9670    -3.1390 H     1 <1>   0.1500 
 49 H       -7.7220    -6.2630    -1.4750 H     1 <1>   0.4570 
 50 H       -7.5520    -5.8000     2.1490 H     1 <1>   0.0800 
 51 H       -7.4260    -7.1360     1.0400 H     1 <1>   0.0800 
 52 H       -8.8050    -6.0560     0.9670 H     1 <1>   0.0800 
@<TRIPOS>BOND
  1   1   2  ar  
  2   1   3  ar  
  3   2   4  1   
  4   2   5  ar  
  5   3   6  ar  
  6   3   7  1   
  7   4   8  1   
  8   4   9  1   
  9   5  10  ar  
 10   5  11  1   
 11   6  10  ar  
 12   7  25  1   
 13   7  26  1   
 14   7  27  1   
 15   8  12  1   
 16   8  28  1   
 17   8  29  1   
 18   9  13  1   
 19   9  30  1   
 20   9  31  1   
 21  10  32  1   
 22  11  14  1   
 23  11  33  1   
 24  11  34  1   
 25  12  15  1   
 26  12  35  1   
 27  12  36  1   
 28  13  16  1   
 29  13  37  1   
 30  13  38  1   
 31  14  17  1   
 32  14  39  1   
 33  14  40  1   
 34  15  16  1   
 35  15  18  1   
 36  16  41  1   
 37  16  42  1   
 38  17  43  1   
 39  17  44  1   
 40  17  45  1   
 41  18  19  ar  
 42  18  20  ar  
 43  19  21  ar  
 44  19  46  1   
 45  20  22  ar  
 46  20  47  1   
 47  21  23  ar  
 48  21  24  1   
 49  22  23  ar  
 50  22  48  1   
 51  23  49  1   
 52  24  50  1   
 53  24  51  1   
 54  24  52  1   
@<TRIPOS>SUBSTRUCTURE
  1 ****   4 GROUP 4 **** **** 0

# MOE 2024.06 (io_trps.svl 2023.06)
