@<TRIPOS>MOLECULE
NONAME
50 52 1 0 0 
SMALL
USER_CHARGES


@<TRIPOS>ATOM
  1 O        3.5450    -2.9980    -1.3000 O.2   1 <1>  -0.5700 
  2 C        2.4720    -3.1070    -0.7660 C.2   1 <1>   0.5690 
  3 N        1.7180    -2.0130    -0.5340 N.am  1 <1>  -0.8000 
  4 C        1.9810    -4.4920    -0.3620 C.3   1 <1>   0.1810 
  5 O        0.6840    -4.4360     0.2220 O.3   1 <1>  -0.3630 
  6 C        0.0250    -5.5650     0.5770 C.ar  1 <1>   0.0820 
  7 C        0.5630    -6.8430     0.4700 C.ar  1 <1>  -0.1500 
  8 C       -1.2600    -5.4060     1.0690 C.ar  1 <1>  -0.1500 
  9 C       -0.1890    -7.9430     0.8400 C.ar  1 <1>  -0.1500 
 10 C       -2.0120    -6.5050     1.4400 C.ar  1 <1>  -0.1500 
 11 C       -1.4820    -7.7820     1.3210 C.ar  1 <1>  -0.1440 
 12 C       -2.3180    -8.9910     1.6930 C.3   1 <1>   0.4860 
 13 N       -2.5880    -9.7610     0.4570 N.4   1 <1>  -0.9590 
 14 C       -3.2360    -8.9970    -0.6550 C.3   1 <1>   0.3430 
 15 C       -3.3290   -11.0320     0.6180 C.3   1 <1>   0.3430 
 16 C       -4.2130    -9.9790    -1.3220 C.3   1 <1>   0.2000 
 17 C       -3.7950   -11.3570    -0.8030 C.3   1 <1>  -0.0800 
 18 O       -5.5090    -9.7140    -0.8930 O.3   1 <1>  -0.6800 
 19 C       -2.6830   -11.9700    -1.7000 C.3   1 <1>   0.0210 
 20 C       -1.3880   -12.3260    -0.9830 C.2   1 <1>   0.1080 
 21 N       -0.5240   -11.4430    -0.5710 N.2   1 <1>  -0.7070 
 22 C       -0.9850   -13.6270    -0.7070 C.2   1 <1>  -0.1500 
 23 N        0.4840   -12.1810    -0.0460 N.pl3 1 <1>   0.3000 
 24 C        0.2150   -13.5000    -0.1050 C.2   1 <1>  -0.3320 
 25 C        1.1470   -14.5830     0.4110 C.3   1 <1>  -0.0600 
 26 H        2.0510    -1.0890    -0.8070 H     1 <1>   0.3700 
 27 H        0.8040    -2.0740    -0.0830 H     1 <1>   0.3700 
 28 H        2.6600    -4.9130     0.3560 H     1 <1>   0.0800 
 29 H        1.9350    -5.1140    -1.2370 H     1 <1>   0.0800 
 30 H        1.5600    -7.0020     0.1020 H     1 <1>   0.1500 
 31 H       -1.6660    -4.4130     1.1580 H     1 <1>   0.1500 
 32 H        0.2440    -8.9240     0.7460 H     1 <1>   0.1500 
 33 H       -3.0080    -6.3490     1.8180 H     1 <1>   0.1500 
 34 H       -3.2420    -8.6740     2.1450 H     1 <1>   0.0800 
 35 H       -1.7770    -9.6000     2.3990 H     1 <1>   0.0800 
 36 H       -1.6610   -10.0680     0.0860 H     1 <1>   0.4500 
 37 H       -3.7650    -8.1310    -0.2940 H     1 <1>   0.0800 
 38 H       -2.4820    -8.6840    -1.3590 H     1 <1>   0.0800 
 39 H       -2.7030   -11.8100     1.0270 H     1 <1>   0.0800 
 40 H       -4.1840   -10.8850     1.2580 H     1 <1>   0.0800 
 41 H       -4.2060    -9.8970    -2.3960 H     1 <1>   0.0800 
 42 H       -4.6300   -12.0360    -0.7820 H     1 <1>   0.0800 
 43 H       -5.6200    -9.7750     0.0740 H     1 <1>   0.4000 
 44 H       -2.4240   -11.3010    -2.5020 H     1 <1>   0.0800 
 45 H       -3.0680   -12.8600    -2.1650 H     1 <1>   0.0800 
 46 H       -1.5220   -14.5300    -0.9420 H     1 <1>   0.1500 
 47 H        1.3490   -11.7700     0.3290 H     1 <1>   0.2700 
 48 H        0.7140   -15.5540     0.2440 H     1 <1>   0.0800 
 49 H        1.3170   -14.4630     1.4660 H     1 <1>   0.0800 
 50 H        2.0910   -14.5400    -0.1030 H     1 <1>   0.0800 
@<TRIPOS>BOND
  1   1   2  2   
  2   2   3  am  
  3   2   4  1   
  4   3  26  1   
  5   3  27  1   
  6   4   5  1   
  7   4  28  1   
  8   4  29  1   
  9   5   6  1   
 10   6   7  ar  
 11   6   8  ar  
 12   7   9  ar  
 13   7  30  1   
 14   8  10  ar  
 15   8  31  1   
 16   9  11  ar  
 17   9  32  1   
 18  10  11  ar  
 19  10  33  1   
 20  11  12  1   
 21  12  13  1   
 22  12  34  1   
 23  12  35  1   
 24  13  14  1   
 25  13  15  1   
 26  13  36  1   
 27  14  16  1   
 28  14  37  1   
 29  14  38  1   
 30  15  17  1   
 31  15  39  1   
 32  15  40  1   
 33  16  17  1   
 34  16  18  1   
 35  16  41  1   
 36  17  19  1   
 37  17  42  1   
 38  18  43  1   
 39  19  20  1   
 40  19  44  1   
 41  19  45  1   
 42  20  21  2   
 43  20  22  1   
 44  21  23  1   
 45  22  24  2   
 46  22  46  1   
 47  23  24  1   
 48  23  47  1   
 49  24  25  1   
 50  25  48  1   
 51  25  49  1   
 52  25  50  1   
@<TRIPOS>SUBSTRUCTURE
  1 ****   9 GROUP 4 **** **** 0

# MOE 2024.06 (io_trps.svl 2023.06)
