@<TRIPOS>MOLECULE
NONAME
60 63 1 0 0 
SMALL
USER_CHARGES


@<TRIPOS>ATOM
  1 O       -4.4140     2.4870     0.3470 O.2   1 <1>  -0.5700 
  2 C       -3.5590     1.6260     0.4410 C.2   1 <1>   0.5440 
  3 N       -2.2340     1.9870     0.3210 N.am  1 <1>  -0.6600 
  4 C       -3.9780     0.2640     0.6700 C.ar  1 <1>   0.0860 
  5 C       -1.1600     1.0790    -0.1870 C.3   1 <1>   0.1400 
  6 C       -1.7950     3.4140     0.4140 C.3   1 <1>   0.1400 
  7 C       -5.1180    -0.2260     0.0370 C.ar  1 <1>   0.1600 
  8 C       -3.3200    -0.6080     1.5330 C.ar  1 <1>  -0.1500 
  9 C       -0.5000     1.6660    -1.4470 C.3   1 <1>   0.1200 
 10 C       -1.1080     3.8590    -0.8870 C.3   1 <1>   0.1200 
 11 N       -5.6290    -1.4390     0.1780 N.ar  1 <1>  -0.6200 
 12 C       -3.8300    -1.8750     1.6860 C.ar  1 <1>  -0.1500 
 13 O       -0.0720     2.9780    -1.2200 O.3   1 <1>  -0.5600 
 14 C       -4.9760    -2.2510     0.9940 C.ar  1 <1>   0.4100 
 15 N       -5.5190    -3.4950     1.1660 N.pl3 1 <1>  -0.8690 
 16 C       -5.9560    -4.3220    -0.0080 C.3   1 <1>   0.2090 
 17 C       -7.4940    -4.4920    -0.2270 C.3   1 <1>   0.1430 
 18 C       -7.6200    -5.6720    -1.2190 C.ar  1 <1>  -0.1430 
 19 C       -8.1440    -3.2470    -0.8970 C.3   1 <1>  -0.1600 
 20 C       -8.2420    -4.7740     1.1040 C.3   1 <1>  -0.1600 
 21 C       -8.1440    -6.9160    -0.8710 C.ar  1 <1>  -0.1500 
 22 C       -7.1700    -5.5040    -2.5270 C.ar  1 <1>  -0.1500 
 23 C       -8.8580    -2.2740     0.0420 C.3   1 <1>   0.3430 
 24 C       -8.3430    -3.5820     2.0670 C.3   1 <1>   0.3430 
 25 C       -8.2250    -7.9410    -1.7980 C.ar  1 <1>  -0.1500 
 26 C       -7.2500    -6.5270    -3.4540 C.ar  1 <1>  -0.1500 
 27 N       -8.1840    -2.2900     1.3520 N.4   1 <1>  -0.9590 
 28 C       -7.7800    -7.7490    -3.0910 C.ar  1 <1>  -0.1500 
 29 C       -8.5150    -1.1100     2.1950 C.3   1 <1>   0.2630 
 30 H       -1.5620     0.1110    -0.4260 H     1 <1>   0.0800 
 31 H       -0.4120     0.9550     0.5760 H     1 <1>   0.0800 
 32 H       -1.1020     3.5170     1.2300 H     1 <1>   0.0800 
 33 H       -2.6320     4.0610     0.6130 H     1 <1>   0.0800 
 34 H       -5.6350     0.4480    -0.6280 H     1 <1>   0.1500 
 35 H       -2.4420    -0.2860     2.0660 H     1 <1>   0.1500 
 36 H       -1.1920     1.6680    -2.2720 H     1 <1>   0.0800 
 37 H        0.3620     1.0840    -1.7220 H     1 <1>   0.0800 
 38 H       -0.6810     4.8380    -0.7650 H     1 <1>   0.0800 
 39 H       -1.8160     3.8880    -1.6970 H     1 <1>   0.0800 
 40 H       -3.3500    -2.5770     2.3420 H     1 <1>   0.1500 
 41 H       -5.0010    -4.0730     1.8370 H     1 <1>   0.4000 
 42 H       -5.5340    -5.3050     0.1200 H     1 <1>   0.0800 
 43 H       -5.5140    -3.9190    -0.9040 H     1 <1>   0.0800 
 44 H       -8.8850    -3.5680    -1.6100 H     1 <1>   0.0800 
 45 H       -7.4050    -2.7040    -1.4580 H     1 <1>   0.0800 
 46 H       -7.7750    -5.5890     1.6270 H     1 <1>   0.0800 
 47 H       -9.2490    -5.0780     0.8760 H     1 <1>   0.0800 
 48 H       -8.5000    -7.1320     0.1180 H     1 <1>   0.1500 
 49 H       -6.7470    -4.5690    -2.8500 H     1 <1>   0.1500 
 50 H       -9.8870    -2.5690     0.1640 H     1 <1>   0.0800 
 51 H       -8.8310    -1.2830    -0.3820 H     1 <1>   0.0800 
 52 H       -7.5640    -3.6620     2.8080 H     1 <1>   0.0800 
 53 H       -9.2930    -3.6130     2.5740 H     1 <1>   0.0800 
 54 H       -8.6360    -8.8950    -1.5120 H     1 <1>   0.1500 
 55 H       -6.8990    -6.3740    -4.4600 H     1 <1>   0.1500 
 56 H       -7.1620    -2.2380     1.1160 H     1 <1>   0.4500 
 57 H       -7.8450    -8.5470    -3.8100 H     1 <1>   0.1500 
 58 H       -9.5620    -1.1110     2.4490 H     1 <1>   0.0800 
 59 H       -8.2860    -0.2010     1.6620 H     1 <1>   0.0800 
 60 H       -7.9340    -1.1280     3.1020 H     1 <1>   0.0800 
@<TRIPOS>BOND
  1   1   2  2   
  2   2   3  am  
  3   2   4  1   
  4   3   5  1   
  5   3   6  1   
  6   4   7  ar  
  7   4   8  ar  
  8   5   9  1   
  9   5  30  1   
 10   5  31  1   
 11   6  10  1   
 12   6  32  1   
 13   6  33  1   
 14   7  11  ar  
 15   7  34  1   
 16   8  12  ar  
 17   8  35  1   
 18   9  13  1   
 19   9  36  1   
 20   9  37  1   
 21  10  13  1   
 22  10  38  1   
 23  10  39  1   
 24  11  14  ar  
 25  12  14  ar  
 26  12  40  1   
 27  14  15  1   
 28  15  16  1   
 29  15  41  1   
 30  16  17  1   
 31  16  42  1   
 32  16  43  1   
 33  17  18  1   
 34  17  19  1   
 35  17  20  1   
 36  18  21  ar  
 37  18  22  ar  
 38  19  23  1   
 39  19  44  1   
 40  19  45  1   
 41  20  24  1   
 42  20  46  1   
 43  20  47  1   
 44  21  25  ar  
 45  21  48  1   
 46  22  26  ar  
 47  22  49  1   
 48  23  27  1   
 49  23  50  1   
 50  23  51  1   
 51  24  27  1   
 52  24  52  1   
 53  24  53  1   
 54  25  28  ar  
 55  25  54  1   
 56  26  28  ar  
 57  26  55  1   
 58  27  29  1   
 59  27  56  1   
 60  28  57  1   
 61  29  58  1   
 62  29  59  1   
 63  29  60  1   
@<TRIPOS>SUBSTRUCTURE
  1 ****  11 GROUP 4 **** **** 0

# MOE 2024.06 (io_trps.svl 2023.06)
