@<TRIPOS>MOLECULE
NONAME
49 51 1 0 0 
SMALL
USER_CHARGES


@<TRIPOS>ATOM
  1 S        0.1080     0.1890    -1.3630 S.3   1 <1>  -0.3320 
  2 C       -1.3060    -0.6920    -0.6700 C.ar  1 <1>   0.1020 
  3 C       -0.0850     1.9580    -0.8730 C.3   1 <1>   0.0700 
  4 C       -1.3460    -2.0610    -0.8660 C.ar  1 <1>  -0.1500 
  5 C       -2.3130    -0.0370     0.0260 C.ar  1 <1>  -0.1500 
  6 C        1.1050     2.7320    -1.4370 C.3   1 <1>  -0.0990 
  7 C       -2.4060    -2.7890    -0.3570 C.ar  1 <1>   0.0830 
  8 C       -3.3720    -0.7690     0.5410 C.ar  1 <1>  -0.1500 
  9 C        1.0600     4.1740    -0.9870 C.2   1 <1>   0.5690 
 10 O       -2.4430    -4.1290    -0.5690 O.3   1 <1>  -0.3630 
 11 C       -3.4190    -2.1410     0.3580 C.ar  1 <1>   0.0830 
 12 O        0.0380     4.7980    -1.1270 O.2   1 <1>  -0.5700 
 13 N        2.1750     4.7180    -0.4380 N.am  1 <1>  -0.7300 
 14 C       -3.6750    -4.7820    -0.3220 C.3   1 <1>   0.1200 
 15 O       -4.4590    -2.8350     0.8870 O.3   1 <1>  -0.3630 
 16 C        2.2830     6.1120     0.0610 C.3   1 <1>   0.1400 
 17 C       -4.3140    -4.2410     0.9640 C.3   1 <1>   0.1200 
 18 C        3.1780     6.9330    -0.8640 C.3   1 <1>  -0.0170 
 19 C        3.4070     8.3040    -0.2690 C.ar  1 <1>   0.4770 
 20 N        2.6510     9.2830    -0.7360 N.ar  1 <1>  -0.6200 
 21 N        4.3400     8.3790     0.6680 N.ar  1 <1>  -0.6200 
 22 C        2.8570    10.4650    -0.2060 C.ar  1 <1>   0.1670 
 23 C        4.5320     9.5700     1.1850 C.ar  1 <1>   0.1670 
 24 C        3.8030    10.6610     0.7730 C.ar  1 <1>  -0.1500 
 25 C        2.0050    11.6050    -0.7220 C.3   1 <1>  -0.0970 
 26 C        5.5940     9.6900     2.2570 C.3   1 <1>  -0.0970 
 27 H       -0.1070     1.9960     0.2020 H     1 <1>   0.0800 
 28 H       -1.0130     2.3150    -1.2840 H     1 <1>   0.0800 
 29 H       -0.5630    -2.5560    -1.4090 H     1 <1>   0.1500 
 30 H       -2.2930     1.0240     0.1770 H     1 <1>   0.1500 
 31 H        1.0730     2.7070    -2.5100 H     1 <1>   0.0800 
 32 H        2.0190     2.2740    -1.1070 H     1 <1>   0.0800 
 33 H       -4.1610    -0.2830     1.0850 H     1 <1>   0.1500 
 34 H        3.0210     4.1540    -0.3470 H     1 <1>   0.3700 
 35 H       -3.4800    -5.8350    -0.2400 H     1 <1>   0.0800 
 36 H       -4.3210    -4.6050    -1.1640 H     1 <1>   0.0800 
 37 H        2.6980     6.1000     1.0550 H     1 <1>   0.0800 
 38 H        1.3070     6.5670     0.1100 H     1 <1>   0.0800 
 39 H       -3.6940    -4.4680     1.8130 H     1 <1>   0.0800 
 40 H       -5.2900    -4.6670     1.1150 H     1 <1>   0.0800 
 41 H        2.7090     7.0310    -1.8260 H     1 <1>   0.0800 
 42 H        4.1280     6.4480    -0.9870 H     1 <1>   0.0800 
 43 H        3.9650    11.6310     1.2010 H     1 <1>   0.1500 
 44 H        2.1660    11.7230    -1.7780 H     1 <1>   0.0800 
 45 H        2.2490    12.5260    -0.2270 H     1 <1>   0.0800 
 46 H        0.9680    11.3810    -0.5530 H     1 <1>   0.0800 
 47 H        5.3420     9.0520     3.0840 H     1 <1>   0.0800 
 48 H        5.6760    10.7010     2.6090 H     1 <1>   0.0800 
 49 H        6.5420     9.3810     1.8580 H     1 <1>   0.0800 
@<TRIPOS>BOND
  1   1   2  1   
  2   1   3  1   
  3   2   4  ar  
  4   2   5  ar  
  5   3   6  1   
  6   3  27  1   
  7   3  28  1   
  8   4   7  ar  
  9   4  29  1   
 10   5   8  ar  
 11   5  30  1   
 12   6   9  1   
 13   6  31  1   
 14   6  32  1   
 15   7  10  1   
 16   7  11  ar  
 17   8  11  ar  
 18   8  33  1   
 19   9  12  2   
 20   9  13  am  
 21  10  14  1   
 22  11  15  1   
 23  13  16  1   
 24  13  34  1   
 25  14  17  1   
 26  14  35  1   
 27  14  36  1   
 28  15  17  1   
 29  16  18  1   
 30  16  37  1   
 31  16  38  1   
 32  17  39  1   
 33  17  40  1   
 34  18  19  1   
 35  18  41  1   
 36  18  42  1   
 37  19  20  ar  
 38  19  21  ar  
 39  20  22  ar  
 40  21  23  ar  
 41  22  24  ar  
 42  22  25  1   
 43  23  24  ar  
 44  23  26  1   
 45  24  43  1   
 46  25  44  1   
 47  25  45  1   
 48  25  46  1   
 49  26  47  1   
 50  26  48  1   
 51  26  49  1   
@<TRIPOS>SUBSTRUCTURE
  1 ****   9 GROUP 4 **** **** 0

# MOE 2024.06 (io_trps.svl 2023.06)
