@<TRIPOS>MOLECULE
NONAME
46 48 1 0 0 
SMALL
USER_CHARGES


@<TRIPOS>ATOM
  1 S       -0.6280     1.2980     0.7510 S.o2  1 <1>   1.5000 
  2 O       -1.5880     2.3820     0.8000 O.2   1 <1>  -0.6500 
  3 O        0.0310     0.9180     1.9850 O.2   1 <1>  -0.6500 
  4 N       -1.4480    -0.0790     0.1990 N.am  1 <1>  -0.8490 
  5 C        0.5890     1.6400    -0.5440 C.2   1 <1>  -0.0220 
  6 C       -0.6140    -1.2930     0.2830 C.3   1 <1>   0.1960 
  7 C       -2.7420    -0.2560     0.8490 C.3   1 <1>   0.1960 
  8 S        1.9220     2.7270    -0.1580 S.3   1 <1>  -0.0800 
  9 C        0.7030     1.2400    -1.8280 C.2   1 <1>  -0.1500 
 10 C       -1.2740    -2.5280    -0.3600 C.3   1 <1>  -0.1060 
 11 C       -3.5020    -1.4050     0.1920 C.3   1 <1>  -0.1600 
 12 C        2.6010     2.5790    -1.7710 C.2   1 <1>  -0.1400 
 13 C        1.8390     1.7640    -2.5210 C.2   1 <1>  -0.1500 
 14 C       -1.3250    -2.3200    -1.8790 C.2   1 <1>   0.9060 
 15 C       -2.6800    -2.6890     0.2670 C.3   1 <1>   0.2000 
 16 C       -0.3990    -3.7890    -0.1180 C.3   1 <1>  -0.0650 
 17 C        3.8740     3.3430    -2.0800 C.3   1 <1>   0.0200 
 18 O       -2.3190    -2.6900    -2.5260 O.co2 1 <1>  -0.9000 
 19 O       -0.3250    -1.8710    -2.4540 O.co2 1 <1>  -0.9000 
 20 O       -3.3860    -3.6790    -0.3790 O.3   1 <1>  -0.6800 
 21 C       -0.1270    -4.1530     1.3520 C.3   1 <1>  -0.1950 
 22 C        5.0670     2.7520    -1.3260 C.3   1 <1>  -0.2400 
 23 C        1.0290    -3.5750     2.1080 C.3   1 <1>  -0.2000 
 24 C        1.0460    -5.0170     1.6900 C.3   1 <1>  -0.2000 
 25 H        0.3350    -1.1170    -0.1960 H     1 <1>   0.0800 
 26 H       -0.4190    -1.4960     1.3210 H     1 <1>   0.0800 
 27 H       -2.6010    -0.4500     1.9000 H     1 <1>   0.0800 
 28 H       -3.3280     0.6430     0.7450 H     1 <1>   0.0800 
 29 H        0.0180     0.5720    -2.3270 H     1 <1>   0.1500 
 30 H       -3.7030    -1.1480    -0.8330 H     1 <1>   0.0800 
 31 H       -4.4380    -1.5490     0.6990 H     1 <1>   0.0800 
 32 H        2.0180     1.4900    -3.5460 H     1 <1>   0.1500 
 33 H       -2.5980    -2.9780     1.2990 H     1 <1>   0.0800 
 34 H       -0.8770    -4.6300    -0.5920 H     1 <1>   0.0800 
 35 H        0.5430    -3.6500    -0.6220 H     1 <1>   0.0800 
 36 H        4.0640     3.2930    -3.1380 H     1 <1>   0.0800 
 37 H        3.7440     4.3770    -1.8130 H     1 <1>   0.0800 
 38 H       -3.2310    -3.5040    -1.3570 H     1 <1>   0.4000 
 39 H       -1.0280    -4.3780     1.8960 H     1 <1>   0.1000 
 40 H        5.1840     1.7130    -1.5780 H     1 <1>   0.0800 
 41 H        4.9170     2.8340    -0.2640 H     1 <1>   0.0800 
 42 H        5.9680     3.2780    -1.5880 H     1 <1>   0.0800 
 43 H        1.6940    -2.8910     1.6090 H     1 <1>   0.1000 
 44 H        0.8920    -3.3320     3.1470 H     1 <1>   0.1000 
 45 H        0.9250    -5.7770     2.4420 H     1 <1>   0.1000 
 46 H        1.7150    -5.3170     0.9030 H     1 <1>   0.1000 
@<TRIPOS>BOND
  1   1   2  2   
  2   1   3  2   
  3   1   4  am  
  4   1   5  1   
  5   4   6  1   
  6   4   7  1   
  7   5   8  1   
  8   5   9  2   
  9   6  10  1   
 10   6  25  1   
 11   6  26  1   
 12   7  11  1   
 13   7  27  1   
 14   7  28  1   
 15   8  12  1   
 16   9  13  1   
 17   9  29  1   
 18  10  14  1   
 19  10  15  1   
 20  10  16  1   
 21  11  15  1   
 22  11  30  1   
 23  11  31  1   
 24  12  13  2   
 25  12  17  1   
 26  13  32  1   
 27  14  18  ar  
 28  14  19  ar  
 29  15  20  1   
 30  15  33  1   
 31  16  21  1   
 32  16  34  1   
 33  16  35  1   
 34  17  22  1   
 35  17  36  1   
 36  17  37  1   
 37  20  38  1   
 38  21  23  1   
 39  21  24  1   
 40  21  39  1   
 41  22  40  1   
 42  22  41  1   
 43  22  42  1   
 44  23  24  1   
 45  23  43  1   
 46  23  44  1   
 47  24  45  1   
 48  24  46  1   
@<TRIPOS>SUBSTRUCTURE
  1 ****   6 GROUP 4 **** **** 0

# MOE 2024.06 (io_trps.svl 2023.06)
