@<TRIPOS>MOLECULE
NONAME
45 48 1 0 0 
SMALL
USER_CHARGES


@<TRIPOS>ATOM
  1 CL      -2.7060    -0.8800     1.3250 Cl    1 <1>  -0.1770 
  2 C       -1.8540    -2.3330     0.8500 C.ar  1 <1>   0.1770 
  3 C       -0.8170    -2.8350     1.6280 C.ar  1 <1>   0.0830 
  4 C       -2.2400    -2.9690    -0.3150 C.ar  1 <1>  -0.1500 
  5 O       -0.4360    -2.2210     2.7650 O.3   1 <1>  -0.5330 
  6 C       -0.1630    -3.9890     1.2240 C.ar  1 <1>  -0.1500 
  7 C       -1.5910    -4.1290    -0.7160 C.ar  1 <1>  -0.1440 
  8 C       -0.5510    -4.6280     0.0570 C.ar  1 <1>  -0.1500 
  9 C       -2.0140    -4.8480    -1.9950 C.3   1 <1>   0.0440 
 10 C       -2.2090    -6.3490    -1.8070 C.2   1 <1>   0.5690 
 11 O       -1.3340    -7.0720    -2.2250 O.2   1 <1>  -0.5700 
 12 N       -3.3350    -6.8550    -1.2030 N.am  1 <1>  -0.6600 
 13 C       -3.5530    -8.3340    -1.1540 C.3   1 <1>   0.1400 
 14 C       -4.3730    -5.9990    -0.5500 C.3   1 <1>   0.1400 
 15 C       -5.0420    -8.6560    -1.2810 C.3   1 <1>  -0.1600 
 16 C       -5.1640    -6.8040     0.4790 C.3   1 <1>  -0.1600 
 17 C       -5.8940    -7.9810    -0.1890 C.3   1 <1>   0.4600 
 18 O       -7.0330    -7.4720    -0.8580 O.3   1 <1>  -0.5600 
 19 C       -6.3530    -9.0010     0.8480 C.2   1 <1>  -0.1400 
 20 C       -8.2140    -7.2600    -0.1170 C.3   1 <1>   0.1200 
 21 S       -5.2260    -9.9680     1.7870 S.3   1 <1>  -0.0800 
 22 C       -7.6180    -9.2980     1.1730 C.2   1 <1>  -0.1810 
 23 C       -8.7520    -8.5720     0.4860 C.3   1 <1>   0.0210 
 24 C       -6.5560   -10.7780     2.6060 C.2   1 <1>  -0.1100 
 25 C       -7.7440   -10.3150     2.1710 C.2   1 <1>  -0.1500 
 26 H       -3.0430    -2.5500    -0.8940 H     1 <1>   0.1500 
 27 H        0.3140    -2.6530     3.2100 H     1 <1>   0.4500 
 28 H        0.6430    -4.3940     1.8080 H     1 <1>   0.1500 
 29 H       -0.0370    -5.5250    -0.2490 H     1 <1>   0.1500 
 30 H       -1.2530    -4.6970    -2.7390 H     1 <1>   0.0800 
 31 H       -2.9230    -4.4300    -2.3830 H     1 <1>   0.0800 
 32 H       -3.1680    -8.7160    -0.2230 H     1 <1>   0.0800 
 33 H       -3.0170    -8.8140    -1.9560 H     1 <1>   0.0800 
 34 H       -5.0430    -5.6180    -1.3020 H     1 <1>   0.0800 
 35 H       -3.9070    -5.1700    -0.0500 H     1 <1>   0.0800 
 36 H       -5.1750    -9.7220    -1.2410 H     1 <1>   0.0800 
 37 H       -5.3650    -8.3300    -2.2540 H     1 <1>   0.0800 
 38 H       -5.8610    -6.1700     0.9910 H     1 <1>   0.0800 
 39 H       -4.4760    -7.1730     1.2170 H     1 <1>   0.0800 
 40 H       -8.9440    -6.8320    -0.7820 H     1 <1>   0.0800 
 41 H       -8.0050    -6.5510     0.6640 H     1 <1>   0.0800 
 42 H       -9.1630    -9.1910    -0.2910 H     1 <1>   0.0800 
 43 H       -9.5300    -8.3470     1.1920 H     1 <1>   0.0800 
 44 H       -6.3030   -11.5270     3.3350 H     1 <1>   0.1500 
 45 H       -8.7090   -10.6470     2.5110 H     1 <1>   0.1500 
@<TRIPOS>BOND
  1   1   2  1   
  2   2   3  ar  
  3   2   4  ar  
  4   3   5  1   
  5   3   6  ar  
  6   4   7  ar  
  7   4  26  1   
  8   5  27  1   
  9   6   8  ar  
 10   6  28  1   
 11   7   8  ar  
 12   7   9  1   
 13   8  29  1   
 14   9  10  1   
 15   9  30  1   
 16   9  31  1   
 17  10  11  2   
 18  10  12  am  
 19  12  13  1   
 20  12  14  1   
 21  13  15  1   
 22  13  32  1   
 23  13  33  1   
 24  14  16  1   
 25  14  34  1   
 26  14  35  1   
 27  15  17  1   
 28  15  36  1   
 29  15  37  1   
 30  16  17  1   
 31  16  38  1   
 32  16  39  1   
 33  17  18  1   
 34  17  19  1   
 35  18  20  1   
 36  19  21  1   
 37  19  22  2   
 38  20  23  1   
 39  20  40  1   
 40  20  41  1   
 41  21  24  1   
 42  22  23  1   
 43  22  25  1   
 44  23  42  1   
 45  23  43  1   
 46  24  25  2   
 47  24  44  1   
 48  25  45  1   
@<TRIPOS>SUBSTRUCTURE
  1 ****  14 GROUP 4 **** **** 0

# MOE 2024.06 (io_trps.svl 2023.06)
