@<TRIPOS>MOLECULE
NONAME
52 55 1 0 0 
SMALL
USER_CHARGES


@<TRIPOS>ATOM
  1 O        3.3200    -1.7610    -2.6060 O.2   1 <1>  -0.5700 
  2 C        2.5140    -1.9300    -1.7050 C.2   1 <1>   0.5440 
  3 N        1.8840    -0.7990    -1.2110 N.am  1 <1>  -0.6600 
  4 C        2.2990    -3.2910    -1.1990 C.ar  1 <1>   0.3960 
  5 C        2.2150     0.5670    -1.6760 C.3   1 <1>   0.1400 
  6 C        0.9310    -0.7490    -0.0780 C.3   1 <1>   0.1400 
  7 N        1.1340    -3.6560    -0.6360 N.ar  1 <1>  -0.6200 
  8 C        3.3520    -4.2030    -1.3300 C.ar  1 <1>   0.1600 
  9 C        1.7390     1.4820    -0.5560 C.3   1 <1>  -0.1600 
 10 C        0.5810     0.7260     0.0880 C.3   1 <1>  -0.1600 
 11 C        1.0960    -4.9150    -0.2320 C.ar  1 <1>   0.4100 
 12 N        3.3430    -5.4650    -0.9250 N.ar  1 <1>  -0.6200 
 13 N       -0.0890    -5.3550     0.3410 N.pl3 1 <1>  -0.8380 
 14 C        2.1900    -5.7820    -0.3740 C.ar  1 <1>   0.1600 
 15 C       -0.8250    -6.4640    -0.3410 C.3   1 <1>   0.2090 
 16 C       -0.9940    -4.3760     1.0040 C.3   1 <1>   0.2090 
 17 C       -1.7000    -7.2270     0.6650 C.3   1 <1>   0.2000 
 18 C       -1.8750    -5.1030     2.0270 C.3   1 <1>  -0.1600 
 19 O       -2.4420    -8.1720    -0.0450 O.3   1 <1>  -0.5600 
 20 C       -2.6550    -6.2710     1.3990 C.3   1 <1>  -0.1600 
 21 C       -2.9030    -9.2610     0.6950 C.3   1 <1>   0.2640 
 22 C       -3.5960   -10.2370    -0.2400 C.ar  1 <1>  -0.1430 
 23 C       -3.0560   -10.5260    -1.4860 C.ar  1 <1>   0.1600 
 24 C       -4.7690   -10.8630     0.1340 C.ar  1 <1>  -0.1500 
 25 N       -3.5730   -11.3740    -2.3620 N.ar  1 <1>  -0.6200 
 26 C       -5.3250   -11.7450    -0.7680 C.ar  1 <1>  -0.1500 
 27 C       -4.6960   -11.9610    -1.9820 C.ar  1 <1>   0.1600 
 28 H        1.6750     0.7650    -2.5860 H     1 <1>   0.0800 
 29 H        3.2720     0.6730    -1.8540 H     1 <1>   0.0800 
 30 H        1.4110    -1.1290     0.8070 H     1 <1>   0.0800 
 31 H        0.0500    -1.3290    -0.2940 H     1 <1>   0.0800 
 32 H        4.2600    -3.8600    -1.7970 H     1 <1>   0.1500 
 33 H        1.4460     2.4480    -0.9270 H     1 <1>   0.0800 
 34 H        2.5370     1.6050     0.1550 H     1 <1>   0.0800 
 35 H        0.4430     0.9900     1.1210 H     1 <1>   0.0800 
 36 H       -0.3290     0.9300    -0.4490 H     1 <1>   0.0800 
 37 H        2.0780    -6.7820    -0.0010 H     1 <1>   0.1500 
 38 H       -0.1310    -7.1470    -0.7980 H     1 <1>   0.0800 
 39 H       -1.4500    -6.0450    -1.1100 H     1 <1>   0.0800 
 40 H       -1.6070    -3.8970     0.2580 H     1 <1>   0.0800 
 41 H       -0.4110    -3.6190     1.5020 H     1 <1>   0.0800 
 42 H       -1.0540    -7.7360     1.3610 H     1 <1>   0.0800 
 43 H       -2.5650    -4.4000     2.4590 H     1 <1>   0.0800 
 44 H       -1.2450    -5.4700     2.8190 H     1 <1>   0.0800 
 45 H       -3.1860    -6.7930     2.1740 H     1 <1>   0.0800 
 46 H       -3.3680    -5.8790     0.6940 H     1 <1>   0.0800 
 47 H       -3.5910    -8.9060     1.4420 H     1 <1>   0.0800 
 48 H       -2.0650    -9.7420     1.1680 H     1 <1>   0.0800 
 49 H       -2.1470   -10.0290    -1.7780 H     1 <1>   0.1500 
 50 H       -5.2360   -10.6780     1.0860 H     1 <1>   0.1500 
 51 H       -6.2370   -12.2630    -0.5350 H     1 <1>   0.1500 
 52 H       -5.1390   -12.6530    -2.6770 H     1 <1>   0.1500 
@<TRIPOS>BOND
  1   1   2  2   
  2   2   3  am  
  3   2   4  1   
  4   3   5  1   
  5   3   6  1   
  6   4   7  ar  
  7   4   8  ar  
  8   5   9  1   
  9   5  28  1   
 10   5  29  1   
 11   6  10  1   
 12   6  30  1   
 13   6  31  1   
 14   7  11  ar  
 15   8  12  ar  
 16   8  32  1   
 17   9  10  1   
 18   9  33  1   
 19   9  34  1   
 20  10  35  1   
 21  10  36  1   
 22  11  13  1   
 23  11  14  ar  
 24  12  14  ar  
 25  13  15  1   
 26  13  16  1   
 27  14  37  1   
 28  15  17  1   
 29  15  38  1   
 30  15  39  1   
 31  16  18  1   
 32  16  40  1   
 33  16  41  1   
 34  17  19  1   
 35  17  20  1   
 36  17  42  1   
 37  18  20  1   
 38  18  43  1   
 39  18  44  1   
 40  19  21  1   
 41  20  45  1   
 42  20  46  1   
 43  21  22  1   
 44  21  47  1   
 45  21  48  1   
 46  22  23  ar  
 47  22  24  ar  
 48  23  25  ar  
 49  23  49  1   
 50  24  26  ar  
 51  24  50  1   
 52  25  27  ar  
 53  26  27  ar  
 54  26  51  1   
 55  27  52  1   
@<TRIPOS>SUBSTRUCTURE
  1 ****  13 GROUP 4 **** **** 0

# MOE 2024.06 (io_trps.svl 2023.06)
