@<TRIPOS>MOLECULE
NONAME
45 47 1 0 0 
SMALL
USER_CHARGES


@<TRIPOS>ATOM
  1 S        1.7470     0.0680    -1.0980 S.3   1 <1>  -0.0800 
  2 C        0.9430    -0.9980     0.0310 C.2   1 <1>  -0.1100 
  3 C        2.4810    -1.2940    -1.9180 C.2   1 <1>  -0.1100 
  4 C        1.2080    -2.3040    -0.2250 C.2   1 <1>  -0.0860 
  5 C        2.1050    -2.4500    -1.3430 C.2   1 <1>  -0.1500 
  6 C        0.7030    -3.4540     0.4980 C.2   1 <1>   0.7160 
  7 O        1.4700    -4.3570     0.7780 O.2   1 <1>  -0.5700 
  8 N       -0.6240    -3.5660     0.8690 N.am  1 <1>  -0.6600 
  9 C       -1.7060    -2.8540     0.1250 C.3   1 <1>   0.2200 
 10 C       -1.0090    -4.6040     1.8760 C.3   1 <1>   0.0600 
 11 C       -2.4980    -1.8850     1.0020 C.3   1 <1>  -0.1600 
 12 C       -2.7650    -3.7820    -0.4720 C.3   1 <1>  -0.1600 
 13 C       -3.8190    -1.6790     0.2470 C.3   1 <1>  -0.0800 
 14 C       -3.9800    -2.8720    -0.7020 C.3   1 <1>  -0.0800 
 15 C       -5.0820    -1.6660     1.1200 C.3   1 <1>  -0.1600 
 16 C       -5.3430    -3.4970    -0.3660 C.3   1 <1>  -0.1600 
 17 C       -6.1580    -2.3780     0.2920 C.3   1 <1>   0.4230 
 18 N       -6.7340    -1.4580    -0.7440 N.4   1 <1>  -0.9590 
 19 C       -7.4190    -0.2670    -0.1450 C.3   1 <1>   0.2630 
 20 C       -7.7040    -2.1500    -1.6550 C.3   1 <1>   0.2630 
 21 H        0.3440    -0.5420     0.7970 H     1 <1>   0.1500 
 22 H        3.1280    -1.0820    -2.7510 H     1 <1>   0.1500 
 23 H        2.4240    -3.4320    -1.6510 H     1 <1>   0.1500 
 24 H       -1.2830    -2.2950    -0.6920 H     1 <1>   0.0800 
 25 H       -1.9070    -4.3270     2.3960 H     1 <1>   0.0800 
 26 H       -0.2210    -4.7230     2.6010 H     1 <1>   0.0800 
 27 H       -1.1580    -5.5480     1.3820 H     1 <1>   0.0800 
 28 H       -2.6760    -2.3210     1.9670 H     1 <1>   0.0800 
 29 H       -1.9730    -0.9560     1.1280 H     1 <1>   0.0800 
 30 H       -2.4190    -4.2210    -1.3920 H     1 <1>   0.0800 
 31 H       -3.0150    -4.5650     0.2180 H     1 <1>   0.0800 
 32 H       -3.7600    -0.7750    -0.3380 H     1 <1>   0.0800 
 33 H       -3.9710    -2.5140    -1.7180 H     1 <1>   0.0800 
 34 H       -5.3420    -0.6790     1.4510 H     1 <1>   0.0800 
 35 H       -4.9150    -2.2630     2.0000 H     1 <1>   0.0800 
 36 H       -5.2120    -4.2680     0.3740 H     1 <1>   0.0800 
 37 H       -5.8040    -3.9540    -1.2200 H     1 <1>   0.0800 
 38 H       -6.9410    -2.7750     0.9190 H     1 <1>   0.0800 
 39 H       -5.9370    -1.1280    -1.3060 H     1 <1>   0.4500 
 40 H       -8.2020    -0.5820     0.5260 H     1 <1>   0.0800 
 41 H       -7.8560     0.3410    -0.9210 H     1 <1>   0.0800 
 42 H       -6.7200     0.3430     0.4020 H     1 <1>   0.0800 
 43 H       -8.5070    -2.5880    -1.0840 H     1 <1>   0.0800 
 44 H       -7.2150    -2.9270    -2.2170 H     1 <1>   0.0800 
 45 H       -8.1240    -1.4460    -2.3550 H     1 <1>   0.0800 
@<TRIPOS>BOND
  1   1   2  1   
  2   1   3  1   
  3   2   4  2   
  4   2  21  1   
  5   3   5  2   
  6   3  22  1   
  7   4   5  1   
  8   4   6  1   
  9   5  23  1   
 10   6   7  2   
 11   6   8  am  
 12   8   9  1   
 13   8  10  1   
 14   9  11  1   
 15   9  12  1   
 16   9  24  1   
 17  10  25  1   
 18  10  26  1   
 19  10  27  1   
 20  11  13  1   
 21  11  28  1   
 22  11  29  1   
 23  12  14  1   
 24  12  30  1   
 25  12  31  1   
 26  13  14  1   
 27  13  15  1   
 28  13  32  1   
 29  14  16  1   
 30  14  33  1   
 31  15  17  1   
 32  15  34  1   
 33  15  35  1   
 34  16  17  1   
 35  16  36  1   
 36  16  37  1   
 37  17  18  1   
 38  17  38  1   
 39  18  19  1   
 40  18  20  1   
 41  18  39  1   
 42  19  40  1   
 43  19  41  1   
 44  19  42  1   
 45  20  43  1   
 46  20  44  1   
 47  20  45  1   
@<TRIPOS>SUBSTRUCTURE
  1 ****   9 GROUP 4 **** **** 0

# MOE 2024.06 (io_trps.svl 2023.06)
