@<TRIPOS>MOLECULE
NONAME
52 54 1 0 0 
SMALL
USER_CHARGES


@<TRIPOS>ATOM
  1 O        0.3180     1.1330    -0.9990 O.3   1 <1>  -0.5600 
  2 C        1.4110     0.2580    -1.1610 C.3   1 <1>   0.2000 
  3 C        0.6210     2.4800    -0.7970 C.3   1 <1>   0.1200 
  4 C        2.4670     0.4060    -0.0180 C.3   1 <1>   0.5660 
  5 C        0.7930    -1.1510    -1.2140 C.3   1 <1>   0.1200 
  6 C        1.4170     2.6330     0.5060 C.3   1 <1>   0.3430 
  7 N        2.6610     1.8160     0.4420 N.4   1 <1>  -0.9590 
  8 C        3.8500    -0.0820    -0.4430 C.ar  1 <1>  -0.1430 
  9 O        1.7480    -2.1410    -1.0280 O.3   1 <1>  -0.6800 
 10 C        3.5090     1.9450     1.6540 C.3   1 <1>   0.5240 
 11 C        4.4130    -1.1810     0.1930 C.ar  1 <1>  -0.1500 
 12 C        4.5720     0.5620    -1.4420 C.ar  1 <1>  -0.1500 
 13 C        4.1210     3.3390     1.6060 C.2   1 <1>   0.0460 
 14 C        5.6760    -1.6240    -0.1570 C.ar  1 <1>  -0.1500 
 15 C        5.8350     0.1180    -1.7900 C.ar  1 <1>  -0.1500 
 16 N        4.4360     3.8960     0.4140 N.2   1 <1>  -0.5650 
 17 C        4.4130     4.1810     2.6210 C.2   1 <1>  -0.3020 
 18 C        6.3880    -0.9740    -1.1470 C.ar  1 <1>  -0.1500 
 19 C        4.9220     5.0530     0.7280 C.2   1 <1>   0.0060 
 20 N        4.9360     5.2880     2.0590 N.pl3 1 <1>   0.0330 
 21 C        5.4360     6.0630    -0.2830 C.3   1 <1>   0.0200 
 22 C        4.4820     7.2570    -0.4110 C.3   1 <1>  -0.1600 
 23 C        4.9850     8.2700    -1.4470 C.3   1 <1>  -0.1600 
 24 C        4.0240     9.4560    -1.5680 C.3   1 <1>  -0.2400 
 25 H        1.8630     0.4800    -2.1110 H     1 <1>   0.0800 
 26 H        1.1750     2.8510    -1.6430 H     1 <1>   0.0800 
 27 H       -0.3080     3.0190    -0.7280 H     1 <1>   0.0800 
 28 H        2.1270    -0.1930     0.8100 H     1 <1>   0.0800 
 29 H        0.3030    -1.3210    -2.1570 H     1 <1>   0.0800 
 30 H        0.0740    -1.2600    -0.4200 H     1 <1>   0.0800 
 31 H        0.8010     2.3150     1.3310 H     1 <1>   0.0800 
 32 H        1.6700     3.6720     0.6510 H     1 <1>   0.0800 
 33 H        3.2700     2.2780    -0.2530 H     1 <1>   0.4500 
 34 H        2.2160    -2.3560    -1.8630 H     1 <1>   0.4000 
 35 H        2.9340     1.8060     2.5540 H     1 <1>   0.0800 
 36 H        4.3080     1.2230     1.6260 H     1 <1>   0.0800 
 37 H        3.8730    -1.7110     0.9600 H     1 <1>   0.1500 
 38 H        4.1740     1.4150    -1.9640 H     1 <1>   0.1500 
 39 H        6.1060    -2.4790     0.3390 H     1 <1>   0.1500 
 40 H        6.3930     0.6210    -2.5620 H     1 <1>   0.1500 
 41 H        4.2930     4.0690     3.6850 H     1 <1>   0.1500 
 42 H        7.3720    -1.3190    -1.4190 H     1 <1>   0.1500 
 43 H        5.2800     6.1320     2.5290 H     1 <1>   0.2700 
 44 H        6.4130     6.4000     0.0160 H     1 <1>   0.0800 
 45 H        5.5350     5.5780    -1.2390 H     1 <1>   0.0800 
 46 H        3.5100     6.8980    -0.7050 H     1 <1>   0.0800 
 47 H        4.3820     7.7440     0.5430 H     1 <1>   0.0800 
 48 H        5.9580     8.6330    -1.1610 H     1 <1>   0.0800 
 49 H        5.0770     7.7930    -2.4090 H     1 <1>   0.0800 
 50 H        3.9330     9.9670    -0.6250 H     1 <1>   0.0800 
 51 H        3.0490     9.1230    -1.8780 H     1 <1>   0.0800 
 52 H        4.3930    10.1540    -2.2990 H     1 <1>   0.0800 
@<TRIPOS>BOND
  1   1   2  1   
  2   1   3  1   
  3   2   4  1   
  4   2   5  1   
  5   2  25  1   
  6   3   6  1   
  7   3  26  1   
  8   3  27  1   
  9   4   7  1   
 10   4   8  1   
 11   4  28  1   
 12   5   9  1   
 13   5  29  1   
 14   5  30  1   
 15   6   7  1   
 16   6  31  1   
 17   6  32  1   
 18   7  10  1   
 19   7  33  1   
 20   8  11  ar  
 21   8  12  ar  
 22   9  34  1   
 23  10  13  1   
 24  10  35  1   
 25  10  36  1   
 26  11  14  ar  
 27  11  37  1   
 28  12  15  ar  
 29  12  38  1   
 30  13  16  1   
 31  13  17  2   
 32  14  18  ar  
 33  14  39  1   
 34  15  18  ar  
 35  15  40  1   
 36  16  19  2   
 37  17  20  1   
 38  17  41  1   
 39  18  42  1   
 40  19  20  1   
 41  19  21  1   
 42  20  43  1   
 43  21  22  1   
 44  21  44  1   
 45  21  45  1   
 46  22  23  1   
 47  22  46  1   
 48  22  47  1   
 49  23  24  1   
 50  23  48  1   
 51  23  49  1   
 52  24  50  1   
 53  24  51  1   
 54  24  52  1   
@<TRIPOS>SUBSTRUCTURE
  1 ****   7 GROUP 4 **** **** 0

# MOE 2024.06 (io_trps.svl 2023.06)
