@<TRIPOS>MOLECULE
NONAME
43 45 1 0 0 
SMALL
USER_CHARGES


@<TRIPOS>ATOM
  1 O        0.3560     0.6900    -0.1940 O.2   1 <1>  -0.5700 
  2 C        0.9430     1.7410    -0.0700 C.2   1 <1>   0.5690 
  3 N        0.3060     2.9460    -0.2020 N.am  1 <1>  -0.6600 
  4 C        2.4360     1.6820     0.2300 C.3   1 <1>  -0.0190 
  5 C        1.0320     4.2450    -0.1260 C.3   1 <1>   0.2200 
  6 C       -1.1650     3.0390    -0.4180 C.3   1 <1>   0.0600 
  7 C        3.2490     2.2150    -0.9600 C.3   1 <1>   0.1100 
  8 C        2.8500     2.2910     1.5960 C.3   1 <1>  -0.1600 
  9 C        2.1000     4.3660    -1.2370 C.3   1 <1>   0.1100 
 10 C        1.5710     4.5310     1.2940 C.3   1 <1>  -0.1600 
 11 N        3.3880     3.6810    -0.9630 N.3   1 <1>  -0.8100 
 12 C        1.8680     3.3140     2.1930 C.3   1 <1>  -0.1600 
 13 C        4.4070     4.1060    -1.9480 C.3   1 <1>   0.2900 
 14 C        4.8540     5.5250    -1.6540 C.2   1 <1>   0.0070 
 15 N        5.1060     6.4440    -2.5210 N.2   1 <1>  -0.3380 
 16 N        5.0190     5.9690    -0.4130 N.pl3 1 <1>   0.0330 
 17 N        5.4480     7.5390    -1.8340 N.2   1 <1>  -0.3380 
 18 C        5.3870     7.2370    -0.5830 C.2   1 <1>   0.0060 
 19 C        5.6890     8.1910     0.5590 C.3   1 <1>   0.0200 
 20 C        4.4610     8.4110     1.4490 C.3   1 <1>  -0.2400 
 21 H        2.6760     0.6350     0.2830 H     1 <1>   0.0800 
 22 H        0.3170     5.0200    -0.3440 H     1 <1>   0.0800 
 23 H       -1.6120     3.6180     0.3700 H     1 <1>   0.0800 
 24 H       -1.6150     2.0610    -0.4190 H     1 <1>   0.0800 
 25 H       -1.3650     3.5080    -1.3650 H     1 <1>   0.0800 
 26 H        2.8040     1.8820    -1.8840 H     1 <1>   0.0800 
 27 H        4.2310     1.7790    -0.8950 H     1 <1>   0.0800 
 28 H        2.9340     1.4850     2.3040 H     1 <1>   0.0800 
 29 H        3.8270     2.7350     1.5180 H     1 <1>   0.0800 
 30 H        2.2930     5.4190    -1.3580 H     1 <1>   0.0800 
 31 H        1.6830     4.0150    -2.1660 H     1 <1>   0.0800 
 32 H        2.4550     5.1370     1.2160 H     1 <1>   0.0800 
 33 H        0.8380     5.1330     1.8010 H     1 <1>   0.0800 
 34 H        2.2720     3.6700     3.1250 H     1 <1>   0.0800 
 35 H        0.9420     2.8180     2.4310 H     1 <1>   0.0800 
 36 H        5.2720     3.4680    -1.8810 H     1 <1>   0.0800 
 37 H        4.0170     4.0420    -2.9500 H     1 <1>   0.0800 
 38 H        4.8560     5.4350     0.4430 H     1 <1>   0.2700 
 39 H        6.5030     7.8010     1.1430 H     1 <1>   0.0800 
 40 H        6.0020     9.1350     0.1460 H     1 <1>   0.0800 
 41 H        4.1560     7.4910     1.9130 H     1 <1>   0.0800 
 42 H        3.6450     8.7910     0.8580 H     1 <1>   0.0800 
 43 H        4.6890     9.1260     2.2190 H     1 <1>   0.0800 
@<TRIPOS>BOND
  1   1   2  2   
  2   2   3  am  
  3   2   4  1   
  4   3   5  1   
  5   3   6  1   
  6   4   7  1   
  7   4   8  1   
  8   4  21  1   
  9   5   9  1   
 10   5  10  1   
 11   5  22  1   
 12   6  23  1   
 13   6  24  1   
 14   6  25  1   
 15   7  11  1   
 16   7  26  1   
 17   7  27  1   
 18   8  12  1   
 19   8  28  1   
 20   8  29  1   
 21   9  11  1   
 22   9  30  1   
 23   9  31  1   
 24  10  12  1   
 25  10  32  1   
 26  10  33  1   
 27  11  13  1   
 28  12  34  1   
 29  12  35  1   
 30  13  14  1   
 31  13  36  1   
 32  13  37  1   
 33  14  15  2   
 34  14  16  1   
 35  15  17  1   
 36  16  18  1   
 37  16  38  1   
 38  17  18  2   
 39  18  19  1   
 40  19  20  1   
 41  19  39  1   
 42  19  40  1   
 43  20  41  1   
 44  20  42  1   
 45  20  43  1   
@<TRIPOS>SUBSTRUCTURE
  1 ****  11 GROUP 4 **** **** 0

# MOE 2024.06 (io_trps.svl 2023.06)
