@<TRIPOS>MOLECULE
NONAME
51 54 1 0 0 
SMALL
USER_CHARGES


@<TRIPOS>ATOM
  1 CL      -2.6520     0.2100    -1.3550 Cl    1 <1>  -0.1770 
  2 C       -1.7540     1.6690    -0.9900 C.ar  1 <1>   0.1770 
  3 C       -2.3190     2.6010    -0.1180 C.ar  1 <1>   0.1000 
  4 C       -0.5220     1.8630    -1.5710 C.ar  1 <1>  -0.1500 
  5 N       -3.5690     2.3860     0.4670 N.pl3 1 <1>  -0.6000 
  6 C       -1.6060     3.7750     0.1730 C.ar  1 <1>   0.0860 
  7 C        0.1850     3.0230    -1.2830 C.ar  1 <1>  -0.1500 
  8 C       -4.1460     3.3000     1.3240 C.2   1 <1>  -0.0380 
  9 C       -2.2000     4.7310     1.0710 C.2   1 <1>   0.4690 
 10 C       -0.3520     3.9600    -0.4250 C.ar  1 <1>  -0.1500 
 11 C       -3.4740     4.4400     1.6230 C.2   1 <1>  -0.1360 
 12 C       -5.5310     3.0060     1.8900 C.3   1 <1>   0.4810 
 13 O       -1.6500     5.7850     1.3540 O.2   1 <1>  -0.5700 
 14 N       -6.5190     3.0680     0.7800 N.4   1 <1>  -0.9590 
 15 C       -7.8540     2.5230     1.1630 C.3   1 <1>   0.3430 
 16 C       -6.6320     4.4540     0.2160 C.3   1 <1>   0.3430 
 17 C       -8.7060     2.2530    -0.0920 C.3   1 <1>   0.0000 
 18 C       -7.8900     4.6230    -0.6470 C.3   1 <1>  -0.1600 
 19 C      -10.1850     2.2170     0.3250 C.3   1 <1>   0.2000 
 20 C       -8.4140     3.2950    -1.2170 C.3   1 <1>  -0.1600 
 21 C       -8.5250     0.8330    -0.6530 C.3   1 <1>  -0.1600 
 22 O      -10.6670     3.5110     0.5020 O.3   1 <1>  -0.5600 
 23 C      -10.9000     1.4470    -0.7880 C.3   1 <1>  -0.1600 
 24 C       -9.8280     0.5370    -1.4080 C.3   1 <1>  -0.1600 
 25 C      -11.9640     3.6000     1.0100 C.3   1 <1>   0.0400 
 26 H       -0.1130     1.1250    -2.2390 H     1 <1>   0.1500 
 27 H       -3.9770     1.4570     0.2790 H     1 <1>   0.4000 
 28 H        1.1520     3.1860    -1.7310 H     1 <1>   0.1500 
 29 H        0.1990     4.8600    -0.2020 H     1 <1>   0.1500 
 30 H       -3.8640     5.1890     2.2880 H     1 <1>   0.1500 
 31 H       -5.7820     3.7300     2.6490 H     1 <1>   0.0800 
 32 H       -5.5310     2.0260     2.3380 H     1 <1>   0.0800 
 33 H       -6.1600     2.4830     0.0160 H     1 <1>   0.4500 
 34 H       -7.7490     1.6120     1.7280 H     1 <1>   0.0800 
 35 H       -8.3670     3.2460     1.7780 H     1 <1>   0.0800 
 36 H       -6.6600     5.1790     1.0130 H     1 <1>   0.0800 
 37 H       -5.7600     4.6590    -0.3850 H     1 <1>   0.0800 
 38 H       -8.6600     5.0790    -0.0480 H     1 <1>   0.0800 
 39 H       -7.6780     5.3080    -1.4490 H     1 <1>   0.0800 
 40 H      -10.2920     1.6800     1.2540 H     1 <1>   0.0800 
 41 H       -7.6710     2.9140    -1.8960 H     1 <1>   0.0800 
 42 H       -9.2980     3.4850    -1.8020 H     1 <1>   0.0800 
 43 H       -7.6650     0.7270    -1.2910 H     1 <1>   0.0800 
 44 H       -8.4360     0.1270     0.1560 H     1 <1>   0.0800 
 45 H      -11.7130     0.8660    -0.3890 H     1 <1>   0.0800 
 46 H      -11.2760     2.1250    -1.5350 H     1 <1>   0.0800 
 47 H      -10.0960    -0.5030    -1.3240 H     1 <1>   0.0800 
 48 H       -9.7140     0.7780    -2.4520 H     1 <1>   0.0800 
 49 H      -12.1950     4.6410     1.1560 H     1 <1>   0.0800 
 50 H      -12.0190     3.0820     1.9520 H     1 <1>   0.0800 
 51 H      -12.6580     3.1780     0.3040 H     1 <1>   0.0800 
@<TRIPOS>BOND
  1   1   2  1   
  2   2   3  ar  
  3   2   4  ar  
  4   3   5  1   
  5   3   6  ar  
  6   4   7  ar  
  7   4  26  1   
  8   5   8  1   
  9   5  27  1   
 10   6   9  1   
 11   6  10  ar  
 12   7  10  ar  
 13   7  28  1   
 14   8  11  2   
 15   8  12  1   
 16   9  11  1   
 17   9  13  2   
 18  10  29  1   
 19  11  30  1   
 20  12  14  1   
 21  12  31  1   
 22  12  32  1   
 23  14  15  1   
 24  14  16  1   
 25  14  33  1   
 26  15  17  1   
 27  15  34  1   
 28  15  35  1   
 29  16  18  1   
 30  16  36  1   
 31  16  37  1   
 32  17  19  1   
 33  17  20  1   
 34  17  21  1   
 35  18  20  1   
 36  18  38  1   
 37  18  39  1   
 38  19  22  1   
 39  19  23  1   
 40  19  40  1   
 41  20  41  1   
 42  20  42  1   
 43  21  24  1   
 44  21  43  1   
 45  21  44  1   
 46  22  25  1   
 47  23  24  1   
 48  23  45  1   
 49  23  46  1   
 50  24  47  1   
 51  24  48  1   
 52  25  49  1   
 53  25  50  1   
 54  25  51  1   
@<TRIPOS>SUBSTRUCTURE
  1 ****  14 GROUP 4 **** **** 0

# MOE 2024.06 (io_trps.svl 2023.06)
