@<TRIPOS>MOLECULE
NONAME
48 51 1 0 0 
SMALL
USER_CHARGES


@<TRIPOS>ATOM
  1 S       -0.6420    -0.9060     1.6460 S.3   1 <1>  -0.0800 
  2 C       -0.9970     0.7490     1.2040 C.2   1 <1>  -0.1400 
  3 C       -2.0380    -1.4720     0.7440 C.2   1 <1>  -0.1100 
  4 C       -2.1000     0.8280     0.4440 C.2   1 <1>  -0.1810 
  5 C       -0.1090     1.8770     1.6800 C.3   1 <1>   0.0200 
  6 C       -2.7000    -0.4470     0.1650 C.2   1 <1>  -0.1810 
  7 C       -2.6210     2.1690    -0.0550 C.3   1 <1>   0.0210 
  8 C       -0.4520     3.1550     0.8940 C.3   1 <1>  -0.1600 
  9 C       -3.9500    -0.5490    -0.6970 C.3   1 <1>   0.3210 
 10 C       -1.9740     3.3360     0.7210 C.3   1 <1>  -0.1600 
 11 N       -4.2500    -1.9600    -0.9940 N.am  1 <1>  -0.7300 
 12 C       -5.4580    -2.5640    -0.8700 C.2   1 <1>   0.5690 
 13 O       -6.4460    -1.9290    -0.5890 O.2   1 <1>  -0.5700 
 14 C       -5.5520    -4.0810    -1.0730 C.3   1 <1>   0.2610 
 15 O       -4.2930    -4.5930    -1.5050 O.3   1 <1>  -0.5600 
 16 C       -6.0400    -4.7480     0.2450 C.3   1 <1>   0.3640 
 17 C       -4.2540    -5.9890    -1.6970 C.3   1 <1>   0.1810 
 18 N       -5.5170    -6.1250     0.4300 N.am  1 <1>  -0.7300 
 19 C       -7.5660    -4.8140     0.3050 C.ar  1 <1>  -0.1440 
 20 C       -4.7150    -6.7520    -0.4560 C.2   1 <1>   0.5690 
 21 C       -8.2680    -3.8800     1.0550 C.ar  1 <1>  -0.1500 
 22 C       -8.2760    -5.7920    -0.3810 C.ar  1 <1>  -0.1500 
 23 O       -4.3880    -7.8990    -0.2910 O.2   1 <1>  -0.5700 
 24 C       -9.6500    -3.9240     1.1220 C.ar  1 <1>  -0.1500 
 25 C       -9.6570    -5.8380    -0.3150 C.ar  1 <1>  -0.1500 
 26 C      -10.3460    -4.9040     0.4370 C.ar  1 <1>  -0.1500 
 27 H       -2.2160    -2.5320     0.7470 H     1 <1>   0.1500 
 28 H       -0.2770     2.0300     2.7310 H     1 <1>   0.0800 
 29 H        0.9250     1.6200     1.5310 H     1 <1>   0.0800 
 30 H       -2.3910     2.2600    -1.1010 H     1 <1>   0.0800 
 31 H       -3.6880     2.2190     0.0650 H     1 <1>   0.0800 
 32 H       -0.0330     4.0090     1.3980 H     1 <1>   0.0800 
 33 H        0.0010     3.0930    -0.0810 H     1 <1>   0.0800 
 34 H       -3.7930    -0.0260    -1.6230 H     1 <1>   0.0800 
 35 H       -4.7810    -0.0950    -0.1830 H     1 <1>   0.0800 
 36 H       -2.1770     4.2600     0.2090 H     1 <1>   0.0800 
 37 H       -2.4260     3.3950     1.6970 H     1 <1>   0.0800 
 38 H       -3.4470    -2.5380    -1.2580 H     1 <1>   0.3700 
 39 H       -6.2650    -4.2680    -1.8550 H     1 <1>   0.0800 
 40 H       -5.6880    -4.1550     1.0730 H     1 <1>   0.0800 
 41 H       -4.8840    -6.2390    -2.5320 H     1 <1>   0.0800 
 42 H       -3.2410    -6.2620    -1.9280 H     1 <1>   0.0800 
 43 H       -5.8750    -6.6530     1.2270 H     1 <1>   0.3700 
 44 H       -7.7450    -3.1030     1.5870 H     1 <1>   0.1500 
 45 H       -7.7600    -6.5310    -0.9710 H     1 <1>   0.1500 
 46 H      -10.1830    -3.1930     1.7040 H     1 <1>   0.1500 
 47 H      -10.1980    -6.6010    -0.8490 H     1 <1>   0.1500 
 48 H      -11.4200    -4.9380     0.4890 H     1 <1>   0.1500 
@<TRIPOS>BOND
  1   1   2  1   
  2   1   3  1   
  3   2   4  2   
  4   2   5  1   
  5   3   6  2   
  6   3  27  1   
  7   4   6  1   
  8   4   7  1   
  9   5   8  1   
 10   5  28  1   
 11   5  29  1   
 12   6   9  1   
 13   7  10  1   
 14   7  30  1   
 15   7  31  1   
 16   8  10  1   
 17   8  32  1   
 18   8  33  1   
 19   9  11  1   
 20   9  34  1   
 21   9  35  1   
 22  10  36  1   
 23  10  37  1   
 24  11  12  am  
 25  11  38  1   
 26  12  13  2   
 27  12  14  1   
 28  14  15  1   
 29  14  16  1   
 30  14  39  1   
 31  15  17  1   
 32  16  18  1   
 33  16  19  1   
 34  16  40  1   
 35  17  20  1   
 36  17  41  1   
 37  17  42  1   
 38  18  20  am  
 39  18  43  1   
 40  19  21  ar  
 41  19  22  ar  
 42  20  23  2   
 43  21  24  ar  
 44  21  44  1   
 45  22  25  ar  
 46  22  45  1   
 47  24  26  ar  
 48  24  46  1   
 49  25  26  ar  
 50  25  47  1   
 51  26  48  1   
@<TRIPOS>SUBSTRUCTURE
  1 ****  12 GROUP 4 **** **** 0

# MOE 2024.06 (io_trps.svl 2023.06)
