@<TRIPOS>MOLECULE
NONAME
56 59 1 0 0 
SMALL
USER_CHARGES


@<TRIPOS>ATOM
  1 O       -1.2370     0.8020     1.0270 O.2   1 <1>  -0.5700 
  2 C       -0.9060     1.9120     0.6730 C.2   1 <1>   0.5690 
  3 N       -1.6310     3.0290     1.0120 N.am  1 <1>  -0.6600 
  4 C        0.3430     2.0100    -0.1830 C.3   1 <1>  -0.0990 
  5 C       -2.9190     2.8800     1.7670 C.3   1 <1>   0.1400 
  6 C       -1.4460     4.3830     0.4110 C.3   1 <1>   0.1400 
  7 C        1.5470     2.4980     0.6310 C.3   1 <1>  -0.0160 
  8 C       -4.1670     2.9040     0.8470 C.3   1 <1>   0.1900 
  9 C       -2.5020     4.7400    -0.6660 C.3   1 <1>  -0.0800 
 10 C        2.7240     2.8090    -0.2870 C.ar  1 <1>  -0.1440 
 11 N       -3.8090     2.5460    -0.5540 N.3   1 <1>  -0.8100 
 12 C       -4.9640     4.2200     0.9570 C.3   1 <1>   0.1200 
 13 C       -3.5490     5.7480    -0.1590 C.3   1 <1>   0.1200 
 14 C       -3.1710     3.5610    -1.4080 C.3   1 <1>   0.1100 
 15 C        3.5350     1.7950    -0.7920 C.ar  1 <1>   0.0820 
 16 C        2.9860     4.1280    -0.6270 C.ar  1 <1>  -0.1500 
 17 C       -4.7590     1.6580    -1.2470 C.3   1 <1>   0.2900 
 18 O       -4.1380     5.3460     1.0320 O.3   1 <1>  -0.5600 
 19 O        3.2450     0.5150    -0.4370 O.3   1 <1>  -0.3630 
 20 C        4.5990     2.1190    -1.6320 C.ar  1 <1>  -0.1500 
 21 C        4.0430     4.4420    -1.4630 C.ar  1 <1>  -0.1500 
 22 C       -4.8280     0.2950    -0.5740 C.2   1 <1>   0.0060 
 23 C        4.0030    -0.5780    -0.9020 C.3   1 <1>   0.0400 
 24 C        4.8490     3.4380    -1.9650 C.ar  1 <1>  -0.1500 
 25 N       -5.8790    -0.4640    -0.5650 N.2   1 <1>  -0.5650 
 26 N       -3.7730    -0.2350     0.0850 N.pl3 1 <1>   0.0330 
 27 C       -5.4860    -1.5470     0.1340 C.2   1 <1>   0.0770 
 28 C       -4.2050    -1.4250     0.5410 C.2   1 <1>  -0.3020 
 29 H        0.5650     1.0360    -0.5810 H     1 <1>   0.0800 
 30 H        0.1630     2.6540    -1.0220 H     1 <1>   0.0800 
 31 H       -2.9160     1.9470     2.3020 H     1 <1>   0.0800 
 32 H       -2.9900     3.6540     2.5100 H     1 <1>   0.0800 
 33 H       -1.4800     5.1130     1.2020 H     1 <1>   0.0800 
 34 H       -0.4690     4.4590    -0.0280 H     1 <1>   0.0800 
 35 H        1.8270     1.7430     1.3460 H     1 <1>   0.0800 
 36 H        1.2820     3.3780     1.1900 H     1 <1>   0.0800 
 37 H       -4.8260     2.1420     1.2250 H     1 <1>   0.0800 
 38 H       -1.9670     5.2790    -1.4260 H     1 <1>   0.0800 
 39 H       -5.5280     4.2010     1.8730 H     1 <1>   0.0800 
 40 H       -5.6550     4.3280     0.1400 H     1 <1>   0.0800 
 41 H       -4.3230     5.9140    -0.8890 H     1 <1>   0.0800 
 42 H       -3.0700     6.6900     0.0400 H     1 <1>   0.0800 
 43 H       -2.4230     3.0630    -2.0010 H     1 <1>   0.0800 
 44 H       -3.9060     3.9580    -2.0870 H     1 <1>   0.0800 
 45 H        2.3690     4.9200    -0.2420 H     1 <1>   0.1500 
 46 H       -5.7370     2.1050    -1.2650 H     1 <1>   0.0800 
 47 H       -4.4370     1.5070    -2.2620 H     1 <1>   0.0800 
 48 H        5.2420     1.3610    -2.0360 H     1 <1>   0.1500 
 49 H        4.2380     5.4690    -1.7210 H     1 <1>   0.1500 
 50 H        3.5810    -1.4760    -0.4880 H     1 <1>   0.0800 
 51 H        5.0200    -0.4650    -0.5680 H     1 <1>   0.0800 
 52 H        3.9480    -0.6100    -1.9750 H     1 <1>   0.0800 
 53 H        5.6710     3.6830    -2.6140 H     1 <1>   0.1500 
 54 H       -2.8570     0.2190     0.2350 H     1 <1>   0.2700 
 55 H       -6.1580    -2.3700     0.3120 H     1 <1>   0.1500 
 56 H       -3.5870    -2.0910     1.1140 H     1 <1>   0.1500 
@<TRIPOS>BOND
  1   1   2  2   
  2   2   3  am  
  3   2   4  1   
  4   3   5  1   
  5   3   6  1   
  6   4   7  1   
  7   4  29  1   
  8   4  30  1   
  9   5   8  1   
 10   5  31  1   
 11   5  32  1   
 12   6   9  1   
 13   6  33  1   
 14   6  34  1   
 15   7  10  1   
 16   7  35  1   
 17   7  36  1   
 18   8  11  1   
 19   8  12  1   
 20   8  37  1   
 21   9  13  1   
 22   9  14  1   
 23   9  38  1   
 24  10  15  ar  
 25  10  16  ar  
 26  11  14  1   
 27  11  17  1   
 28  12  18  1   
 29  12  39  1   
 30  12  40  1   
 31  13  18  1   
 32  13  41  1   
 33  13  42  1   
 34  14  43  1   
 35  14  44  1   
 36  15  19  1   
 37  15  20  ar  
 38  16  21  ar  
 39  16  45  1   
 40  17  22  1   
 41  17  46  1   
 42  17  47  1   
 43  19  23  1   
 44  20  24  ar  
 45  20  48  1   
 46  21  24  ar  
 47  21  49  1   
 48  22  25  2   
 49  22  26  1   
 50  23  50  1   
 51  23  51  1   
 52  23  52  1   
 53  24  53  1   
 54  25  27  1   
 55  26  28  1   
 56  26  54  1   
 57  27  28  2   
 58  27  55  1   
 59  28  56  1   
@<TRIPOS>SUBSTRUCTURE
  1 ****   2 GROUP 4 **** **** 0

# MOE 2024.06 (io_trps.svl 2023.06)
