@<TRIPOS>MOLECULE
NONAME
48 49 1 0 0 
SMALL
USER_CHARGES


@<TRIPOS>ATOM
  1 O        0.3650     0.0790     0.3080 O.3   1 <1>  -0.5600 
  2 C        0.0000    -0.9450     1.1830 C.3   1 <1>   0.2640 
  3 C        1.4490     0.8420     0.7050 C.3   1 <1>   0.1200 
  4 C       -1.1900    -1.6720     0.5850 C.ar  1 <1>  -0.1440 
  5 C        1.6580     1.8990    -0.3870 C.3   1 <1>   0.3430 
  6 C       -2.4750    -1.1860     0.7780 C.ar  1 <1>  -0.1500 
  7 C       -1.0060    -2.8260    -0.1620 C.ar  1 <1>  -0.1500 
  8 N        2.7440     2.8870    -0.0590 N.4   1 <1>  -0.9590 
  9 C       -3.5620    -1.8490     0.2370 C.ar  1 <1>  -0.1500 
 10 C       -2.0930    -3.4900    -0.7040 C.ar  1 <1>  -0.1500 
 11 C        2.7750     4.0310    -1.0170 C.3   1 <1>   0.5660 
 12 C        4.0870     2.2170     0.0160 C.3   1 <1>   0.2630 
 13 C       -3.3720    -3.0030    -0.5040 C.ar  1 <1>  -0.1500 
 14 C        3.9220     4.9620    -0.6410 C.ar  1 <1>  -0.1430 
 15 C        1.4490     4.7920    -1.0030 C.3   1 <1>  -0.2400 
 16 C        3.9490     5.6450     0.5700 C.ar  1 <1>  -0.1500 
 17 C        4.9800     5.1190    -1.5270 C.ar  1 <1>  -0.1500 
 18 C        5.0180     6.4620     0.8950 C.ar  1 <1>  -0.1500 
 19 C        6.0480     5.9340    -1.2020 C.ar  1 <1>  -0.1500 
 20 C        6.0790     6.6080     0.0070 C.ar  1 <1>   0.0830 
 21 O        7.1650     7.3810     0.2460 O.3   1 <1>  -0.3620 
 22 C        7.2700     8.1700     1.4110 C.3   1 <1>   0.0400 
 23 H       -0.2640    -0.5170     2.1350 H     1 <1>   0.0800 
 24 H        0.8310    -1.6180     1.3040 H     1 <1>   0.0800 
 25 H        2.3030     0.1940     0.7950 H     1 <1>   0.0800 
 26 H        1.2130     1.3040     1.6480 H     1 <1>   0.0800 
 27 H        0.7220     2.4160    -0.5110 H     1 <1>   0.0800 
 28 H        1.8890     1.3980    -1.3130 H     1 <1>   0.0800 
 29 H       -2.6340    -0.2890     1.3480 H     1 <1>   0.1500 
 30 H       -0.0160    -3.2140    -0.3280 H     1 <1>   0.1500 
 31 H        2.5450     3.3100     0.8550 H     1 <1>   0.4500 
 32 H       -4.5560    -1.4670     0.3900 H     1 <1>   0.1500 
 33 H       -1.9430    -4.3850    -1.2820 H     1 <1>   0.1500 
 34 H        2.9500     3.6590    -2.0140 H     1 <1>   0.0800 
 35 H        4.3520     1.7990    -0.9420 H     1 <1>   0.0800 
 36 H        4.0780     1.4260     0.7480 H     1 <1>   0.0800 
 37 H        4.8490     2.9260     0.3010 H     1 <1>   0.0800 
 38 H       -4.2170    -3.5180    -0.9250 H     1 <1>   0.1500 
 39 H        1.1560     5.0580    -0.0040 H     1 <1>   0.0800 
 40 H        0.6670     4.2250    -1.4730 H     1 <1>   0.0800 
 41 H        1.5620     5.7010    -1.5690 H     1 <1>   0.0800 
 42 H        3.1430     5.5590     1.2770 H     1 <1>   0.1500 
 43 H        4.9900     4.6150    -2.4790 H     1 <1>   0.1500 
 44 H        5.0120     6.9780     1.8370 H     1 <1>   0.1500 
 45 H        6.8710     6.0600    -1.8850 H     1 <1>   0.1500 
 46 H        8.1970     8.7120     1.3630 H     1 <1>   0.0800 
 47 H        7.2680     7.5260     2.2720 H     1 <1>   0.0800 
 48 H        6.4450     8.8600     1.4410 H     1 <1>   0.0800 
@<TRIPOS>BOND
  1   1   2  1   
  2   1   3  1   
  3   2   4  1   
  4   2  23  1   
  5   2  24  1   
  6   3   5  1   
  7   3  25  1   
  8   3  26  1   
  9   4   6  ar  
 10   4   7  ar  
 11   5   8  1   
 12   5  27  1   
 13   5  28  1   
 14   6   9  ar  
 15   6  29  1   
 16   7  10  ar  
 17   7  30  1   
 18   8  11  1   
 19   8  12  1   
 20   8  31  1   
 21   9  13  ar  
 22   9  32  1   
 23  10  13  ar  
 24  10  33  1   
 25  11  14  1   
 26  11  15  1   
 27  11  34  1   
 28  12  35  1   
 29  12  36  1   
 30  12  37  1   
 31  13  38  1   
 32  14  16  ar  
 33  14  17  ar  
 34  15  39  1   
 35  15  40  1   
 36  15  41  1   
 37  16  18  ar  
 38  16  42  1   
 39  17  19  ar  
 40  17  43  1   
 41  18  20  ar  
 42  18  44  1   
 43  19  20  ar  
 44  19  45  1   
 45  20  21  1   
 46  21  22  1   
 47  22  46  1   
 48  22  47  1   
 49  22  48  1   
@<TRIPOS>SUBSTRUCTURE
  1 ****   5 GROUP 4 **** **** 0

# MOE 2024.06 (io_trps.svl 2023.06)
