@<TRIPOS>MOLECULE
NONAME
41 44 1 0 0 
SMALL
USER_CHARGES


@<TRIPOS>ATOM
  1 S       -0.5370     0.1660     1.6200 S.3   1 <1>  -0.0800 
  2 C       -0.3800     1.6670     0.7320 C.2   1 <1>  -0.1400 
  3 C        1.1120     0.3200     2.2070 C.2   1 <1>  -0.1100 
  4 C        0.8350     2.2110     0.8770 C.2   1 <1>  -0.1810 
  5 C       -1.5020     2.2470    -0.0850 C.3   1 <1>   0.0200 
  6 C        1.6920     1.4400     1.7310 C.2   1 <1>  -0.1500 
  7 C        1.2070     3.5200     0.1700 C.3   1 <1>   0.4610 
  8 C       -1.1730     3.7300    -0.3170 C.3   1 <1>   0.1200 
  9 O        0.1680     3.9000    -0.7150 O.3   1 <1>  -0.5600 
 10 C        1.4130     4.6490     1.1940 C.3   1 <1>  -0.1600 
 11 C        2.4420     3.3150    -0.7280 C.3   1 <1>  -0.1600 
 12 C        2.2160     5.8000     0.5920 C.3   1 <1>   0.1400 
 13 C        3.7280     3.8780    -0.1210 C.3   1 <1>   0.1400 
 14 N        3.5740     5.3300     0.1890 N.am  1 <1>  -0.6600 
 15 C        4.6740     6.1770     0.1450 C.2   1 <1>   0.7160 
 16 O        5.7780     5.6520     0.1030 O.2   1 <1>  -0.5700 
 17 C        4.5970     7.6390     0.1590 C.2   1 <1>   0.1410 
 18 N        3.4780     8.3990    -0.0640 N.2   1 <1>  -0.5650 
 19 C        5.6420     8.4910     0.3780 C.2   1 <1>  -0.3020 
 20 C        3.8770     9.6220     0.0270 C.2   1 <1>   0.0360 
 21 N        5.1920     9.7470     0.2970 N.pl3 1 <1>   0.0480 
 22 C        5.9660    10.9890     0.4540 C.3   1 <1>   0.0160 
 23 H        1.4770    -0.4560     2.8570 H     1 <1>   0.1500 
 24 H       -2.4360     2.1590     0.4410 H     1 <1>   0.0800 
 25 H       -1.5790     1.7300    -1.0240 H     1 <1>   0.0800 
 26 H        2.6970     1.7550     1.9490 H     1 <1>   0.1500 
 27 H       -1.3380     4.2930     0.5840 H     1 <1>   0.0800 
 28 H       -1.7990     4.1320    -1.0930 H     1 <1>   0.0800 
 29 H        1.9540     4.2740     2.0430 H     1 <1>   0.0800 
 30 H        0.4710     5.0080     1.5580 H     1 <1>   0.0800 
 31 H        2.2910     3.8080    -1.6730 H     1 <1>   0.0800 
 32 H        2.5750     2.2690    -0.9310 H     1 <1>   0.0800 
 33 H        2.3050     6.5840     1.3240 H     1 <1>   0.0800 
 34 H        1.7060     6.1950    -0.2710 H     1 <1>   0.0800 
 35 H        4.5380     3.7390    -0.8190 H     1 <1>   0.0800 
 36 H        3.9770     3.3530     0.7840 H     1 <1>   0.0800 
 37 H        6.6660     8.2320     0.5780 H     1 <1>   0.1500 
 38 H        3.2390    10.4790    -0.1000 H     1 <1>   0.1500 
 39 H        6.9510    10.7560     0.8130 H     1 <1>   0.0800 
 40 H        5.4710    11.6310     1.1590 H     1 <1>   0.0800 
 41 H        6.0390    11.4840    -0.4980 H     1 <1>   0.0800 
@<TRIPOS>BOND
  1   1   2  1   
  2   1   3  1   
  3   2   4  2   
  4   2   5  1   
  5   3   6  2   
  6   3  23  1   
  7   4   6  1   
  8   4   7  1   
  9   5   8  1   
 10   5  24  1   
 11   5  25  1   
 12   6  26  1   
 13   7   9  1   
 14   7  10  1   
 15   7  11  1   
 16   8   9  1   
 17   8  27  1   
 18   8  28  1   
 19  10  12  1   
 20  10  29  1   
 21  10  30  1   
 22  11  13  1   
 23  11  31  1   
 24  11  32  1   
 25  12  14  1   
 26  12  33  1   
 27  12  34  1   
 28  13  14  1   
 29  13  35  1   
 30  13  36  1   
 31  14  15  am  
 32  15  16  2   
 33  15  17  1   
 34  17  18  1   
 35  17  19  2   
 36  18  20  2   
 37  19  21  1   
 38  19  37  1   
 39  20  21  1   
 40  20  38  1   
 41  21  22  1   
 42  22  39  1   
 43  22  40  1   
 44  22  41  1   
@<TRIPOS>SUBSTRUCTURE
  1 ****  12 GROUP 4 **** **** 0

# MOE 2024.06 (io_trps.svl 2023.06)
