@<TRIPOS>MOLECULE
NONAME
51 53 1 0 0 
SMALL
USER_CHARGES


@<TRIPOS>ATOM
  1 O       -0.6860    -0.0170     0.8570 O.2   1 <1>  -0.5700 
  2 C       -1.5660    -0.7320     0.4110 C.2   1 <1>   0.5410 
  3 C       -1.5930    -2.1300     0.6330 C.2   1 <1>  -0.1360 
  4 C       -2.6360    -0.2110    -0.3640 C.2   1 <1>  -0.1360 
  5 C       -2.5960    -2.9150     0.1490 C.2   1 <1>   0.0910 
  6 C       -3.6060    -1.0290    -0.8330 C.2   1 <1>  -0.0620 
  7 O       -3.5800    -2.3410    -0.5770 O.3   1 <1>  -0.1530 
  8 C       -2.6660    -4.3520     0.3290 C.2   1 <1>   0.6160 
  9 C       -4.7870    -0.5810    -1.6710 C.3   1 <1>  -0.1020 
 10 O       -1.6300    -4.9890     0.2930 O.2   1 <1>  -0.5700 
 11 N       -3.8430    -5.0390     0.5470 N.am  1 <1>  -0.6600 
 12 C       -3.9320    -6.5250     0.3930 C.3   1 <1>   0.1400 
 13 C       -5.1430    -4.4380     0.9720 C.3   1 <1>   0.1400 
 14 C       -5.1390    -6.9140    -0.4830 C.3   1 <1>   0.3440 
 15 C       -6.2770    -4.8960     0.0260 C.3   1 <1>   0.2000 
 16 O       -6.3080    -6.3010    -0.0030 O.3   1 <1>  -0.5600 
 17 C       -5.3290    -8.4280    -0.4970 C.ar  1 <1>  -0.1440 
 18 C       -7.6930    -4.3610     0.3980 C.3   1 <1>   0.0000 
 19 C       -6.0720    -9.0710     0.4850 C.ar  1 <1>  -0.1500 
 20 C       -4.7420    -9.1870    -1.5000 C.ar  1 <1>  -0.1500 
 21 C       -8.1460    -4.8330     1.7920 C.3   1 <1>  -0.2400 
 22 C       -8.7190    -4.8610    -0.6370 C.3   1 <1>  -0.2400 
 23 C       -7.7230    -2.8220     0.3700 C.3   1 <1>  -0.2400 
 24 C       -6.2230   -10.4460     0.4660 C.ar  1 <1>  -0.1500 
 25 C       -4.8920   -10.5630    -1.5200 C.ar  1 <1>  -0.1500 
 26 C       -5.6320   -11.1940    -0.5370 C.ar  1 <1>  -0.1500 
 27 H       -0.7790    -2.5410     1.2000 H     1 <1>   0.1500 
 28 H       -2.6190     0.8470    -0.5450 H     1 <1>   0.1500 
 29 H       -4.7940    -1.1110    -2.6070 H     1 <1>   0.0800 
 30 H       -4.7300     0.4740    -1.8730 H     1 <1>   0.0800 
 31 H       -5.7050    -0.7810    -1.1500 H     1 <1>   0.0800 
 32 H       -3.0370    -6.9170    -0.0570 H     1 <1>   0.0800 
 33 H       -4.0380    -6.9790     1.3620 H     1 <1>   0.0800 
 34 H       -5.3600    -4.7680     1.9720 H     1 <1>   0.0800 
 35 H       -5.0810    -3.3680     0.9920 H     1 <1>   0.0800 
 36 H       -4.9780    -6.5690    -1.4890 H     1 <1>   0.0800 
 37 H       -6.0450    -4.5570    -0.9690 H     1 <1>   0.0800 
 38 H       -6.5380    -8.4960     1.2670 H     1 <1>   0.1500 
 39 H       -4.1620    -8.7110    -2.2720 H     1 <1>   0.1500 
 40 H       -9.1520    -4.5090     1.9920 H     1 <1>   0.0800 
 41 H       -7.5120    -4.4400     2.5650 H     1 <1>   0.0800 
 42 H       -8.1250    -5.9080     1.8480 H     1 <1>   0.0800 
 43 H       -9.7000    -4.4740    -0.4230 H     1 <1>   0.0800 
 44 H       -8.7770    -5.9360    -0.6230 H     1 <1>   0.0800 
 45 H       -8.4400    -4.5530    -1.6280 H     1 <1>   0.0800 
 46 H       -8.7230    -2.4640     0.5450 H     1 <1>   0.0800 
 47 H       -7.4010    -2.4580    -0.5890 H     1 <1>   0.0800 
 48 H       -7.0910    -2.4020     1.1310 H     1 <1>   0.0800 
 49 H       -6.8020   -10.9330     1.2320 H     1 <1>   0.1500 
 50 H       -4.4330   -11.1430    -2.3020 H     1 <1>   0.1500 
 51 H       -5.7500   -12.2630    -0.5520 H     1 <1>   0.1500 
@<TRIPOS>BOND
  1   1   2  2   
  2   2   3  1   
  3   2   4  1   
  4   3   5  2   
  5   3  27  1   
  6   4   6  2   
  7   4  28  1   
  8   5   7  1   
  9   5   8  1   
 10   6   7  1   
 11   6   9  1   
 12   8  10  2   
 13   8  11  am  
 14   9  29  1   
 15   9  30  1   
 16   9  31  1   
 17  11  12  1   
 18  11  13  1   
 19  12  14  1   
 20  12  32  1   
 21  12  33  1   
 22  13  15  1   
 23  13  34  1   
 24  13  35  1   
 25  14  16  1   
 26  14  17  1   
 27  14  36  1   
 28  15  16  1   
 29  15  18  1   
 30  15  37  1   
 31  17  19  ar  
 32  17  20  ar  
 33  18  21  1   
 34  18  22  1   
 35  18  23  1   
 36  19  24  ar  
 37  19  38  1   
 38  20  25  ar  
 39  20  39  1   
 40  21  40  1   
 41  21  41  1   
 42  21  42  1   
 43  22  43  1   
 44  22  44  1   
 45  22  45  1   
 46  23  46  1   
 47  23  47  1   
 48  23  48  1   
 49  24  26  ar  
 50  24  49  1   
 51  25  26  ar  
 52  25  50  1   
 53  26  51  1   
@<TRIPOS>SUBSTRUCTURE
  1 ****  11 GROUP 4 **** **** 0

# MOE 2024.06 (io_trps.svl 2023.06)
