@<TRIPOS>MOLECULE
NONAME
40 42 1 0 0 
SMALL
USER_CHARGES


@<TRIPOS>ATOM
  1 CL       0.5110    -3.0370     2.0440 Cl    1 <1>  -0.1240 
  2 C       -0.6380    -3.2060     0.7450 C.2   1 <1>   0.1640 
  3 S       -2.2530    -2.6040     1.0410 S.3   1 <1>  -0.0800 
  4 C       -0.5140    -3.7320    -0.4840 C.2   1 <1>  -0.1500 
  5 C       -2.7710    -3.0940    -0.5760 C.2   1 <1>  -0.0220 
  6 C       -1.7340    -3.6670    -1.2300 C.2   1 <1>  -0.1500 
  7 S       -4.5040    -2.8330    -1.0310 S.o2  1 <1>   1.5000 
  8 O       -4.6420    -2.8790    -2.4710 O.2   1 <1>  -0.6500 
  9 O       -5.0310    -1.6850    -0.3230 O.2   1 <1>  -0.6500 
 10 N       -5.2760    -4.2070    -0.4130 N.am  1 <1>  -0.8490 
 11 C       -4.8470    -5.4420    -1.0990 C.3   1 <1>   0.1960 
 12 C       -6.7340    -4.0830    -0.4570 C.3   1 <1>   0.1960 
 13 C       -5.3410    -6.6880    -0.3510 C.3   1 <1>  -0.1060 
 14 C       -7.3970    -5.2750     0.2410 C.3   1 <1>  -0.1600 
 15 C       -4.9760    -7.9250    -1.1660 C.2   1 <1>   0.9060 
 16 C       -6.8800    -6.5960    -0.3320 C.3   1 <1>   0.2000 
 17 C       -4.7260    -6.7830     1.0790 C.3   1 <1>  -0.0650 
 18 O       -4.2310    -7.8190    -2.1480 O.co2 1 <1>  -0.9000 
 19 O       -5.4820    -9.0110    -0.8450 O.co2 1 <1>  -0.9000 
 20 O       -7.4100    -7.6350     0.4040 O.3   1 <1>  -0.6800 
 21 C       -3.1910    -6.7050     1.1260 C.3   1 <1>  -0.1950 
 22 C       -2.3460    -7.8930     0.8000 C.3   1 <1>  -0.2000 
 23 C       -2.4310    -7.3920     2.2140 C.3   1 <1>  -0.2000 
 24 H        0.3800    -4.1670    -0.8940 H     1 <1>   0.1500 
 25 H       -1.7900    -4.0680    -2.2290 H     1 <1>   0.1500 
 26 H       -5.2270    -5.4500    -2.1090 H     1 <1>   0.0800 
 27 H       -3.7750    -5.4870    -1.1730 H     1 <1>   0.0800 
 28 H       -7.0370    -3.1770     0.0430 H     1 <1>   0.0800 
 29 H       -7.0620    -4.0280    -1.4820 H     1 <1>   0.0800 
 30 H       -8.4610    -5.2200     0.1000 H     1 <1>   0.0800 
 31 H       -7.1960    -5.2200     1.2950 H     1 <1>   0.0800 
 32 H       -7.2450    -6.7100    -1.3400 H     1 <1>   0.0800 
 33 H       -5.1090    -5.9930     1.6980 H     1 <1>   0.0800 
 34 H       -5.0380    -7.7120     1.5250 H     1 <1>   0.0800 
 35 H       -6.9050    -8.4480     0.1110 H     1 <1>   0.4000 
 36 H       -2.8190    -5.7370     0.8410 H     1 <1>   0.1000 
 37 H       -2.8450    -8.8100     0.5310 H     1 <1>   0.1000 
 38 H       -1.4560    -7.7290     0.2190 H     1 <1>   0.1000 
 39 H       -1.5760    -6.8970     2.6400 H     1 <1>   0.1000 
 40 H       -2.9660    -7.9880     2.9330 H     1 <1>   0.1000 
@<TRIPOS>BOND
  1   1   2  1   
  2   2   3  1   
  3   2   4  2   
  4   3   5  1   
  5   4   6  1   
  6   4  24  1   
  7   5   6  2   
  8   5   7  1   
  9   6  25  1   
 10   7   8  2   
 11   7   9  2   
 12   7  10  am  
 13  10  11  1   
 14  10  12  1   
 15  11  13  1   
 16  11  26  1   
 17  11  27  1   
 18  12  14  1   
 19  12  28  1   
 20  12  29  1   
 21  13  15  1   
 22  13  16  1   
 23  13  17  1   
 24  14  16  1   
 25  14  30  1   
 26  14  31  1   
 27  15  18  ar  
 28  15  19  ar  
 29  16  20  1   
 30  16  32  1   
 31  17  21  1   
 32  17  33  1   
 33  17  34  1   
 34  20  35  1   
 35  21  22  1   
 36  21  23  1   
 37  21  36  1   
 38  22  23  1   
 39  22  37  1   
 40  22  38  1   
 41  23  39  1   
 42  23  40  1   
@<TRIPOS>SUBSTRUCTURE
  1 ****  11 GROUP 4 **** **** 0

# MOE 2024.06 (io_trps.svl 2023.06)
