@<TRIPOS>MOLECULE
NONAME
48 50 1 0 0 
SMALL
USER_CHARGES


@<TRIPOS>ATOM
  1 CL       0.2350     0.1390    -1.1950 Cl    1 <1>  -0.1770 
  2 C        1.4420    -0.9400    -0.5040 C.ar  1 <1>   0.1770 
  3 C        1.0900    -2.2640    -0.1080 C.ar  1 <1>   0.4100 
  4 C        2.7320    -0.5200    -0.3810 C.ar  1 <1>   0.2170 
  5 N        2.0120    -3.1130     0.3280 N.ar  1 <1>  -0.6200 
  6 N       -0.1870    -2.7460    -0.1410 N.pl3 1 <1>  -0.8380 
  7 N        3.6240    -1.4210     0.1040 N.ar  1 <1>  -0.1790 
  8 C        3.2610     0.8620    -0.7530 C.3   1 <1>  -0.0970 
  9 C        3.2530    -2.6720     0.4300 C.ar  1 <1>   0.7710 
 10 C       -0.5300    -4.1240    -0.5840 C.3   1 <1>   0.2090 
 11 C       -1.3820    -1.9730     0.3080 C.3   1 <1>   0.2090 
 12 N        4.1580    -3.5350     0.8830 N.pl3 1 <1>  -0.9000 
 13 C       -1.4160    -4.7560     0.5120 C.3   1 <1>   0.4230 
 14 C       -2.2860    -2.8220     1.2320 C.3   1 <1>  -0.1600 
 15 N       -1.2740    -6.2570     0.6760 N.4   1 <1>  -0.9590 
 16 C       -2.8940    -4.1250     0.4850 C.3   1 <1>   0.0000 
 17 C       -1.5520    -6.9880    -0.5750 C.3   1 <1>   0.3430 
 18 C        0.0490    -6.6440     1.2550 C.3   1 <1>   0.2630 
 19 C       -3.5330    -5.3710    -0.3270 C.3   1 <1>  -0.1600 
 20 C       -4.3590    -3.4730     0.5490 C.3   1 <1>   0.1200 
 21 C       -2.7160    -6.2990    -1.2600 C.3   1 <1>  -0.1600 
 22 O       -4.4850    -2.5210    -0.4590 O.3   1 <1>  -0.6800 
 23 H        4.6050    -1.1820     0.2240 H     1 <1>   0.4570 
 24 H        2.4770     1.5070    -1.1080 H     1 <1>   0.0800 
 25 H        3.9970     0.7830    -1.5340 H     1 <1>   0.0800 
 26 H        3.7090     1.3350     0.1030 H     1 <1>   0.0800 
 27 H       -1.0640    -4.0580    -1.5140 H     1 <1>   0.0800 
 28 H        0.3650    -4.6990    -0.7360 H     1 <1>   0.0800 
 29 H       -1.0690    -1.0910     0.8410 H     1 <1>   0.0800 
 30 H       -1.9470    -1.6570    -0.5560 H     1 <1>   0.0800 
 31 H        5.1590    -3.3890     1.0330 H     1 <1>   0.4000 
 32 H        3.8500    -4.4790     1.1300 H     1 <1>   0.4000 
 33 H       -0.9270    -4.4220     1.4070 H     1 <1>   0.0800 
 34 H       -1.7670    -3.0500     2.1490 H     1 <1>   0.0800 
 35 H       -2.9610    -2.0630     1.5910 H     1 <1>   0.0800 
 36 H       -2.0090    -6.5280     1.3440 H     1 <1>   0.4500 
 37 H       -0.6920    -6.9800    -1.2250 H     1 <1>   0.0800 
 38 H       -1.8060    -8.0120    -0.3510 H     1 <1>   0.0800 
 39 H        0.8480    -6.3730     0.5850 H     1 <1>   0.0800 
 40 H        0.0860    -7.7080     1.4250 H     1 <1>   0.0800 
 41 H        0.2050    -6.1420     2.1960 H     1 <1>   0.0800 
 42 H       -4.0460    -6.0070     0.3790 H     1 <1>   0.0800 
 43 H       -4.2730    -5.0460    -1.0470 H     1 <1>   0.0800 
 44 H       -4.6050    -3.0140     1.4920 H     1 <1>   0.0800 
 45 H       -5.2010    -4.1430     0.4460 H     1 <1>   0.0800 
 46 H       -2.3530    -5.7410    -2.1040 H     1 <1>   0.0800 
 47 H       -3.3640    -7.0580    -1.6660 H     1 <1>   0.0800 
 48 H       -5.3820    -2.1250    -0.4650 H     1 <1>   0.4000 
@<TRIPOS>BOND
  1   1   2  1   
  2   2   3  ar  
  3   2   4  ar  
  4   3   5  ar  
  5   3   6  1   
  6   4   7  ar  
  7   4   8  1   
  8   5   9  ar  
  9   6  10  1   
 10   6  11  1   
 11   7   9  ar  
 12   7  23  1   
 13   8  24  1   
 14   8  25  1   
 15   8  26  1   
 16   9  12  1   
 17  10  13  1   
 18  10  27  1   
 19  10  28  1   
 20  11  14  1   
 21  11  29  1   
 22  11  30  1   
 23  12  31  1   
 24  12  32  1   
 25  13  15  1   
 26  13  16  1   
 27  13  33  1   
 28  14  16  1   
 29  14  34  1   
 30  14  35  1   
 31  15  17  1   
 32  15  18  1   
 33  15  36  1   
 34  16  19  1   
 35  16  20  1   
 36  17  21  1   
 37  17  37  1   
 38  17  38  1   
 39  18  39  1   
 40  18  40  1   
 41  18  41  1   
 42  19  21  1   
 43  19  42  1   
 44  19  43  1   
 45  20  22  1   
 46  20  44  1   
 47  20  45  1   
 48  21  46  1   
 49  21  47  1   
 50  22  48  1   
@<TRIPOS>SUBSTRUCTURE
  1 ****   6 GROUP 4 **** **** 0

# MOE 2024.06 (io_trps.svl 2023.06)
