@<TRIPOS>MOLECULE
NONAME
39 40 1 0 0 
SMALL
USER_CHARGES


@<TRIPOS>ATOM
  1 S       -0.5420    -0.5120     0.8470 S.o2  1 <1>   1.3330 
  2 O       -1.7540     0.1420     1.2770 O.2   1 <1>  -0.6500 
  3 O       -0.0590    -1.6780     1.5440 O.2   1 <1>  -0.6500 
  4 N       -0.8640    -0.9090    -0.7510 N.am  1 <1>  -0.9140 
  5 C        0.7940     0.6840     0.7270 C.3   1 <1>  -0.0550 
  6 C       -1.2700    -2.2810    -1.0830 C.3   1 <1>   0.2760 
  7 C        0.4590     1.9400    -0.0980 C.3   1 <1>  -0.1600 
  8 C       -2.3800    -2.8830    -0.2110 C.3   1 <1>  -0.0800 
  9 C       -0.1440    -3.3190    -1.0350 C.3   1 <1>   0.1200 
 10 C        1.6380     2.9180    -0.1220 C.3   1 <1>  -0.2400 
 11 C       -1.7530    -4.1930     0.2770 C.3   1 <1>   0.1200 
 12 C       -3.6670    -3.1210    -1.0210 C.3   1 <1>  -0.0160 
 13 O       -0.7700    -4.5020    -0.6560 O.3   1 <1>  -0.5600 
 14 C       -4.7730    -3.7110    -0.1600 C.ar  1 <1>  -0.1440 
 15 C       -5.2000    -5.0150    -0.3080 C.ar  1 <1>  -0.1500 
 16 C       -5.4080    -2.9700     0.8170 C.ar  1 <1>  -0.1500 
 17 C       -6.2110    -5.5010     0.5040 C.ar  1 <1>   0.1600 
 18 C       -6.4090    -3.5520     1.5760 C.ar  1 <1>   0.1600 
 19 N       -6.8270    -4.8010     1.4430 N.ar  1 <1>  -0.6200 
 20 H       -1.6590    -0.3090    -0.9680 H     1 <1>   0.4200 
 21 H        1.0670     0.9890     1.7190 H     1 <1>   0.0800 
 22 H        1.6490     0.2020     0.2930 H     1 <1>   0.0800 
 23 H       -1.6060    -2.2670    -2.1070 H     1 <1>   0.0800 
 24 H        0.2160     1.6560    -1.1080 H     1 <1>   0.0800 
 25 H       -0.4010     2.4300     0.3280 H     1 <1>   0.0800 
 26 H       -2.6210    -2.2800     0.6440 H     1 <1>   0.0800 
 27 H        0.6030    -3.0880    -0.2980 H     1 <1>   0.0800 
 28 H        0.3140    -3.4630    -1.9970 H     1 <1>   0.0800 
 29 H        2.5040     2.4560    -0.5630 H     1 <1>   0.0800 
 30 H        1.8850     3.2370     0.8760 H     1 <1>   0.0800 
 31 H        1.3830     3.7870    -0.7030 H     1 <1>   0.0800 
 32 H       -2.4490    -5.0100     0.3430 H     1 <1>   0.0800 
 33 H       -1.2690    -4.0530     1.2300 H     1 <1>   0.0800 
 34 H       -3.4590    -3.7800    -1.8470 H     1 <1>   0.0800 
 35 H       -4.0130    -2.1860    -1.4270 H     1 <1>   0.0800 
 36 H       -4.7560    -5.6590    -1.0440 H     1 <1>   0.1500 
 37 H       -5.1340    -1.9460     0.9960 H     1 <1>   0.1500 
 38 H       -6.5300    -6.5210     0.3750 H     1 <1>   0.1500 
 39 H       -6.8910    -2.9590     2.3340 H     1 <1>   0.1500 
@<TRIPOS>BOND
  1   1   2  2   
  2   1   3  2   
  3   1   4  am  
  4   1   5  1   
  5   4   6  1   
  6   4  20  1   
  7   5   7  1   
  8   5  21  1   
  9   5  22  1   
 10   6   8  1   
 11   6   9  1   
 12   6  23  1   
 13   7  10  1   
 14   7  24  1   
 15   7  25  1   
 16   8  11  1   
 17   8  12  1   
 18   8  26  1   
 19   9  13  1   
 20   9  27  1   
 21   9  28  1   
 22  10  29  1   
 23  10  30  1   
 24  10  31  1   
 25  11  13  1   
 26  11  32  1   
 27  11  33  1   
 28  12  14  1   
 29  12  34  1   
 30  12  35  1   
 31  14  15  ar  
 32  14  16  ar  
 33  15  17  ar  
 34  15  36  1   
 35  16  18  ar  
 36  16  37  1   
 37  17  19  ar  
 38  17  38  1   
 39  18  19  ar  
 40  18  39  1   
@<TRIPOS>SUBSTRUCTURE
  1 ****   8 GROUP 4 **** **** 0

# MOE 2024.06 (io_trps.svl 2023.06)
