@<TRIPOS>MOLECULE
NONAME
50 53 1 0 0 
SMALL
USER_CHARGES


@<TRIPOS>ATOM
  1 O        0.3970     0.1670     1.3360 O.2   1 <1>  -0.5700 
  2 C       -0.4290     0.5460     0.5370 C.2   1 <1>   0.5690 
  3 N       -1.7610     0.2290     0.6730 N.am  1 <1>  -0.6600 
  4 C        0.0940     1.3610    -0.6360 C.3   1 <1>   0.0810 
  5 C       -2.2480    -0.5850     1.8240 C.3   1 <1>   0.1400 
  6 C       -2.8630     0.6810    -0.2230 C.3   1 <1>   0.1400 
  7 C       -0.0840     2.8550    -0.4250 C.2   1 <1>  -0.0400 
  8 C       -2.9770    -1.8260     1.3010 C.3   1 <1>  -0.1600 
  9 C       -3.5930    -0.5410    -0.7850 C.3   1 <1>  -0.1600 
 10 O       -1.2590     3.4090    -0.5610 O.3   1 <1>  -0.0190 
 11 C        0.7910     3.8200    -0.1050 C.2   1 <1>  -0.1500 
 12 C       -4.1190    -1.4630     0.3340 C.3   1 <1>   0.4240 
 13 N       -1.2180     4.6930    -0.3510 N.2   1 <1>  -0.4100 
 14 C        0.0050     4.9690    -0.0710 C.2   1 <1>   0.1080 
 15 O       -4.9920    -0.6860     1.1250 O.3   1 <1>  -0.5600 
 16 C       -4.8280    -2.7320    -0.2240 C.ar  1 <1>  -0.1440 
 17 C        0.5120     6.3560     0.2510 C.3   1 <1>  -0.0590 
 18 C       -6.3100    -0.5550     0.7050 C.3   1 <1>   0.1200 
 19 C       -4.1490    -3.6940    -0.9850 C.ar  1 <1>   0.0820 
 20 C       -6.1850    -2.9350     0.0290 C.ar  1 <1>  -0.1440 
 21 C       -6.9780    -1.9160     0.8210 C.3   1 <1>  -0.0170 
 22 O       -2.8320    -3.5070    -1.2650 O.3   1 <1>  -0.3630 
 23 C       -4.8220    -4.8220    -1.4520 C.ar  1 <1>  -0.1500 
 24 C       -6.8410    -4.0610    -0.4370 C.ar  1 <1>  -0.1500 
 25 C       -2.0240    -4.5130    -1.8340 C.3   1 <1>   0.0400 
 26 C       -6.1610    -5.0060    -1.1770 C.ar  1 <1>  -0.1500 
 27 H       -0.3800     1.0520    -1.5470 H     1 <1>   0.0800 
 28 H        1.1430     1.1550    -0.7390 H     1 <1>   0.0800 
 29 H       -2.9160     0.0140     2.4200 H     1 <1>   0.0800 
 30 H       -1.4300    -0.8900     2.4530 H     1 <1>   0.0800 
 31 H       -2.4950     1.2750    -1.0370 H     1 <1>   0.0800 
 32 H       -3.5470     1.2910     0.3440 H     1 <1>   0.0800 
 33 H       -3.3820    -2.3850     2.1240 H     1 <1>   0.0800 
 34 H       -2.2490    -2.4480     0.8220 H     1 <1>   0.0800 
 35 H       -2.9030    -1.0730    -1.4090 H     1 <1>   0.0800 
 36 H       -4.4030    -0.2300    -1.4150 H     1 <1>   0.0800 
 37 H        1.8450     3.7570     0.0890 H     1 <1>   0.1500 
 38 H        0.9440     6.3660     1.2350 H     1 <1>   0.0800 
 39 H       -0.3000     7.0600     0.2210 H     1 <1>   0.0800 
 40 H        1.2550     6.6490    -0.4670 H     1 <1>   0.0800 
 41 H       -6.3310    -0.1940    -0.3080 H     1 <1>   0.0800 
 42 H       -6.7920     0.1600     1.3480 H     1 <1>   0.0800 
 43 H       -7.9830    -1.8490     0.4460 H     1 <1>   0.0800 
 44 H       -7.0190    -2.2090     1.8550 H     1 <1>   0.0800 
 45 H       -4.3240    -5.5700    -2.0370 H     1 <1>   0.1500 
 46 H       -7.8870    -4.2080    -0.2280 H     1 <1>   0.1500 
 47 H       -1.0120    -4.1520    -1.8590 H     1 <1>   0.0800 
 48 H       -2.3650    -4.7130    -2.8340 H     1 <1>   0.0800 
 49 H       -2.0810    -5.3950    -1.2200 H     1 <1>   0.0800 
 50 H       -6.6740    -5.8800    -1.5380 H     1 <1>   0.1500 
@<TRIPOS>BOND
  1   1   2  2   
  2   2   3  am  
  3   2   4  1   
  4   3   5  1   
  5   3   6  1   
  6   4   7  1   
  7   4  27  1   
  8   4  28  1   
  9   5   8  1   
 10   5  29  1   
 11   5  30  1   
 12   6   9  1   
 13   6  31  1   
 14   6  32  1   
 15   7  10  1   
 16   7  11  2   
 17   8  12  1   
 18   8  33  1   
 19   8  34  1   
 20   9  12  1   
 21   9  35  1   
 22   9  36  1   
 23  10  13  1   
 24  11  14  1   
 25  11  37  1   
 26  12  15  1   
 27  12  16  1   
 28  13  14  2   
 29  14  17  1   
 30  15  18  1   
 31  16  19  ar  
 32  16  20  ar  
 33  17  38  1   
 34  17  39  1   
 35  17  40  1   
 36  18  21  1   
 37  18  41  1   
 38  18  42  1   
 39  19  22  1   
 40  19  23  ar  
 41  20  21  1   
 42  20  24  ar  
 43  21  43  1   
 44  21  44  1   
 45  22  25  1   
 46  23  26  ar  
 47  23  45  1   
 48  24  26  ar  
 49  24  46  1   
 50  25  47  1   
 51  25  48  1   
 52  25  49  1   
 53  26  50  1   
@<TRIPOS>SUBSTRUCTURE
  1 ****   9 GROUP 4 **** **** 0

# MOE 2024.06 (io_trps.svl 2023.06)
