@<TRIPOS>MOLECULE
NONAME
44 46 1 0 0 
SMALL
USER_CHARGES


@<TRIPOS>ATOM
  1 CL       1.8320    -4.7730     0.8360 Cl    1 <1>  -0.1770 
  2 C        0.3530    -3.9290     0.4310 C.ar  1 <1>   0.1770 
  3 C       -0.0270    -2.8160     1.1680 C.ar  1 <1>   0.0830 
  4 C       -0.4230    -4.3840    -0.6180 C.ar  1 <1>  -0.1500 
  5 O        0.7260    -2.3730     2.1920 O.3   1 <1>  -0.5330 
  6 C       -1.1970    -2.1510     0.8460 C.ar  1 <1>  -0.1500 
  7 C       -1.6010    -3.7230    -0.9390 C.ar  1 <1>  -0.1440 
  8 C       -1.9780    -2.6040    -0.2050 C.ar  1 <1>  -0.1500 
  9 C       -2.4730    -4.2280    -2.0870 C.3   1 <1>   0.0440 
 10 C       -2.7500    -5.7230    -2.0120 C.2   1 <1>   0.5690 
 11 O       -2.3140    -6.4220    -2.8960 O.2   1 <1>  -0.5700 
 12 N       -3.4740    -6.2530    -0.9770 N.am  1 <1>  -0.6600 
 13 C       -4.0210    -5.5160     0.1900 C.3   1 <1>   0.1400 
 14 C       -3.6990    -7.7110    -0.8270 C.3   1 <1>   0.1400 
 15 C       -4.7960    -6.5650     0.9850 C.3   1 <1>   0.2000 
 16 C       -4.1490    -7.8990     0.6220 C.3   1 <1>  -0.0800 
 17 O       -4.7090    -6.3410     2.3490 O.3   1 <1>  -0.6800 
 18 C       -5.0790    -9.1030     0.8280 C.3   1 <1>   0.0210 
 19 C       -4.4260   -10.3820     0.3430 C.2   1 <1>   0.1080 
 20 N       -3.3180   -10.8380     0.8400 N.2   1 <1>  -0.7070 
 21 C       -4.9160   -11.1910    -0.6780 C.2   1 <1>  -0.1500 
 22 N       -3.0690   -11.9630     0.1430 N.pl3 1 <1>   0.3000 
 23 C       -4.0230   -12.1970    -0.7830 C.2   1 <1>  -0.3320 
 24 C       -4.0200   -13.3850    -1.7270 C.3   1 <1>  -0.0600 
 25 H       -0.1050    -5.2510    -1.1730 H     1 <1>   0.1500 
 26 H        1.5330    -2.9110     2.3150 H     1 <1>   0.4500 
 27 H       -1.4870    -1.2860     1.4160 H     1 <1>   0.1500 
 28 H       -2.8850    -2.0750    -0.4460 H     1 <1>   0.1500 
 29 H       -1.9740    -4.0180    -3.0150 H     1 <1>   0.0800 
 30 H       -3.4140    -3.7110    -2.1020 H     1 <1>   0.0800 
 31 H       -3.2070    -5.1260     0.7770 H     1 <1>   0.0800 
 32 H       -4.6700    -4.7200    -0.1300 H     1 <1>   0.0800 
 33 H       -4.4670    -8.0190    -1.5160 H     1 <1>   0.0800 
 34 H       -2.7970    -8.2660    -1.0310 H     1 <1>   0.0800 
 35 H       -5.8350    -6.5410     0.7010 H     1 <1>   0.0800 
 36 H       -3.2580    -8.0400     1.2100 H     1 <1>   0.0800 
 37 H       -3.7960    -6.5000     2.6600 H     1 <1>   0.4000 
 38 H       -6.0030    -8.9530     0.3000 H     1 <1>   0.0800 
 39 H       -5.3050    -9.2080     1.8740 H     1 <1>   0.0800 
 40 H       -5.8140   -11.0250    -1.2450 H     1 <1>   0.1500 
 41 H       -2.2420   -12.5440     0.3230 H     1 <1>   0.2700 
 42 H       -4.8830   -13.3490    -2.3690 H     1 <1>   0.0800 
 43 H       -4.0470   -14.3040    -1.1690 H     1 <1>   0.0800 
 44 H       -3.1370   -13.3710    -2.3410 H     1 <1>   0.0800 
@<TRIPOS>BOND
  1   1   2  1   
  2   2   3  ar  
  3   2   4  ar  
  4   3   5  1   
  5   3   6  ar  
  6   4   7  ar  
  7   4  25  1   
  8   5  26  1   
  9   6   8  ar  
 10   6  27  1   
 11   7   8  ar  
 12   7   9  1   
 13   8  28  1   
 14   9  10  1   
 15   9  29  1   
 16   9  30  1   
 17  10  11  2   
 18  10  12  am  
 19  12  13  1   
 20  12  14  1   
 21  13  15  1   
 22  13  31  1   
 23  13  32  1   
 24  14  16  1   
 25  14  33  1   
 26  14  34  1   
 27  15  16  1   
 28  15  17  1   
 29  15  35  1   
 30  16  18  1   
 31  16  36  1   
 32  17  37  1   
 33  18  19  1   
 34  18  38  1   
 35  18  39  1   
 36  19  20  2   
 37  19  21  1   
 38  20  22  1   
 39  21  23  2   
 40  21  40  1   
 41  22  23  1   
 42  22  41  1   
 43  23  24  1   
 44  24  42  1   
 45  24  43  1   
 46  24  44  1   
@<TRIPOS>SUBSTRUCTURE
  1 ****  12 GROUP 4 **** **** 0

# MOE 2024.06 (io_trps.svl 2023.06)
