@<TRIPOS>MOLECULE
NONAME
42 43 1 0 0 
SMALL
USER_CHARGES


@<TRIPOS>ATOM
  1 O        0.6740     2.8500     1.3400 O.2   1 <1>  -0.5700 
  2 C       -0.4490     2.5050     1.0390 C.2   1 <1>   0.6900 
  3 N       -1.5470     3.1440     1.5680 N.am  1 <1>  -0.4200 
  4 N       -0.6390     1.5230     0.1090 N.am  1 <1>  -0.5390 
  5 C       -2.7990     2.9280     1.0270 C.2   1 <1>   0.6160 
  6 C       -1.3830     4.0710     2.7240 C.3   1 <1>   0.1400 
  7 C       -1.8850     1.1950    -0.3850 C.2   1 <1>  -0.0290 
  8 O       -3.7180     3.6550     1.3530 O.2   1 <1>  -0.5700 
  9 C       -2.9550     1.8900     0.0620 C.2   1 <1>  -0.1360 
 10 C       -1.2200     5.5330     2.2750 C.3   1 <1>   0.3430 
 11 C       -1.9520     0.0740    -1.4020 C.3   1 <1>  -0.1020 
 12 N       -0.1150     5.7140     1.2780 N.4   1 <1>  -0.9590 
 13 C        0.7410     6.9090     1.5670 C.3   1 <1>   0.4860 
 14 C       -0.5990     5.7200    -0.1360 C.3   1 <1>   0.2630 
 15 C        2.0370     6.8460     0.7610 C.ar  1 <1>   0.1670 
 16 N        2.6430     5.6650     0.7810 N.ar  1 <1>  -0.6200 
 17 C        2.5090     7.9580     0.0640 C.ar  1 <1>  -0.1430 
 18 C        3.7680     5.5770     0.0900 C.ar  1 <1>   0.1600 
 19 C        3.6830     7.8380    -0.6530 C.ar  1 <1>  -0.1500 
 20 C        1.7870     9.3010     0.0650 C.3   1 <1>  -0.0970 
 21 C        4.3200     6.6170    -0.6330 C.ar  1 <1>  -0.1500 
 22 H        0.2110     1.0480    -0.2050 H     1 <1>   0.3700 
 23 H       -0.5290     3.7760     3.3090 H     1 <1>   0.0800 
 24 H       -2.2460     3.9940     3.3650 H     1 <1>   0.0800 
 25 H       -3.9570     1.7050    -0.2790 H     1 <1>   0.1500 
 26 H       -1.0180     6.1260     3.1510 H     1 <1>   0.0800 
 27 H       -2.1530     5.8760     1.8580 H     1 <1>   0.0800 
 28 H       -1.3620     0.3220    -2.2670 H     1 <1>   0.0800 
 29 H       -2.9670    -0.0920    -1.7180 H     1 <1>   0.0800 
 30 H       -1.5760    -0.8370    -0.9730 H     1 <1>   0.0800 
 31 H        0.5560     4.9120     1.3520 H     1 <1>   0.4500 
 32 H        1.0050     6.9170     2.6110 H     1 <1>   0.0800 
 33 H        0.2030     7.8140     1.3430 H     1 <1>   0.0800 
 34 H       -1.2400     6.5680    -0.3130 H     1 <1>   0.0800 
 35 H       -1.1510     4.8200    -0.3470 H     1 <1>   0.0800 
 36 H        0.2400     5.7680    -0.8130 H     1 <1>   0.0800 
 37 H        4.2770     4.6270     0.1010 H     1 <1>   0.1500 
 38 H        4.0990     8.6600    -1.2110 H     1 <1>   0.1500 
 39 H        1.6760     9.6680     1.0700 H     1 <1>   0.0800 
 40 H        0.8180     9.2080    -0.3920 H     1 <1>   0.0800 
 41 H        2.3460    10.0340    -0.4910 H     1 <1>   0.0800 
 42 H        5.2390     6.4710    -1.1730 H     1 <1>   0.1500 
@<TRIPOS>BOND
  1   1   2  2   
  2   2   3  am  
  3   2   4  am  
  4   3   5  am  
  5   3   6  1   
  6   4   7  1   
  7   4  22  1   
  8   5   8  2   
  9   5   9  1   
 10   6  10  1   
 11   6  23  1   
 12   6  24  1   
 13   7   9  2   
 14   7  11  1   
 15   9  25  1   
 16  10  12  1   
 17  10  26  1   
 18  10  27  1   
 19  11  28  1   
 20  11  29  1   
 21  11  30  1   
 22  12  13  1   
 23  12  14  1   
 24  12  31  1   
 25  13  15  1   
 26  13  32  1   
 27  13  33  1   
 28  14  34  1   
 29  14  35  1   
 30  14  36  1   
 31  15  16  ar  
 32  15  17  ar  
 33  16  18  ar  
 34  17  19  ar  
 35  17  20  1   
 36  18  21  ar  
 37  18  37  1   
 38  19  21  ar  
 39  19  38  1   
 40  20  39  1   
 41  20  40  1   
 42  20  41  1   
 43  21  42  1   
@<TRIPOS>SUBSTRUCTURE
  1 ****  12 GROUP 4 **** **** 0

# MOE 2024.06 (io_trps.svl 2023.06)
