@<TRIPOS>MOLECULE
NONAME
37 38 1 0 0 
SMALL
USER_CHARGES


@<TRIPOS>ATOM
  1 O       -0.0420     0.5500    -0.0750 O.co2 1 <1>  -0.9000 
  2 C       -0.5130     1.1660     0.8820 C.2   1 <1>   0.9060 
  3 O       -0.5920     0.7170     2.0250 O.co2 1 <1>  -0.9000 
  4 C       -0.9400     2.5890     0.6420 C.3   1 <1>  -0.2660 
  5 C        0.2980     3.4820     0.4870 C.3   1 <1>  -0.1600 
  6 C       -0.0900     4.8830     0.0460 C.3   1 <1>   0.3430 
  7 N        1.1430     5.6670    -0.1860 N.4   1 <1>  -0.8970 
  8 C        0.9670     7.0310    -0.7920 C.3   1 <1>   0.4720 
  9 C        1.9280     5.2970    -1.4190 C.3   1 <1>   0.4720 
 10 C        2.3140     6.7930    -1.5290 C.3   1 <1>   0.2580 
 11 O        3.4320     7.0860    -0.7050 O.3   1 <1>  -0.3400 
 12 C        3.6680     8.3610    -0.3160 C.ar  1 <1>   0.0820 
 13 C        3.2520     9.4700    -1.0470 C.ar  1 <1>  -0.1500 
 14 C        4.3470     8.5420     0.8770 C.ar  1 <1>  -0.1500 
 15 C        3.4970    10.7430    -0.5650 C.ar  1 <1>  -0.1500 
 16 C        4.5900     9.8180     1.3540 C.ar  1 <1>  -0.1500 
 17 C        4.1600    10.9240     0.6380 C.ar  1 <1>  -0.1440 
 18 C        4.4280    12.3230     1.1630 C.3   1 <1>  -0.0970 
 19 H       -1.5470     2.9060     1.4690 H     1 <1>   0.0800 
 20 H       -1.5350     2.5940    -0.2520 H     1 <1>   0.0800 
 21 H        0.9410     3.0240    -0.2470 H     1 <1>   0.0800 
 22 H        0.8200     3.5100     1.4280 H     1 <1>   0.0800 
 23 H       -0.6890     5.3460     0.8130 H     1 <1>   0.0800 
 24 H       -0.6730     4.8250    -0.8590 H     1 <1>   0.0800 
 25 H        1.7700     5.7000     0.6290 H     1 <1>   0.4500 
 26 H        0.9870     7.8180    -0.0600 H     1 <1>   0.0000 
 27 H        0.1210     7.0540    -1.4550 H     1 <1>   0.0000 
 28 H        1.2760     4.9700    -2.2090 H     1 <1>   0.0000 
 29 H        2.7480     4.6350    -1.2090 H     1 <1>   0.0000 
 30 H        2.4150     7.1870    -2.5240 H     1 <1>   0.0000 
 31 H        2.7540     9.3710    -1.9930 H     1 <1>   0.1500 
 32 H        4.6880     7.6880     1.4340 H     1 <1>   0.1500 
 33 H        3.1750    11.6000    -1.1320 H     1 <1>   0.1500 
 34 H        5.1180     9.9480     2.2830 H     1 <1>   0.1500 
 35 H        3.6600    13.0020     0.8380 H     1 <1>   0.0800 
 36 H        5.3770    12.6730     0.7970 H     1 <1>   0.0800 
 37 H        4.4490    12.3260     2.2380 H     1 <1>   0.0800 
@<TRIPOS>BOND
  1   1   2  ar  
  2   2   3  ar  
  3   2   4  1   
  4   4   5  1   
  5   4  19  1   
  6   4  20  1   
  7   5   6  1   
  8   5  21  1   
  9   5  22  1   
 10   6   7  1   
 11   6  23  1   
 12   6  24  1   
 13   7   8  1   
 14   7   9  1   
 15   7  25  1   
 16   8  10  1   
 17   8  26  1   
 18   8  27  1   
 19   9  10  1   
 20   9  28  1   
 21   9  29  1   
 22  10  11  1   
 23  10  30  1   
 24  11  12  1   
 25  12  13  ar  
 26  12  14  ar  
 27  13  15  ar  
 28  13  31  1   
 29  14  16  ar  
 30  14  32  1   
 31  15  17  ar  
 32  15  33  1   
 33  16  17  ar  
 34  16  34  1   
 35  17  18  1   
 36  18  35  1   
 37  18  36  1   
 38  18  37  1   
@<TRIPOS>SUBSTRUCTURE
  1 ****   7 GROUP 4 **** **** 0

# MOE 2024.06 (io_trps.svl 2023.06)
