@<TRIPOS>MOLECULE
NONAME
51 54 1 0 0 
SMALL
USER_CHARGES


@<TRIPOS>ATOM
  1 O        2.3350     1.9170     0.9540 O.3   1 <1>  -0.0190 
  2 N        3.0940     0.8720     0.8360 N.2   1 <1>  -0.4100 
  3 C        1.2460     1.8140     0.2400 C.2   1 <1>  -0.0400 
  4 C        2.4750     0.0680     0.0470 C.2   1 <1>   0.1080 
  5 C        1.2690     0.6220    -0.3740 C.2   1 <1>  -0.1500 
  6 C        0.2430     2.9510     0.2290 C.3   1 <1>   0.0200 
  7 C        2.9960    -1.2930    -0.3610 C.3   1 <1>  -0.0590 
  8 C        0.8370     4.1960    -0.4620 C.3   1 <1>  -0.0800 
  9 C       -0.0780     5.4180    -0.5400 C.3   1 <1>   0.2000 
 10 C        2.1080     4.7220     0.2190 C.3   1 <1>   0.3430 
 11 O       -0.6930     5.6280     0.6930 O.3   1 <1>  -0.6800 
 12 C        0.9180     6.5540    -0.7830 C.3   1 <1>   0.3430 
 13 N        2.1320     6.2040     0.0230 N.4   1 <1>  -0.9590 
 14 C        2.1150     6.9050     1.3370 C.3   1 <1>   0.4860 
 15 C        2.3010     8.3900     1.0930 C.ar  1 <1>  -0.1440 
 16 C        3.5380     8.8960     0.7250 C.ar  1 <1>  -0.1500 
 17 C        1.2310     9.2620     1.2310 C.ar  1 <1>  -0.1500 
 18 C        3.6930    10.2490     0.4850 C.ar  1 <1>  -0.1500 
 19 C        1.3970    10.6130     0.9900 C.ar  1 <1>  -0.1500 
 20 C        2.6290    11.1400     0.6080 C.ar  1 <1>   0.0530 
 21 C        2.7980    12.5540     0.3500 C.2   1 <1>   0.0870 
 22 O        3.9300    13.0050    -0.1780 O.3   1 <1>  -0.2800 
 23 C        1.9660    13.6110     0.5510 C.2   1 <1>  -0.1500 
 24 C        3.8450    14.3090    -0.3190 C.2   1 <1>  -0.0400 
 25 C        2.6470    14.7500     0.1160 C.2   1 <1>  -0.1500 
 26 C        5.0210    15.0560    -0.9060 C.3   1 <1>  -0.0600 
 27 H        0.5580     0.1650    -1.0380 H     1 <1>   0.1500 
 28 H       -0.6400     2.6320    -0.2970 H     1 <1>   0.0800 
 29 H       -0.0350     3.1680     1.2460 H     1 <1>   0.0800 
 30 H        2.3020    -2.0550    -0.0570 H     1 <1>   0.0800 
 31 H        3.9450    -1.4800     0.1090 H     1 <1>   0.0800 
 32 H        3.1230    -1.3330    -1.4270 H     1 <1>   0.0800 
 33 H        1.1070     3.9170    -1.4660 H     1 <1>   0.0800 
 34 H       -0.8330     5.3570    -1.3070 H     1 <1>   0.0800 
 35 H        2.9840     4.2540    -0.2030 H     1 <1>   0.0800 
 36 H        2.0700     4.4900     1.2710 H     1 <1>   0.0800 
 37 H       -1.5180     5.1030     0.7740 H     1 <1>   0.4000 
 38 H        0.5000     7.5090    -0.5080 H     1 <1>   0.0800 
 39 H        1.1790     6.5750    -1.8280 H     1 <1>   0.0800 
 40 H        2.9770     6.5090    -0.4750 H     1 <1>   0.4500 
 41 H        1.1800     6.7270     1.8430 H     1 <1>   0.0800 
 42 H        2.9160     6.5460     1.9620 H     1 <1>   0.0800 
 43 H        4.3950     8.2520     0.6250 H     1 <1>   0.1500 
 44 H        0.2610     8.8990     1.5270 H     1 <1>   0.1500 
 45 H        4.6600    10.6290     0.2010 H     1 <1>   0.1500 
 46 H        0.5550    11.2730     1.1000 H     1 <1>   0.1500 
 47 H        0.9750    13.6110     0.9640 H     1 <1>   0.1500 
 48 H        2.2670    15.7560     0.1370 H     1 <1>   0.1500 
 49 H        4.8060    16.1070    -0.9600 H     1 <1>   0.0800 
 50 H        5.2270    14.6890    -1.8950 H     1 <1>   0.0800 
 51 H        5.8890    14.9060    -0.2900 H     1 <1>   0.0800 
@<TRIPOS>BOND
  1   1   2  1   
  2   1   3  1   
  3   2   4  2   
  4   3   5  2   
  5   3   6  1   
  6   4   5  1   
  7   4   7  1   
  8   5  27  1   
  9   6   8  1   
 10   6  28  1   
 11   6  29  1   
 12   7  30  1   
 13   7  31  1   
 14   7  32  1   
 15   8   9  1   
 16   8  10  1   
 17   8  33  1   
 18   9  11  1   
 19   9  12  1   
 20   9  34  1   
 21  10  13  1   
 22  10  35  1   
 23  10  36  1   
 24  11  37  1   
 25  12  13  1   
 26  12  38  1   
 27  12  39  1   
 28  13  14  1   
 29  13  40  1   
 30  14  15  1   
 31  14  41  1   
 32  14  42  1   
 33  15  16  ar  
 34  15  17  ar  
 35  16  18  ar  
 36  16  43  1   
 37  17  19  ar  
 38  17  44  1   
 39  18  20  ar  
 40  18  45  1   
 41  19  20  ar  
 42  19  46  1   
 43  20  21  1   
 44  21  22  1   
 45  21  23  2   
 46  22  24  1   
 47  23  25  1   
 48  23  47  1   
 49  24  25  2   
 50  24  26  1   
 51  25  48  1   
 52  26  49  1   
 53  26  50  1   
 54  26  51  1   
@<TRIPOS>SUBSTRUCTURE
  1 ****  13 GROUP 4 **** **** 0

# MOE 2024.06 (io_trps.svl 2023.06)
