@<TRIPOS>MOLECULE
NONAME
47 50 1 0 0 
SMALL
USER_CHARGES


@<TRIPOS>ATOM
  1 S        1.3140     1.2200    -3.5250 S.3   1 <1>  -0.0800 
  2 C        0.8160     0.9360    -1.8770 C.2   1 <1>   0.1980 
  3 C        1.1360     2.9220    -3.2510 C.2   1 <1>  -0.1100 
  4 N        0.5560     1.9900    -1.2170 N.2   1 <1>  -0.5650 
  5 C        0.7460    -0.4990    -1.4120 C.3   1 <1>  -0.0600 
  6 C        0.7370     3.1600    -1.9820 C.2   1 <1>   0.1410 
  7 C        0.4880     4.4990    -1.4470 C.2   1 <1>   0.7160 
  8 O        0.0370     5.3440    -2.2040 O.2   1 <1>  -0.5700 
  9 N        0.7490     4.8680    -0.1350 N.am  1 <1>  -0.6600 
 10 C        1.5470     4.0000     0.7930 C.3   1 <1>   0.1400 
 11 C        0.3510     6.2160     0.3610 C.3   1 <1>   0.1400 
 12 C        2.4990     4.7700     1.7220 C.3   1 <1>   0.1400 
 13 C        1.4510     7.2460     0.0660 C.3   1 <1>  -0.1600 
 14 N        3.2840     5.7870     0.9630 N.am  1 <1>  -0.6600 
 15 C        2.6940     7.1530     0.9610 C.3   1 <1>   0.1400 
 16 C        4.3630     5.4030     0.1770 C.2   1 <1>   0.6300 
 17 O        4.7690     4.2560     0.3090 O.2   1 <1>  -0.5700 
 18 C        5.0290     6.2930    -0.7590 C.2   1 <1>   0.3640 
 19 N        4.3410     6.8400    -1.7320 N.2   1 <1>  -0.5120 
 20 C        6.4490     6.5450    -0.5870 C.ar  1 <1>   0.0860 
 21 N        5.0060     7.6330    -2.6140 N.am  1 <1>  -0.3680 
 22 C        7.1140     7.3610    -1.5210 C.ar  1 <1>   0.0860 
 23 C        7.2120     6.0310     0.4760 C.ar  1 <1>  -0.1500 
 24 C        6.3420     7.9200    -2.5910 C.2   1 <1>   0.5440 
 25 C        8.4810     7.6150    -1.3800 C.ar  1 <1>  -0.1500 
 26 C        8.5580     6.2940     0.6030 C.ar  1 <1>  -0.1500 
 27 O        6.8000     8.6340    -3.4640 O.2   1 <1>  -0.5700 
 28 C        9.2000     7.0890    -0.3320 C.ar  1 <1>  -0.1500 
 29 H        1.3440     3.5970    -4.0610 H     1 <1>   0.1500 
 30 H        0.0460    -1.0440    -2.0180 H     1 <1>   0.0800 
 31 H        0.4230    -0.5330    -0.3880 H     1 <1>   0.0800 
 32 H        1.7150    -0.9540    -1.4900 H     1 <1>   0.0800 
 33 H        2.1560     3.3240     0.2190 H     1 <1>   0.0800 
 34 H        0.8730     3.4050     1.3830 H     1 <1>   0.0800 
 35 H        0.1330     6.1770     1.4130 H     1 <1>   0.0800 
 36 H       -0.5530     6.5190    -0.1410 H     1 <1>   0.0800 
 37 H        3.1700     4.0700     2.1910 H     1 <1>   0.0800 
 38 H        1.9380     5.2440     2.5070 H     1 <1>   0.0800 
 39 H        1.0300     8.2260     0.1970 H     1 <1>   0.0800 
 40 H        1.7380     7.1710    -0.9680 H     1 <1>   0.0800 
 41 H        2.4290     7.4180     1.9700 H     1 <1>   0.0800 
 42 H        3.4240     7.8700     0.6260 H     1 <1>   0.0800 
 43 H        4.4970     8.0530    -3.4000 H     1 <1>   0.3700 
 44 H        6.7530     5.4080     1.2250 H     1 <1>   0.1500 
 45 H        8.9730     8.2370    -2.1100 H     1 <1>   0.1500 
 46 H        9.1180     5.8810     1.4260 H     1 <1>   0.1500 
 47 H       10.2540     7.2910    -0.2340 H     1 <1>   0.1500 
@<TRIPOS>BOND
  1   1   2  1   
  2   1   3  1   
  3   2   4  2   
  4   2   5  1   
  5   3   6  2   
  6   3  29  1   
  7   4   6  1   
  8   5  30  1   
  9   5  31  1   
 10   5  32  1   
 11   6   7  1   
 12   7   8  2   
 13   7   9  am  
 14   9  10  1   
 15   9  11  1   
 16  10  12  1   
 17  10  33  1   
 18  10  34  1   
 19  11  13  1   
 20  11  35  1   
 21  11  36  1   
 22  12  14  1   
 23  12  37  1   
 24  12  38  1   
 25  13  15  1   
 26  13  39  1   
 27  13  40  1   
 28  14  15  1   
 29  14  16  am  
 30  15  41  1   
 31  15  42  1   
 32  16  17  2   
 33  16  18  1   
 34  18  19  2   
 35  18  20  1   
 36  19  21  1   
 37  20  22  ar  
 38  20  23  ar  
 39  21  24  am  
 40  21  43  1   
 41  22  24  1   
 42  22  25  ar  
 43  23  26  ar  
 44  23  44  1   
 45  24  27  2   
 46  25  28  ar  
 47  25  45  1   
 48  26  28  ar  
 49  26  46  1   
 50  28  47  1   
@<TRIPOS>SUBSTRUCTURE
  1 ****  16 GROUP 4 **** **** 0

# MOE 2024.06 (io_trps.svl 2023.06)
