@<TRIPOS>MOLECULE
NONAME
45 47 1 0 0 
SMALL
USER_CHARGES


@<TRIPOS>ATOM
  1 F        0.5310    -0.6350     0.0050 F     1 <1>  -0.1900 
  2 C        0.1490    -1.8810     0.1040 C.ar  1 <1>   0.1900 
  3 C       -0.8010    -2.3590    -0.7790 C.ar  1 <1>  -0.1500 
  4 C        0.7100    -2.6730     1.0870 C.ar  1 <1>  -0.1500 
  5 C       -1.2050    -3.6800    -0.6740 C.ar  1 <1>  -0.1500 
  6 C        0.3000    -3.9920     1.1850 C.ar  1 <1>  -0.1500 
  7 C       -0.6530    -4.5010     0.3110 C.ar  1 <1>   0.0830 
  8 O       -0.9920    -5.8040     0.4820 O.3   1 <1>  -0.3630 
  9 C       -1.9410    -6.4340    -0.3430 C.3   1 <1>   0.1200 
 10 C       -2.0440    -7.8910     0.1210 C.3   1 <1>   0.3430 
 11 N       -3.0380    -8.6870    -0.6740 N.4   1 <1>  -0.9590 
 12 C       -4.4700    -8.2620    -0.4630 C.3   1 <1>   0.3430 
 13 C       -2.9570   -10.1480    -0.3520 C.3   1 <1>   0.3430 
 14 C       -5.2060    -9.4650     0.1370 C.3   1 <1>   0.2000 
 15 C       -4.3960   -10.6610    -0.3530 C.3   1 <1>  -0.0800 
 16 O       -5.1610    -9.3820     1.5250 O.3   1 <1>  -0.6800 
 17 C       -4.5900   -11.9870     0.4110 C.3   1 <1>   0.0200 
 18 C       -3.5370   -12.9930    -0.0120 C.2   1 <1>  -0.0400 
 19 O       -3.2720   -13.1610    -1.2800 O.3   1 <1>  -0.0190 
 20 C       -2.7300   -13.8030     0.6890 C.2   1 <1>  -0.1500 
 21 N       -2.3180   -14.0220    -1.4650 N.2   1 <1>  -0.4100 
 22 C       -1.9780   -14.4380    -0.2970 C.2   1 <1>   0.1080 
 23 C       -0.9070   -15.4750    -0.0420 C.3   1 <1>  -0.0590 
 24 H       -1.2090    -1.7050    -1.5290 H     1 <1>   0.1500 
 25 H        1.4460    -2.2640     1.7550 H     1 <1>   0.1500 
 26 H       -1.9430    -4.0390    -1.3650 H     1 <1>   0.1500 
 27 H        0.7210    -4.6310     1.9410 H     1 <1>   0.1500 
 28 H       -2.8760    -5.9160    -0.2250 H     1 <1>   0.0800 
 29 H       -1.5900    -6.3770    -1.3580 H     1 <1>   0.0800 
 30 H       -2.3210    -7.9030     1.1620 H     1 <1>   0.0800 
 31 H       -1.0690    -8.3410     0.0240 H     1 <1>   0.0800 
 32 H       -2.8140    -8.5870    -1.6760 H     1 <1>   0.4500 
 33 H       -4.5540    -7.4080     0.1890 H     1 <1>   0.0800 
 34 H       -4.9140    -8.0220    -1.4160 H     1 <1>   0.0800 
 35 H       -2.3530   -10.6840    -1.0690 H     1 <1>   0.0800 
 36 H       -2.5330   -10.2880     0.6300 H     1 <1>   0.0800 
 37 H       -6.2410    -9.5030    -0.1600 H     1 <1>   0.0800 
 38 H       -4.6620   -10.8400    -1.3810 H     1 <1>   0.0800 
 39 H       -4.2560    -9.4230     1.8880 H     1 <1>   0.4000 
 40 H       -5.5660   -12.3870     0.1950 H     1 <1>   0.0800 
 41 H       -4.5200   -11.8480     1.4750 H     1 <1>   0.0800 
 42 H       -2.6470   -13.9580     1.7490 H     1 <1>   0.1500 
 43 H       -0.1590   -15.0790     0.6200 H     1 <1>   0.0800 
 44 H       -0.4380   -15.7550    -0.9680 H     1 <1>   0.0800 
 45 H       -1.3450   -16.3500     0.4020 H     1 <1>   0.0800 
@<TRIPOS>BOND
  1   1   2  1   
  2   2   3  ar  
  3   2   4  ar  
  4   3   5  ar  
  5   3  24  1   
  6   4   6  ar  
  7   4  25  1   
  8   5   7  ar  
  9   5  26  1   
 10   6   7  ar  
 11   6  27  1   
 12   7   8  1   
 13   8   9  1   
 14   9  10  1   
 15   9  28  1   
 16   9  29  1   
 17  10  11  1   
 18  10  30  1   
 19  10  31  1   
 20  11  12  1   
 21  11  13  1   
 22  11  32  1   
 23  12  14  1   
 24  12  33  1   
 25  12  34  1   
 26  13  15  1   
 27  13  35  1   
 28  13  36  1   
 29  14  15  1   
 30  14  16  1   
 31  14  37  1   
 32  15  17  1   
 33  15  38  1   
 34  16  39  1   
 35  17  18  1   
 36  17  40  1   
 37  17  41  1   
 38  18  19  1   
 39  18  20  2   
 40  19  21  1   
 41  20  22  1   
 42  20  42  1   
 43  21  22  2   
 44  22  23  1   
 45  23  43  1   
 46  23  44  1   
 47  23  45  1   
@<TRIPOS>SUBSTRUCTURE
  1 ****  10 GROUP 4 **** **** 0

# MOE 2024.06 (io_trps.svl 2023.06)
