@<TRIPOS>MOLECULE
NONAME
45 47 1 0 0 
SMALL
USER_CHARGES


@<TRIPOS>ATOM
  1 O       -0.8630     0.3590    -1.5600 O.2   1 <1>  -0.5700 
  2 C       -1.8090     1.0040    -1.1180 C.2   1 <1>   0.5440 
  3 N       -3.0690     0.4410    -1.3260 N.am  1 <1>  -0.6600 
  4 C       -1.5820     2.2540    -0.4200 C.ar  1 <1>   0.3960 
  5 C       -3.2360    -1.0270    -1.4540 C.3   1 <1>   0.1400 
  6 C       -4.3420     1.2060    -1.2160 C.3   1 <1>   0.1400 
  7 N       -2.3420     2.5650     0.6610 N.ar  1 <1>  -0.6200 
  8 C       -0.5690     3.1180    -0.8670 C.ar  1 <1>  -0.1500 
  9 C       -4.0100    -1.5540    -0.2250 C.3   1 <1>   0.4230 
 10 C       -5.1280     0.6910    -0.0040 C.3   1 <1>  -0.1600 
 11 C       -2.1060     3.7180     1.2400 C.ar  1 <1>   0.1600 
 12 C       -0.3340     4.3170    -0.2540 C.ar  1 <1>  -0.1500 
 13 N       -4.0820    -3.0760    -0.1560 N.4   1 <1>  -0.9590 
 14 C       -5.3840    -0.8440    -0.0340 C.3   1 <1>   0.0000 
 15 C       -1.1320     4.6460     0.8360 C.ar  1 <1>  -0.1710 
 16 C       -5.1480    -3.5980     0.7600 C.3   1 <1>   0.3430 
 17 C       -4.1570    -3.7780    -1.4800 C.3   1 <1>   0.2630 
 18 C       -5.9990    -1.2700     1.3330 C.3   1 <1>  -0.1600 
 19 C       -6.3440    -1.2100    -1.2020 C.3   1 <1>   0.1200 
 20 O       -0.9760     5.7350     1.4290 O.3   1 <1>  -0.8290 
 21 C       -5.4450    -2.6010     1.8780 C.3   1 <1>  -0.1600 
 22 O       -7.5040    -0.4550    -1.1710 O.3   1 <1>  -0.6800 
 23 H       -3.7570    -1.2300    -2.3710 H     1 <1>   0.0800 
 24 H       -2.2750    -1.5070    -1.4950 H     1 <1>   0.0800 
 25 H       -4.1480     2.2610    -1.1090 H     1 <1>   0.0800 
 26 H       -4.9160     1.0780    -2.1180 H     1 <1>   0.0800 
 27 H        0.0260     2.8230    -1.7100 H     1 <1>   0.1500 
 28 H       -3.4190    -1.2430     0.6210 H     1 <1>   0.0800 
 29 H       -4.5610     0.9520     0.8740 H     1 <1>   0.0800 
 30 H       -6.0540     1.2340     0.0610 H     1 <1>   0.0800 
 31 H       -2.6880     4.0050     2.0960 H     1 <1>   0.1500 
 32 H        0.4240     5.0120    -0.5620 H     1 <1>   0.1500 
 33 H       -3.1840    -3.3490     0.2710 H     1 <1>   0.4500 
 34 H       -6.0560    -3.7680     0.2050 H     1 <1>   0.0800 
 35 H       -4.8370    -4.5400     1.1840 H     1 <1>   0.0800 
 36 H       -5.0540    -3.4990    -2.0060 H     1 <1>   0.0800 
 37 H       -4.1620    -4.8470    -1.3350 H     1 <1>   0.0800 
 38 H       -3.3050    -3.5260    -2.0910 H     1 <1>   0.0800 
 39 H       -5.8130    -0.5170     2.0820 H     1 <1>   0.0800 
 40 H       -7.0690    -1.3460     1.2500 H     1 <1>   0.0800 
 41 H       -6.6350    -2.2440    -1.1630 H     1 <1>   0.0800 
 42 H       -5.8880    -1.0210    -2.1580 H     1 <1>   0.0800 
 43 H       -6.1630    -3.0300     2.5550 H     1 <1>   0.0800 
 44 H       -4.5450    -2.4240     2.4430 H     1 <1>   0.0800 
 45 H       -7.9960    -0.5640    -0.3330 H     1 <1>   0.4000 
@<TRIPOS>BOND
  1   1   2  2   
  2   2   3  am  
  3   2   4  1   
  4   3   5  1   
  5   3   6  1   
  6   4   7  ar  
  7   4   8  ar  
  8   5   9  1   
  9   5  23  1   
 10   5  24  1   
 11   6  10  1   
 12   6  25  1   
 13   6  26  1   
 14   7  11  ar  
 15   8  12  ar  
 16   8  27  1   
 17   9  13  1   
 18   9  14  1   
 19   9  28  1   
 20  10  14  1   
 21  10  29  1   
 22  10  30  1   
 23  11  15  ar  
 24  11  31  1   
 25  12  15  ar  
 26  12  32  1   
 27  13  16  1   
 28  13  17  1   
 29  13  33  1   
 30  14  18  1   
 31  14  19  1   
 32  15  20  1   
 33  16  21  1   
 34  16  34  1   
 35  16  35  1   
 36  17  36  1   
 37  17  37  1   
 38  17  38  1   
 39  18  21  1   
 40  18  39  1   
 41  18  40  1   
 42  19  22  1   
 43  19  41  1   
 44  19  42  1   
 45  21  43  1   
 46  21  44  1   
 47  22  45  1   
@<TRIPOS>SUBSTRUCTURE
  1 ****   3 GROUP 4 **** **** 0

# MOE 2024.06 (io_trps.svl 2023.06)
