@<TRIPOS>MOLECULE
NONAME
51 53 1 0 0 
SMALL
USER_CHARGES


@<TRIPOS>ATOM
  1 O       -0.7470     0.4260     0.8230 O.2   1 <1>  -0.5700 
  2 C       -1.7840     0.9110     0.4290 C.2   1 <1>   0.5690 
  3 N       -2.8390     0.1330     0.0430 N.am  1 <1>  -0.6600 
  4 C       -1.8510     2.4480     0.3680 C.3   1 <1>   0.4040 
  5 C       -4.2190     0.5790    -0.2940 C.3   1 <1>   0.1400 
  6 C       -2.7930    -1.3550     0.1010 C.3   1 <1>   0.1400 
  7 N       -0.4880     3.0930     0.2480 N.4   1 <1>  -0.9590 
  8 C       -5.1020    -0.6120     0.0730 C.3   1 <1>   0.2000 
  9 C       -4.2150    -1.8230    -0.2360 C.3   1 <1>  -0.0800 
 10 C       -0.4900     4.5100     0.7200 C.3   1 <1>   0.4230 
 11 C        0.1080     2.8430    -1.1040 C.3   1 <1>   0.2630 
 12 O       -5.3600    -0.5520     1.4340 O.3   1 <1>  -0.6800 
 13 C       -4.6230    -3.1380     0.4540 C.3   1 <1>  -0.0170 
 14 C       -1.1790     5.4610    -0.2610 C.3   1 <1>  -0.1600 
 15 C        0.9320     5.0540     0.8380 C.3   1 <1>  -0.1600 
 16 C       -3.7070    -4.2760     0.0300 C.ar  1 <1>  -0.1430 
 17 C       -0.0910     6.0400    -1.1730 C.3   1 <1>  -0.1600 
 18 C        1.2450     5.8120    -0.4590 C.3   1 <1>  -0.1600 
 19 C       -2.6810    -4.7310     0.8340 C.ar  1 <1>  -0.1500 
 20 C       -3.8570    -4.9130    -1.1850 C.ar  1 <1>  -0.1500 
 21 C       -1.8720    -5.7660     0.3910 C.ar  1 <1>   0.1600 
 22 C       -2.9930    -5.9380    -1.5330 C.ar  1 <1>   0.1600 
 23 N       -2.0020    -6.3780    -0.7740 N.ar  1 <1>  -0.6200 
 24 H       -2.3280     2.7840     1.2720 H     1 <1>   0.0800 
 25 H       -2.4670     2.7380    -0.4650 H     1 <1>   0.0800 
 26 H       -4.5160     1.4620     0.2470 H     1 <1>   0.0800 
 27 H       -4.2840     0.7600    -1.3530 H     1 <1>   0.0800 
 28 H       -2.0770    -1.7450    -0.6040 H     1 <1>   0.0800 
 29 H       -2.5110    -1.6630     1.0930 H     1 <1>   0.0800 
 30 H        0.0970     2.5510     0.9090 H     1 <1>   0.4500 
 31 H       -6.0420    -0.6210    -0.4530 H     1 <1>   0.0800 
 32 H       -4.2510    -1.9840    -1.2990 H     1 <1>   0.0800 
 33 H       -0.9740     4.5590     1.6830 H     1 <1>   0.0800 
 34 H       -0.4690     3.3360    -1.8680 H     1 <1>   0.0800 
 35 H        0.1290     1.7840    -1.3120 H     1 <1>   0.0800 
 36 H        1.1190     3.2140    -1.1410 H     1 <1>   0.0800 
 37 H       -4.5190    -0.5900     1.9300 H     1 <1>   0.4000 
 38 H       -5.6370    -3.3820     0.1910 H     1 <1>   0.0800 
 39 H       -4.5880    -3.0320     1.5250 H     1 <1>   0.0800 
 40 H       -1.9780     5.0050    -0.8170 H     1 <1>   0.0800 
 41 H       -1.5940     6.2740     0.3110 H     1 <1>   0.0800 
 42 H        0.9460     5.7640     1.6470 H     1 <1>   0.0800 
 43 H        1.6580     4.2900     1.0540 H     1 <1>   0.0800 
 44 H       -0.0890     5.5400    -2.1260 H     1 <1>   0.0800 
 45 H       -0.2590     7.0900    -1.3480 H     1 <1>   0.0800 
 46 H        1.7260     6.7510    -0.2380 H     1 <1>   0.0800 
 47 H        1.9080     5.2390    -1.0860 H     1 <1>   0.0800 
 48 H       -2.4990    -4.2960     1.7990 H     1 <1>   0.1500 
 49 H       -4.6360    -4.6230    -1.8660 H     1 <1>   0.1500 
 50 H       -1.0760    -6.1080     1.0310 H     1 <1>   0.1500 
 51 H       -3.1240    -6.4230    -2.4850 H     1 <1>   0.1500 
@<TRIPOS>BOND
  1   1   2  2   
  2   2   3  am  
  3   2   4  1   
  4   3   5  1   
  5   3   6  1   
  6   4   7  1   
  7   4  24  1   
  8   4  25  1   
  9   5   8  1   
 10   5  26  1   
 11   5  27  1   
 12   6   9  1   
 13   6  28  1   
 14   6  29  1   
 15   7  10  1   
 16   7  11  1   
 17   7  30  1   
 18   8   9  1   
 19   8  12  1   
 20   8  31  1   
 21   9  13  1   
 22   9  32  1   
 23  10  14  1   
 24  10  15  1   
 25  10  33  1   
 26  11  34  1   
 27  11  35  1   
 28  11  36  1   
 29  12  37  1   
 30  13  16  1   
 31  13  38  1   
 32  13  39  1   
 33  14  17  1   
 34  14  40  1   
 35  14  41  1   
 36  15  18  1   
 37  15  42  1   
 38  15  43  1   
 39  16  19  ar  
 40  16  20  ar  
 41  17  18  1   
 42  17  44  1   
 43  17  45  1   
 44  18  46  1   
 45  18  47  1   
 46  19  21  ar  
 47  19  48  1   
 48  20  22  ar  
 49  20  49  1   
 50  21  23  ar  
 51  21  50  1   
 52  22  23  ar  
 53  22  51  1   
@<TRIPOS>SUBSTRUCTURE
  1 ****   3 GROUP 4 **** **** 0

# MOE 2024.06 (io_trps.svl 2023.06)
