@<TRIPOS>MOLECULE
NONAME
48 51 1 0 0 
SMALL
USER_CHARGES


@<TRIPOS>ATOM
  1 O        0.2920    -0.3270    -1.4060 O.2   1 <1>  -0.5700 
  2 C        1.3390    -0.9110    -1.1990 C.2   1 <1>   0.5440 
  3 N        2.4670    -0.1840    -0.8760 N.am  1 <1>  -0.6600 
  4 C        1.3570    -2.3560    -1.2960 C.ar  1 <1>   0.0860 
  5 C        3.6720    -0.7700    -0.2210 C.3   1 <1>   0.1400 
  6 C        2.4940     1.3040    -0.9760 C.3   1 <1>   0.1400 
  7 C        0.4720    -3.1490    -0.5900 C.ar  1 <1>  -0.1500 
  8 C        2.2470    -3.0460    -2.1070 C.ar  1 <1>  -0.1500 
  9 C        3.8400    -0.1740     1.1810 C.3   1 <1>  -0.1600 
 10 C        2.6480     1.9140     0.4200 C.3   1 <1>  -0.1600 
 11 C        0.5120    -4.5310    -0.6960 C.ar  1 <1>   0.4100 
 12 C        2.2180    -4.4250    -2.1490 C.ar  1 <1>   0.1600 
 13 C        3.8830     1.3600     1.1460 C.3   1 <1>  -0.1600 
 14 N        1.3820    -5.1810    -1.4590 N.ar  1 <1>  -0.6200 
 15 N       -0.3780    -5.2860     0.0260 N.pl3 1 <1>  -0.8690 
 16 C       -0.7510    -6.6560    -0.3970 C.3   1 <1>   0.4330 
 17 C       -2.0770    -7.0760     0.1940 C.ar  1 <1>  -0.1440 
 18 C        0.2270    -7.7100     0.1670 C.3   1 <1>   0.2000 
 19 C       -2.0000    -8.3510     0.7060 C.ar  1 <1>  -0.1440 
 20 C       -3.2630    -6.3640     0.2500 C.ar  1 <1>  -0.1500 
 21 O        1.2280    -8.0170    -0.7480 O.3   1 <1>  -0.6800 
 22 C       -0.6160    -8.9400     0.5270 C.3   1 <1>  -0.0170 
 23 C       -3.1010    -8.9430     1.2950 C.ar  1 <1>  -0.1500 
 24 C       -4.3720    -6.9510     0.8400 C.ar  1 <1>  -0.1500 
 25 C       -4.2910    -8.2340     1.3610 C.ar  1 <1>  -0.1500 
 26 H        3.5880    -1.8390    -0.1370 H     1 <1>   0.0800 
 27 H        4.5380    -0.5460    -0.8190 H     1 <1>   0.0800 
 28 H        3.3220     1.5970    -1.5970 H     1 <1>   0.0800 
 29 H        1.5920     1.6730    -1.4350 H     1 <1>   0.0800 
 30 H       -0.2550    -2.6850     0.0470 H     1 <1>   0.1500 
 31 H        2.9550    -2.4990    -2.7020 H     1 <1>   0.1500 
 32 H        3.0180    -0.4980     1.7960 H     1 <1>   0.0800 
 33 H        4.7460    -0.5500     1.6210 H     1 <1>   0.0800 
 34 H        2.7280     2.9830     0.3330 H     1 <1>   0.0800 
 35 H        1.7610     1.6980     0.9900 H     1 <1>   0.0800 
 36 H        2.9220    -4.9370    -2.7850 H     1 <1>   0.1500 
 37 H        4.7730     1.6820     0.6330 H     1 <1>   0.0800 
 38 H        3.9180     1.7470     2.1500 H     1 <1>   0.0800 
 39 H       -1.1600    -4.7980     0.4610 H     1 <1>   0.4000 
 40 H       -0.8070    -6.7280    -1.4710 H     1 <1>   0.0800 
 41 H        0.6890    -7.3190     1.0570 H     1 <1>   0.0800 
 42 H       -3.3290    -5.3720    -0.1630 H     1 <1>   0.1500 
 43 H        1.5860    -7.1570    -1.0810 H     1 <1>   0.4000 
 44 H       -0.6270    -9.6510    -0.2800 H     1 <1>   0.0800 
 45 H       -0.2640    -9.3980     1.4330 H     1 <1>   0.0800 
 46 H       -3.0370    -9.9400     1.6960 H     1 <1>   0.1500 
 47 H       -5.3000    -6.4100     0.8920 H     1 <1>   0.1500 
 48 H       -5.1560    -8.6830     1.8170 H     1 <1>   0.1500 
@<TRIPOS>BOND
  1   1   2  2   
  2   2   3  am  
  3   2   4  1   
  4   3   5  1   
  5   3   6  1   
  6   4   7  ar  
  7   4   8  ar  
  8   5   9  1   
  9   5  26  1   
 10   5  27  1   
 11   6  10  1   
 12   6  28  1   
 13   6  29  1   
 14   7  11  ar  
 15   7  30  1   
 16   8  12  ar  
 17   8  31  1   
 18   9  13  1   
 19   9  32  1   
 20   9  33  1   
 21  10  13  1   
 22  10  34  1   
 23  10  35  1   
 24  11  14  ar  
 25  11  15  1   
 26  12  14  ar  
 27  12  36  1   
 28  13  37  1   
 29  13  38  1   
 30  15  16  1   
 31  15  39  1   
 32  16  17  1   
 33  16  18  1   
 34  16  40  1   
 35  17  19  ar  
 36  17  20  ar  
 37  18  21  1   
 38  18  22  1   
 39  18  41  1   
 40  19  22  1   
 41  19  23  ar  
 42  20  24  ar  
 43  20  42  1   
 44  21  43  1   
 45  22  44  1   
 46  22  45  1   
 47  23  25  ar  
 48  23  46  1   
 49  24  25  ar  
 50  24  47  1   
 51  25  48  1   
@<TRIPOS>SUBSTRUCTURE
  1 ****  11 GROUP 4 **** **** 0

# MOE 2024.06 (io_trps.svl 2023.06)
