@<TRIPOS>MOLECULE
NONAME
55 57 1 0 0 
SMALL
USER_CHARGES


@<TRIPOS>ATOM
  1 N        1.0520    -0.0170     0.1840 N.ar  1 <1>  -0.6200 
  2 C        1.8600    -0.9100     0.7590 C.ar  1 <1>   0.7200 
  3 C        0.0470    -0.5080    -0.5000 C.ar  1 <1>   0.1600 
  4 N        1.7440    -2.2320     0.6870 N.ar  1 <1>  -0.6200 
  5 N        2.9200    -0.4150     1.4890 N.pl3 1 <1>  -0.8380 
  6 C       -0.1700    -1.8600    -0.6330 C.ar  1 <1>  -0.1430 
  7 C        0.7300    -2.6900    -0.0050 C.ar  1 <1>   0.1600 
  8 C        2.9850     1.0000     1.9130 C.3   1 <1>   0.2090 
  9 C        4.2270    -1.1230     1.5410 C.3   1 <1>   0.2090 
 10 C       -1.3430    -2.4100    -1.4280 C.3   1 <1>  -0.0160 
 11 C        3.8870     1.7460     0.9240 C.3   1 <1>  -0.0800 
 12 C        5.2230    -0.3910     0.6310 C.3   1 <1>  -0.1600 
 13 C       -2.5660    -2.5970    -0.5230 C.3   1 <1>  -0.1600 
 14 C        5.3000     1.1190     0.9230 C.3   1 <1>  -0.1600 
 15 C        3.8820     3.2390     1.2670 C.3   1 <1>   0.3430 
 16 C       -3.7620    -3.1520    -1.3020 C.3   1 <1>  -0.2400 
 17 N        4.6980     4.0280     0.3020 N.4   1 <1>  -0.9590 
 18 C        4.9710     5.4310     0.7520 C.3   1 <1>   0.3430 
 19 C        4.1840     4.0240    -1.1110 C.3   1 <1>   0.3430 
 20 C        5.9380     6.1520    -0.2220 C.3   1 <1>   0.1100 
 21 C        5.1630     4.7550    -2.0620 C.3   1 <1>   0.1100 
 22 N        6.3500     5.2820    -1.3490 N.3   1 <1>  -0.8100 
 23 C        7.2580     5.9850    -2.2650 C.3   1 <1>   0.0300 
 24 H       -0.6280     0.1880    -0.9680 H     1 <1>   0.1500 
 25 H        0.6120    -3.7580    -0.0700 H     1 <1>   0.1500 
 26 H        3.3890     1.0470     2.9100 H     1 <1>   0.0800 
 27 H        1.9980     1.4300     1.9380 H     1 <1>   0.0800 
 28 H        4.1320    -2.1480     1.2230 H     1 <1>   0.0800 
 29 H        4.5840    -1.1270     2.5570 H     1 <1>   0.0800 
 30 H       -1.0690    -3.3530    -1.8680 H     1 <1>   0.0800 
 31 H       -1.5850    -1.7330    -2.2300 H     1 <1>   0.0800 
 32 H        3.4390     1.6150    -0.0450 H     1 <1>   0.0800 
 33 H        4.9150    -0.5460    -0.3890 H     1 <1>   0.0800 
 34 H        6.1950    -0.8360     0.7450 H     1 <1>   0.0800 
 35 H       -2.8350    -1.6510    -0.0840 H     1 <1>   0.0800 
 36 H       -2.3180    -3.2730     0.2780 H     1 <1>   0.0800 
 37 H        5.7630     1.2640     1.8840 H     1 <1>   0.0800 
 38 H        5.9230     1.5790     0.1760 H     1 <1>   0.0800 
 39 H        4.2810     3.3660     2.2600 H     1 <1>   0.0800 
 40 H        2.8670     3.6030     1.2640 H     1 <1>   0.0800 
 41 H       -4.0430    -2.4790    -2.0930 H     1 <1>   0.0800 
 42 H       -4.6040    -3.2730    -0.6430 H     1 <1>   0.0800 
 43 H       -3.5230    -4.1100    -1.7290 H     1 <1>   0.0800 
 44 H        5.6400     3.6130     0.2130 H     1 <1>   0.4500 
 45 H        5.4130     5.4220     1.7350 H     1 <1>   0.0800 
 46 H        4.0500     5.9860     0.8100 H     1 <1>   0.0800 
 47 H        3.2200     4.5030    -1.1550 H     1 <1>   0.0800 
 48 H        4.0620     3.0120    -1.4590 H     1 <1>   0.0800 
 49 H        6.8130     6.4630     0.3240 H     1 <1>   0.0800 
 50 H        5.4610     7.0400    -0.6000 H     1 <1>   0.0800 
 51 H        4.6430     5.5600    -2.5540 H     1 <1>   0.0800 
 52 H        5.4850     4.0660    -2.8250 H     1 <1>   0.0800 
 53 H        8.1330     6.3200    -1.7340 H     1 <1>   0.0800 
 54 H        6.7700     6.8380    -2.7080 H     1 <1>   0.0800 
 55 H        7.5770     5.3200    -3.0500 H     1 <1>   0.0800 
@<TRIPOS>BOND
  1   1   2  ar  
  2   1   3  ar  
  3   2   4  ar  
  4   2   5  1   
  5   3   6  ar  
  6   3  24  1   
  7   4   7  ar  
  8   5   8  1   
  9   5   9  1   
 10   6   7  ar  
 11   6  10  1   
 12   7  25  1   
 13   8  11  1   
 14   8  26  1   
 15   8  27  1   
 16   9  12  1   
 17   9  28  1   
 18   9  29  1   
 19  10  13  1   
 20  10  30  1   
 21  10  31  1   
 22  11  14  1   
 23  11  15  1   
 24  11  32  1   
 25  12  14  1   
 26  12  33  1   
 27  12  34  1   
 28  13  16  1   
 29  13  35  1   
 30  13  36  1   
 31  14  37  1   
 32  14  38  1   
 33  15  17  1   
 34  15  39  1   
 35  15  40  1   
 36  16  41  1   
 37  16  42  1   
 38  16  43  1   
 39  17  18  1   
 40  17  19  1   
 41  17  44  1   
 42  18  20  1   
 43  18  45  1   
 44  18  46  1   
 45  19  21  1   
 46  19  47  1   
 47  19  48  1   
 48  20  22  1   
 49  20  49  1   
 50  20  50  1   
 51  21  22  1   
 52  21  51  1   
 53  21  52  1   
 54  22  23  1   
 55  23  53  1   
 56  23  54  1   
 57  23  55  1   
@<TRIPOS>SUBSTRUCTURE
  1 ****  11 GROUP 4 **** **** 0

# MOE 2024.06 (io_trps.svl 2023.06)
