@<TRIPOS>MOLECULE
NONAME
48 50 1 0 0 
SMALL
USER_CHARGES


@<TRIPOS>ATOM
  1 O       -1.0400     0.2060    -2.3220 O.2   1 <1>  -0.5700 
  2 C       -1.1880     1.1470    -1.5860 C.2   1 <1>   0.5690 
  3 N       -2.1390     1.2970    -0.6170 N.am  1 <1>  -0.4770 
  4 C       -0.2620     2.3260    -1.6470 C.3   1 <1>  -0.0990 
  5 C       -3.1370     0.3880    -0.2130 C.ar  1 <1>   0.1170 
  6 C       -1.9460     2.5690     0.1020 C.3   1 <1>   0.1400 
  7 C       -0.5570     3.0580    -0.3400 C.3   1 <1>   0.2890 
  8 C       -4.3760     0.8440     0.2320 C.ar  1 <1>  -0.1500 
  9 C       -2.9100    -0.9840    -0.2300 C.ar  1 <1>  -0.1500 
 10 N       -0.5300     4.5280    -0.5500 N.pl3 1 <1>  -0.8690 
 11 C       -5.3550    -0.0370     0.6620 C.ar  1 <1>  -0.1430 
 12 C       -3.8820    -1.8700     0.1940 C.ar  1 <1>  -0.1500 
 13 C        0.2660     5.5120    -0.1180 C.ar  1 <1>   0.7710 
 14 C       -5.1020    -1.3980     0.6420 C.ar  1 <1>  -0.1500 
 15 C       -6.7020     0.4700     1.1460 C.3   1 <1>  -0.0970 
 16 N       -0.0790     6.7180    -0.5010 N.ar  1 <1>  -0.6200 
 17 N        1.3390     5.2660     0.6520 N.ar  1 <1>  -0.1790 
 18 C        0.6560     7.7350    -0.0880 C.ar  1 <1>   0.4100 
 19 C        2.1420     6.2770     1.0630 C.ar  1 <1>   0.2110 
 20 N        0.2310     8.9680    -0.4610 N.pl3 1 <1>  -0.8380 
 21 C        1.8230     7.5440     0.6970 C.ar  1 <1>  -0.1430 
 22 C       -0.0780    10.0480     0.5180 C.3   1 <1>   0.1290 
 23 C       -0.3010     9.2290    -1.8300 C.3   1 <1>   0.1290 
 24 C        2.7290     8.7090     1.0930 C.3   1 <1>  -0.0970 
 25 H       -0.5170     2.9130    -2.5100 H     1 <1>   0.0800 
 26 H        0.7580     1.9950    -1.7040 H     1 <1>   0.0800 
 27 H       -1.9850     2.4040     1.1650 H     1 <1>   0.0800 
 28 H       -2.7140     3.2600    -0.1970 H     1 <1>   0.0800 
 29 H        0.1580     2.7590     0.4070 H     1 <1>   0.0800 
 30 H       -4.5850     1.8960     0.2360 H     1 <1>   0.1500 
 31 H       -1.9670    -1.3660    -0.5770 H     1 <1>   0.1500 
 32 H       -1.2820     4.8750    -1.1590 H     1 <1>   0.4000 
 33 H       -3.6890    -2.9290     0.1740 H     1 <1>   0.1500 
 34 H       -5.8540    -2.0930     0.9710 H     1 <1>   0.1500 
 35 H       -6.7000     1.5400     1.2460 H     1 <1>   0.0800 
 36 H       -6.9340     0.0380     2.1030 H     1 <1>   0.0800 
 37 H       -7.4680     0.1920     0.4440 H     1 <1>   0.0800 
 38 H        1.5280     4.2990     0.8850 H     1 <1>   0.4570 
 39 H        3.0110     6.0450     1.6580 H     1 <1>   0.1500 
 40 H        0.0210     9.6840     1.5250 H     1 <1>   0.0800 
 41 H       -1.0910    10.3880     0.3820 H     1 <1>   0.0800 
 42 H        0.5920    10.8770     0.3710 H     1 <1>   0.0800 
 43 H        0.0200     8.4600    -2.5110 H     1 <1>   0.0800 
 44 H        0.0600    10.1770    -2.1900 H     1 <1>   0.0800 
 45 H       -1.3770     9.2450    -1.8080 H     1 <1>   0.0800 
 46 H        2.8810     9.3610     0.2500 H     1 <1>   0.0800 
 47 H        3.6940     8.3620     1.4200 H     1 <1>   0.0800 
 48 H        2.2870     9.2760     1.8910 H     1 <1>   0.0800 
@<TRIPOS>BOND
  1   1   2  2   
  2   2   3  am  
  3   2   4  1   
  4   3   5  1   
  5   3   6  1   
  6   4   7  1   
  7   4  25  1   
  8   4  26  1   
  9   5   8  ar  
 10   5   9  ar  
 11   6   7  1   
 12   6  27  1   
 13   6  28  1   
 14   7  10  1   
 15   7  29  1   
 16   8  11  ar  
 17   8  30  1   
 18   9  12  ar  
 19   9  31  1   
 20  10  13  1   
 21  10  32  1   
 22  11  14  ar  
 23  11  15  1   
 24  12  14  ar  
 25  12  33  1   
 26  13  16  ar  
 27  13  17  ar  
 28  14  34  1   
 29  15  35  1   
 30  15  36  1   
 31  15  37  1   
 32  16  18  ar  
 33  17  19  ar  
 34  17  38  1   
 35  18  20  1   
 36  18  21  ar  
 37  19  21  ar  
 38  19  39  1   
 39  20  22  1   
 40  20  23  1   
 41  21  24  1   
 42  22  40  1   
 43  22  41  1   
 44  22  42  1   
 45  23  43  1   
 46  23  44  1   
 47  23  45  1   
 48  24  46  1   
 49  24  47  1   
 50  24  48  1   
@<TRIPOS>SUBSTRUCTURE
  1 ****   7 GROUP 4 **** **** 0

# MOE 2024.06 (io_trps.svl 2023.06)
