@<TRIPOS>MOLECULE
NONAME
49 50 1 0 0 
SMALL
USER_CHARGES


@<TRIPOS>ATOM
  1 S        0.1000     0.2900    -0.3830 S.o2  1 <1>   1.3330 
  2 O        0.0410    -1.1540    -0.3840 O.2   1 <1>  -0.6500 
  3 O       -0.2980     1.0190    -1.5660 O.2   1 <1>  -0.6500 
  4 N       -0.8360     0.8450     0.9190 N.am  1 <1>  -0.8490 
  5 C        1.7500     0.8480     0.0380 C.3   1 <1>  -0.0550 
  6 C       -0.7640    -0.0290     2.0960 C.3   1 <1>   0.1160 
  7 C       -2.2390     1.0460     0.5410 C.3   1 <1>   0.1160 
  8 C        2.8230     0.4120    -0.9900 C.3   1 <1>  -0.0800 
  9 C        4.1720     1.1090    -0.8330 C.3   1 <1>   0.2200 
 10 C        3.2430    -1.0300    -0.7180 C.3   1 <1>   0.1200 
 11 N        4.0600     2.5420    -0.4650 N.am  1 <1>  -0.7300 
 12 C        4.8820     0.2570     0.2250 C.3   1 <1>   0.1200 
 13 O        4.1580    -0.9370     0.3240 O.3   1 <1>  -0.5600 
 14 C        5.1130     3.3840    -0.2580 C.2   1 <1>   0.7150 
 15 O        6.2340     2.9150    -0.2730 O.2   1 <1>  -0.5700 
 16 C        4.8800     4.7900    -0.0420 C.2   1 <1>  -0.0450 
 17 S        3.2250     5.3660     0.0050 S.3   1 <1>  -0.0800 
 18 C        5.6740     5.8730     0.1480 C.2   1 <1>   0.0460 
 19 C        3.7880     6.9950     0.2700 C.2   1 <1>   0.1980 
 20 N        5.0560     7.0930     0.3200 N.2   1 <1>  -0.5650 
 21 C        7.1900     5.9120     0.1950 C.3   1 <1>  -0.0590 
 22 C        2.7260     8.0840     0.4080 C.3   1 <1>   0.1000 
 23 C        2.1290     8.4310    -0.9630 C.3   1 <1>  -0.2400 
 24 C        3.2890     9.3510     1.0670 C.3   1 <1>  -0.2400 
 25 H        1.7090     1.9160     0.0970 H     1 <1>   0.0800 
 26 H        2.0220     0.4840     1.0100 H     1 <1>   0.0800 
 27 H       -1.3070     0.4090     2.9160 H     1 <1>   0.0800 
 28 H        0.2600    -0.1620     2.4010 H     1 <1>   0.0800 
 29 H       -1.1860    -0.9970     1.8750 H     1 <1>   0.0800 
 30 H       -2.8040     1.4110     1.3810 H     1 <1>   0.0800 
 31 H       -2.6710     0.1210     0.1970 H     1 <1>   0.0800 
 32 H       -2.3060     1.7740    -0.2510 H     1 <1>   0.0800 
 33 H        2.4520     0.5210    -1.9940 H     1 <1>   0.0800 
 34 H        4.7290     1.0310    -1.7530 H     1 <1>   0.0800 
 35 H        3.7520    -1.4550    -1.5680 H     1 <1>   0.0800 
 36 H        2.4380    -1.6790    -0.4230 H     1 <1>   0.0800 
 37 H        3.1480     2.9740    -0.6100 H     1 <1>   0.3700 
 38 H        4.8750     0.7310     1.1910 H     1 <1>   0.0800 
 39 H        5.8910     0.0270    -0.0700 H     1 <1>   0.0800 
 40 H        7.6220     4.9410     0.0520 H     1 <1>   0.0800 
 41 H        7.5080     6.2930     1.1480 H     1 <1>   0.0800 
 42 H        7.5540     6.5670    -0.5750 H     1 <1>   0.0800 
 43 H        1.9420     7.7020     1.0380 H     1 <1>   0.0800 
 44 H        2.8990     8.7970    -1.6190 H     1 <1>   0.0800 
 45 H        1.3710     9.1870    -0.8620 H     1 <1>   0.0800 
 46 H        1.6840     7.5600    -1.4100 H     1 <1>   0.0800 
 47 H        4.0730     9.7700     0.4610 H     1 <1>   0.0800 
 48 H        3.7010     9.1090     2.0310 H     1 <1>   0.0800 
 49 H        2.5170    10.0870     1.1970 H     1 <1>   0.0800 
@<TRIPOS>BOND
  1   1   2  2   
  2   1   3  2   
  3   1   4  am  
  4   1   5  1   
  5   4   6  1   
  6   4   7  1   
  7   5   8  1   
  8   5  25  1   
  9   5  26  1   
 10   6  27  1   
 11   6  28  1   
 12   6  29  1   
 13   7  30  1   
 14   7  31  1   
 15   7  32  1   
 16   8   9  1   
 17   8  10  1   
 18   8  33  1   
 19   9  11  1   
 20   9  12  1   
 21   9  34  1   
 22  10  13  1   
 23  10  35  1   
 24  10  36  1   
 25  11  14  am  
 26  11  37  1   
 27  12  13  1   
 28  12  38  1   
 29  12  39  1   
 30  14  15  2   
 31  14  16  1   
 32  16  17  1   
 33  16  18  2   
 34  17  19  1   
 35  18  20  1   
 36  18  21  1   
 37  19  20  2   
 38  19  22  1   
 39  21  40  1   
 40  21  41  1   
 41  21  42  1   
 42  22  23  1   
 43  22  24  1   
 44  22  43  1   
 45  23  44  1   
 46  23  45  1   
 47  23  46  1   
 48  24  47  1   
 49  24  48  1   
 50  24  49  1   
@<TRIPOS>SUBSTRUCTURE
  1 ****  11 GROUP 4 **** **** 0

# MOE 2024.06 (io_trps.svl 2023.06)
