@<TRIPOS>MOLECULE
NONAME
52 54 1 0 0 
SMALL
USER_CHARGES


@<TRIPOS>ATOM
  1 O       -1.1890     1.2980     2.1610 O.2   1 <1>  -0.5700 
  2 C       -1.2480     1.7280     1.0190 C.2   1 <1>   0.5440 
  3 N       -0.9070     0.8650    -0.0160 N.am  1 <1>  -0.6600 
  4 C       -1.7010     3.1080     0.8090 C.ar  1 <1>   0.3960 
  5 C       -0.2770    -0.4610     0.2370 C.3   1 <1>   0.0600 
  6 C       -1.1740     1.1590    -1.4500 C.3   1 <1>   0.0600 
  7 N       -1.0780     3.8980    -0.0850 N.ar  1 <1>  -0.6200 
  8 C       -2.7770     3.5710     1.5670 C.ar  1 <1>  -0.1500 
  9 C       -1.5330     5.1250    -0.2120 C.ar  1 <1>   0.4100 
 10 C       -3.2540     4.8560     1.4180 C.ar  1 <1>  -0.1500 
 11 N       -0.8380     5.8710    -1.1170 N.pl3 1 <1>  -0.8690 
 12 C       -2.6110     5.6440     0.4980 C.ar  1 <1>  -0.1500 
 13 C       -0.2180     7.1460    -0.7060 C.3   1 <1>   0.2090 
 14 C        1.3180     7.0630    -0.8110 C.3   1 <1>  -0.0800 
 15 C        2.0340     8.4340    -0.6120 C.3   1 <1>   0.4230 
 16 C        1.9070     5.9710     0.1120 C.3   1 <1>  -0.1600 
 17 N        3.3990     8.2590    -0.0180 N.4   1 <1>  -0.9590 
 18 C        1.2910     9.4550     0.2710 C.3   1 <1>  -0.1600 
 19 C        3.4230     5.8130    -0.1140 C.3   1 <1>  -0.1600 
 20 C        4.1200     7.0940    -0.5850 C.3   1 <1>   0.3430 
 21 C        4.2000     9.5100    -0.0760 C.3   1 <1>   0.3430 
 22 C        2.0520    10.7880     0.3630 C.3   1 <1>  -0.1600 
 23 C        3.5110    10.5700     0.7830 C.3   1 <1>  -0.1600 
 24 H        0.5580    -0.6010    -0.4270 H     1 <1>   0.0800 
 25 H       -0.9990    -1.2410     0.0720 H     1 <1>   0.0800 
 26 H        0.0800    -0.5300     1.2500 H     1 <1>   0.0800 
 27 H       -1.4470     0.2560    -1.9670 H     1 <1>   0.0800 
 28 H       -0.2900     1.5730    -1.9030 H     1 <1>   0.0800 
 29 H       -1.9810     1.8640    -1.5500 H     1 <1>   0.0800 
 30 H       -3.2360     2.9070     2.2790 H     1 <1>   0.1500 
 31 H       -4.0890     5.2180     1.9940 H     1 <1>   0.1500 
 32 H       -0.2020     5.2580    -1.6340 H     1 <1>   0.4000 
 33 H       -2.9290     6.6510     0.3130 H     1 <1>   0.1500 
 34 H       -0.5930     7.9200    -1.3550 H     1 <1>   0.0800 
 35 H       -0.5080     7.3790     0.3060 H     1 <1>   0.0800 
 36 H        1.5240     6.7710    -1.8260 H     1 <1>   0.0800 
 37 H        2.1400     8.8770    -1.5900 H     1 <1>   0.0800 
 38 H        1.7170     6.2340     1.1390 H     1 <1>   0.0800 
 39 H        1.4350     5.0180    -0.0600 H     1 <1>   0.0800 
 40 H        3.2440     8.0440     0.9740 H     1 <1>   0.4500 
 41 H        0.3220     9.6700    -0.1420 H     1 <1>   0.0800 
 42 H        1.1440     9.0460     1.2560 H     1 <1>   0.0800 
 43 H        3.5950     5.0520    -0.8570 H     1 <1>   0.0800 
 44 H        3.8830     5.4650     0.7950 H     1 <1>   0.0800 
 45 H        4.1000     7.1470    -1.6620 H     1 <1>   0.0800 
 46 H        5.1490     7.0850    -0.2620 H     1 <1>   0.0800 
 47 H        5.1950     9.3330     0.3000 H     1 <1>   0.0800 
 48 H        4.2740     9.8530    -1.0950 H     1 <1>   0.0800 
 49 H        2.0300    11.2760    -0.5980 H     1 <1>   0.0800 
 50 H        1.5630    11.4400     1.0680 H     1 <1>   0.0800 
 51 H        3.5540    10.2730     1.8170 H     1 <1>   0.0800 
 52 H        4.0500    11.4990     0.6970 H     1 <1>   0.0800 
@<TRIPOS>BOND
  1   1   2  2   
  2   2   3  am  
  3   2   4  1   
  4   3   5  1   
  5   3   6  1   
  6   4   7  ar  
  7   4   8  ar  
  8   5  24  1   
  9   5  25  1   
 10   5  26  1   
 11   6  27  1   
 12   6  28  1   
 13   6  29  1   
 14   7   9  ar  
 15   8  10  ar  
 16   8  30  1   
 17   9  11  1   
 18   9  12  ar  
 19  10  12  ar  
 20  10  31  1   
 21  11  13  1   
 22  11  32  1   
 23  12  33  1   
 24  13  14  1   
 25  13  34  1   
 26  13  35  1   
 27  14  15  1   
 28  14  16  1   
 29  14  36  1   
 30  15  17  1   
 31  15  18  1   
 32  15  37  1   
 33  16  19  1   
 34  16  38  1   
 35  16  39  1   
 36  17  20  1   
 37  17  21  1   
 38  17  40  1   
 39  18  22  1   
 40  18  41  1   
 41  18  42  1   
 42  19  20  1   
 43  19  43  1   
 44  19  44  1   
 45  20  45  1   
 46  20  46  1   
 47  21  23  1   
 48  21  47  1   
 49  21  48  1   
 50  22  23  1   
 51  22  49  1   
 52  22  50  1   
 53  23  51  1   
 54  23  52  1   
@<TRIPOS>SUBSTRUCTURE
  1 ****  16 GROUP 4 **** **** 0

# MOE 2024.06 (io_trps.svl 2023.06)
