@<TRIPOS>MOLECULE
NONAME
49 51 1 0 0 
SMALL
USER_CHARGES


@<TRIPOS>ATOM
  1 F       -0.0560     0.7840     0.0240 F     1 <1>  -0.1900 
  2 C       -1.2090     1.3840    -0.0850 C.ar  1 <1>   0.1900 
  3 C       -1.3020     2.7160     0.2160 C.ar  1 <1>  -0.1500 
  4 C       -2.3010     0.6340    -0.5080 C.ar  1 <1>  -0.1500 
  5 C       -2.5400     3.3840     0.1040 C.ar  1 <1>   0.0000 
  6 C       -3.5160     1.2610    -0.6260 C.ar  1 <1>  -0.1500 
  7 C       -3.6540     2.6290    -0.3270 C.ar  1 <1>   0.3610 
  8 C       -2.7110     4.7740     0.3970 C.ar  1 <1>   0.1000 
  9 N       -4.8770     3.2500    -0.4500 N.ar  1 <1>  -0.1790 
 10 N       -1.6570     5.5120     0.8160 N.pl3 1 <1>  -0.8690 
 11 C       -3.9910     5.3130     0.2440 C.ar  1 <1>  -0.1500 
 12 C       -5.0540     4.5530    -0.1750 C.ar  1 <1>   0.2180 
 13 C       -1.5590     6.9580     1.1200 C.3   1 <1>   0.2090 
 14 C       -6.4450     5.1440    -0.3390 C.3   1 <1>  -0.0970 
 15 C       -0.2740     7.4830     0.4810 C.3   1 <1>  -0.1600 
 16 C       -0.1190     8.9850     0.7250 C.3   1 <1>   0.3430 
 17 N        1.0660     9.5130    -0.0080 N.4   1 <1>  -0.9590 
 18 C        2.3650     9.0490     0.6060 C.3   1 <1>   0.3430 
 19 C        1.0140    11.0050    -0.0780 C.3   1 <1>   0.3430 
 20 C        3.5960     9.5820    -0.1510 C.3   1 <1>   0.2000 
 21 C        2.1880    11.5340    -0.9080 C.3   1 <1>  -0.1600 
 22 O        4.7130     9.2750     0.5970 O.3   1 <1>  -0.6800 
 23 C        3.5440    11.1020    -0.3270 C.3   1 <1>  -0.1600 
 24 H       -0.4190     3.2340     0.5360 H     1 <1>   0.1500 
 25 H       -2.1660    -0.4120    -0.7310 H     1 <1>   0.1500 
 26 H       -4.3680     0.6910    -0.9530 H     1 <1>   0.1500 
 27 H       -5.6680     2.6810    -0.7610 H     1 <1>   0.4570 
 28 H       -0.7700     5.0250     0.9950 H     1 <1>   0.4000 
 29 H       -4.1530     6.3500     0.4670 H     1 <1>   0.1500 
 30 H       -1.5340     7.0930     2.1890 H     1 <1>   0.0800 
 31 H       -2.4060     7.4890     0.7230 H     1 <1>   0.0800 
 32 H       -7.1450     4.6430     0.3070 H     1 <1>   0.0800 
 33 H       -6.7780     5.0480    -1.3580 H     1 <1>   0.0800 
 34 H       -6.4480     6.1900    -0.0850 H     1 <1>   0.0800 
 35 H       -0.3200     7.2940    -0.5770 H     1 <1>   0.0800 
 36 H        0.5580     6.9530     0.9070 H     1 <1>   0.0800 
 37 H       -0.0180     9.1810     1.7810 H     1 <1>   0.0800 
 38 H       -1.0070     9.4870     0.3740 H     1 <1>   0.0800 
 39 H        1.0320     9.1610    -0.9740 H     1 <1>   0.4500 
 40 H        2.4090     7.9730     0.6110 H     1 <1>   0.0800 
 41 H        2.4210     9.3980     1.6240 H     1 <1>   0.0800 
 42 H        1.0650    11.4200     0.9170 H     1 <1>   0.0800 
 43 H        0.0870    11.3230    -0.5290 H     1 <1>   0.0800 
 44 H        3.6880     9.0860    -1.1020 H     1 <1>   0.0800 
 45 H        2.1420    12.6100    -0.9280 H     1 <1>   0.0800 
 46 H        2.0930    11.1920    -1.9240 H     1 <1>   0.0800 
 47 H        5.5320     9.5860     0.1560 H     1 <1>   0.4000 
 48 H        4.3350    11.4220    -0.9840 H     1 <1>   0.0800 
 49 H        3.6820    11.5790     0.6300 H     1 <1>   0.0800 
@<TRIPOS>BOND
  1   1   2  1   
  2   2   3  ar  
  3   2   4  ar  
  4   3   5  ar  
  5   3  24  1   
  6   4   6  ar  
  7   4  25  1   
  8   5   7  ar  
  9   5   8  ar  
 10   6   7  ar  
 11   6  26  1   
 12   7   9  ar  
 13   8  10  1   
 14   8  11  ar  
 15   9  12  ar  
 16   9  27  1   
 17  10  13  1   
 18  10  28  1   
 19  11  12  ar  
 20  11  29  1   
 21  12  14  1   
 22  13  15  1   
 23  13  30  1   
 24  13  31  1   
 25  14  32  1   
 26  14  33  1   
 27  14  34  1   
 28  15  16  1   
 29  15  35  1   
 30  15  36  1   
 31  16  17  1   
 32  16  37  1   
 33  16  38  1   
 34  17  18  1   
 35  17  19  1   
 36  17  39  1   
 37  18  20  1   
 38  18  40  1   
 39  18  41  1   
 40  19  21  1   
 41  19  42  1   
 42  19  43  1   
 43  20  22  1   
 44  20  23  1   
 45  20  44  1   
 46  21  23  1   
 47  21  45  1   
 48  21  46  1   
 49  22  47  1   
 50  23  48  1   
 51  23  49  1   
@<TRIPOS>SUBSTRUCTURE
  1 ****  10 GROUP 4 **** **** 0

# MOE 2024.06 (io_trps.svl 2023.06)
