@<TRIPOS>MOLECULE
NONAME
43 45 1 0 0 
SMALL
USER_CHARGES


@<TRIPOS>ATOM
  1 O        1.6970    -1.8740    -2.0070 O.co2 1 <1>  -0.9000 
  2 C        2.0170    -3.0600    -2.2000 C.2   1 <1>   0.9790 
  3 O        2.5940    -3.3630    -3.2590 O.co2 1 <1>  -0.9000 
  4 C        1.7150    -4.0780    -1.2010 C.ar  1 <1>  -0.1790 
  5 C        1.1130    -3.7480     0.0130 C.ar  1 <1>  -0.1500 
  6 C        2.0160    -5.4230    -1.4160 C.ar  1 <1>  -0.1500 
  7 C        0.8160    -4.7080     0.9610 C.ar  1 <1>  -0.1500 
  8 C        1.7240    -6.3920    -0.4750 C.ar  1 <1>  -0.1500 
  9 C        1.1140    -6.0400     0.7200 C.ar  1 <1>  -0.1430 
 10 C        0.7520    -7.0910     1.7460 C.3   1 <1>   0.4870 
 11 N       -0.3010    -7.9710     1.1740 N.4   1 <1>  -0.9590 
 12 C       -1.4690    -7.2360     0.5920 C.3   1 <1>   0.3430 
 13 C       -0.8440    -9.0090     2.0850 C.3   1 <1>   0.3430 
 14 C       -2.6900    -8.1510     0.7860 C.3   1 <1>   0.2000 
 15 C       -2.1840    -9.4290     1.4720 C.3   1 <1>  -0.0800 
 16 O       -3.6090    -7.5330     1.6240 O.3   1 <1>  -0.6800 
 17 C       -2.0480   -10.6270     0.5000 C.3   1 <1>   0.0200 
 18 C       -0.8210   -10.5360    -0.3890 C.2   1 <1>  -0.0400 
 19 O       -0.6950    -9.5400    -1.2210 O.3   1 <1>  -0.0190 
 20 C        0.2770   -11.3010    -0.4910 C.2   1 <1>  -0.1500 
 21 N        0.4500    -9.5610    -1.8290 N.2   1 <1>  -0.4100 
 22 C        1.0500   -10.6260    -1.4320 C.2   1 <1>   0.1080 
 23 C        2.4100   -11.0670    -1.9270 C.3   1 <1>  -0.0590 
 24 H        0.8800    -2.7110     0.1990 H     1 <1>   0.1500 
 25 H        2.4860    -5.6960    -2.3470 H     1 <1>   0.1500 
 26 H        0.3520    -4.3940     1.8790 H     1 <1>   0.1500 
 27 H        1.9780    -7.4130    -0.6990 H     1 <1>   0.1500 
 28 H        0.3910    -6.6100     2.6390 H     1 <1>   0.0800 
 29 H        1.6280    -7.6680     1.9930 H     1 <1>   0.0800 
 30 H        0.1280    -8.4470     0.3580 H     1 <1>   0.4500 
 31 H       -1.6280    -6.2960     1.0950 H     1 <1>   0.0800 
 32 H       -1.2960    -7.0470    -0.4560 H     1 <1>   0.0800 
 33 H       -0.1690    -9.8450     2.1800 H     1 <1>   0.0800 
 34 H       -1.0170    -8.5800     3.0590 H     1 <1>   0.0800 
 35 H       -3.1850    -8.3430    -0.1520 H     1 <1>   0.0800 
 36 H       -2.8650    -9.7310     2.2500 H     1 <1>   0.0800 
 37 H       -3.2680    -7.3670     2.5240 H     1 <1>   0.4000 
 38 H       -2.9300   -10.7120    -0.1120 H     1 <1>   0.0800 
 39 H       -1.9760   -11.5350     1.0750 H     1 <1>   0.0800 
 40 H        0.5430   -12.2110     0.0150 H     1 <1>   0.1500 
 41 H        3.0180   -11.3990    -1.1050 H     1 <1>   0.0800 
 42 H        2.9070   -10.2500    -2.4200 H     1 <1>   0.0800 
 43 H        2.2950   -11.8730    -2.6280 H     1 <1>   0.0800 
@<TRIPOS>BOND
  1   1   2  ar  
  2   2   3  ar  
  3   2   4  1   
  4   4   5  ar  
  5   4   6  ar  
  6   5   7  ar  
  7   5  24  1   
  8   6   8  ar  
  9   6  25  1   
 10   7   9  ar  
 11   7  26  1   
 12   8   9  ar  
 13   8  27  1   
 14   9  10  1   
 15  10  11  1   
 16  10  28  1   
 17  10  29  1   
 18  11  12  1   
 19  11  13  1   
 20  11  30  1   
 21  12  14  1   
 22  12  31  1   
 23  12  32  1   
 24  13  15  1   
 25  13  33  1   
 26  13  34  1   
 27  14  15  1   
 28  14  16  1   
 29  14  35  1   
 30  15  17  1   
 31  15  36  1   
 32  16  37  1   
 33  17  18  1   
 34  17  38  1   
 35  17  39  1   
 36  18  19  1   
 37  18  20  2   
 38  19  21  1   
 39  20  22  1   
 40  20  40  1   
 41  21  22  2   
 42  22  23  1   
 43  23  41  1   
 44  23  42  1   
 45  23  43  1   
@<TRIPOS>SUBSTRUCTURE
  1 ****  11 GROUP 4 **** **** 0

# MOE 2024.06 (io_trps.svl 2023.06)
