@<TRIPOS>MOLECULE
NONAME
54 56 1 0 0 
SMALL
USER_CHARGES


@<TRIPOS>ATOM
  1 S       -1.1060    -0.7100    -1.6170 S.3   1 <1>  -0.3320 
  2 C       -0.0080    -0.5950    -0.2160 C.ar  1 <1>   0.7220 
  3 C       -2.7850    -1.0250    -0.8820 C.3   1 <1>   0.1310 
  4 N       -0.5560    -0.8160     0.9700 N.ar  1 <1>  -0.6200 
  5 N        1.2460    -0.2960    -0.5170 N.ar  1 <1>  -0.6200 
  6 C       -3.6850    -1.7480    -1.8770 C.2   1 <1>   0.5690 
  7 C        0.2800    -0.7660     1.9800 C.ar  1 <1>   0.1660 
  8 C        2.0490    -0.2330     0.5200 C.ar  1 <1>   0.1600 
  9 O       -4.2760    -1.0600    -2.6790 O.2   1 <1>  -0.5700 
 10 N       -3.8670    -3.1120    -1.8580 N.am  1 <1>  -0.6600 
 11 C        1.6120    -0.4700     1.8020 C.ar  1 <1>  -0.1500 
 12 C       -0.2870    -1.0550     3.3520 C.3   1 <1>  -0.0970 
 13 C       -3.2590    -4.0180    -0.8170 C.3   1 <1>   0.3640 
 14 C       -4.7820    -3.7160    -2.8750 C.3   1 <1>   0.1400 
 15 C       -1.7460    -4.1070    -1.0280 C.ar  1 <1>  -0.1430 
 16 C       -3.8440    -5.4650    -0.7340 C.3   1 <1>   0.2000 
 17 C       -4.7660    -5.2450    -2.8740 C.3   1 <1>   0.1200 
 18 C       -0.8940    -4.0230     0.0660 C.ar  1 <1>  -0.1500 
 19 C       -1.1990    -4.2780    -2.2930 C.ar  1 <1>  -0.1500 
 20 O       -4.9430    -5.6970    -1.5730 O.3   1 <1>  -0.5600 
 21 C       -4.3010    -5.8240     0.6880 C.3   1 <1>   0.1200 
 22 C        0.4800    -4.1100    -0.0880 C.ar  1 <1>   0.0830 
 23 C        0.1720    -4.3530    -2.4630 C.ar  1 <1>  -0.1500 
 24 O       -3.2540    -5.6970     1.5960 O.3   1 <1>  -0.6800 
 25 O        1.2310    -4.0490     1.0430 O.3   1 <1>  -0.3630 
 26 C        1.0170    -4.2550    -1.3720 C.ar  1 <1>   0.0830 
 27 C        2.1530    -5.0920     1.2710 C.3   1 <1>   0.0400 
 28 O        2.3480    -4.2830    -1.6130 O.3   1 <1>  -0.3630 
 29 C        2.9910    -3.0320    -1.5250 C.3   1 <1>   0.0400 
 30 H       -2.6630    -1.5940     0.0150 H     1 <1>   0.0800 
 31 H       -3.1970    -0.0640    -0.6400 H     1 <1>   0.0800 
 32 H        3.0830     0.0090     0.3420 H     1 <1>   0.1500 
 33 H        2.2920    -0.4260     2.6320 H     1 <1>   0.1500 
 34 H        0.4670    -0.9600     4.1110 H     1 <1>   0.0800 
 35 H       -0.6760    -2.0580     3.3740 H     1 <1>   0.0800 
 36 H       -1.0860    -0.3690     3.5660 H     1 <1>   0.0800 
 37 H       -3.4290    -3.5590     0.1400 H     1 <1>   0.0800 
 38 H       -5.7850    -3.3800    -2.6770 H     1 <1>   0.0800 
 39 H       -4.5080    -3.3590    -3.8540 H     1 <1>   0.0800 
 40 H       -3.0850    -6.1700    -1.0280 H     1 <1>   0.0800 
 41 H       -3.8410    -5.6310    -3.2650 H     1 <1>   0.0800 
 42 H       -5.5790    -5.6220    -3.4700 H     1 <1>   0.0800 
 43 H       -1.2850    -3.8850     1.0580 H     1 <1>   0.1500 
 44 H       -1.8350    -4.3390    -3.1580 H     1 <1>   0.1500 
 45 H       -4.6570    -6.8390     0.7240 H     1 <1>   0.0800 
 46 H       -5.0870    -5.1580     0.9990 H     1 <1>   0.0800 
 47 H        0.5930    -4.4730    -3.4440 H     1 <1>   0.1500 
 48 H       -2.5810    -6.3950     1.4550 H     1 <1>   0.4000 
 49 H        2.4160    -5.0850     2.3130 H     1 <1>   0.0800 
 50 H        3.0310    -4.9270     0.6740 H     1 <1>   0.0800 
 51 H        1.6940    -6.0300     1.0130 H     1 <1>   0.0800 
 52 H        4.0130    -3.1540    -1.8340 H     1 <1>   0.0800 
 53 H        2.9480    -2.6910    -0.5070 H     1 <1>   0.0800 
 54 H        2.4870    -2.3340    -2.1710 H     1 <1>   0.0800 
@<TRIPOS>BOND
  1   1   2  1   
  2   1   3  1   
  3   2   4  ar  
  4   2   5  ar  
  5   3   6  1   
  6   3  30  1   
  7   3  31  1   
  8   4   7  ar  
  9   5   8  ar  
 10   6   9  2   
 11   6  10  am  
 12   7  11  ar  
 13   7  12  1   
 14   8  11  ar  
 15   8  32  1   
 16  10  13  1   
 17  10  14  1   
 18  11  33  1   
 19  12  34  1   
 20  12  35  1   
 21  12  36  1   
 22  13  15  1   
 23  13  16  1   
 24  13  37  1   
 25  14  17  1   
 26  14  38  1   
 27  14  39  1   
 28  15  18  ar  
 29  15  19  ar  
 30  16  20  1   
 31  16  21  1   
 32  16  40  1   
 33  17  20  1   
 34  17  41  1   
 35  17  42  1   
 36  18  22  ar  
 37  18  43  1   
 38  19  23  ar  
 39  19  44  1   
 40  21  24  1   
 41  21  45  1   
 42  21  46  1   
 43  22  25  1   
 44  22  26  ar  
 45  23  26  ar  
 46  23  47  1   
 47  24  48  1   
 48  25  27  1   
 49  26  28  1   
 50  27  49  1   
 51  27  50  1   
 52  27  51  1   
 53  28  29  1   
 54  29  52  1   
 55  29  53  1   
 56  29  54  1   
@<TRIPOS>SUBSTRUCTURE
  1 ****  18 GROUP 4 **** **** 0

# MOE 2024.06 (io_trps.svl 2023.06)
