@<TRIPOS>MOLECULE
NONAME
50 52 1 0 0 
SMALL
USER_CHARGES


@<TRIPOS>ATOM
  1 O        0.2230    -0.4840    -1.2010 O.2   1 <1>  -0.5700 
  2 C        1.0990    -0.7690    -0.4210 C.2   1 <1>   0.5690 
  3 N        1.9900     0.1340     0.0840 N.am  1 <1>  -0.5470 
  4 C        1.1760    -2.2380     0.0320 C.3   1 <1>   0.4040 
  5 C        2.1390     1.4920    -0.0920 C.ar  1 <1>   0.4270 
  6 N       -0.1350    -2.9800    -0.1210 N.4   1 <1>  -0.9590 
  7 N        3.0600     1.9820     0.7180 N.ar  1 <1>  -0.6200 
  8 C        1.4240     2.2660    -1.0040 C.ar  1 <1>  -0.1500 
  9 C       -1.1760    -2.4630     0.8130 C.3   1 <1>   0.3430 
 10 C        0.0230    -4.4570    -0.0430 C.3   1 <1>   0.3430 
 11 C        3.2770     3.2850     0.6250 C.ar  1 <1>   0.1600 
 12 C        1.6620     3.6180    -1.0870 C.ar  1 <1>  -0.1500 
 13 C       -2.5210    -3.1080     0.4810 C.3   1 <1>  -0.1600 
 14 C       -1.3060    -5.1370    -0.3780 C.3   1 <1>  -0.1600 
 15 C        2.6200     4.1420    -0.2430 C.ar  1 <1>  -0.1430 
 16 C       -2.4600    -4.6440     0.5170 C.3   1 <1>  -0.0800 
 17 C        2.9320     5.6290    -0.2830 C.3   1 <1>  -0.0970 
 18 C       -3.8180    -5.2230     0.0760 C.3   1 <1>  -0.1600 
 19 C       -3.9260    -6.7490     0.2420 C.3   1 <1>   0.0960 
 20 N       -5.2160    -7.2310    -0.2840 N.pl3 1 <1>   0.3140 
 21 N       -5.3920    -7.4670    -1.5950 N.2   1 <1>  -0.7070 
 22 C       -6.3400    -7.4810     0.4160 C.2   1 <1>  -0.3020 
 23 C       -6.6240    -7.8640    -1.6980 C.2   1 <1>   0.1390 
 24 C       -7.2720    -7.8930    -0.4690 C.2   1 <1>  -0.1500 
 25 H        2.6920    -0.1760     0.7530 H     1 <1>   0.3700 
 26 H        1.4930    -2.2710     1.0600 H     1 <1>   0.0800 
 27 H        1.9290    -2.7200    -0.5670 H     1 <1>   0.0800 
 28 H       -0.4750    -2.7340    -1.0670 H     1 <1>   0.4500 
 29 H        0.6900     1.8240    -1.6480 H     1 <1>   0.1500 
 30 H       -1.2640    -1.3920     0.7150 H     1 <1>   0.0800 
 31 H       -0.9050    -2.6930     1.8310 H     1 <1>   0.0800 
 32 H        0.3300    -4.7400     0.9510 H     1 <1>   0.0800 
 33 H        0.7770    -4.7880    -0.7400 H     1 <1>   0.0800 
 34 H        4.0260     3.6940     1.2830 H     1 <1>   0.1500 
 35 H        1.1230     4.2390    -1.7820 H     1 <1>   0.1500 
 36 H       -2.8380    -2.7700    -0.4910 H     1 <1>   0.0800 
 37 H       -3.2510    -2.7600     1.1920 H     1 <1>   0.0800 
 38 H       -1.1750    -6.1980    -0.2580 H     1 <1>   0.0800 
 39 H       -1.5400    -4.9590    -1.4140 H     1 <1>   0.0800 
 40 H       -2.2690    -4.9520     1.5330 H     1 <1>   0.0800 
 41 H        3.6870     5.8850     0.4380 H     1 <1>   0.0800 
 42 H        2.0450     6.1960    -0.0650 H     1 <1>   0.0800 
 43 H        3.2870     5.9030    -1.2610 H     1 <1>   0.0800 
 44 H       -3.9930    -4.9770    -0.9590 H     1 <1>   0.0800 
 45 H       -4.6030    -4.7690     0.6570 H     1 <1>   0.0800 
 46 H       -3.8520    -7.0250     1.2780 H     1 <1>   0.0800 
 47 H       -3.1520    -7.2500    -0.3080 H     1 <1>   0.0800 
 48 H       -6.4160    -7.3550     1.4800 H     1 <1>   0.1500 
 49 H       -7.0830    -8.1370    -2.6340 H     1 <1>   0.1500 
 50 H       -8.2920    -8.1850    -0.2960 H     1 <1>   0.1500 
@<TRIPOS>BOND
  1   1   2  2   
  2   2   3  am  
  3   2   4  1   
  4   3   5  1   
  5   3  25  1   
  6   4   6  1   
  7   4  26  1   
  8   4  27  1   
  9   5   7  ar  
 10   5   8  ar  
 11   6   9  1   
 12   6  10  1   
 13   6  28  1   
 14   7  11  ar  
 15   8  12  ar  
 16   8  29  1   
 17   9  13  1   
 18   9  30  1   
 19   9  31  1   
 20  10  14  1   
 21  10  32  1   
 22  10  33  1   
 23  11  15  ar  
 24  11  34  1   
 25  12  15  ar  
 26  12  35  1   
 27  13  16  1   
 28  13  36  1   
 29  13  37  1   
 30  14  16  1   
 31  14  38  1   
 32  14  39  1   
 33  15  17  1   
 34  16  18  1   
 35  16  40  1   
 36  17  41  1   
 37  17  42  1   
 38  17  43  1   
 39  18  19  1   
 40  18  44  1   
 41  18  45  1   
 42  19  20  1   
 43  19  46  1   
 44  19  47  1   
 45  20  21  1   
 46  20  22  1   
 47  21  23  2   
 48  22  24  2   
 49  22  48  1   
 50  23  24  1   
 51  23  49  1   
 52  24  50  1   
@<TRIPOS>SUBSTRUCTURE
  1 ****   9 GROUP 4 **** **** 0

# MOE 2024.06 (io_trps.svl 2023.06)
