@<TRIPOS>MOLECULE
NONAME
20 21 1 0 0 
SMALL
USER_CHARGES


@<TRIPOS>ATOM
  1 BR       1.3860    -0.9620    -0.2080 Br    1 <1>  -0.0570 
  2 C       -0.2270    -2.0020    -0.4710 C.2   1 <1>   0.0570 
  3 C       -1.0050    -1.9920    -1.6160 C.2   1 <1>   0.1390 
  4 C       -0.7980    -2.8490     0.4000 C.2   1 <1>  -0.3020 
  5 N       -2.0220    -2.7930    -1.4810 N.2   1 <1>  -0.7070 
  6 N       -1.8900    -3.3300    -0.2360 N.pl3 1 <1>   0.5610 
  7 C       -2.8880    -4.2880     0.3110 C.3   1 <1>  -0.0860 
  8 C       -2.4300    -5.3600     1.2610 C.3   1 <1>  -0.2000 
  9 C       -2.8060    -5.7150    -0.1470 C.3   1 <1>  -0.2000 
 10 C       -4.2600    -3.6280     0.4930 C.3   1 <1>   0.2150 
 11 O       -4.7690    -3.3030    -0.7500 O.3   1 <1>  -0.6800 
 12 H       -0.8030    -1.4060    -2.4960 H     1 <1>   0.1500 
 13 H       -0.5110    -3.1300     1.3940 H     1 <1>   0.1500 
 14 H       -3.0860    -5.6930     2.0470 H     1 <1>   0.1000 
 15 H       -1.3920    -5.4380     1.5350 H     1 <1>   0.1000 
 16 H       -2.0350    -5.9830    -0.8500 H     1 <1>   0.1000 
 17 H       -3.7210    -6.2570    -0.3160 H     1 <1>   0.1000 
 18 H       -4.1810    -2.7290     1.0790 H     1 <1>   0.0800 
 19 H       -4.9570    -4.2990     0.9650 H     1 <1>   0.0800 
 20 H       -4.0250    -2.9970    -1.3240 H     1 <1>   0.4000 
@<TRIPOS>BOND
  1   1   2  1   
  2   2   3  1   
  3   2   4  2   
  4   3   5  2   
  5   3  12  1   
  6   4   6  1   
  7   4  13  1   
  8   5   6  1   
  9   6   7  1   
 10   7   8  1   
 11   7   9  1   
 12   7  10  1   
 13   8   9  1   
 14   8  14  1   
 15   8  15  1   
 16   9  16  1   
 17   9  17  1   
 18  10  11  1   
 19  10  18  1   
 20  10  19  1   
 21  11  20  1   
@<TRIPOS>SUBSTRUCTURE
  1 ****   6 GROUP 4 **** **** 0

# MOE 2024.06 (io_trps.svl 2023.06)
