@<TRIPOS>MOLECULE
NONAME
49 51 1 0 0 
SMALL
USER_CHARGES


@<TRIPOS>ATOM
  1 O       -2.8800    -1.1210     1.0850 O.3   1 <1>  -0.3630 
  2 C       -2.9650     0.0520     0.4050 C.ar  1 <1>   0.0830 
  3 C       -2.3610    -1.1780     2.3960 C.3   1 <1>   0.0400 
  4 C       -3.5010     0.0010    -0.8820 C.ar  1 <1>  -0.1440 
  5 C       -2.5560     1.2720     0.9400 C.ar  1 <1>  -0.1500 
  6 C       -3.6270     1.1620    -1.6340 C.ar  1 <1>  -0.1500 
  7 C       -3.9550    -1.3260    -1.4510 C.3   1 <1>   0.4870 
  8 C       -2.6940     2.4160     0.1790 C.ar  1 <1>  -0.1440 
  9 C       -3.2200     2.3630    -1.0870 C.ar  1 <1>  -0.1440 
 10 N       -5.0830    -1.8380    -0.6390 N.4   1 <1>  -0.9590 
 11 C       -2.3200     3.8280     0.5580 C.3   1 <1>  -0.0170 
 12 C       -3.2660     3.7320    -1.7190 C.3   1 <1>  -0.0170 
 13 C       -5.4300    -3.2440    -0.9500 C.3   1 <1>   0.5240 
 14 C       -6.2570    -0.9190    -0.5620 C.3   1 <1>   0.3430 
 15 C       -2.9790     4.6790    -0.5410 C.3   1 <1>  -0.1600 
 16 C       -4.8000    -4.1020     0.1350 C.2   1 <1>   0.0460 
 17 C       -7.1150    -1.1960     0.6800 C.3   1 <1>   0.1200 
 18 N       -4.9300    -3.7350     1.4290 N.2   1 <1>  -0.5650 
 19 C       -4.0700    -5.2380     0.0250 C.2   1 <1>  -0.3320 
 20 O       -8.2880    -0.4690     0.5620 O.3   1 <1>  -0.6800 
 21 C       -4.2890    -4.6530     2.0770 C.2   1 <1>   0.0360 
 22 N       -3.7420    -5.5960     1.2820 N.pl3 1 <1>   0.0330 
 23 C       -3.6400    -6.0480    -1.1870 C.3   1 <1>  -0.0600 
 24 H       -2.4000    -2.2010     2.7270 H     1 <1>   0.0800 
 25 H       -2.9640    -0.5630     3.0410 H     1 <1>   0.0800 
 26 H       -1.3400    -0.8380     2.3840 H     1 <1>   0.0800 
 27 H       -2.1380     1.3520     1.9250 H     1 <1>   0.1500 
 28 H       -4.0330     1.1480    -2.6300 H     1 <1>   0.1500 
 29 H       -3.1310    -2.0200    -1.4100 H     1 <1>   0.0800 
 30 H       -4.2570    -1.2030    -2.4780 H     1 <1>   0.0800 
 31 H       -4.6840    -1.9070     0.3220 H     1 <1>   0.4500 
 32 H       -1.2500     3.9360     0.5310 H     1 <1>   0.0800 
 33 H       -2.6900     4.0900     1.5340 H     1 <1>   0.0800 
 34 H       -4.2250     3.9350    -2.1630 H     1 <1>   0.0800 
 35 H       -2.4940     3.8110    -2.4640 H     1 <1>   0.0800 
 36 H       -5.0650    -3.5330    -1.9210 H     1 <1>   0.0800 
 37 H       -6.4980    -3.3810    -0.9210 H     1 <1>   0.0800 
 38 H       -6.8640    -1.0300    -1.4450 H     1 <1>   0.0800 
 39 H       -5.9190     0.1030    -0.5070 H     1 <1>   0.0800 
 40 H       -2.3550     5.5050    -0.8350 H     1 <1>   0.0800 
 41 H       -3.9130     5.0620    -0.1690 H     1 <1>   0.0800 
 42 H       -6.6040    -0.8770     1.5730 H     1 <1>   0.0800 
 43 H       -7.3790    -2.2360     0.7590 H     1 <1>   0.0800 
 44 H       -8.8450    -0.5620     1.3640 H     1 <1>   0.4000 
 45 H       -4.1900    -4.6850     3.1490 H     1 <1>   0.1500 
 46 H       -3.1990    -6.4130     1.5820 H     1 <1>   0.2700 
 47 H       -4.0100    -5.6110    -2.0960 H     1 <1>   0.0800 
 48 H       -4.0210    -7.0520    -1.1150 H     1 <1>   0.0800 
 49 H       -2.5660    -6.0930    -1.2420 H     1 <1>   0.0800 
@<TRIPOS>BOND
  1   1   2  1   
  2   1   3  1   
  3   2   4  ar  
  4   2   5  ar  
  5   3  24  1   
  6   3  25  1   
  7   3  26  1   
  8   4   6  ar  
  9   4   7  1   
 10   5   8  ar  
 11   5  27  1   
 12   6   9  ar  
 13   6  28  1   
 14   7  10  1   
 15   7  29  1   
 16   7  30  1   
 17   8   9  ar  
 18   8  11  1   
 19   9  12  1   
 20  10  13  1   
 21  10  14  1   
 22  10  31  1   
 23  11  15  1   
 24  11  32  1   
 25  11  33  1   
 26  12  15  1   
 27  12  34  1   
 28  12  35  1   
 29  13  16  1   
 30  13  36  1   
 31  13  37  1   
 32  14  17  1   
 33  14  38  1   
 34  14  39  1   
 35  15  40  1   
 36  15  41  1   
 37  16  18  1   
 38  16  19  2   
 39  17  20  1   
 40  17  42  1   
 41  17  43  1   
 42  18  21  2   
 43  19  22  1   
 44  19  23  1   
 45  20  44  1   
 46  21  22  1   
 47  21  45  1   
 48  22  46  1   
 49  23  47  1   
 50  23  48  1   
 51  23  49  1   
@<TRIPOS>SUBSTRUCTURE
  1 ****   4 GROUP 4 **** **** 0

# MOE 2024.06 (io_trps.svl 2023.06)
