@<TRIPOS>MOLECULE
NONAME
43 46 1 0 0 
SMALL
USER_CHARGES


@<TRIPOS>ATOM
  1 O       -0.3070    -1.1750     1.8880 O.3   1 <1>  -0.6800 
  2 C        0.4100    -2.2540     1.4000 C.3   1 <1>   0.2000 
  3 C        1.6410    -1.8390     0.5720 C.3   1 <1>   0.0000 
  4 C       -0.4580    -3.0980     0.4700 C.3   1 <1>  -0.1600 
  5 C        2.8080    -1.4650     1.5100 C.3   1 <1>   0.2090 
  6 C        1.3490    -0.6590    -0.3960 C.3   1 <1>  -0.1600 
  7 C        1.8970    -3.1380    -0.2160 C.3   1 <1>  -0.1600 
  8 C        0.5130    -3.7070    -0.5520 C.3   1 <1>  -0.1600 
  9 N        4.0090    -0.9790     0.7590 N.pl3 1 <1>  -0.8220 
 10 C        2.6130    -0.1780    -1.1280 C.3   1 <1>  -0.1600 
 11 C        5.1240    -1.8250     0.5780 C.2   1 <1>   0.2710 
 12 C        3.7410     0.1690    -0.1540 C.3   1 <1>   0.2090 
 13 N        5.0690    -3.1070     0.6790 N.2   1 <1>  -0.3380 
 14 N        6.3930    -1.4640     0.2850 N.pl3 1 <1>   0.5930 
 15 N        6.2920    -3.5550     0.4200 N.2   1 <1>   0.0000 
 16 N        7.0960    -2.5920     0.1780 N.2   1 <1>  -0.4180 
 17 C        6.9860    -0.1710     0.1910 C.ar  1 <1>  -0.0230 
 18 C        7.8440     0.1400    -0.8600 C.ar  1 <1>  -0.1500 
 19 C        6.7200     0.8070     1.1460 C.ar  1 <1>  -0.1500 
 20 C        8.4110     1.3980    -0.9600 C.ar  1 <1>  -0.1500 
 21 C        7.2880     2.0650     1.0470 C.ar  1 <1>  -0.1500 
 22 C        8.1330     2.3620    -0.0070 C.ar  1 <1>  -0.1500 
 23 H       -1.1290    -1.4850     2.3110 H     1 <1>   0.4000 
 24 H        0.7230    -2.8550     2.2380 H     1 <1>   0.0800 
 25 H       -0.9720    -3.8680     1.0190 H     1 <1>   0.0800 
 26 H       -1.1720    -2.4780    -0.0450 H     1 <1>   0.0800 
 27 H        3.0740    -2.3090     2.1220 H     1 <1>   0.0800 
 28 H        2.4820    -0.6800     2.1710 H     1 <1>   0.0800 
 29 H        0.5990    -0.9340    -1.1160 H     1 <1>   0.0800 
 30 H        0.9610     0.1730     0.1660 H     1 <1>   0.0800 
 31 H        2.5000    -2.9950    -1.0930 H     1 <1>   0.0800 
 32 H        2.4070    -3.8420     0.4190 H     1 <1>   0.0800 
 33 H        0.5210    -4.7820    -0.4980 H     1 <1>   0.0800 
 34 H        0.2260    -3.4120    -1.5460 H     1 <1>   0.0800 
 35 H        2.3750     0.6950    -1.7090 H     1 <1>   0.0800 
 36 H        2.9630    -0.9300    -1.8110 H     1 <1>   0.0800 
 37 H        3.4600     1.0250     0.4370 H     1 <1>   0.0800 
 38 H        4.6210     0.4270    -0.7160 H     1 <1>   0.0800 
 39 H        8.0710    -0.6060    -1.6040 H     1 <1>   0.1500 
 40 H        6.0640     0.5840     1.9720 H     1 <1>   0.1500 
 41 H        9.0730     1.6270    -1.7780 H     1 <1>   0.1500 
 42 H        7.0730     2.8130     1.7910 H     1 <1>   0.1500 
 43 H        8.5750     3.3400    -0.0850 H     1 <1>   0.1500 
@<TRIPOS>BOND
  1   1   2  1   
  2   1  23  1   
  3   2   3  1   
  4   2   4  1   
  5   2  24  1   
  6   3   5  1   
  7   3   6  1   
  8   3   7  1   
  9   4   8  1   
 10   4  25  1   
 11   4  26  1   
 12   5   9  1   
 13   5  27  1   
 14   5  28  1   
 15   6  10  1   
 16   6  29  1   
 17   6  30  1   
 18   7   8  1   
 19   7  31  1   
 20   7  32  1   
 21   8  33  1   
 22   8  34  1   
 23   9  11  1   
 24   9  12  1   
 25  10  12  1   
 26  10  35  1   
 27  10  36  1   
 28  11  13  2   
 29  11  14  1   
 30  12  37  1   
 31  12  38  1   
 32  13  15  1   
 33  14  16  1   
 34  14  17  1   
 35  15  16  2   
 36  17  18  ar  
 37  17  19  ar  
 38  18  20  ar  
 39  18  39  1   
 40  19  21  ar  
 41  19  40  1   
 42  20  22  ar  
 43  20  41  1   
 44  21  22  ar  
 45  21  42  1   
 46  22  43  1   
@<TRIPOS>SUBSTRUCTURE
  1 ****   9 GROUP 4 **** **** 0

# MOE 2024.06 (io_trps.svl 2023.06)
