@<TRIPOS>MOLECULE
NONAME
42 43 1 0 0 
SMALL
USER_CHARGES


@<TRIPOS>ATOM
  1 F       -0.0420     0.0720    -1.3670 F     1 <1>  -0.3400 
  2 C        0.5730    -0.9680    -1.9160 C.3   1 <1>   1.1640 
  3 F        1.6150    -0.4840    -2.5770 F     1 <1>  -0.3400 
  4 F       -0.2620    -1.4520    -2.8270 F     1 <1>  -0.3400 
  5 C        0.9890    -2.0270    -0.8780 C.ar  1 <1>  -0.1440 
  6 C        1.0650    -3.3700    -1.2270 C.ar  1 <1>  -0.1500 
  7 C        1.3080    -1.6630     0.4260 C.ar  1 <1>  -0.1500 
  8 C        1.4370    -4.3490    -0.3090 C.ar  1 <1>   0.0860 
  9 C        1.6920    -2.6100     1.3710 C.ar  1 <1>  -0.1440 
 10 C        1.5070    -5.7480    -0.6820 C.2   1 <1>   0.5440 
 11 C        1.7550    -3.9430     0.9830 C.ar  1 <1>  -0.1500 
 12 C        2.0490    -2.1740     2.8030 C.3   1 <1>   1.1630 
 13 O        2.6000    -6.2640    -0.8020 O.2   1 <1>  -0.5700 
 14 N        0.3710    -6.5010    -0.8930 N.am  1 <1>  -0.6600 
 15 F        3.2620    -1.6430     2.8730 F     1 <1>  -0.3400 
 16 F        1.2120    -1.2560     3.2690 F     1 <1>  -0.3400 
 17 F        2.0240    -3.1740     3.6750 F     1 <1>  -0.3400 
 18 C        0.4750    -7.9390    -1.2700 C.3   1 <1>   0.3200 
 19 C       -1.0110    -5.9780    -0.6910 C.3   1 <1>   0.1400 
 20 C        0.2050    -8.8100    -0.0570 C.2   1 <1>  -0.3320 
 21 C       -1.3890    -5.9520     0.7950 C.3   1 <1>   0.1200 
 22 N       -0.9720    -9.3800     0.2830 N.pl3 1 <1>   0.0480 
 23 C        1.0940    -9.1740     0.8930 C.2   1 <1>   0.0770 
 24 O       -2.7500    -5.6990     0.9060 O.3   1 <1>  -0.6800 
 25 C       -0.7070   -10.0490     1.4280 C.2   1 <1>   0.0360 
 26 C       -2.2800    -9.3080    -0.3940 C.3   1 <1>   0.0160 
 27 N        0.5190    -9.9530     1.8270 N.2   1 <1>  -0.5650 
 28 H        0.8400    -3.6840    -2.2330 H     1 <1>   0.1500 
 29 H        1.2620    -0.6220     0.7140 H     1 <1>   0.1500 
 30 H        2.0620    -4.7040     1.6840 H     1 <1>   0.1500 
 31 H        1.4630    -8.1570    -1.6390 H     1 <1>   0.0800 
 32 H       -0.2150    -8.1620    -2.0640 H     1 <1>   0.0800 
 33 H       -1.7050    -6.6050    -1.2220 H     1 <1>   0.0800 
 34 H       -1.0870    -4.9860    -1.0980 H     1 <1>   0.0800 
 35 H       -0.8530    -5.1870     1.3270 H     1 <1>   0.0800 
 36 H       -1.1980    -6.9040     1.2570 H     1 <1>   0.0800 
 37 H        2.1370    -8.9050     0.9520 H     1 <1>   0.1500 
 38 H       -2.9430    -4.7480     0.7900 H     1 <1>   0.4000 
 39 H       -1.4640   -10.6060     1.9490 H     1 <1>   0.1500 
 40 H       -2.1390    -9.2710    -1.4570 H     1 <1>   0.0800 
 41 H       -2.8040    -8.4290    -0.0640 H     1 <1>   0.0800 
 42 H       -2.8590   -10.1790    -0.1450 H     1 <1>   0.0800 
@<TRIPOS>BOND
  1   1   2  1   
  2   2   3  1   
  3   2   4  1   
  4   2   5  1   
  5   5   6  ar  
  6   5   7  ar  
  7   6   8  ar  
  8   6  28  1   
  9   7   9  ar  
 10   7  29  1   
 11   8  10  1   
 12   8  11  ar  
 13   9  11  ar  
 14   9  12  1   
 15  10  13  2   
 16  10  14  am  
 17  11  30  1   
 18  12  15  1   
 19  12  16  1   
 20  12  17  1   
 21  14  18  1   
 22  14  19  1   
 23  18  20  1   
 24  18  31  1   
 25  18  32  1   
 26  19  21  1   
 27  19  33  1   
 28  19  34  1   
 29  20  22  1   
 30  20  23  2   
 31  21  24  1   
 32  21  35  1   
 33  21  36  1   
 34  22  25  1   
 35  22  26  1   
 36  23  27  1   
 37  23  37  1   
 38  24  38  1   
 39  25  27  2   
 40  25  39  1   
 41  26  40  1   
 42  26  41  1   
 43  26  42  1   
@<TRIPOS>SUBSTRUCTURE
  1 ****   8 GROUP 4 **** **** 0

# MOE 2024.06 (io_trps.svl 2023.06)
