@<TRIPOS>MOLECULE
NONAME
56 57 1 0 0 
SMALL
USER_CHARGES


@<TRIPOS>ATOM
  1 O       -0.5550    -0.2980     0.5740 O.2   1 <1>  -0.5700 
  2 C       -1.2560     0.4530    -0.0630 C.2   1 <1>   0.5690 
  3 N       -2.0800    -0.0280    -1.0620 N.am  1 <1>  -0.6600 
  4 C       -1.1720     1.9350     0.3310 C.3   1 <1>  -0.0190 
  5 C       -2.1370    -1.4920    -1.3310 C.3   1 <1>   0.1400 
  6 C       -2.9900     0.7750    -1.9310 C.3   1 <1>   0.0600 
  7 C       -2.4990     2.5050     0.8780 C.3   1 <1>  -0.1600 
  8 C       -0.5190     2.8260    -0.7560 C.3   1 <1>  -0.1600 
  9 C       -3.3100    -2.1140    -0.5720 C.3   1 <1>  -0.1600 
 10 C       -2.3360     3.9320     1.4420 C.3   1 <1>   0.2000 
 11 C       -0.9840     4.2920    -0.7030 C.3   1 <1>  -0.1600 
 12 C       -3.3370    -3.6280    -0.7680 C.3   1 <1>   0.1200 
 13 O       -3.5620     4.6030     1.2760 O.3   1 <1>  -0.5600 
 14 C       -1.2090     4.7410     0.7430 C.3   1 <1>   0.2000 
 15 O       -4.4600    -4.1390    -0.0930 O.3   1 <1>  -0.3630 
 16 C       -4.5210     4.3340     2.2510 C.3   1 <1>   0.0400 
 17 O       -1.5510     6.0770     0.7250 O.3   1 <1>  -0.6800 
 18 C       -4.5770    -5.4840    -0.0910 C.ar  1 <1>   0.0820 
 19 C       -4.1090    -6.2420     0.9820 C.ar  1 <1>  -0.1440 
 20 C       -5.1810    -6.0890    -1.1800 C.ar  1 <1>  -0.1500 
 21 C       -4.2300    -7.6290     0.9280 C.ar  1 <1>  -0.1440 
 22 C       -3.4700    -5.5590     2.1900 C.3   1 <1>  -0.0970 
 23 C       -5.3060    -7.4640    -1.2220 C.ar  1 <1>  -0.1500 
 24 C       -4.8290    -8.2270    -0.1720 C.ar  1 <1>  -0.1500 
 25 C       -3.7220    -8.5230     2.0530 C.3   1 <1>  -0.0970 
 26 H       -0.4950     1.9640     1.1680 H     1 <1>   0.0800 
 27 H       -2.2430    -1.6640    -2.3880 H     1 <1>   0.0800 
 28 H       -1.2170    -1.9590    -1.0190 H     1 <1>   0.0800 
 29 H       -2.8890     0.4590    -2.9550 H     1 <1>   0.0800 
 30 H       -2.7670     1.8230    -1.8870 H     1 <1>   0.0800 
 31 H       -4.0100     0.6270    -1.6200 H     1 <1>   0.0800 
 32 H       -2.8620     1.8580     1.6570 H     1 <1>   0.0800 
 33 H       -3.2340     2.5280     0.0980 H     1 <1>   0.0800 
 34 H        0.5480     2.7910    -0.6130 H     1 <1>   0.0800 
 35 H       -0.7030     2.4370    -1.7410 H     1 <1>   0.0800 
 36 H       -4.2340    -1.6980    -0.9280 H     1 <1>   0.0800 
 37 H       -3.2000    -1.9030     0.4770 H     1 <1>   0.0800 
 38 H       -2.1020     3.8900     2.4920 H     1 <1>   0.0800 
 39 H       -1.9080     4.3930    -1.2450 H     1 <1>   0.0800 
 40 H       -0.2450     4.9210    -1.1710 H     1 <1>   0.0800 
 41 H       -2.4550    -4.0860    -0.3530 H     1 <1>   0.0800 
 42 H       -3.4250    -3.8850    -1.8100 H     1 <1>   0.0800 
 43 H       -0.2870     4.6440     1.2900 H     1 <1>   0.0800 
 44 H       -5.4020     4.9070     2.0200 H     1 <1>   0.0800 
 45 H       -4.1410     4.6290     3.2140 H     1 <1>   0.0800 
 46 H       -4.7610     3.2850     2.2420 H     1 <1>   0.0800 
 47 H       -2.5350     6.0970     0.7480 H     1 <1>   0.4000 
 48 H       -5.5510    -5.4830    -1.9860 H     1 <1>   0.1500 
 49 H       -3.8240    -5.9990     3.1030 H     1 <1>   0.0800 
 50 H       -3.7140    -4.5130     2.2260 H     1 <1>   0.0800 
 51 H       -2.4020    -5.6590     2.1420 H     1 <1>   0.0800 
 52 H       -5.7730    -7.9390    -2.0660 H     1 <1>   0.1500 
 53 H       -4.9300    -9.2970    -0.2180 H     1 <1>   0.1500 
 54 H       -3.7530    -9.5580     1.7670 H     1 <1>   0.0800 
 55 H       -4.3350    -8.3940     2.9260 H     1 <1>   0.0800 
 56 H       -2.7050    -8.2730     2.2950 H     1 <1>   0.0800 
@<TRIPOS>BOND
  1   1   2  2   
  2   2   3  am  
  3   2   4  1   
  4   3   5  1   
  5   3   6  1   
  6   4   7  1   
  7   4   8  1   
  8   4  26  1   
  9   5   9  1   
 10   5  27  1   
 11   5  28  1   
 12   6  29  1   
 13   6  30  1   
 14   6  31  1   
 15   7  10  1   
 16   7  32  1   
 17   7  33  1   
 18   8  11  1   
 19   8  34  1   
 20   8  35  1   
 21   9  12  1   
 22   9  36  1   
 23   9  37  1   
 24  10  13  1   
 25  10  14  1   
 26  10  38  1   
 27  11  14  1   
 28  11  39  1   
 29  11  40  1   
 30  12  15  1   
 31  12  41  1   
 32  12  42  1   
 33  13  16  1   
 34  14  17  1   
 35  14  43  1   
 36  15  18  1   
 37  16  44  1   
 38  16  45  1   
 39  16  46  1   
 40  17  47  1   
 41  18  19  ar  
 42  18  20  ar  
 43  19  21  ar  
 44  19  22  1   
 45  20  23  ar  
 46  20  48  1   
 47  21  24  ar  
 48  21  25  1   
 49  22  49  1   
 50  22  50  1   
 51  22  51  1   
 52  23  24  ar  
 53  23  52  1   
 54  24  53  1   
 55  25  54  1   
 56  25  55  1   
 57  25  56  1   
@<TRIPOS>SUBSTRUCTURE
  1 ****   9 GROUP 4 **** **** 0

# MOE 2024.06 (io_trps.svl 2023.06)
