@<TRIPOS>MOLECULE
NONAME
43 45 1 0 0 
SMALL
USER_CHARGES


@<TRIPOS>ATOM
  1 CL      -0.0140    -1.2420    -2.4790 Cl    1 <1>  -0.1240 
  2 C       -1.0700    -1.8270    -1.2240 C.2   1 <1>   0.1640 
  3 S       -1.0910    -3.5580    -0.9620 S.3   1 <1>  -0.0800 
  4 C       -1.9020    -1.1810    -0.3900 C.2   1 <1>  -0.1500 
  5 C       -2.2790    -3.3680     0.3260 C.2   1 <1>  -0.1400 
  6 C       -2.5950    -2.0670     0.4980 C.2   1 <1>  -0.1500 
  7 C       -2.7510    -4.6330     1.0120 C.3   1 <1>   0.5230 
  8 N       -3.4040    -5.5000    -0.0060 N.4   1 <1>  -0.9590 
  9 C       -3.5700    -6.9020     0.5460 C.3   1 <1>   0.3430 
 10 C       -4.6900    -4.8400    -0.4190 C.3   1 <1>   0.3430 
 11 C       -4.4960    -7.8280    -0.3080 C.3   1 <1>   0.4230 
 12 C       -5.5710    -5.7910    -1.2380 C.3   1 <1>  -0.1600 
 13 N       -4.7020    -9.2080     0.2700 N.4   1 <1>  -0.9590 
 14 C       -5.8490    -7.1150    -0.4770 C.3   1 <1>  -0.1060 
 15 C       -5.5860   -10.0640    -0.5690 C.3   1 <1>   0.3430 
 16 C       -3.4820    -9.9470     0.7060 C.3   1 <1>   0.2630 
 17 C       -6.3800    -6.8280     0.9410 C.2   1 <1>   0.9060 
 18 C       -6.8320    -7.9750    -1.3060 C.3   1 <1>  -0.1600 
 19 C       -6.9500    -9.3970    -0.7410 C.3   1 <1>  -0.1600 
 20 O       -6.1130    -7.6390     1.8380 O.co2 1 <1>  -0.9000 
 21 O       -6.8740    -5.7330     1.1860 O.co2 1 <1>  -0.9000 
 22 H       -2.0550    -0.1160    -0.3650 H     1 <1>   0.1500 
 23 H       -3.2950    -1.6720     1.2190 H     1 <1>   0.1500 
 24 H       -3.4490    -4.3930     1.7990 H     1 <1>   0.0800 
 25 H       -1.9020    -5.1360     1.4450 H     1 <1>   0.0800 
 26 H       -2.7810    -5.4990    -0.8250 H     1 <1>   0.4500 
 27 H       -2.6010    -7.3620     0.6310 H     1 <1>   0.0800 
 28 H       -3.9920    -6.8330     1.5360 H     1 <1>   0.0800 
 29 H       -5.2320    -4.5240     0.4590 H     1 <1>   0.0800 
 30 H       -4.4820    -3.9550    -0.9990 H     1 <1>   0.0800 
 31 H       -4.0480    -7.9420    -1.2800 H     1 <1>   0.0800 
 32 H       -6.5070    -5.2890    -1.4180 H     1 <1>   0.0800 
 33 H       -5.1180    -5.9760    -2.1950 H     1 <1>   0.0800 
 34 H       -5.2820    -8.9850     1.1270 H     1 <1>   0.4500 
 35 H       -5.1340   -10.2210    -1.5350 H     1 <1>   0.0800 
 36 H       -5.7230   -11.0240    -0.0970 H     1 <1>   0.0800 
 37 H       -2.8430   -10.1490    -0.1380 H     1 <1>   0.0800 
 38 H       -3.7630   -10.8850     1.1580 H     1 <1>   0.0800 
 39 H       -2.9350    -9.3750     1.4370 H     1 <1>   0.0800 
 40 H       -7.8050    -7.5100    -1.3030 H     1 <1>   0.0800 
 41 H       -6.5000    -8.0330    -2.3290 H     1 <1>   0.0800 
 42 H       -7.5540    -9.9940    -1.4030 H     1 <1>   0.0800 
 43 H       -7.4540    -9.3740     0.2110 H     1 <1>   0.0800 
@<TRIPOS>BOND
  1   1   2  1   
  2   2   3  1   
  3   2   4  2   
  4   3   5  1   
  5   4   6  1   
  6   4  22  1   
  7   5   6  2   
  8   5   7  1   
  9   6  23  1   
 10   7   8  1   
 11   7  24  1   
 12   7  25  1   
 13   8   9  1   
 14   8  10  1   
 15   8  26  1   
 16   9  11  1   
 17   9  27  1   
 18   9  28  1   
 19  10  12  1   
 20  10  29  1   
 21  10  30  1   
 22  11  13  1   
 23  11  14  1   
 24  11  31  1   
 25  12  14  1   
 26  12  32  1   
 27  12  33  1   
 28  13  15  1   
 29  13  16  1   
 30  13  34  1   
 31  14  17  1   
 32  14  18  1   
 33  15  19  1   
 34  15  35  1   
 35  15  36  1   
 36  16  37  1   
 37  16  38  1   
 38  16  39  1   
 39  17  20  ar  
 40  17  21  ar  
 41  18  19  1   
 42  18  40  1   
 43  18  41  1   
 44  19  42  1   
 45  19  43  1   
@<TRIPOS>SUBSTRUCTURE
  1 ****   8 GROUP 4 **** **** 0

# MOE 2024.06 (io_trps.svl 2023.06)
