@<TRIPOS>MOLECULE
NONAME
50 53 1 0 0 
SMALL
USER_CHARGES


@<TRIPOS>ATOM
  1 O       -0.5700     0.3130    -0.2230 O.2   1 <1>  -0.5700 
  2 C       -1.5000     0.9160     0.2910 C.2   1 <1>   0.7160 
  3 N       -2.6550     0.1910     0.5420 N.am  1 <1>  -0.6600 
  4 C       -1.3460     2.3410     0.5930 C.2   1 <1>   0.2030 
  5 C       -2.6700    -1.3070     0.5760 C.3   1 <1>   0.1400 
  6 C       -4.0150     0.7960     0.6930 C.3   1 <1>   0.1400 
  7 N       -2.1140     3.1020     1.3590 N.2   1 <1>  -0.7070 
  8 C       -0.2870     3.1090     0.0850 C.2   1 <1>  -0.1500 
  9 C       -3.7650    -1.8780    -0.3430 C.3   1 <1>   0.3440 
 10 C       -5.0490     0.0870    -0.2070 C.3   1 <1>   0.2950 
 11 N       -1.5540     4.3190     1.3380 N.pl3 1 <1>   0.3000 
 12 C       -0.4480     4.3540     0.5710 C.2   1 <1>  -0.3320 
 13 O       -5.0030    -1.2980    -0.0280 O.3   1 <1>  -0.5600 
 14 C       -3.8540    -3.3940    -0.1970 C.ar  1 <1>  -0.1430 
 15 C       -6.4770     0.5430     0.1110 C.3   1 <1>  -0.1950 
 16 C        0.4030     5.5920     0.3530 C.3   1 <1>   0.0200 
 17 C       -3.0880    -4.2070    -1.0210 C.ar  1 <1>  -0.1500 
 18 C       -4.6760    -3.9850     0.7540 C.ar  1 <1>  -0.1500 
 19 C       -7.5760     0.4070    -0.8940 C.3   1 <1>  -0.2000 
 20 C       -7.0570     1.7680    -0.5250 C.3   1 <1>  -0.2000 
 21 C       -0.3720     6.6500    -0.4400 C.3   1 <1>  -0.1600 
 22 C       -3.1420    -5.5850    -0.8980 C.ar  1 <1>  -0.1500 
 23 C       -4.7310    -5.3630     0.8790 C.ar  1 <1>  -0.1500 
 24 C        0.4820     7.8970    -0.6970 C.3   1 <1>  -0.2400 
 25 C       -3.9640    -6.1640     0.0530 C.ar  1 <1>  -0.1500 
 26 H       -1.7190    -1.7100     0.2770 H     1 <1>   0.0800 
 27 H       -2.8580    -1.6340     1.5840 H     1 <1>   0.0800 
 28 H       -4.3210     0.7250     1.7210 H     1 <1>   0.0800 
 29 H       -4.0040     1.8340     0.4200 H     1 <1>   0.0800 
 30 H        0.4850     2.7320    -0.5640 H     1 <1>   0.1500 
 31 H       -3.5370    -1.6360    -1.3670 H     1 <1>   0.0800 
 32 H       -4.8310     0.2970    -1.2400 H     1 <1>   0.0800 
 33 H       -1.9440     5.1150     1.8580 H     1 <1>   0.2700 
 34 H       -6.7340     0.3620     1.1410 H     1 <1>   0.1000 
 35 H        0.7100     5.9920     1.3040 H     1 <1>   0.0800 
 36 H        1.2900     5.3170    -0.1910 H     1 <1>   0.0800 
 37 H       -2.4430    -3.7720    -1.7640 H     1 <1>   0.1500 
 38 H       -5.2800    -3.3700     1.3990 H     1 <1>   0.1500 
 39 H       -7.3410    -0.0020    -1.8620 H     1 <1>   0.1000 
 40 H       -8.5490     0.1040    -0.5470 H     1 <1>   0.1000 
 41 H       -7.6810     2.4140     0.0690 H     1 <1>   0.1000 
 42 H       -6.4830     2.3100    -1.2570 H     1 <1>   0.1000 
 43 H       -0.6790     6.2290    -1.3820 H     1 <1>   0.0800 
 44 H       -1.2580     6.9350     0.1000 H     1 <1>   0.0800 
 45 H       -2.5450    -6.2070    -1.5420 H     1 <1>   0.1500 
 46 H       -5.3730    -5.8090     1.6180 H     1 <1>   0.1500 
 47 H        1.3610     7.6410    -1.2630 H     1 <1>   0.0800 
 48 H        0.7850     8.3470     0.2320 H     1 <1>   0.0800 
 49 H       -0.0840     8.6200    -1.2580 H     1 <1>   0.0800 
 50 H       -4.0070    -7.2340     0.1490 H     1 <1>   0.1500 
@<TRIPOS>BOND
  1   1   2  2   
  2   2   3  am  
  3   2   4  1   
  4   3   5  1   
  5   3   6  1   
  6   4   7  2   
  7   4   8  1   
  8   5   9  1   
  9   5  26  1   
 10   5  27  1   
 11   6  10  1   
 12   6  28  1   
 13   6  29  1   
 14   7  11  1   
 15   8  12  2   
 16   8  30  1   
 17   9  13  1   
 18   9  14  1   
 19   9  31  1   
 20  10  13  1   
 21  10  15  1   
 22  10  32  1   
 23  11  12  1   
 24  11  33  1   
 25  12  16  1   
 26  14  17  ar  
 27  14  18  ar  
 28  15  19  1   
 29  15  20  1   
 30  15  34  1   
 31  16  21  1   
 32  16  35  1   
 33  16  36  1   
 34  17  22  ar  
 35  17  37  1   
 36  18  23  ar  
 37  18  38  1   
 38  19  20  1   
 39  19  39  1   
 40  19  40  1   
 41  20  41  1   
 42  20  42  1   
 43  21  24  1   
 44  21  43  1   
 45  21  44  1   
 46  22  25  ar  
 47  22  45  1   
 48  23  25  ar  
 49  23  46  1   
 50  24  47  1   
 51  24  48  1   
 52  24  49  1   
 53  25  50  1   
@<TRIPOS>SUBSTRUCTURE
  1 ****   3 GROUP 4 **** **** 0

# MOE 2024.06 (io_trps.svl 2023.06)
