@<TRIPOS>MOLECULE
NONAME
56 58 1 0 0 
SMALL
USER_CHARGES


@<TRIPOS>ATOM
  1 S        0.2780     0.3380     1.3750 S.o2  1 <1>   1.4470 
  2 O       -0.0720    -0.5610     2.4530 O.2   1 <1>  -0.6500 
  3 O        0.4270     1.7520     1.6510 O.2   1 <1>  -0.6500 
  4 N       -0.9310     0.1980     0.1960 N.am  1 <1>  -0.8490 
  5 C        1.7530    -0.2940     0.5270 C.ar  1 <1>  -0.0090 
  6 C       -2.2700     0.3550     0.7860 C.3   1 <1>   0.1960 
  7 C       -0.7440     1.1520    -0.9010 C.3   1 <1>   0.1960 
  8 C        1.7410    -1.5380    -0.0910 C.ar  1 <1>  -0.1500 
  9 C        2.9290     0.4450     0.4720 C.ar  1 <1>  -0.1500 
 10 C       -3.3750     0.0230    -0.2370 C.3   1 <1>   0.0000 
 11 C       -1.7550     0.8820    -2.0190 C.3   1 <1>  -0.1600 
 12 C        2.8580    -2.0260    -0.7470 C.ar  1 <1>  -0.1500 
 13 C        4.0500    -0.0370    -0.1830 C.ar  1 <1>  -0.1500 
 14 C       -4.7660     0.1460     0.4150 C.3   1 <1>   0.2000 
 15 C       -3.2000     0.9200    -1.4930 C.3   1 <1>  -0.1600 
 16 C       -3.3670    -1.4680    -0.6260 C.3   1 <1>  -0.1600 
 17 C        4.0200    -1.2760    -0.7990 C.ar  1 <1>  -0.1430 
 18 O       -5.2440     1.4430     0.4330 O.3   1 <1>  -0.6800 
 19 C       -5.7020    -0.7530    -0.3910 C.3   1 <1>  -0.1600 
 20 C       -4.7980    -1.7920    -1.0690 C.3   1 <1>  -0.1600 
 21 C        5.2500    -1.8090    -1.5170 C.3   1 <1>  -0.0170 
 22 C        6.1310    -2.6110    -0.5530 C.3   1 <1>  -0.1600 
 23 C        7.3810    -3.1600    -1.2550 C.3   1 <1>  -0.1600 
 24 C        8.2530    -3.9600    -0.2810 C.3   1 <1>  -0.1600 
 25 C        9.4990    -4.5090    -0.9820 C.3   1 <1>  -0.2400 
 26 H       -2.3730    -0.3040     1.6310 H     1 <1>   0.0800 
 27 H       -2.3950     1.3650     1.1420 H     1 <1>   0.0800 
 28 H       -0.8640     2.1600    -0.5360 H     1 <1>   0.0800 
 29 H        0.2520     1.0580    -1.3020 H     1 <1>   0.0800 
 30 H        0.8420    -2.1310    -0.0560 H     1 <1>   0.1500 
 31 H        2.9690     1.4110     0.9470 H     1 <1>   0.1500 
 32 H       -1.6350     1.6240    -2.7880 H     1 <1>   0.0800 
 33 H       -1.5380    -0.0740    -2.4610 H     1 <1>   0.0800 
 34 H        2.8190    -2.9950    -1.2150 H     1 <1>   0.1500 
 35 H        4.9470     0.5580    -0.2080 H     1 <1>   0.1500 
 36 H       -4.7270    -0.2040     1.4330 H     1 <1>   0.0800 
 37 H       -3.8790     0.6260    -2.2740 H     1 <1>   0.0800 
 38 H       -3.4160     1.9420    -1.2370 H     1 <1>   0.0800 
 39 H       -2.6470    -1.7080    -1.3860 H     1 <1>   0.0800 
 40 H       -3.1360    -2.0600     0.2440 H     1 <1>   0.0800 
 41 H       -5.3660     1.7590    -0.4820 H     1 <1>   0.4000 
 42 H       -6.4100    -1.2300     0.2630 H     1 <1>   0.0800 
 43 H       -6.2300    -0.1920    -1.1420 H     1 <1>   0.0800 
 44 H       -5.0690    -2.7950    -0.7880 H     1 <1>   0.0800 
 45 H       -4.8790    -1.7000    -2.1390 H     1 <1>   0.0800 
 46 H        4.9440    -2.4350    -2.3370 H     1 <1>   0.0800 
 47 H        5.8120    -0.9870    -1.9260 H     1 <1>   0.0800 
 48 H        6.4270    -1.9760     0.2640 H     1 <1>   0.0800 
 49 H        5.5580    -3.4260    -0.1480 H     1 <1>   0.0800 
 50 H        7.0840    -3.7960    -2.0720 H     1 <1>   0.0800 
 51 H        7.9550    -2.3430    -1.6590 H     1 <1>   0.0800 
 52 H        8.5570    -3.3280     0.5360 H     1 <1>   0.0800 
 53 H        7.6860    -4.7810     0.1240 H     1 <1>   0.0800 
 54 H       10.0950    -3.7040    -1.3760 H     1 <1>   0.0800 
 55 H        9.2200    -5.1620    -1.7900 H     1 <1>   0.0800 
 56 H       10.0980    -5.0660    -0.2830 H     1 <1>   0.0800 
@<TRIPOS>BOND
  1   1   2  2   
  2   1   3  2   
  3   1   4  am  
  4   1   5  1   
  5   4   6  1   
  6   4   7  1   
  7   5   8  ar  
  8   5   9  ar  
  9   6  10  1   
 10   6  26  1   
 11   6  27  1   
 12   7  11  1   
 13   7  28  1   
 14   7  29  1   
 15   8  12  ar  
 16   8  30  1   
 17   9  13  ar  
 18   9  31  1   
 19  10  14  1   
 20  10  15  1   
 21  10  16  1   
 22  11  15  1   
 23  11  32  1   
 24  11  33  1   
 25  12  17  ar  
 26  12  34  1   
 27  13  17  ar  
 28  13  35  1   
 29  14  18  1   
 30  14  19  1   
 31  14  36  1   
 32  15  37  1   
 33  15  38  1   
 34  16  20  1   
 35  16  39  1   
 36  16  40  1   
 37  17  21  1   
 38  18  41  1   
 39  19  20  1   
 40  19  42  1   
 41  19  43  1   
 42  20  44  1   
 43  20  45  1   
 44  21  22  1   
 45  21  46  1   
 46  21  47  1   
 47  22  23  1   
 48  22  48  1   
 49  22  49  1   
 50  23  24  1   
 51  23  50  1   
 52  23  51  1   
 53  24  25  1   
 54  24  52  1   
 55  24  53  1   
 56  25  54  1   
 57  25  55  1   
 58  25  56  1   
@<TRIPOS>SUBSTRUCTURE
  1 ****   8 GROUP 4 **** **** 0

# MOE 2024.06 (io_trps.svl 2023.06)
