@<TRIPOS>MOLECULE
NONAME
42 43 1 0 0 
SMALL
USER_CHARGES


@<TRIPOS>ATOM
  1 S       -0.1340     0.4890     0.1080 S.3   1 <1>  -0.0800 
  2 C        1.0780    -0.3640     1.0330 C.2   1 <1>   0.1980 
  3 C        1.1330     1.3710    -0.6940 C.2   1 <1>  -0.1400 
  4 N        2.2740    -0.0240     0.7720 N.2   1 <1>  -0.5650 
  5 C        0.5950    -1.3960     2.0240 C.3   1 <1>  -0.0600 
  6 C        2.3220     0.9650    -0.2070 C.2   1 <1>   0.0460 
  7 C        0.7040     2.3800    -1.7430 C.3   1 <1>  -0.0600 
  8 C        3.7170     1.4600    -0.6180 C.3   1 <1>   0.3710 
  9 N        3.7870     2.9450    -0.7490 N.3   1 <1>  -0.8100 
 10 C        4.0950     0.7580    -1.9270 C.3   1 <1>  -0.2400 
 11 C        5.1210     3.4340    -1.2260 C.3   1 <1>   0.1710 
 12 C        3.3830     3.6000     0.5110 C.3   1 <1>   0.0300 
 13 C        5.2710     4.9500    -1.4270 C.2   1 <1>   0.5690 
 14 O        5.1220     5.4090    -2.5360 O.2   1 <1>  -0.5700 
 15 N        5.6160     5.7090    -0.3510 N.am  1 <1>  -0.4930 
 16 C        5.8320     7.0770    -0.2440 C.2   1 <1>   0.3520 
 17 N        6.1500     7.5680     0.9110 N.2   1 <1>  -0.7070 
 18 C        5.7550     8.0530    -1.2330 C.2   1 <1>  -0.1500 
 19 N        6.2890     8.8910     0.6900 N.pl3 1 <1>   0.3140 
 20 C        6.0550     9.2050    -0.5990 C.2   1 <1>  -0.3020 
 21 C        6.6520     9.8130     1.7720 C.3   1 <1>   0.0160 
 22 H       -0.0390    -0.9290     2.7550 H     1 <1>   0.0800 
 23 H        1.4350    -1.8430     2.5220 H     1 <1>   0.0800 
 24 H        0.0430    -2.1620     1.5110 H     1 <1>   0.0800 
 25 H        0.1200     1.8930    -2.5020 H     1 <1>   0.0800 
 26 H        1.5600     2.8350    -2.2060 H     1 <1>   0.0800 
 27 H        0.1120     3.1510    -1.2850 H     1 <1>   0.0800 
 28 H        4.4080     1.1520     0.1490 H     1 <1>   0.0800 
 29 H        3.5280     1.1660    -2.7430 H     1 <1>   0.0800 
 30 H        3.8640    -0.2890    -1.8450 H     1 <1>   0.0800 
 31 H        5.1460     0.8400    -2.1260 H     1 <1>   0.0800 
 32 H        5.3290     3.0000    -2.1860 H     1 <1>   0.0800 
 33 H        5.8850     3.1020    -0.5470 H     1 <1>   0.0800 
 34 H        2.4140     3.2560     0.8290 H     1 <1>   0.0800 
 35 H        3.3040     4.6640     0.3720 H     1 <1>   0.0800 
 36 H        4.0920     3.3910     1.2930 H     1 <1>   0.0800 
 37 H        5.7120     5.2520     0.5500 H     1 <1>   0.3700 
 38 H        5.5080     7.8860    -2.2660 H     1 <1>   0.1500 
 39 H        6.1110    10.2060    -0.9870 H     1 <1>   0.1500 
 40 H        7.5900     9.5020     2.1930 H     1 <1>   0.0800 
 41 H        5.8900     9.7810     2.5270 H     1 <1>   0.0800 
 42 H        6.7400    10.8100     1.3830 H     1 <1>   0.0800 
@<TRIPOS>BOND
  1   1   2  1   
  2   1   3  1   
  3   2   4  2   
  4   2   5  1   
  5   3   6  2   
  6   3   7  1   
  7   4   6  1   
  8   5  22  1   
  9   5  23  1   
 10   5  24  1   
 11   6   8  1   
 12   7  25  1   
 13   7  26  1   
 14   7  27  1   
 15   8   9  1   
 16   8  10  1   
 17   8  28  1   
 18   9  11  1   
 19   9  12  1   
 20  10  29  1   
 21  10  30  1   
 22  10  31  1   
 23  11  13  1   
 24  11  32  1   
 25  11  33  1   
 26  12  34  1   
 27  12  35  1   
 28  12  36  1   
 29  13  14  2   
 30  13  15  am  
 31  15  16  1   
 32  15  37  1   
 33  16  17  2   
 34  16  18  1   
 35  17  19  1   
 36  18  20  2   
 37  18  38  1   
 38  19  20  1   
 39  19  21  1   
 40  20  39  1   
 41  21  40  1   
 42  21  41  1   
 43  21  42  1   
@<TRIPOS>SUBSTRUCTURE
  1 ****  12 GROUP 4 **** **** 0

# MOE 2024.06 (io_trps.svl 2023.06)
