@<TRIPOS>MOLECULE
NONAME
23 23 1 0 0 
SMALL
USER_CHARGES


@<TRIPOS>ATOM
  1 CL      -1.4160     0.2980    -2.4090 Cl    1 <1>  -0.1770 
  2 C       -2.0790    -0.5310    -1.0150 C.ar  1 <1>   0.1770 
  3 C       -2.5120     0.1560     0.1180 C.ar  1 <1>  -0.1440 
  4 C       -2.1620    -1.9100    -1.1150 C.ar  1 <1>  -0.1500 
  5 C       -3.0580    -0.6160     1.1420 C.ar  1 <1>   0.1770 
  6 C       -2.3810     1.6900     0.2240 C.3   1 <1>  -0.0420 
  7 C       -2.6940    -2.6510    -0.0760 C.ar  1 <1>  -0.1500 
  8 CL      -3.6990     0.0940     2.6060 Cl    1 <1>  -0.1770 
  9 C       -3.1450    -1.9950     1.0540 C.ar  1 <1>  -0.1500 
 10 C       -1.5460     2.1220     1.4390 C.2   1 <1>   0.9060 
 11 C       -3.7740     2.3520     0.0770 C.3   1 <1>  -0.1600 
 12 O       -0.3990     1.6700     1.5460 O.co2 1 <1>  -0.9000 
 13 O       -1.9960     2.9320     2.2610 O.co2 1 <1>  -0.9000 
 14 C       -3.6900     3.8300    -0.3270 C.3   1 <1>  -0.2400 
 15 H       -1.8080    -2.3950    -2.0060 H     1 <1>   0.1500 
 16 H       -1.7950     2.0380    -0.6010 H     1 <1>   0.0800 
 17 H       -2.7570    -3.7230    -0.1460 H     1 <1>   0.1500 
 18 H       -3.5670    -2.5450     1.8760 H     1 <1>   0.1500 
 19 H       -4.3050     2.2730     1.0100 H     1 <1>   0.0800 
 20 H       -4.3380     1.8250    -0.6720 H     1 <1>   0.0800 
 21 H       -3.1550     4.3880     0.4230 H     1 <1>   0.0800 
 22 H       -4.6780     4.2440    -0.4170 H     1 <1>   0.0800 
 23 H       -3.1800     3.9370    -1.2670 H     1 <1>   0.0800 
@<TRIPOS>BOND
  1   1   2  1   
  2   2   3  ar  
  3   2   4  ar  
  4   3   5  ar  
  5   3   6  1   
  6   4   7  ar  
  7   4  15  1   
  8   5   8  1   
  9   5   9  ar  
 10   6  10  1   
 11   6  11  1   
 12   6  16  1   
 13   7   9  ar  
 14   7  17  1   
 15   9  18  1   
 16  10  12  ar  
 17  10  13  ar  
 18  11  14  1   
 19  11  19  1   
 20  11  20  1   
 21  14  21  1   
 22  14  22  1   
 23  14  23  1   
@<TRIPOS>SUBSTRUCTURE
  1 ****   3 GROUP 4 **** **** 0

# MOE 2024.06 (io_trps.svl 2023.06)
