@<TRIPOS>MOLECULE
NONAME
46 50 1 0 0 
SMALL
USER_CHARGES


@<TRIPOS>ATOM
  1 S       -0.0610     0.5890     2.0430 S.3   1 <1>  -0.0800 
  2 C       -0.0200     1.9000     0.8840 C.2   1 <1>  -0.1400 
  3 C        1.6130     0.8970     2.4800 C.2   1 <1>  -0.1100 
  4 C        1.1790     2.4960     0.8450 C.2   1 <1>  -0.1810 
  5 C       -1.2120     2.2860     0.0520 C.3   1 <1>   0.0200 
  6 C        2.1180     1.9240     1.7670 C.2   1 <1>  -0.1500 
  7 C        1.4490     3.6610    -0.1110 C.3   1 <1>   0.4610 
  8 C       -0.9530     3.7030    -0.4840 C.3   1 <1>   0.1200 
  9 O        0.3540     3.8250    -0.9960 O.3   1 <1>  -0.5600 
 10 C        1.6670     4.9710     0.6600 C.3   1 <1>  -0.1600 
 11 C        2.6660     3.3590    -0.9910 C.3   1 <1>  -0.1600 
 12 C        2.0020     6.1320    -0.2790 C.3   1 <1>   0.1400 
 13 C        2.9970     4.5300    -1.9170 C.3   1 <1>   0.1400 
 14 N        3.1840     5.7680    -1.1070 N.am  1 <1>  -0.6600 
 15 C        4.4110     6.3910    -1.0190 C.2   1 <1>   0.5440 
 16 O        5.4130     5.7610    -1.2970 O.2   1 <1>  -0.5700 
 17 C        4.5560     7.7720    -0.5960 C.ar  1 <1>   0.0860 
 18 C        5.5890     8.1750     0.2340 C.ar  1 <1>  -0.1500 
 19 C        3.7030     8.7870    -1.0050 C.ar  1 <1>  -0.1500 
 20 C        5.7290     9.5020     0.6240 C.ar  1 <1>   0.2870 
 21 C        3.9000    10.0790    -0.5660 C.ar  1 <1>   0.1600 
 22 N        4.8790    10.4530     0.2390 N.ar  1 <1>  -0.6200 
 23 N        6.8070     9.8900     1.4660 N.pl3 1 <1>   0.3260 
 24 C        6.8870    10.9440     2.2910 C.2   1 <1>   0.0360 
 25 C        8.0000     9.3090     1.6710 C.2   1 <1>   0.0370 
 26 N        8.0010    10.9880     2.9350 N.2   1 <1>  -0.3380 
 27 N        8.7170     9.9360     2.5360 N.2   1 <1>  -0.3380 
 28 H        2.0480     0.2680     3.2350 H     1 <1>   0.1500 
 29 H       -2.1060     2.2790     0.6490 H     1 <1>   0.0800 
 30 H       -1.3310     1.5940    -0.7620 H     1 <1>   0.0800 
 31 H        3.1210     2.3030     1.8530 H     1 <1>   0.1500 
 32 H       -1.0810     4.4280     0.3000 H     1 <1>   0.0800 
 33 H       -1.6400     3.9300    -1.2790 H     1 <1>   0.0800 
 34 H        2.4840     4.8410     1.3460 H     1 <1>   0.0800 
 35 H        0.7980     5.2040     1.2450 H     1 <1>   0.0800 
 36 H        2.4720     2.4760    -1.5720 H     1 <1>   0.0800 
 37 H        3.5240     3.1620    -0.3770 H     1 <1>   0.0800 
 38 H        2.1990     7.0110     0.3090 H     1 <1>   0.0800 
 39 H        1.1650     6.3340    -0.9270 H     1 <1>   0.0800 
 40 H        2.1920     4.6840    -2.6150 H     1 <1>   0.0800 
 41 H        3.8860     4.3070    -2.4820 H     1 <1>   0.0800 
 42 H        6.2870     7.4290     0.5700 H     1 <1>   0.1500 
 43 H        2.8890     8.5630    -1.6720 H     1 <1>   0.1500 
 44 H        3.2200    10.8480    -0.8950 H     1 <1>   0.1500 
 45 H        6.0890    11.6570     2.3820 H     1 <1>   0.1500 
 46 H        8.3100     8.4180     1.1570 H     1 <1>   0.1500 
@<TRIPOS>BOND
  1   1   2  1   
  2   1   3  1   
  3   2   4  2   
  4   2   5  1   
  5   3   6  2   
  6   3  28  1   
  7   4   6  1   
  8   4   7  1   
  9   5   8  1   
 10   5  29  1   
 11   5  30  1   
 12   6  31  1   
 13   7   9  1   
 14   7  10  1   
 15   7  11  1   
 16   8   9  1   
 17   8  32  1   
 18   8  33  1   
 19  10  12  1   
 20  10  34  1   
 21  10  35  1   
 22  11  13  1   
 23  11  36  1   
 24  11  37  1   
 25  12  14  1   
 26  12  38  1   
 27  12  39  1   
 28  13  14  1   
 29  13  40  1   
 30  13  41  1   
 31  14  15  am  
 32  15  16  2   
 33  15  17  1   
 34  17  18  ar  
 35  17  19  ar  
 36  18  20  ar  
 37  18  42  1   
 38  19  21  ar  
 39  19  43  1   
 40  20  22  ar  
 41  20  23  1   
 42  21  22  ar  
 43  21  44  1   
 44  23  24  1   
 45  23  25  1   
 46  24  26  2   
 47  24  45  1   
 48  25  27  2   
 49  25  46  1   
 50  26  27  1   
@<TRIPOS>SUBSTRUCTURE
  1 ****  14 GROUP 4 **** **** 0

# MOE 2024.06 (io_trps.svl 2023.06)
