@<TRIPOS>MOLECULE
NONAME
50 52 1 0 0 
SMALL
USER_CHARGES


@<TRIPOS>ATOM
  1 F       -1.6930    -0.2610    -1.3590 F     1 <1>  -0.1900 
  2 C       -1.6610     0.3060    -0.1790 C.ar  1 <1>   0.1900 
  3 C       -1.1180     1.5850    -0.0850 C.ar  1 <1>   0.0830 
  4 C       -2.1650    -0.4090     0.9100 C.ar  1 <1>   0.0860 
  5 O       -0.6710     2.1670    -1.2410 O.3   1 <1>  -0.3630 
  6 C       -1.0840     2.1510     1.1930 C.ar  1 <1>   0.1900 
  7 C       -2.7380    -1.7340     0.7870 C.2   1 <1>   0.5440 
  8 C       -2.0860     0.2080     2.1610 C.ar  1 <1>  -0.1500 
  9 C        0.0730     3.3650    -1.2710 C.3   1 <1>   0.0400 
 10 F       -0.6100     3.3500     1.4050 F     1 <1>  -0.1900 
 11 C       -1.5550     1.4770     2.3050 C.ar  1 <1>  -0.1500 
 12 O       -2.4550    -2.5920     1.6040 O.2   1 <1>  -0.5700 
 13 N       -3.6610    -2.0710    -0.1790 N.am  1 <1>  -0.6600 
 14 C       -3.9660    -3.4970    -0.4490 C.3   1 <1>   0.1400 
 15 C       -4.7290    -1.1340    -0.6140 C.3   1 <1>   0.1400 
 16 C       -5.2260    -3.8850     0.3530 C.3   1 <1>   0.4230 
 17 C       -6.0100    -1.4890     0.1560 C.3   1 <1>  -0.1600 
 18 N       -5.5330    -5.3760     0.3420 N.4   1 <1>  -0.9590 
 19 C       -6.4460    -2.9780    -0.0010 C.3   1 <1>   0.0000 
 20 C       -6.9360    -5.7150     0.7450 C.3   1 <1>   0.3430 
 21 C       -5.1700    -6.1010    -0.9200 C.3   1 <1>   0.2630 
 22 C       -7.6030    -3.2690     1.0010 C.3   1 <1>  -0.1600 
 23 C       -6.9090    -3.2490    -1.4610 C.3   1 <1>   0.1200 
 24 C       -7.5100    -4.6500     1.6780 C.3   1 <1>  -0.1600 
 25 O       -7.8750    -2.3450    -1.8700 O.3   1 <1>  -0.6800 
 26 H       -2.4460    -0.3220     3.0290 H     1 <1>   0.1500 
 27 H        0.3860     3.5390    -2.2840 H     1 <1>   0.0800 
 28 H        0.9350     3.2600    -0.6360 H     1 <1>   0.0800 
 29 H       -0.5530     4.1760    -0.9420 H     1 <1>   0.0800 
 30 H       -1.5020     1.9440     3.2730 H     1 <1>   0.1500 
 31 H       -4.1090    -3.6260    -1.5060 H     1 <1>   0.0800 
 32 H       -3.1340    -4.1070    -0.1430 H     1 <1>   0.0800 
 33 H       -4.4520    -0.1140    -0.4040 H     1 <1>   0.0800 
 34 H       -4.8820    -1.2210    -1.6770 H     1 <1>   0.0800 
 35 H       -4.9820    -3.6390     1.3740 H     1 <1>   0.0800 
 36 H       -5.8260    -1.2710     1.1940 H     1 <1>   0.0800 
 37 H       -6.7980    -0.8270    -0.1590 H     1 <1>   0.0800 
 38 H       -4.9260    -5.7580     1.0850 H     1 <1>   0.4500 
 39 H       -7.5630    -5.7740    -0.1300 H     1 <1>   0.0800 
 40 H       -6.9550    -6.6770     1.2320 H     1 <1>   0.0800 
 41 H       -5.7360    -5.7180    -1.7530 H     1 <1>   0.0800 
 42 H       -5.3800    -7.1540    -0.8190 H     1 <1>   0.0800 
 43 H       -4.1200    -5.9870    -1.1340 H     1 <1>   0.0800 
 44 H       -7.6200    -2.5300     1.7860 H     1 <1>   0.0800 
 45 H       -8.5540    -3.1900     0.5020 H     1 <1>   0.0800 
 46 H       -7.3270    -4.2340    -1.5680 H     1 <1>   0.0800 
 47 H       -6.0930    -3.1510    -2.1550 H     1 <1>   0.0800 
 48 H       -8.4930    -4.9520     1.9980 H     1 <1>   0.0800 
 49 H       -6.8980    -4.5900     2.5620 H     1 <1>   0.0800 
 50 H       -8.6910    -2.4060    -1.3360 H     1 <1>   0.4000 
@<TRIPOS>BOND
  1   1   2  1   
  2   2   3  ar  
  3   2   4  ar  
  4   3   5  1   
  5   3   6  ar  
  6   4   7  1   
  7   4   8  ar  
  8   5   9  1   
  9   6  10  1   
 10   6  11  ar  
 11   7  12  2   
 12   7  13  am  
 13   8  11  ar  
 14   8  26  1   
 15   9  27  1   
 16   9  28  1   
 17   9  29  1   
 18  11  30  1   
 19  13  14  1   
 20  13  15  1   
 21  14  16  1   
 22  14  31  1   
 23  14  32  1   
 24  15  17  1   
 25  15  33  1   
 26  15  34  1   
 27  16  18  1   
 28  16  19  1   
 29  16  35  1   
 30  17  19  1   
 31  17  36  1   
 32  17  37  1   
 33  18  20  1   
 34  18  21  1   
 35  18  38  1   
 36  19  22  1   
 37  19  23  1   
 38  20  24  1   
 39  20  39  1   
 40  20  40  1   
 41  21  41  1   
 42  21  42  1   
 43  21  43  1   
 44  22  24  1   
 45  22  44  1   
 46  22  45  1   
 47  23  25  1   
 48  23  46  1   
 49  23  47  1   
 50  24  48  1   
 51  24  49  1   
 52  25  50  1   
@<TRIPOS>SUBSTRUCTURE
  1 ****  13 GROUP 4 **** **** 0

# MOE 2024.06 (io_trps.svl 2023.06)
