@<TRIPOS>MOLECULE
NONAME
47 49 1 0 0 
SMALL
USER_CHARGES


@<TRIPOS>ATOM
  1 CL       1.4490     0.4300     3.2620 Cl    1 <1>  -0.1770 
  2 C        2.0970    -0.4600     1.9080 C.ar  1 <1>   0.1770 
  3 C        2.1320    -1.8410     1.9660 C.ar  1 <1>  -0.1500 
  4 C        2.5600     0.2260     0.8040 C.ar  1 <1>  -0.1500 
  5 C        2.6400    -2.5750     0.9010 C.ar  1 <1>  -0.1440 
  6 C        3.0680    -0.4920    -0.2630 C.ar  1 <1>  -0.1500 
  7 C        3.1120    -1.8780    -0.2180 C.ar  1 <1>   0.0830 
  8 C        2.6570    -4.0950     1.0470 C.3   1 <1>   0.4870 
  9 O        3.5820    -2.4980    -1.3210 O.3   1 <1>  -0.3630 
 10 N        2.0860    -4.8050    -0.1280 N.4   1 <1>  -0.9590 
 11 C        4.9310    -2.9740    -1.3160 C.3   1 <1>   0.0140 
 12 C        0.8810    -4.2350    -0.7850 C.3   1 <1>   0.3430 
 13 C        1.9260    -6.2690     0.0490 C.3   1 <1>   0.3430 
 14 C        4.9760    -4.4450    -0.9550 C.2   1 <1>   0.9060 
 15 C       -0.1610    -5.3540    -0.7590 C.3   1 <1>   0.2000 
 16 C        0.6750    -6.6370    -0.7490 C.3   1 <1>  -0.0800 
 17 O        5.4640    -4.7920     0.1210 O.co2 1 <1>  -0.9000 
 18 O        4.2950    -5.2360    -1.6220 O.co2 1 <1>  -0.9000 
 19 O       -0.9010    -5.2580     0.4170 O.3   1 <1>  -0.6800 
 20 C       -0.0490    -7.8910    -0.2200 C.3   1 <1>   0.0200 
 21 C        0.8680    -9.0970    -0.2440 C.2   1 <1>  -0.0400 
 22 O        1.3240    -9.5450    -1.3820 O.3   1 <1>  -0.0190 
 23 C        1.3580    -9.8760     0.7330 C.2   1 <1>  -0.1500 
 24 N        2.0950   -10.5790    -1.2210 N.2   1 <1>  -0.4100 
 25 C        2.1360   -10.8020     0.0430 C.2   1 <1>   0.1080 
 26 C        2.9290   -11.9210     0.6810 C.3   1 <1>  -0.0590 
 27 H        1.7640    -2.3230     2.8540 H     1 <1>   0.1500 
 28 H        2.5220     1.3010     0.7820 H     1 <1>   0.1500 
 29 H        3.4310     0.0180    -1.1380 H     1 <1>   0.1500 
 30 H        2.0860    -4.3550     1.9200 H     1 <1>   0.0800 
 31 H        3.6650    -4.4280     1.2230 H     1 <1>   0.0800 
 32 H        2.8600    -4.7590    -0.8410 H     1 <1>   0.4500 
 33 H        5.3300    -2.8500    -2.3030 H     1 <1>   0.0800 
 34 H        5.5110    -2.4050    -0.6130 H     1 <1>   0.0800 
 35 H        0.5210    -3.3510    -0.2860 H     1 <1>   0.0800 
 36 H        1.1280    -3.9900    -1.8050 H     1 <1>   0.0800 
 37 H        2.7960    -6.7950    -0.3190 H     1 <1>   0.0800 
 38 H        1.7820    -6.5040     1.0900 H     1 <1>   0.0800 
 39 H       -0.8430    -5.3010    -1.5920 H     1 <1>   0.0800 
 40 H        0.9960    -6.8320    -1.7580 H     1 <1>   0.0800 
 41 H       -0.3200    -5.1770     1.1960 H     1 <1>   0.4000 
 42 H       -0.9100    -8.0970    -0.8320 H     1 <1>   0.0800 
 43 H       -0.3900    -7.7400     0.7880 H     1 <1>   0.0800 
 44 H        1.2130    -9.8340     1.7960 H     1 <1>   0.1500 
 45 H        3.7770   -11.5140     1.2000 H     1 <1>   0.0800 
 46 H        3.2790   -12.5990    -0.0760 H     1 <1>   0.0800 
 47 H        2.3120   -12.4610     1.3740 H     1 <1>   0.0800 
@<TRIPOS>BOND
  1   1   2  1   
  2   2   3  ar  
  3   2   4  ar  
  4   3   5  ar  
  5   3  27  1   
  6   4   6  ar  
  7   4  28  1   
  8   5   7  ar  
  9   5   8  1   
 10   6   7  ar  
 11   6  29  1   
 12   7   9  1   
 13   8  10  1   
 14   8  30  1   
 15   8  31  1   
 16   9  11  1   
 17  10  12  1   
 18  10  13  1   
 19  10  32  1   
 20  11  14  1   
 21  11  33  1   
 22  11  34  1   
 23  12  15  1   
 24  12  35  1   
 25  12  36  1   
 26  13  16  1   
 27  13  37  1   
 28  13  38  1   
 29  14  17  ar  
 30  14  18  ar  
 31  15  16  1   
 32  15  19  1   
 33  15  39  1   
 34  16  20  1   
 35  16  40  1   
 36  19  41  1   
 37  20  21  1   
 38  20  42  1   
 39  20  43  1   
 40  21  22  1   
 41  21  23  2   
 42  22  24  1   
 43  23  25  1   
 44  23  44  1   
 45  24  25  2   
 46  25  26  1   
 47  26  45  1   
 48  26  46  1   
 49  26  47  1   
@<TRIPOS>SUBSTRUCTURE
  1 ****  10 GROUP 4 **** **** 0

# MOE 2024.06 (io_trps.svl 2023.06)
