@<TRIPOS>MOLECULE
NONAME
54 56 1 0 0 
SMALL
USER_CHARGES


@<TRIPOS>ATOM
  1 O        0.5190     3.0250    -2.2360 O.co2 1 <1>  -0.9000 
  2 C       -0.4490     2.4110    -1.7660 C.2   1 <1>   0.9060 
  3 O       -1.4200     2.1070    -2.4560 O.co2 1 <1>  -0.9000 
  4 C       -0.5250     2.1760    -0.2670 C.3   1 <1>  -0.1060 
  5 C       -1.9310     2.5320     0.2500 C.3   1 <1>   0.2000 
  6 C        0.4610     3.1200     0.4180 C.3   1 <1>   0.3430 
  7 C       -0.1670     0.6920     0.0170 C.3   1 <1>  -0.0170 
  8 O       -1.9610     2.3470     1.6290 O.3   1 <1>  -0.6800 
  9 C       -2.3210     3.9990     0.0000 C.3   1 <1>  -0.1600 
 10 N        0.1150     4.5900     0.3300 N.4   1 <1>  -0.9590 
 11 C        1.3370     0.4480     0.1080 C.ar  1 <1>  -0.1440 
 12 C       -1.1510     4.8910    -0.4200 C.3   1 <1>   0.3430 
 13 C        1.2580     5.2520    -0.3610 C.3   1 <1>   0.4860 
 14 C        2.1250     0.4630    -1.0320 C.ar  1 <1>  -0.1500 
 15 C        1.9320     0.2200     1.3400 C.ar  1 <1>  -0.1500 
 16 C        1.0570     6.7490    -0.3900 C.ar  1 <1>  -0.1440 
 17 C        3.4900     0.2590    -0.9430 C.ar  1 <1>  -0.1500 
 18 C        3.2980     0.0140     1.4310 C.ar  1 <1>  -0.1500 
 19 C        0.6900     7.3900    -1.5500 C.ar  1 <1>   0.1600 
 20 C        1.2280     7.5290     0.7290 C.ar  1 <1>   0.1600 
 21 C        4.0790     0.0350     0.2890 C.ar  1 <1>  -0.1500 
 22 N        0.4880     8.6860    -1.5920 N.ar  1 <1>  -0.6200 
 23 N        1.0310     8.8250     0.7110 N.ar  1 <1>  -0.6200 
 24 C        0.6700     9.3460    -0.4560 C.ar  1 <1>   0.4770 
 25 C        0.4360    10.8620    -0.5080 C.3   1 <1>   0.0630 
 26 C        1.7070    11.6510    -0.1530 C.3   1 <1>  -0.2400 
 27 C       -0.7260    11.2920     0.4020 C.3   1 <1>  -0.2400 
 28 H       -2.6620     1.8700    -0.1890 H     1 <1>   0.0800 
 29 H        1.4340     2.9460    -0.0150 H     1 <1>   0.0800 
 30 H        0.5160     2.8380     1.4560 H     1 <1>   0.0800 
 31 H       -0.6130     0.3650     0.9380 H     1 <1>   0.0800 
 32 H       -0.5820     0.0670    -0.7570 H     1 <1>   0.0800 
 33 H       -2.8880     2.2560     1.9300 H     1 <1>   0.4000 
 34 H       -3.0240     4.0150    -0.8150 H     1 <1>   0.0800 
 35 H       -2.8190     4.4250     0.8520 H     1 <1>   0.0800 
 36 H        0.0110     4.9430     1.2840 H     1 <1>   0.4500 
 37 H       -1.4230     5.9260    -0.2930 H     1 <1>   0.0800 
 38 H       -0.9740     4.7340    -1.4740 H     1 <1>   0.0800 
 39 H        2.1790     5.0220     0.1490 H     1 <1>   0.0800 
 40 H        1.3390     4.8800    -1.3700 H     1 <1>   0.0800 
 41 H        1.6800     0.6390    -1.9990 H     1 <1>   0.1500 
 42 H        1.3360     0.1960     2.2350 H     1 <1>   0.1500 
 43 H        4.0900     0.2740    -1.8360 H     1 <1>   0.1500 
 44 H        3.7540    -0.1660     2.3890 H     1 <1>   0.1500 
 45 H        0.5540     6.8320    -2.4640 H     1 <1>   0.1500 
 46 H        1.5300     7.0900     1.6660 H     1 <1>   0.1500 
 47 H        5.1400    -0.1270     0.3560 H     1 <1>   0.1500 
 48 H        0.1680    11.1190    -1.5190 H     1 <1>   0.0800 
 49 H        2.0010    11.4530     0.8620 H     1 <1>   0.0800 
 50 H        1.5380    12.7070    -0.2650 H     1 <1>   0.0800 
 51 H        2.5110    11.3610    -0.8060 H     1 <1>   0.0800 
 52 H       -0.4950    11.0800     1.4310 H     1 <1>   0.0800 
 53 H       -1.6190    10.7570     0.1340 H     1 <1>   0.0800 
 54 H       -0.9140    12.3460     0.3000 H     1 <1>   0.0800 
@<TRIPOS>BOND
  1   1   2  ar  
  2   2   3  ar  
  3   2   4  1   
  4   4   5  1   
  5   4   6  1   
  6   4   7  1   
  7   5   8  1   
  8   5   9  1   
  9   5  28  1   
 10   6  10  1   
 11   6  29  1   
 12   6  30  1   
 13   7  11  1   
 14   7  31  1   
 15   7  32  1   
 16   8  33  1   
 17   9  12  1   
 18   9  34  1   
 19   9  35  1   
 20  10  12  1   
 21  10  13  1   
 22  10  36  1   
 23  11  14  ar  
 24  11  15  ar  
 25  12  37  1   
 26  12  38  1   
 27  13  16  1   
 28  13  39  1   
 29  13  40  1   
 30  14  17  ar  
 31  14  41  1   
 32  15  18  ar  
 33  15  42  1   
 34  16  19  ar  
 35  16  20  ar  
 36  17  21  ar  
 37  17  43  1   
 38  18  21  ar  
 39  18  44  1   
 40  19  22  ar  
 41  19  45  1   
 42  20  23  ar  
 43  20  46  1   
 44  21  47  1   
 45  22  24  ar  
 46  23  24  ar  
 47  24  25  1   
 48  25  26  1   
 49  25  27  1   
 50  25  48  1   
 51  26  49  1   
 52  26  50  1   
 53  26  51  1   
 54  27  52  1   
 55  27  53  1   
 56  27  54  1   
@<TRIPOS>SUBSTRUCTURE
  1 ****  10 GROUP 4 **** **** 0

# MOE 2024.06 (io_trps.svl 2023.06)
