@<TRIPOS>MOLECULE
NONAME
39 40 1 0 0 
SMALL
USER_CHARGES


@<TRIPOS>ATOM
  1 S       -0.3270    -0.2580    -0.5820 S.o2  1 <1>   1.5760 
  2 O       -1.1620    -1.4330    -0.7130 O.2   1 <1>  -0.6500 
  3 O        0.1840     0.4160    -1.7560 O.2   1 <1>  -0.6500 
  4 N       -1.0650     0.8650     0.4480 N.am  1 <1>  -0.8490 
  5 N        0.9990    -0.7030     0.3750 N.am  1 <1>  -0.8490 
  6 C       -2.3930     0.5230     0.9810 C.3   1 <1>   0.1960 
  7 C       -0.8740     2.2810     0.1420 C.3   1 <1>   0.1960 
  8 C        2.0100     0.3470     0.5020 C.3   1 <1>   0.1160 
  9 C        1.6170    -1.9400    -0.1010 C.3   1 <1>   0.1160 
 10 C       -3.5930     1.0740     0.1550 C.3   1 <1>   0.0000 
 11 C       -1.9840     2.8100    -0.7680 C.3   1 <1>  -0.1600 
 12 C       -4.8800     0.7910     0.9610 C.3   1 <1>   0.2000 
 13 C       -3.3650     2.5740    -0.1400 C.3   1 <1>  -0.1600 
 14 C       -3.8470     0.2760    -1.1390 C.3   1 <1>  -0.1600 
 15 O       -5.9270     1.5670     0.4950 O.3   1 <1>  -0.6800 
 16 C       -5.2300    -0.6660     0.6580 C.3   1 <1>  -0.1600 
 17 C       -4.6250    -0.9770    -0.7190 C.3   1 <1>  -0.1600 
 18 H       -2.4740    -0.5430     1.1090 H     1 <1>   0.0800 
 19 H       -2.4510     0.9510     1.9670 H     1 <1>   0.0800 
 20 H       -0.8880     2.8340     1.0650 H     1 <1>   0.0800 
 21 H        0.0860     2.4420    -0.3180 H     1 <1>   0.0800 
 22 H        2.8170     0.0080     1.1280 H     1 <1>   0.0800 
 23 H        1.5780     1.2180     0.9610 H     1 <1>   0.0800 
 24 H        2.4020     0.6150    -0.4650 H     1 <1>   0.0800 
 25 H        2.4360    -2.2190     0.5400 H     1 <1>   0.0800 
 26 H        1.9800    -1.8140    -1.1080 H     1 <1>   0.0800 
 27 H        0.8960    -2.7400    -0.0900 H     1 <1>   0.0800 
 28 H       -1.8380     3.8640    -0.9220 H     1 <1>   0.0800 
 29 H       -1.9180     2.3300    -1.7290 H     1 <1>   0.0800 
 30 H       -4.7720     0.9830     2.0160 H     1 <1>   0.0800 
 31 H       -4.1250     2.9540    -0.8000 H     1 <1>   0.0800 
 32 H       -3.4320     3.1280     0.7810 H     1 <1>   0.0800 
 33 H       -4.4690     0.8530    -1.8000 H     1 <1>   0.0800 
 34 H       -2.9520     0.0350    -1.6780 H     1 <1>   0.0800 
 35 H       -6.0700     1.3630    -0.4480 H     1 <1>   0.4000 
 36 H       -4.7630    -1.2990     1.3920 H     1 <1>   0.0800 
 37 H       -6.2920    -0.8420     0.6890 H     1 <1>   0.0800 
 38 H       -3.9530    -1.8160    -0.6420 H     1 <1>   0.0800 
 39 H       -5.3880    -1.2110    -1.4410 H     1 <1>   0.0800 
@<TRIPOS>BOND
  1   1   2  2   
  2   1   3  2   
  3   1   4  am  
  4   1   5  am  
  5   4   6  1   
  6   4   7  1   
  7   5   8  1   
  8   5   9  1   
  9   6  10  1   
 10   6  18  1   
 11   6  19  1   
 12   7  11  1   
 13   7  20  1   
 14   7  21  1   
 15   8  22  1   
 16   8  23  1   
 17   8  24  1   
 18   9  25  1   
 19   9  26  1   
 20   9  27  1   
 21  10  12  1   
 22  10  13  1   
 23  10  14  1   
 24  11  13  1   
 25  11  28  1   
 26  11  29  1   
 27  12  15  1   
 28  12  16  1   
 29  12  30  1   
 30  13  31  1   
 31  13  32  1   
 32  14  17  1   
 33  14  33  1   
 34  14  34  1   
 35  15  35  1   
 36  16  17  1   
 37  16  36  1   
 38  16  37  1   
 39  17  38  1   
 40  17  39  1   
@<TRIPOS>SUBSTRUCTURE
  1 ****   6 GROUP 4 **** **** 0

# MOE 2024.06 (io_trps.svl 2023.06)
