@<TRIPOS>MOLECULE
NONAME
47 48 1 0 0 
SMALL
USER_CHARGES


@<TRIPOS>ATOM
  1 O       -2.7290     0.5910    -1.4940 O.2   1 <1>  -0.5700 
  2 C       -2.2210     0.7670    -0.4130 C.2   1 <1>   0.5690 
  3 N       -1.9590    -0.2690     0.4240 N.am  1 <1>  -0.7300 
  4 C       -1.8600     2.1810     0.0410 C.3   1 <1>  -0.0190 
  5 C       -2.1990    -1.6980     0.0930 C.3   1 <1>   0.1400 
  6 C       -2.8640     3.2420    -0.4570 C.3   1 <1>  -0.1600 
  7 C       -0.4200     2.5480    -0.3880 C.3   1 <1>  -0.1600 
  8 C       -3.6960    -2.0030     0.0670 C.3   1 <1>   0.1200 
  9 C       -2.5730     4.6410     0.1280 C.3   1 <1>   0.2000 
 10 C       -0.1440     4.0660    -0.4110 C.3   1 <1>  -0.1600 
 11 O       -3.8640    -3.4020    -0.0080 O.3   1 <1>  -0.3620 
 12 O       -2.9150     5.6060    -0.8360 O.3   1 <1>  -0.5600 
 13 C       -1.0850     4.8270     0.5270 C.3   1 <1>   0.2000 
 14 C       -5.1000    -3.9690    -0.0210 C.ar  1 <1>   0.0820 
 15 C       -4.2790     5.8670    -0.9620 C.3   1 <1>   0.0400 
 16 O       -0.7620     6.1660     0.4640 O.3   1 <1>  -0.6800 
 17 C       -5.1730    -5.3590     0.0100 C.ar  1 <1>  -0.1440 
 18 C       -6.2740    -3.2190    -0.0620 C.ar  1 <1>  -0.1500 
 19 C       -6.4110    -5.9810     0.0030 C.ar  1 <1>  -0.1500 
 20 C       -3.9050    -6.2010     0.0500 C.3   1 <1>  -0.0970 
 21 C       -7.5040    -3.8510    -0.0680 C.ar  1 <1>  -0.1500 
 22 C       -7.5740    -5.2310    -0.0340 C.ar  1 <1>  -0.1500 
 23 H       -1.5090    -0.0940     1.3240 H     1 <1>   0.3700 
 24 H       -1.9010     2.1880     1.1160 H     1 <1>   0.0800 
 25 H       -1.7770    -1.9140    -0.8740 H     1 <1>   0.0800 
 26 H       -1.7190    -2.3160     0.8320 H     1 <1>   0.0800 
 27 H       -3.8620     2.9440    -0.1910 H     1 <1>   0.0800 
 28 H       -2.8020     3.2830    -1.5320 H     1 <1>   0.0800 
 29 H        0.2730     2.0680     0.2810 H     1 <1>   0.0800 
 30 H       -0.2310     2.1590    -1.3760 H     1 <1>   0.0800 
 31 H       -4.1520    -1.5570    -0.7990 H     1 <1>   0.0800 
 32 H       -4.1680    -1.6590     0.9700 H     1 <1>   0.0800 
 33 H       -3.1710     4.8070     1.0080 H     1 <1>   0.0800 
 34 H       -0.2970     4.4310    -1.4120 H     1 <1>   0.0800 
 35 H        0.8790     4.2530    -0.1360 H     1 <1>   0.0800 
 36 H       -0.9250     4.4970     1.5390 H     1 <1>   0.0800 
 37 H       -4.4040     6.6330    -1.7070 H     1 <1>   0.0800 
 38 H       -4.6640     6.2150    -0.0190 H     1 <1>   0.0800 
 39 H       -4.7900     4.9740    -1.2760 H     1 <1>   0.0800 
 40 H       -1.3200     6.5410    -0.2550 H     1 <1>   0.4000 
 41 H       -6.2530    -2.1470    -0.0930 H     1 <1>   0.1500 
 42 H       -6.4790    -7.0550     0.0280 H     1 <1>   0.1500 
 43 H       -4.1350    -7.2510     0.0590 H     1 <1>   0.0800 
 44 H       -3.3400    -5.9640     0.9330 H     1 <1>   0.0800 
 45 H       -3.3020    -5.9890    -0.8140 H     1 <1>   0.0800 
 46 H       -8.4090    -3.2680    -0.1000 H     1 <1>   0.1500 
 47 H       -8.5310    -5.7230    -0.0390 H     1 <1>   0.1500 
@<TRIPOS>BOND
  1   1   2  2   
  2   2   3  am  
  3   2   4  1   
  4   3   5  1   
  5   3  23  1   
  6   4   6  1   
  7   4   7  1   
  8   4  24  1   
  9   5   8  1   
 10   5  25  1   
 11   5  26  1   
 12   6   9  1   
 13   6  27  1   
 14   6  28  1   
 15   7  10  1   
 16   7  29  1   
 17   7  30  1   
 18   8  11  1   
 19   8  31  1   
 20   8  32  1   
 21   9  12  1   
 22   9  13  1   
 23   9  33  1   
 24  10  13  1   
 25  10  34  1   
 26  10  35  1   
 27  11  14  1   
 28  12  15  1   
 29  13  16  1   
 30  13  36  1   
 31  14  17  ar  
 32  14  18  ar  
 33  15  37  1   
 34  15  38  1   
 35  15  39  1   
 36  16  40  1   
 37  17  19  ar  
 38  17  20  1   
 39  18  21  ar  
 40  18  41  1   
 41  19  22  ar  
 42  19  42  1   
 43  20  43  1   
 44  20  44  1   
 45  20  45  1   
 46  21  22  ar  
 47  21  46  1   
 48  22  47  1   
@<TRIPOS>SUBSTRUCTURE
  1 ****   2 GROUP 4 **** **** 0

# MOE 2024.06 (io_trps.svl 2023.06)
