@<TRIPOS>MOLECULE
NONAME
48 49 1 0 0 
SMALL
USER_CHARGES


@<TRIPOS>ATOM
  1 S       -1.1300     0.9820     1.2880 S.o2  1 <1>   1.4470 
  2 O       -1.2170     0.0660     2.4040 O.2   1 <1>  -0.6500 
  3 O       -1.8740     2.2240     1.3580 O.2   1 <1>  -0.6500 
  4 N       -1.6370     0.1970    -0.1310 N.am  1 <1>  -0.8490 
  5 C        0.6100     1.3840     0.9580 C.ar  1 <1>  -0.0090 
  6 C       -0.9270    -1.0500    -0.4820 C.3   1 <1>   0.1960 
  7 C       -3.0910     0.0910    -0.2890 C.3   1 <1>   0.1960 
  8 C        0.9630     2.4950     0.2090 C.ar  1 <1>  -0.1500 
  9 C        1.6390     0.5760     1.4210 C.ar  1 <1>  -0.1500 
 10 C       -1.4640    -2.2840     0.2550 C.3   1 <1>  -0.1860 
 11 C       -3.6710    -1.0920     0.4900 C.3   1 <1>  -0.1600 
 12 C        2.2880     2.7910    -0.0610 C.ar  1 <1>  -0.1500 
 13 C        2.9650     0.8670     1.1520 C.ar  1 <1>  -0.1500 
 14 C       -0.7900    -3.5370    -0.2580 C.2   1 <1>   0.9060 
 15 C       -2.9760    -2.3800     0.0640 C.3   1 <1>   0.2000 
 16 C        3.3230     1.9850     0.4030 C.ar  1 <1>  -0.1440 
 17 O        0.1450    -3.4410    -1.0590 O.co2 1 <1>  -0.9000 
 18 O       -1.2100    -4.6320     0.1360 O.co2 1 <1>  -0.9000 
 19 O       -3.4580    -3.4150     0.8330 O.3   1 <1>  -0.6800 
 20 C        4.7920     2.3530     0.0670 C.3   1 <1>   0.1430 
 21 C        5.8010     1.3420     0.6820 C.3   1 <1>  -0.1600 
 22 C        4.9520     2.3610    -1.4640 C.3   1 <1>  -0.2400 
 23 C        5.0870     3.7610     0.6160 C.3   1 <1>  -0.2400 
 24 C        7.3010     1.5910     0.4330 C.3   1 <1>  -0.2400 
 25 H       -1.0390    -1.2140    -1.5410 H     1 <1>   0.0800 
 26 H        0.1290    -0.9510    -0.2970 H     1 <1>   0.0800 
 27 H       -3.5670     1.0050     0.0240 H     1 <1>   0.0800 
 28 H       -3.3090    -0.0430    -1.3350 H     1 <1>   0.0800 
 29 H        0.1870     3.1380    -0.1700 H     1 <1>   0.1500 
 30 H        1.3980    -0.3010     1.9990 H     1 <1>   0.1500 
 31 H       -1.2320    -2.2060     1.2980 H     1 <1>   0.0800 
 32 H       -4.7220    -1.1720     0.2850 H     1 <1>   0.0800 
 33 H       -3.5400    -0.9340     1.5450 H     1 <1>   0.0800 
 34 H        2.4980     3.6670    -0.6470 H     1 <1>   0.1500 
 35 H        3.6980     0.1880     1.5440 H     1 <1>   0.1500 
 36 H       -3.1990    -2.6090    -0.9650 H     1 <1>   0.0800 
 37 H       -2.7880    -4.1550     0.7330 H     1 <1>   0.4000 
 38 H        5.6540     1.3200     1.7480 H     1 <1>   0.0800 
 39 H        5.5740     0.3610     0.3020 H     1 <1>   0.0800 
 40 H        5.9410     2.6650    -1.7510 H     1 <1>   0.0800 
 41 H        4.2620     3.0430    -1.9240 H     1 <1>   0.0800 
 42 H        4.7640     1.3780    -1.8580 H     1 <1>   0.0800 
 43 H        6.0750     4.0840     0.3490 H     1 <1>   0.0800 
 44 H        4.9990     3.7630     1.6870 H     1 <1>   0.0800 
 45 H        4.3990     4.4860     0.2220 H     1 <1>   0.0800 
 46 H        7.6180     2.5320     0.8470 H     1 <1>   0.0800 
 47 H        7.5340     1.5700    -0.6150 H     1 <1>   0.0800 
 48 H        7.8740     0.8160     0.9100 H     1 <1>   0.0800 
@<TRIPOS>BOND
  1   1   2  2   
  2   1   3  2   
  3   1   4  am  
  4   1   5  1   
  5   4   6  1   
  6   4   7  1   
  7   5   8  ar  
  8   5   9  ar  
  9   6  10  1   
 10   6  25  1   
 11   6  26  1   
 12   7  11  1   
 13   7  27  1   
 14   7  28  1   
 15   8  12  ar  
 16   8  29  1   
 17   9  13  ar  
 18   9  30  1   
 19  10  14  1   
 20  10  15  1   
 21  10  31  1   
 22  11  15  1   
 23  11  32  1   
 24  11  33  1   
 25  12  16  ar  
 26  12  34  1   
 27  13  16  ar  
 28  13  35  1   
 29  14  17  ar  
 30  14  18  ar  
 31  15  19  1   
 32  15  36  1   
 33  16  20  1   
 34  19  37  1   
 35  20  21  1   
 36  20  22  1   
 37  20  23  1   
 38  21  24  1   
 39  21  38  1   
 40  21  39  1   
 41  22  40  1   
 42  22  41  1   
 43  22  42  1   
 44  23  43  1   
 45  23  44  1   
 46  23  45  1   
 47  24  46  1   
 48  24  47  1   
 49  24  48  1   
@<TRIPOS>SUBSTRUCTURE
  1 ****   5 GROUP 4 **** **** 0

# MOE 2024.06 (io_trps.svl 2023.06)
