@<TRIPOS>MOLECULE
NONAME
51 54 1 0 0 
SMALL
USER_CHARGES


@<TRIPOS>ATOM
  1 O        0.1380     0.2900     0.1580 O.2   1 <1>  -0.5700 
  2 C       -0.3760     1.3680     0.3470 C.2   1 <1>   0.5690 
  3 N       -1.7390     1.5190     0.3410 N.am  1 <1>  -0.6600 
  4 C        0.5270     2.5650     0.5950 C.3   1 <1>  -0.0990 
  5 C       -2.4700     2.8060     0.5660 C.3   1 <1>   0.1400 
  6 C       -2.6150     0.3280     0.1100 C.3   1 <1>   0.1400 
  7 C        2.0110     2.2080     0.5170 C.3   1 <1>   0.1200 
  8 C       -3.3640     3.1600    -0.6450 C.3   1 <1>   0.1440 
  9 C       -4.0540     0.7230    -0.2660 C.3   1 <1>  -0.1600 
 10 O        2.7590     3.3850     0.7260 O.3   1 <1>  -0.3630 
 11 C       -4.3510     4.2170    -0.1770 C.ar  1 <1>   0.1670 
 12 C       -4.0630     1.9090    -1.2430 C.3   1 <1>  -0.1600 
 13 C       -2.5670     3.9260    -1.7340 C.3   1 <1>  -0.1600 
 14 C        4.1150     3.3640     0.7050 C.ar  1 <1>   0.0820 
 15 N       -5.4040     3.9990     0.5800 N.ar  1 <1>  -0.6200 
 16 C       -4.0070     5.4590    -0.6230 C.ar  1 <1>  -0.1440 
 17 C       -2.7490     5.4280    -1.4540 C.3   1 <1>  -0.0170 
 18 C        4.8690     2.2150     0.4790 C.ar  1 <1>  -0.1500 
 19 C        4.7620     4.5700     0.9250 C.ar  1 <1>  -0.1500 
 20 C       -6.1110     5.0840     0.8630 C.ar  1 <1>   0.4770 
 21 C       -4.8100     6.5130    -0.2670 C.ar  1 <1>   0.1600 
 22 C        6.2520     2.2830     0.4740 C.ar  1 <1>  -0.1500 
 23 C        6.1450     4.6370     0.9190 C.ar  1 <1>  -0.1500 
 24 N       -5.8770     6.3330     0.4830 N.ar  1 <1>  -0.6200 
 25 C       -7.3360     4.8750     1.7200 C.3   1 <1>  -0.0970 
 26 C        6.8900     3.4920     0.6940 C.ar  1 <1>  -0.1500 
 27 H        0.3170     2.9550     1.5730 H     1 <1>   0.0800 
 28 H        0.3170     3.3140    -0.1440 H     1 <1>   0.0800 
 29 H       -1.7990     3.6180     0.7730 H     1 <1>   0.0800 
 30 H       -3.0930     2.6840     1.4360 H     1 <1>   0.0800 
 31 H       -2.6220    -0.2850     0.9950 H     1 <1>   0.0800 
 32 H       -2.1930    -0.2560    -0.6910 H     1 <1>   0.0800 
 33 H        2.2540     1.8150    -0.4560 H     1 <1>   0.0800 
 34 H        2.2700     1.4940     1.2800 H     1 <1>   0.0800 
 35 H       -4.6020     0.9810     0.6230 H     1 <1>   0.0800 
 36 H       -4.5470    -0.1230    -0.7110 H     1 <1>   0.0800 
 37 H       -3.5460     1.5940    -2.1330 H     1 <1>   0.0800 
 38 H       -5.0740     2.1480    -1.5220 H     1 <1>   0.0800 
 39 H       -2.9970     3.7250    -2.7000 H     1 <1>   0.0800 
 40 H       -1.5310     3.6400    -1.7620 H     1 <1>   0.0800 
 41 H       -2.8580     5.9910    -2.3650 H     1 <1>   0.0800 
 42 H       -1.9250     5.8140    -0.8800 H     1 <1>   0.0800 
 43 H        4.4020     1.2640     0.3050 H     1 <1>   0.1500 
 44 H        4.1770     5.4540     1.1000 H     1 <1>   0.1500 
 45 H       -4.5800     7.5120    -0.5970 H     1 <1>   0.1500 
 46 H        6.8320     1.3950     0.2980 H     1 <1>   0.1500 
 47 H        6.6390     5.5770     1.0910 H     1 <1>   0.1500 
 48 H       -7.2540     3.9570     2.2720 H     1 <1>   0.0800 
 49 H       -8.2040     4.8320     1.0910 H     1 <1>   0.0800 
 50 H       -7.4410     5.6900     2.4120 H     1 <1>   0.0800 
 51 H        7.9650     3.5430     0.6890 H     1 <1>   0.1500 
@<TRIPOS>BOND
  1   1   2  2   
  2   2   3  am  
  3   2   4  1   
  4   3   5  1   
  5   3   6  1   
  6   4   7  1   
  7   4  27  1   
  8   4  28  1   
  9   5   8  1   
 10   5  29  1   
 11   5  30  1   
 12   6   9  1   
 13   6  31  1   
 14   6  32  1   
 15   7  10  1   
 16   7  33  1   
 17   7  34  1   
 18   8  11  1   
 19   8  12  1   
 20   8  13  1   
 21   9  12  1   
 22   9  35  1   
 23   9  36  1   
 24  10  14  1   
 25  11  15  ar  
 26  11  16  ar  
 27  12  37  1   
 28  12  38  1   
 29  13  17  1   
 30  13  39  1   
 31  13  40  1   
 32  14  18  ar  
 33  14  19  ar  
 34  15  20  ar  
 35  16  17  1   
 36  16  21  ar  
 37  17  41  1   
 38  17  42  1   
 39  18  22  ar  
 40  18  43  1   
 41  19  23  ar  
 42  19  44  1   
 43  20  24  ar  
 44  20  25  1   
 45  21  24  ar  
 46  21  45  1   
 47  22  26  ar  
 48  22  46  1   
 49  23  26  ar  
 50  23  47  1   
 51  25  48  1   
 52  25  49  1   
 53  25  50  1   
 54  26  51  1   
@<TRIPOS>SUBSTRUCTURE
  1 ****   4 GROUP 4 **** **** 0

# MOE 2024.06 (io_trps.svl 2023.06)
