@<TRIPOS>MOLECULE
NONAME
46 48 1 0 0 
SMALL
USER_CHARGES


@<TRIPOS>ATOM
  1 O        1.7400    -1.6080     3.0940 O.2   1 <1>  -0.5700 
  2 C        1.0090    -2.2660     2.3850 C.2   1 <1>   0.5440 
  3 N       -0.1980    -2.5790     2.9160 N.am  1 <1>  -0.8000 
  4 C        1.3980    -2.6470     1.0480 C.ar  1 <1>   0.0860 
  5 C        1.1100    -3.9130     0.5040 C.ar  1 <1>   0.4100 
  6 C        2.0860    -1.7490     0.2460 C.ar  1 <1>  -0.1500 
  7 N        1.4220    -4.2670    -0.7390 N.ar  1 <1>  -0.6200 
  8 N        0.4740    -4.8870     1.2430 N.pl3 1 <1>  -0.8690 
  9 C        2.4250    -2.1170    -1.0370 C.ar  1 <1>  -0.1430 
 10 C        2.0610    -3.3850    -1.4800 C.ar  1 <1>   0.1670 
 11 C        0.5730    -6.3450     0.9640 C.3   1 <1>   0.2890 
 12 C        3.1830    -1.1300    -1.9170 C.3   1 <1>  -0.0970 
 13 C        2.3950    -3.8450    -2.8870 C.3   1 <1>  -0.0970 
 14 C       -0.7610    -6.9100     0.5010 C.3   1 <1>  -0.0800 
 15 C        0.7480    -7.0950     2.2790 C.3   1 <1>   0.1200 
 16 C       -1.5000    -7.1570     1.8190 C.3   1 <1>   0.1200 
 17 C       -1.5380    -6.0520    -0.5130 C.3   1 <1>  -0.0170 
 18 O       -0.5320    -7.2050     2.8280 O.3   1 <1>  -0.5600 
 19 C       -2.7940    -6.7710    -0.9830 C.ar  1 <1>  -0.1430 
 20 C       -2.7500    -7.7290    -1.9760 C.ar  1 <1>  -0.1500 
 21 C       -4.0380    -6.5100    -0.4450 C.ar  1 <1>  -0.1500 
 22 C       -3.9160    -8.3650    -2.3680 C.ar  1 <1>   0.1600 
 23 C       -5.1440    -7.2030    -0.9090 C.ar  1 <1>   0.1600 
 24 N       -5.1130    -8.1270    -1.8570 N.ar  1 <1>  -0.6200 
 25 H       -0.4400    -2.2080     3.8370 H     1 <1>   0.3700 
 26 H       -0.9530    -2.9910     2.3650 H     1 <1>   0.3700 
 27 H        2.3430    -0.7800     0.6390 H     1 <1>   0.1500 
 28 H        0.3220    -4.6940     2.2400 H     1 <1>   0.4000 
 29 H        1.3740    -6.5570     0.2770 H     1 <1>   0.0800 
 30 H        3.4710    -0.2580    -1.3560 H     1 <1>   0.0800 
 31 H        2.5620    -0.8150    -2.7360 H     1 <1>   0.0800 
 32 H        4.0750    -1.5860    -2.3060 H     1 <1>   0.0800 
 33 H        2.1080    -3.1000    -3.6050 H     1 <1>   0.0800 
 34 H        1.8680    -4.7540    -3.1190 H     1 <1>   0.0800 
 35 H        3.4490    -4.0320    -2.9660 H     1 <1>   0.0800 
 36 H       -0.5710    -7.8690     0.0530 H     1 <1>   0.0800 
 37 H        1.3980    -6.5840     2.9670 H     1 <1>   0.0800 
 38 H        1.1140    -8.0910     2.1000 H     1 <1>   0.0800 
 39 H       -2.0450    -8.0850     1.8070 H     1 <1>   0.0800 
 40 H       -2.1670    -6.3450     2.0520 H     1 <1>   0.0800 
 41 H       -0.9070    -5.8450    -1.3600 H     1 <1>   0.0800 
 42 H       -1.8040    -5.1050    -0.0770 H     1 <1>   0.0800 
 43 H       -1.8190    -7.9860    -2.4480 H     1 <1>   0.1500 
 44 H       -4.1580    -5.7750     0.3290 H     1 <1>   0.1500 
 45 H       -3.8610    -9.1090    -3.1440 H     1 <1>   0.1500 
 46 H       -6.1060    -6.9860    -0.4780 H     1 <1>   0.1500 
@<TRIPOS>BOND
  1   1   2  2   
  2   2   3  am  
  3   2   4  1   
  4   3  25  1   
  5   3  26  1   
  6   4   5  ar  
  7   4   6  ar  
  8   5   7  ar  
  9   5   8  1   
 10   6   9  ar  
 11   6  27  1   
 12   7  10  ar  
 13   8  11  1   
 14   8  28  1   
 15   9  10  ar  
 16   9  12  1   
 17  10  13  1   
 18  11  14  1   
 19  11  15  1   
 20  11  29  1   
 21  12  30  1   
 22  12  31  1   
 23  12  32  1   
 24  13  33  1   
 25  13  34  1   
 26  13  35  1   
 27  14  16  1   
 28  14  17  1   
 29  14  36  1   
 30  15  18  1   
 31  15  37  1   
 32  15  38  1   
 33  16  18  1   
 34  16  39  1   
 35  16  40  1   
 36  17  19  1   
 37  17  41  1   
 38  17  42  1   
 39  19  20  ar  
 40  19  21  ar  
 41  20  22  ar  
 42  20  43  1   
 43  21  23  ar  
 44  21  44  1   
 45  22  24  ar  
 46  22  45  1   
 47  23  24  ar  
 48  23  46  1   
@<TRIPOS>SUBSTRUCTURE
  1 ****   8 GROUP 4 **** **** 0

# MOE 2024.06 (io_trps.svl 2023.06)
