@<TRIPOS>MOLECULE
NONAME
47 50 1 0 0 
SMALL
USER_CHARGES


@<TRIPOS>ATOM
  1 O        0.6650    -0.4920     1.2680 O.3   1 <1>  -0.0190 
  2 N        0.9980     0.7590     1.1950 N.2   1 <1>  -0.4100 
  3 C        1.2100    -1.0310     0.2050 C.2   1 <1>   0.2980 
  4 C        1.7000     0.9000     0.1400 C.2   1 <1>   0.3350 
  5 N        1.8750    -0.2290    -0.5300 N.2   1 <1>  -0.5650 
  6 C        1.0410    -2.5330    -0.0230 C.3   1 <1>   0.2900 
  7 C        2.3130     2.1940    -0.3640 C.3   1 <1>   0.0210 
  8 N       -0.2550    -2.9420    -0.6300 N.3   1 <1>  -0.8100 
  9 C        1.9990     3.3780     0.5510 C.3   1 <1>   0.1200 
 10 C       -1.4090    -2.6210     0.2280 C.3   1 <1>   0.1100 
 11 C       -0.2130    -4.3640    -1.0010 C.3   1 <1>   0.1100 
 12 O        2.6040     4.5150     0.0220 O.3   1 <1>  -0.5600 
 13 C       -2.7160    -2.9550    -0.4930 C.3   1 <1>  -0.1600 
 14 C       -1.4770    -4.7500    -1.7690 C.3   1 <1>  -0.1600 
 15 C        2.3870     5.6670     0.7720 C.3   1 <1>   0.0400 
 16 C       -2.7580    -4.3990    -1.0050 C.3   1 <1>   0.2820 
 17 C       -3.1070    -5.4200     0.0940 C.ar  1 <1>  -0.1440 
 18 C       -3.9640    -4.5880    -1.9160 C.2   1 <1>  -0.2880 
 19 C       -4.3090    -6.0400    -0.2130 C.ar  1 <1>   0.0280 
 20 C       -2.4290    -5.7640     1.2530 C.ar  1 <1>  -0.1500 
 21 C       -4.8050    -5.5120    -1.4420 C.2   1 <1>  -0.1780 
 22 C       -4.8400    -7.0070     0.6280 C.ar  1 <1>  -0.1500 
 23 C       -2.9590    -6.7300     2.0940 C.ar  1 <1>  -0.1500 
 24 C       -4.1600    -7.3500     1.7830 C.ar  1 <1>  -0.1500 
 25 H        1.1770    -3.0420     0.9150 H     1 <1>   0.0800 
 26 H        1.8350    -2.8390    -0.6800 H     1 <1>   0.0800 
 27 H        1.9280     2.3930    -1.3470 H     1 <1>   0.0800 
 28 H        3.3770     2.0660    -0.4260 H     1 <1>   0.0800 
 29 H        2.3910     3.2030     1.5390 H     1 <1>   0.0800 
 30 H        0.9360     3.5410     0.6020 H     1 <1>   0.0800 
 31 H       -1.4200    -1.5670     0.4460 H     1 <1>   0.0800 
 32 H       -1.3440    -3.1540     1.1590 H     1 <1>   0.0800 
 33 H       -0.1080    -4.9760    -0.1230 H     1 <1>   0.0800 
 34 H        0.6380    -4.5450    -1.6360 H     1 <1>   0.0800 
 35 H       -2.8140    -2.2830    -1.3260 H     1 <1>   0.0800 
 36 H       -3.5480    -2.7830     0.1650 H     1 <1>   0.0800 
 37 H       -1.4650    -5.8030    -1.9840 H     1 <1>   0.0800 
 38 H       -1.4700    -4.2240    -2.7060 H     1 <1>   0.0800 
 39 H        2.8900     6.4830     0.2840 H     1 <1>   0.0800 
 40 H        2.7910     5.5300     1.7600 H     1 <1>   0.0800 
 41 H        1.3300     5.8670     0.8180 H     1 <1>   0.0800 
 42 H       -4.0380    -4.0000    -2.8130 H     1 <1>   0.1500 
 43 H       -1.5000    -5.2970     1.5140 H     1 <1>   0.1500 
 44 H       -5.7310    -5.8520    -1.8710 H     1 <1>   0.1500 
 45 H       -5.7720    -7.4800     0.3760 H     1 <1>   0.1500 
 46 H       -2.4360    -7.0010     2.9950 H     1 <1>   0.1500 
 47 H       -4.5640    -8.0990     2.4420 H     1 <1>   0.1500 
@<TRIPOS>BOND
  1   1   2  1   
  2   1   3  1   
  3   2   4  2   
  4   3   5  2   
  5   3   6  1   
  6   4   5  1   
  7   4   7  1   
  8   6   8  1   
  9   6  25  1   
 10   6  26  1   
 11   7   9  1   
 12   7  27  1   
 13   7  28  1   
 14   8  10  1   
 15   8  11  1   
 16   9  12  1   
 17   9  29  1   
 18   9  30  1   
 19  10  13  1   
 20  10  31  1   
 21  10  32  1   
 22  11  14  1   
 23  11  33  1   
 24  11  34  1   
 25  12  15  1   
 26  13  16  1   
 27  13  35  1   
 28  13  36  1   
 29  14  16  1   
 30  14  37  1   
 31  14  38  1   
 32  15  39  1   
 33  15  40  1   
 34  15  41  1   
 35  16  17  1   
 36  16  18  1   
 37  17  19  ar  
 38  17  20  ar  
 39  18  21  2   
 40  18  42  1   
 41  19  21  1   
 42  19  22  ar  
 43  20  23  ar  
 44  20  43  1   
 45  21  44  1   
 46  22  24  ar  
 47  22  45  1   
 48  23  24  ar  
 49  23  46  1   
 50  24  47  1   
@<TRIPOS>SUBSTRUCTURE
  1 ****  10 GROUP 4 **** **** 0

# MOE 2024.06 (io_trps.svl 2023.06)
