@<TRIPOS>MOLECULE
NONAME
55 58 1 0 0 
SMALL
USER_CHARGES


@<TRIPOS>ATOM
  1 O       -3.0050     2.3390    -1.4740 O.2   1 <1>  -0.5700 
  2 C       -2.4900     1.3910    -0.9070 C.2   1 <1>   0.5440 
  3 N       -3.2140     0.2160    -0.8060 N.am  1 <1>  -0.6600 
  4 C       -1.1370     1.5400    -0.4110 C.ar  1 <1>   0.0860 
  5 C       -2.6360    -1.0440    -0.2070 C.3   1 <1>   0.3640 
  6 C       -4.6850     0.2510    -1.0610 C.3   1 <1>   0.1400 
  7 C       -0.8260     1.4820     0.9500 C.ar  1 <1>   0.0830 
  8 C       -0.0880     1.7440    -1.3110 C.ar  1 <1>  -0.1500 
  9 C       -1.3390    -1.3960    -0.9430 C.ar  1 <1>  -0.1440 
 10 C       -3.5700    -2.2960    -0.2200 C.3   1 <1>   0.2000 
 11 C       -5.2570    -1.1330    -1.3560 C.3   1 <1>   0.1200 
 12 O       -1.8250     1.3340     1.8590 O.3   1 <1>  -0.3630 
 13 C        0.5020     1.5730     1.3760 C.ar  1 <1>   0.0830 
 14 C        1.2220     1.8550    -0.8860 C.ar  1 <1>  -0.1500 
 15 C       -0.1690    -1.6160    -0.2270 C.ar  1 <1>  -0.1500 
 16 C       -1.3060    -1.4870    -2.3290 C.ar  1 <1>  -0.1500 
 17 O       -4.9350    -1.9890    -0.3100 O.3   1 <1>  -0.5600 
 18 C       -3.4190    -3.1620     1.0420 C.3   1 <1>   0.1200 
 19 C       -1.5220     1.5460     3.2240 C.3   1 <1>   0.1200 
 20 O        0.8290     1.4700     2.6900 O.3   1 <1>  -0.3630 
 21 C        1.5200     1.7640     0.4620 C.ar  1 <1>  -0.1500 
 22 C        1.0150    -1.9180    -0.8750 C.ar  1 <1>   0.0830 
 23 C       -0.1240    -1.7780    -2.9880 C.ar  1 <1>  -0.1500 
 24 O       -2.0960    -3.5230     1.2740 O.3   1 <1>  -0.6800 
 25 C       -0.1540     0.9410     3.5570 C.3   1 <1>   0.1200 
 26 O        2.1070    -2.1460    -0.1060 O.3   1 <1>  -0.3630 
 27 C        1.0440    -1.9770    -2.2720 C.ar  1 <1>   0.0830 
 28 C        2.6090    -3.4640    -0.1100 C.3   1 <1>   0.0400 
 29 O        2.1770    -2.2140    -2.9770 O.3   1 <1>  -0.3630 
 30 C        3.1810    -1.2270    -2.8900 C.3   1 <1>   0.0400 
 31 H       -2.4030    -0.8350     0.8210 H     1 <1>   0.0800 
 32 H       -5.1780     0.6620    -0.1970 H     1 <1>   0.0800 
 33 H       -4.8950     0.8960    -1.8970 H     1 <1>   0.0800 
 34 H       -0.3190     1.8080    -2.3600 H     1 <1>   0.1500 
 35 H       -3.3370    -2.9030    -1.0770 H     1 <1>   0.0800 
 36 H       -4.8670    -1.5280    -2.2780 H     1 <1>   0.0800 
 37 H       -6.3290    -1.0820    -1.4220 H     1 <1>   0.0800 
 38 H        2.0120     2.0070    -1.6020 H     1 <1>   0.1500 
 39 H       -0.1650    -1.5530     0.8470 H     1 <1>   0.1500 
 40 H       -2.2020    -1.3150    -2.9010 H     1 <1>   0.1500 
 41 H       -3.9980    -4.0640     0.9440 H     1 <1>   0.0800 
 42 H       -3.7600    -2.6140     1.9040 H     1 <1>   0.0800 
 43 H       -1.5170     2.6060     3.4040 H     1 <1>   0.0800 
 44 H       -2.2980     1.0890     3.8110 H     1 <1>   0.0800 
 45 H        2.5350     1.8350     0.8070 H     1 <1>   0.1500 
 46 H       -0.1000    -1.8400    -4.0600 H     1 <1>   0.1500 
 47 H       -1.7300    -4.0270     0.5190 H     1 <1>   0.4000 
 48 H       -0.1730    -0.1270     3.4320 H     1 <1>   0.0800 
 49 H        0.1340     1.1750     4.5660 H     1 <1>   0.0800 
 50 H        3.4200    -3.5170     0.5930 H     1 <1>   0.0800 
 51 H        2.9600    -3.7090    -1.0960 H     1 <1>   0.0800 
 52 H        1.8210    -4.1350     0.1840 H     1 <1>   0.0800 
 53 H        3.9620    -1.4800    -3.5840 H     1 <1>   0.0800 
 54 H        3.5730    -1.2030    -1.8900 H     1 <1>   0.0800 
 55 H        2.7530    -0.2740    -3.1470 H     1 <1>   0.0800 
@<TRIPOS>BOND
  1   1   2  2   
  2   2   3  am  
  3   2   4  1   
  4   3   5  1   
  5   3   6  1   
  6   4   7  ar  
  7   4   8  ar  
  8   5   9  1   
  9   5  10  1   
 10   5  31  1   
 11   6  11  1   
 12   6  32  1   
 13   6  33  1   
 14   7  12  1   
 15   7  13  ar  
 16   8  14  ar  
 17   8  34  1   
 18   9  15  ar  
 19   9  16  ar  
 20  10  17  1   
 21  10  18  1   
 22  10  35  1   
 23  11  17  1   
 24  11  36  1   
 25  11  37  1   
 26  12  19  1   
 27  13  20  1   
 28  13  21  ar  
 29  14  21  ar  
 30  14  38  1   
 31  15  22  ar  
 32  15  39  1   
 33  16  23  ar  
 34  16  40  1   
 35  18  24  1   
 36  18  41  1   
 37  18  42  1   
 38  19  25  1   
 39  19  43  1   
 40  19  44  1   
 41  20  25  1   
 42  21  45  1   
 43  22  26  1   
 44  22  27  ar  
 45  23  27  ar  
 46  23  46  1   
 47  24  47  1   
 48  25  48  1   
 49  25  49  1   
 50  26  28  1   
 51  27  29  1   
 52  28  50  1   
 53  28  51  1   
 54  28  52  1   
 55  29  30  1   
 56  30  53  1   
 57  30  54  1   
 58  30  55  1   
@<TRIPOS>SUBSTRUCTURE
  1 ****   9 GROUP 4 **** **** 0

# MOE 2024.06 (io_trps.svl 2023.06)
