@<TRIPOS>MOLECULE
NONAME
44 45 1 0 0 
SMALL
USER_CHARGES


@<TRIPOS>ATOM
  1 O        0.0640     1.1280    -0.5660 O.3   1 <1>  -0.6800 
  2 C        0.1910     2.5070    -0.6190 C.3   1 <1>   0.2640 
  3 C        1.6380     2.8910    -0.3490 C.ar  1 <1>  -0.1430 
  4 C        2.2510     2.5220     0.8380 C.ar  1 <1>  -0.1500 
  5 C        2.3570     3.6230    -1.2810 C.ar  1 <1>  -0.1500 
  6 C        3.5630     2.8820     1.0930 C.ar  1 <1>  -0.1500 
  7 C        3.6690     3.9820    -1.0280 C.ar  1 <1>  -0.1500 
  8 C        4.2820     3.6140     0.1600 C.ar  1 <1>  -0.1430 
  9 C        5.7210     4.0090     0.4290 C.3   1 <1>   0.3530 
 10 N        5.7580     5.4690     0.6440 N.pl3 1 <1>  -0.8690 
 11 C        6.7440     6.3540     0.4480 C.ar  1 <1>   0.4100 
 12 N        6.3950     7.6110     0.5820 N.ar  1 <1>  -0.6200 
 13 C        8.0580     5.9700     0.1280 C.ar  1 <1>  -0.1500 
 14 C        7.3220     8.5410     0.3940 C.ar  1 <1>   0.7710 
 15 C        8.9950     6.9320    -0.0520 C.ar  1 <1>   0.2180 
 16 N        8.5920     8.2170     0.0910 N.ar  1 <1>  -0.1790 
 17 N        6.9890     9.8580     0.5120 N.pl3 1 <1>  -0.8380 
 18 C       10.4510     6.6430    -0.3950 C.3   1 <1>  -0.0170 
 19 C        7.8270    11.0400     0.1360 C.3   1 <1>   0.1290 
 20 C        5.6270    10.2650     0.9970 C.3   1 <1>   0.1290 
 21 C       10.8410     7.1970    -1.7720 C.3   1 <1>  -0.2400 
 22 H       -0.8510     0.8610    -0.7700 H     1 <1>   0.4000 
 23 H       -0.4540     2.9370     0.1280 H     1 <1>   0.0800 
 24 H       -0.1190     2.8360    -1.5950 H     1 <1>   0.0800 
 25 H        1.7030     1.9460     1.5630 H     1 <1>   0.1500 
 26 H        1.9000     3.9170    -2.2090 H     1 <1>   0.1500 
 27 H        4.0150     2.5850     2.0230 H     1 <1>   0.1500 
 28 H        4.2120     4.5540    -1.7600 H     1 <1>   0.1500 
 29 H        6.3320     3.7380    -0.4140 H     1 <1>   0.0800 
 30 H        6.0890     3.5060     1.3060 H     1 <1>   0.0800 
 31 H        4.8330     5.8470     0.8750 H     1 <1>   0.4000 
 32 H        8.2890     4.9260     0.0380 H     1 <1>   0.1500 
 33 H        9.2270     8.9970    -0.0080 H     1 <1>   0.4570 
 34 H       10.6130     5.5780    -0.3950 H     1 <1>   0.0800 
 35 H       11.0930     7.0630     0.3610 H     1 <1>   0.0800 
 36 H        8.6370    10.7690    -0.5170 H     1 <1>   0.0800 
 37 H        8.2230    11.5050     1.0240 H     1 <1>   0.0800 
 38 H        7.2200    11.7650    -0.3820 H     1 <1>   0.0800 
 39 H        5.1910     9.5090     1.6290 H     1 <1>   0.0800 
 40 H        4.9740    10.4280     0.1570 H     1 <1>   0.0800 
 41 H        5.6900    11.1740     1.5720 H     1 <1>   0.0800 
 42 H       10.2070     6.7830    -2.5380 H     1 <1>   0.0800 
 43 H       11.8580     6.9240    -1.9990 H     1 <1>   0.0800 
 44 H       10.7700     8.2690    -1.8030 H     1 <1>   0.0800 
@<TRIPOS>BOND
  1   1   2  1   
  2   1  22  1   
  3   2   3  1   
  4   2  23  1   
  5   2  24  1   
  6   3   4  ar  
  7   3   5  ar  
  8   4   6  ar  
  9   4  25  1   
 10   5   7  ar  
 11   5  26  1   
 12   6   8  ar  
 13   6  27  1   
 14   7   8  ar  
 15   7  28  1   
 16   8   9  1   
 17   9  10  1   
 18   9  29  1   
 19   9  30  1   
 20  10  11  1   
 21  10  31  1   
 22  11  12  ar  
 23  11  13  ar  
 24  12  14  ar  
 25  13  15  ar  
 26  13  32  1   
 27  14  16  ar  
 28  14  17  1   
 29  15  16  ar  
 30  15  18  1   
 31  16  33  1   
 32  17  19  1   
 33  17  20  1   
 34  18  21  1   
 35  18  34  1   
 36  18  35  1   
 37  19  36  1   
 38  19  37  1   
 39  19  38  1   
 40  20  39  1   
 41  20  40  1   
 42  20  41  1   
 43  21  42  1   
 44  21  43  1   
 45  21  44  1   
@<TRIPOS>SUBSTRUCTURE
  1 ****  10 GROUP 4 **** **** 0

# MOE 2024.06 (io_trps.svl 2023.06)
