@<TRIPOS>MOLECULE
NONAME
48 50 1 0 0 
SMALL
USER_CHARGES


@<TRIPOS>ATOM
  1 O       -3.7960    -0.6500     1.4470 O.2   1 <1>  -0.5700 
  2 C       -3.2080    -0.0570     0.5710 C.2   1 <1>   0.5690 
  3 N       -3.3100    -0.4620    -0.7410 N.am  1 <1>  -0.6600 
  4 C       -2.3510     1.1600     0.9700 C.3   1 <1>  -0.0190 
  5 C       -4.1800    -1.6220    -1.1180 C.3   1 <1>   0.1400 
  6 C       -2.7190     0.2190    -1.9260 C.3   1 <1>   0.1400 
  7 C       -0.8590     0.7920     1.0360 C.3   1 <1>  -0.2400 
  8 C       -2.7750     1.7860     2.3130 C.3   1 <1>  -0.2400 
  9 C       -5.3530    -1.1320    -1.9880 C.3   1 <1>   0.2890 
 10 C       -3.8540     0.7460    -2.8140 C.3   1 <1>  -0.1600 
 11 N       -6.1840    -2.2610    -2.4590 N.pl3 1 <1>  -0.8690 
 12 C       -4.8360    -0.3710    -3.2160 C.3   1 <1>  -0.1600 
 13 C       -6.7710    -3.1660    -1.6090 C.ar  1 <1>   0.4100 
 14 N       -6.7930    -4.4270    -2.0400 N.ar  1 <1>  -0.3100 
 15 C       -7.2960    -2.8040    -0.3810 C.ar  1 <1>  -0.1500 
 16 N       -7.3020    -5.3740    -1.2910 N.ar  1 <1>  -0.3100 
 17 C       -7.8290    -3.7960     0.4010 C.ar  1 <1>  -0.1500 
 18 C       -7.8120    -5.0950    -0.0830 C.ar  1 <1>   0.3100 
 19 C       -8.3520    -6.1800     0.7080 C.ar  1 <1>   0.0000 
 20 C       -8.0420    -6.3180     2.0610 C.ar  1 <1>  -0.1500 
 21 C       -9.2050    -7.1280     0.1430 C.ar  1 <1>  -0.1500 
 22 C       -8.5690    -7.3470     2.8190 C.ar  1 <1>  -0.1500 
 23 C       -9.7340    -8.1600     0.8950 C.ar  1 <1>  -0.1500 
 24 C       -9.4190    -8.2710     2.2370 C.ar  1 <1>  -0.1500 
 25 H       -2.4880     1.9240     0.2290 H     1 <1>   0.0800 
 26 H       -4.5620    -2.1110    -0.2400 H     1 <1>   0.0800 
 27 H       -3.5930    -2.3350    -1.6680 H     1 <1>   0.0800 
 28 H       -2.1280    -0.4930    -2.4770 H     1 <1>   0.0800 
 29 H       -2.0720     1.0270    -1.6420 H     1 <1>   0.0800 
 30 H       -0.6970     0.0480     1.7970 H     1 <1>   0.0800 
 31 H       -0.2650     1.6580     1.2670 H     1 <1>   0.0800 
 32 H       -0.5260     0.3900     0.0960 H     1 <1>   0.0800 
 33 H       -2.6360     1.0830     3.1160 H     1 <1>   0.0800 
 34 H       -3.8160     2.0580     2.2790 H     1 <1>   0.0800 
 35 H       -2.1970     2.6680     2.5210 H     1 <1>   0.0800 
 36 H       -5.9630    -0.4710    -1.3960 H     1 <1>   0.0800 
 37 H       -3.4350     1.1910    -3.6990 H     1 <1>   0.0800 
 38 H       -4.3820     1.5180    -2.2810 H     1 <1>   0.0800 
 39 H       -5.8300    -2.7080    -3.3080 H     1 <1>   0.4000 
 40 H       -5.6680     0.0550    -3.7470 H     1 <1>   0.0800 
 41 H       -4.3280    -1.0580    -3.8710 H     1 <1>   0.0800 
 42 H       -7.2850    -1.7820    -0.0550 H     1 <1>   0.1500 
 43 H       -8.2530    -3.5750     1.3620 H     1 <1>   0.1500 
 44 H       -7.3740    -5.6140     2.5260 H     1 <1>   0.1500 
 45 H       -9.4520    -7.0510    -0.9020 H     1 <1>   0.1500 
 46 H       -8.3170    -7.4330     3.8620 H     1 <1>   0.1500 
 47 H      -10.3910    -8.8780     0.4360 H     1 <1>   0.1500 
 48 H       -9.8300    -9.0740     2.8250 H     1 <1>   0.1500 
@<TRIPOS>BOND
  1   1   2  2   
  2   2   3  am  
  3   2   4  1   
  4   3   5  1   
  5   3   6  1   
  6   4   7  1   
  7   4   8  1   
  8   4  25  1   
  9   5   9  1   
 10   5  26  1   
 11   5  27  1   
 12   6  10  1   
 13   6  28  1   
 14   6  29  1   
 15   7  30  1   
 16   7  31  1   
 17   7  32  1   
 18   8  33  1   
 19   8  34  1   
 20   8  35  1   
 21   9  11  1   
 22   9  12  1   
 23   9  36  1   
 24  10  12  1   
 25  10  37  1   
 26  10  38  1   
 27  11  13  1   
 28  11  39  1   
 29  12  40  1   
 30  12  41  1   
 31  13  14  ar  
 32  13  15  ar  
 33  14  16  ar  
 34  15  17  ar  
 35  15  42  1   
 36  16  18  ar  
 37  17  18  ar  
 38  17  43  1   
 39  18  19  1   
 40  19  20  ar  
 41  19  21  ar  
 42  20  22  ar  
 43  20  44  1   
 44  21  23  ar  
 45  21  45  1   
 46  22  24  ar  
 47  22  46  1   
 48  23  24  ar  
 49  23  47  1   
 50  24  48  1   
@<TRIPOS>SUBSTRUCTURE
  1 ****  15 GROUP 4 **** **** 0

# MOE 2024.06 (io_trps.svl 2023.06)
