@<TRIPOS>MOLECULE
NONAME
48 52 1 0 0 
SMALL
USER_CHARGES


@<TRIPOS>ATOM
  1 S        0.3360    -0.9480     0.8480 S.3   1 <1>  -0.0800 
  2 C       -1.2960    -1.3710     0.3730 C.2   1 <1>  -0.1400 
  3 C       -0.2690     0.3930     1.8110 C.2   1 <1>  -0.1100 
  4 C       -2.1990    -0.5470     0.9250 C.2   1 <1>  -0.1810 
  5 C       -1.5820    -2.5340    -0.5460 C.3   1 <1>   0.0200 
  6 C       -1.6120     0.4680     1.7470 C.2   1 <1>  -0.1500 
  7 C       -3.6950    -0.7070     0.6880 C.3   1 <1>   0.3210 
  8 C       -3.0030    -2.3570    -1.1050 C.3   1 <1>   0.1400 
  9 N       -3.9740    -2.0100    -0.0100 N.am  1 <1>  -0.6600 
 10 C       -4.9650    -2.8430     0.4550 C.2   1 <1>   0.5690 
 11 O       -5.7070    -2.4740     1.3390 O.2   1 <1>  -0.5700 
 12 C       -5.1740    -4.2500    -0.1440 C.3   1 <1>   0.2610 
 13 O       -4.0180    -5.0460     0.0280 O.3   1 <1>  -0.5600 
 14 C       -6.4520    -4.9460     0.4090 C.3   1 <1>   0.3640 
 15 C       -4.1020    -6.3100    -0.5770 C.3   1 <1>   0.1810 
 16 N       -6.4100    -6.4480     0.3740 N.am  1 <1>  -0.5090 
 17 C       -7.6490    -4.4340    -0.3890 C.ar  1 <1>  -0.1440 
 18 C       -5.2890    -7.1130    -0.0560 C.2   1 <1>   0.5690 
 19 C       -7.4310    -7.1320     1.2140 C.3   1 <1>   0.0490 
 20 C       -7.9210    -4.9220    -1.6610 C.ar  1 <1>   0.1600 
 21 C       -8.4770    -3.4580     0.1330 C.ar  1 <1>  -0.1500 
 22 O       -5.1790    -8.3170    -0.0430 O.2   1 <1>  -0.5700 
 23 C       -8.0960    -8.3690     0.6970 C.3   1 <1>  -0.2000 
 24 C       -8.8850    -7.1100     0.8470 C.3   1 <1>  -0.2000 
 25 N       -8.9130    -4.5160    -2.4360 N.ar  1 <1>  -0.6200 
 26 C       -9.5220    -3.0300    -0.6570 C.ar  1 <1>  -0.1500 
 27 C       -9.6920    -3.5820    -1.9150 C.ar  1 <1>   0.1600 
 28 H        0.4580     0.9910     2.3320 H     1 <1>   0.1500 
 29 H       -0.8730    -2.5530    -1.3540 H     1 <1>   0.0800 
 30 H       -1.5100    -3.4560     0.0010 H     1 <1>   0.0800 
 31 H       -2.2200     1.2000     2.2500 H     1 <1>   0.1500 
 32 H       -4.0550     0.1050     0.0830 H     1 <1>   0.0800 
 33 H       -4.1990    -0.6700     1.6390 H     1 <1>   0.0800 
 34 H       -3.2950    -3.2470    -1.6290 H     1 <1>   0.0800 
 35 H       -2.9960    -1.5490    -1.8160 H     1 <1>   0.0800 
 36 H       -5.3020    -4.1160    -1.2020 H     1 <1>   0.0800 
 37 H       -6.5780    -4.6700     1.4410 H     1 <1>   0.0800 
 38 H       -4.1800    -6.1850    -1.6410 H     1 <1>   0.0800 
 39 H       -3.1920    -6.8380    -0.3530 H     1 <1>   0.0800 
 40 H       -7.1710    -7.1120     2.2600 H     1 <1>   0.1000 
 41 H       -7.2910    -5.6940    -2.0690 H     1 <1>   0.1500 
 42 H       -8.3160    -3.0390     1.1130 H     1 <1>   0.1500 
 43 H       -7.8500    -8.7130    -0.2930 H     1 <1>   0.1000 
 44 H       -8.2780    -9.1790     1.3810 H     1 <1>   0.1000 
 45 H       -9.6160    -7.0660     1.6350 H     1 <1>   0.1000 
 46 H       -9.2330    -6.6490    -0.0580 H     1 <1>   0.1000 
 47 H      -10.1990    -2.2740    -0.3040 H     1 <1>   0.1500 
 48 H      -10.5110    -3.2380    -2.5230 H     1 <1>   0.1500 
@<TRIPOS>BOND
  1   1   2  1   
  2   1   3  1   
  3   2   4  2   
  4   2   5  1   
  5   3   6  2   
  6   3  28  1   
  7   4   6  1   
  8   4   7  1   
  9   5   8  1   
 10   5  29  1   
 11   5  30  1   
 12   6  31  1   
 13   7   9  1   
 14   7  32  1   
 15   7  33  1   
 16   8   9  1   
 17   8  34  1   
 18   8  35  1   
 19   9  10  am  
 20  10  11  2   
 21  10  12  1   
 22  12  13  1   
 23  12  14  1   
 24  12  36  1   
 25  13  15  1   
 26  14  16  1   
 27  14  17  1   
 28  14  37  1   
 29  15  18  1   
 30  15  38  1   
 31  15  39  1   
 32  16  18  am  
 33  16  19  1   
 34  17  20  ar  
 35  17  21  ar  
 36  18  22  2   
 37  19  23  1   
 38  19  24  1   
 39  19  40  1   
 40  20  25  ar  
 41  20  41  1   
 42  21  26  ar  
 43  21  42  1   
 44  23  24  1   
 45  23  43  1   
 46  23  44  1   
 47  24  45  1   
 48  24  46  1   
 49  25  27  ar  
 50  26  27  ar  
 51  26  47  1   
 52  27  48  1   
@<TRIPOS>SUBSTRUCTURE
  1 ****  12 GROUP 4 **** **** 0

# MOE 2024.06 (io_trps.svl 2023.06)
