@<TRIPOS>MOLECULE
NONAME
49 51 1 0 0 
SMALL
USER_CHARGES


@<TRIPOS>ATOM
  1 O        1.0190    -0.9220    -1.3490 O.co2 1 <1>  -0.9000 
  2 C        1.7750    -0.6870    -0.3850 C.2   1 <1>   0.9790 
  3 O        1.4420    -1.1660     0.7220 O.co2 1 <1>  -0.9000 
  4 C        3.0070     0.1080    -0.4970 C.ar  1 <1>   0.1310 
  5 N        3.4350     0.6610    -1.6600 N.ar  1 <1>  -0.6200 
  6 C        3.7540     0.2850     0.6740 C.ar  1 <1>   0.1600 
  7 C        4.5570     1.3310    -1.5440 C.ar  1 <1>   0.1600 
  8 N        4.8880     0.9620     0.7920 N.ar  1 <1>  -0.6200 
  9 C        5.2810     1.4900    -0.3560 C.ar  1 <1>   0.4100 
 10 N        6.4590     2.2130    -0.3120 N.pl3 1 <1>  -0.8380 
 11 C        7.6600     1.4050    -0.0310 C.3   1 <1>   0.2090 
 12 C        6.3820     3.4560     0.4770 C.3   1 <1>   0.2090 
 13 C        8.8930     2.2250    -0.3950 C.3   1 <1>  -0.1600 
 14 C        7.5840     4.3290     0.1260 C.3   1 <1>  -0.1600 
 15 C        8.9040     3.5720     0.3470 C.3   1 <1>   0.4230 
 16 N       10.0600     4.4070    -0.1170 N.4   1 <1>  -0.9590 
 17 C       11.3920     3.7160     0.0490 C.3   1 <1>   0.3430 
 18 C       10.1230     5.7570     0.5570 C.3   1 <1>   0.3430 
 19 C       12.5700     4.5870    -0.4350 C.3   1 <1>   0.1100 
 20 C       11.3160     6.6050     0.0710 C.3   1 <1>   0.1100 
 21 N       12.5970     5.8910     0.2510 N.3   1 <1>  -0.8100 
 22 C       13.7530     6.6950    -0.2040 C.3   1 <1>   0.1100 
 23 C       14.0670     7.8470     0.7600 C.3   1 <1>   0.1200 
 24 O       15.1780     8.5340     0.2980 O.3   1 <1>  -0.6800 
 25 H        3.3800    -0.1700     1.5760 H     1 <1>   0.1500 
 26 H        4.9510     1.7950    -2.4270 H     1 <1>   0.1500 
 27 H        7.6290     0.4990    -0.6160 H     1 <1>   0.0800 
 28 H        7.6730     1.1300     1.0120 H     1 <1>   0.0800 
 29 H        6.3730     3.2150     1.5280 H     1 <1>   0.0800 
 30 H        5.4650     3.9730     0.2450 H     1 <1>   0.0800 
 31 H        8.8860     2.3820    -1.4590 H     1 <1>   0.0800 
 32 H        9.7500     1.6330    -0.1340 H     1 <1>   0.0800 
 33 H        7.5290     5.2000     0.7500 H     1 <1>   0.0800 
 34 H        7.4890     4.6270    -0.9030 H     1 <1>   0.0800 
 35 H        9.0080     3.3750     1.4030 H     1 <1>   0.0800 
 36 H        9.9280     4.5750    -1.1220 H     1 <1>   0.4500 
 37 H       11.4040     2.7950    -0.5070 H     1 <1>   0.0800 
 38 H       11.5510     3.4810     1.0880 H     1 <1>   0.0800 
 39 H       10.2140     5.6260     1.6220 H     1 <1>   0.0800 
 40 H        9.2180     6.3090     0.3660 H     1 <1>   0.0800 
 41 H       12.5020     4.7300    -1.5010 H     1 <1>   0.0800 
 42 H       13.4880     4.0620    -0.2310 H     1 <1>   0.0800 
 43 H       11.3300     7.5190     0.6390 H     1 <1>   0.0800 
 44 H       11.1790     6.8640    -0.9650 H     1 <1>   0.0800 
 45 H       13.5640     7.0910    -1.1880 H     1 <1>   0.0800 
 46 H       14.6230     6.0630    -0.2520 H     1 <1>   0.0800 
 47 H       14.2820     7.4780     1.7480 H     1 <1>   0.0800 
 48 H       13.2540     8.5500     0.8010 H     1 <1>   0.0800 
 49 H       15.9960     8.0170     0.4380 H     1 <1>   0.4000 
@<TRIPOS>BOND
  1   1   2  ar  
  2   2   3  ar  
  3   2   4  1   
  4   4   5  ar  
  5   4   6  ar  
  6   5   7  ar  
  7   6   8  ar  
  8   6  25  1   
  9   7   9  ar  
 10   7  26  1   
 11   8   9  ar  
 12   9  10  1   
 13  10  11  1   
 14  10  12  1   
 15  11  13  1   
 16  11  27  1   
 17  11  28  1   
 18  12  14  1   
 19  12  29  1   
 20  12  30  1   
 21  13  15  1   
 22  13  31  1   
 23  13  32  1   
 24  14  15  1   
 25  14  33  1   
 26  14  34  1   
 27  15  16  1   
 28  15  35  1   
 29  16  17  1   
 30  16  18  1   
 31  16  36  1   
 32  17  19  1   
 33  17  37  1   
 34  17  38  1   
 35  18  20  1   
 36  18  39  1   
 37  18  40  1   
 38  19  21  1   
 39  19  41  1   
 40  19  42  1   
 41  20  21  1   
 42  20  43  1   
 43  20  44  1   
 44  21  22  1   
 45  22  23  1   
 46  22  45  1   
 47  22  46  1   
 48  23  24  1   
 49  23  47  1   
 50  23  48  1   
 51  24  49  1   
@<TRIPOS>SUBSTRUCTURE
  1 ****  14 GROUP 4 **** **** 0

# MOE 2024.06 (io_trps.svl 2023.06)
