@<TRIPOS>MOLECULE
NONAME
56 58 1 0 0 
SMALL
USER_CHARGES


@<TRIPOS>ATOM
  1 F       -2.2680    -1.1880    -2.3380 F     1 <1>  -0.1900 
  2 C       -3.2890    -0.9280    -1.5660 C.ar  1 <1>   0.1900 
  3 C       -3.4640    -1.6740    -0.4180 C.ar  1 <1>  -0.1500 
  4 C       -4.1550     0.0850    -1.9260 C.ar  1 <1>  -0.1500 
  5 C       -4.5500    -1.3960     0.3950 C.ar  1 <1>  -0.1500 
  6 C       -5.2380     0.3550    -1.1060 C.ar  1 <1>  -0.1500 
  7 C       -5.4470    -0.3860     0.0540 C.ar  1 <1>  -0.1430 
  8 C       -6.6590    -0.0800     0.9340 C.3   1 <1>   0.4050 
  9 O       -6.2300     0.7300     1.9820 O.3   1 <1>  -0.6800 
 10 C       -7.3580    -1.3580     1.4600 C.2   1 <1>   0.5690 
 11 O       -7.1080    -1.7150     2.5940 O.2   1 <1>  -0.5700 
 12 N       -8.2310    -2.0770     0.6750 N.am  1 <1>  -0.6600 
 13 C       -8.8950    -3.3180     1.1880 C.3   1 <1>   0.1400 
 14 C       -8.5840    -1.7360    -0.7330 C.3   1 <1>   0.1400 
 15 C      -10.3700    -3.0800     1.5510 C.3   1 <1>   0.1400 
 16 C       -9.7770    -0.7720    -0.8020 C.3   1 <1>  -0.1600 
 17 N      -11.1420    -2.4670     0.4210 N.am  1 <1>  -0.6600 
 18 C      -10.8820    -1.0130     0.2370 C.3   1 <1>   0.1400 
 19 C      -12.0110    -3.1290    -0.4050 C.2   1 <1>   0.5690 
 20 O      -12.5760    -2.5650    -1.3120 O.2   1 <1>  -0.5700 
 21 C      -12.2800    -4.6100    -0.2020 C.3   1 <1>  -0.0990 
 22 C      -13.2110    -5.1920    -1.2740 C.3   1 <1>   0.0960 
 23 N      -13.4760    -6.6190    -0.9970 N.pl3 1 <1>   0.0480 
 24 C      -14.6090    -7.2210    -0.5510 C.2   1 <1>   0.0060 
 25 C      -12.5850    -7.6200    -1.1260 C.2   1 <1>  -0.3020 
 26 N      -14.4850    -8.4990    -0.3910 N.2   1 <1>  -0.5650 
 27 C      -15.9150    -6.4940    -0.2680 C.3   1 <1>   0.0200 
 28 C      -13.2160    -8.7530    -0.7530 C.2   1 <1>   0.0770 
 29 C      -15.8660    -5.7200     1.0530 C.3   1 <1>  -0.2400 
 30 H       -2.7660    -2.4520    -0.1680 H     1 <1>   0.1500 
 31 H       -3.9810     0.6490    -2.8250 H     1 <1>   0.1500 
 32 H       -4.6900    -1.9710     1.2950 H     1 <1>   0.1500 
 33 H       -5.9140     1.1490    -1.3720 H     1 <1>   0.1500 
 34 H       -7.3710     0.5000     0.3780 H     1 <1>   0.0800 
 35 H       -5.9960     0.1350     2.7260 H     1 <1>   0.4000 
 36 H       -8.3800    -3.6790     2.0610 H     1 <1>   0.0800 
 37 H       -8.8320    -4.0920     0.4430 H     1 <1>   0.0800 
 38 H       -8.8430    -2.6410    -1.2560 H     1 <1>   0.0800 
 39 H       -7.7360    -1.3120    -1.2430 H     1 <1>   0.0800 
 40 H      -10.4130    -2.4280     2.4070 H     1 <1>   0.0800 
 41 H      -10.8100    -4.0130     1.8500 H     1 <1>   0.0800 
 42 H      -10.2130    -0.8470    -1.7820 H     1 <1>   0.0800 
 43 H       -9.4310     0.2390    -0.6990 H     1 <1>   0.0800 
 44 H      -11.7860    -0.5180    -0.0780 H     1 <1>   0.0800 
 45 H      -10.5890    -0.5800     1.1780 H     1 <1>   0.0800 
 46 H      -12.7290    -4.7430     0.7640 H     1 <1>   0.0800 
 47 H      -11.3420    -5.1320    -0.2310 H     1 <1>   0.0800 
 48 H      -12.7570    -5.1070    -2.2460 H     1 <1>   0.0800 
 49 H      -14.1400    -4.6520    -1.2890 H     1 <1>   0.0800 
 50 H      -11.5770    -7.4810    -1.4700 H     1 <1>   0.1500 
 51 H      -16.7030    -7.2240    -0.2130 H     1 <1>   0.0800 
 52 H      -16.1480    -5.8300    -1.0820 H     1 <1>   0.0800 
 53 H      -12.8190    -9.7540    -0.7270 H     1 <1>   0.1500 
 54 H      -15.6040    -6.3890     1.8550 H     1 <1>   0.0800 
 55 H      -16.8290    -5.2900     1.2630 H     1 <1>   0.0800 
 56 H      -15.1400    -4.9310     1.0080 H     1 <1>   0.0800 
@<TRIPOS>BOND
  1   1   2  1   
  2   2   3  ar  
  3   2   4  ar  
  4   3   5  ar  
  5   3  30  1   
  6   4   6  ar  
  7   4  31  1   
  8   5   7  ar  
  9   5  32  1   
 10   6   7  ar  
 11   6  33  1   
 12   7   8  1   
 13   8   9  1   
 14   8  10  1   
 15   8  34  1   
 16   9  35  1   
 17  10  11  2   
 18  10  12  am  
 19  12  13  1   
 20  12  14  1   
 21  13  15  1   
 22  13  36  1   
 23  13  37  1   
 24  14  16  1   
 25  14  38  1   
 26  14  39  1   
 27  15  17  1   
 28  15  40  1   
 29  15  41  1   
 30  16  18  1   
 31  16  42  1   
 32  16  43  1   
 33  17  18  1   
 34  17  19  am  
 35  18  44  1   
 36  18  45  1   
 37  19  20  2   
 38  19  21  1   
 39  21  22  1   
 40  21  46  1   
 41  21  47  1   
 42  22  23  1   
 43  22  48  1   
 44  22  49  1   
 45  23  24  1   
 46  23  25  1   
 47  24  26  2   
 48  24  27  1   
 49  25  28  2   
 50  25  50  1   
 51  26  28  1   
 52  27  29  1   
 53  27  51  1   
 54  27  52  1   
 55  28  53  1   
 56  29  54  1   
 57  29  55  1   
 58  29  56  1   
@<TRIPOS>SUBSTRUCTURE
  1 ****  13 GROUP 4 **** **** 0

# MOE 2024.06 (io_trps.svl 2023.06)
