@<TRIPOS>MOLECULE
NONAME
44 47 1 0 0 
SMALL
USER_CHARGES


@<TRIPOS>ATOM
  1 S       -2.8500     3.5580    -0.8800 S.3   1 <1>  -0.0800 
  2 C       -3.4090     1.9770    -0.3660 C.2   1 <1>  -0.1100 
  3 C       -3.1870     4.2350     0.7020 C.2   1 <1>  -0.1100 
  4 C       -3.8230     2.0050     0.9150 C.2   1 <1>  -0.1810 
  5 C       -3.6900     3.2960     1.5250 C.2   1 <1>  -0.1500 
  6 C       -4.3700     0.8160     1.6970 C.3   1 <1>   0.0820 
  7 C       -5.1860    -0.1510     0.8440 C.2   1 <1>   0.5690 
  8 O       -4.6410    -1.1760     0.5030 O.2   1 <1>  -0.5700 
  9 N       -6.4930     0.1170     0.5050 N.am  1 <1>  -0.6600 
 10 C       -7.2090     1.4010     0.8060 C.3   1 <1>   0.1400 
 11 C       -7.3490    -0.9220    -0.1400 C.3   1 <1>   0.1400 
 12 C       -7.8890     1.9870    -0.4470 C.3   1 <1>   0.1430 
 13 C       -8.0310    -0.3640    -1.3950 C.3   1 <1>  -0.1600 
 14 C       -8.6370     3.2410    -0.0330 C.ar  1 <1>   0.1670 
 15 C       -8.8060     0.9290    -1.0930 C.3   1 <1>  -0.1600 
 16 C       -6.8530     2.5440    -1.4590 C.3   1 <1>  -0.1600 
 17 N       -9.7640     3.2710     0.6450 N.ar  1 <1>  -0.6200 
 18 C       -7.9840     4.3690    -0.4320 C.ar  1 <1>  -0.1430 
 19 C       -6.7080     4.0480    -1.1690 C.3   1 <1>  -0.0160 
 20 C      -10.2190     4.4900     0.8950 C.ar  1 <1>   0.4770 
 21 C       -8.5450     5.5800    -0.1160 C.ar  1 <1>   0.1600 
 22 N       -9.6770     5.6520     0.5540 N.ar  1 <1>  -0.6200 
 23 C      -11.5190     4.5710     1.6590 C.3   1 <1>  -0.0970 
 24 H       -3.3690     1.1770    -1.0860 H     1 <1>   0.1500 
 25 H       -2.9670     5.2770     0.8520 H     1 <1>   0.1500 
 26 H       -3.9740     3.4630     2.5500 H     1 <1>   0.1500 
 27 H       -4.9810     1.1550     2.5110 H     1 <1>   0.0800 
 28 H       -3.5430     0.2810     2.1260 H     1 <1>   0.0800 
 29 H       -6.5390     2.1380     1.2070 H     1 <1>   0.0800 
 30 H       -7.9630     1.2060     1.5490 H     1 <1>   0.0800 
 31 H       -8.0970    -1.2380     0.5670 H     1 <1>   0.0800 
 32 H       -6.7640    -1.7860    -0.4070 H     1 <1>   0.0800 
 33 H       -8.7070    -1.1050    -1.7840 H     1 <1>   0.0800 
 34 H       -7.2810    -0.1850    -2.1460 H     1 <1>   0.0800 
 35 H       -9.2470     1.3190    -1.9940 H     1 <1>   0.0800 
 36 H       -9.6100     0.7030    -0.4130 H     1 <1>   0.0800 
 37 H       -7.2370     2.4380    -2.4590 H     1 <1>   0.0800 
 38 H       -5.9120     2.0310    -1.4100 H     1 <1>   0.0800 
 39 H       -6.6100     4.6190    -2.0760 H     1 <1>   0.0800 
 40 H       -5.8640     4.2300    -0.5270 H     1 <1>   0.0800 
 41 H       -8.0660     6.4980    -0.4110 H     1 <1>   0.1500 
 42 H      -11.6950     3.6570     2.1940 H     1 <1>   0.0800 
 43 H      -12.3240     4.7380     0.9700 H     1 <1>   0.0800 
 44 H      -11.4800     5.3840     2.3600 H     1 <1>   0.0800 
@<TRIPOS>BOND
  1   1   2  1   
  2   1   3  1   
  3   2   4  2   
  4   2  24  1   
  5   3   5  2   
  6   3  25  1   
  7   4   5  1   
  8   4   6  1   
  9   5  26  1   
 10   6   7  1   
 11   6  27  1   
 12   6  28  1   
 13   7   8  2   
 14   7   9  am  
 15   9  10  1   
 16   9  11  1   
 17  10  12  1   
 18  10  29  1   
 19  10  30  1   
 20  11  13  1   
 21  11  31  1   
 22  11  32  1   
 23  12  14  1   
 24  12  15  1   
 25  12  16  1   
 26  13  15  1   
 27  13  33  1   
 28  13  34  1   
 29  14  17  ar  
 30  14  18  ar  
 31  15  35  1   
 32  15  36  1   
 33  16  19  1   
 34  16  37  1   
 35  16  38  1   
 36  17  20  ar  
 37  18  19  1   
 38  18  21  ar  
 39  19  39  1   
 40  19  40  1   
 41  20  22  ar  
 42  20  23  1   
 43  21  22  ar  
 44  21  41  1   
 45  23  42  1   
 46  23  43  1   
 47  23  44  1   
@<TRIPOS>SUBSTRUCTURE
  1 ****  10 GROUP 4 **** **** 0

# MOE 2024.06 (io_trps.svl 2023.06)
