@<TRIPOS>MOLECULE
NONAME
46 48 1 0 0 
SMALL
USER_CHARGES


@<TRIPOS>ATOM
  1 S       -1.0930     0.9460     1.2130 S.o2  1 <1>   1.4470 
  2 O       -1.9220     2.1290     1.2950 O.2   1 <1>  -0.6500 
  3 O       -0.9210     0.1470     2.4080 O.2   1 <1>  -0.6500 
  4 N       -1.7380    -0.0730     0.0210 N.am  1 <1>  -0.8490 
  5 C        0.5370     1.3870     0.5700 C.ar  1 <1>  -0.0090 
  6 C       -0.9920    -1.3600    -0.1580 C.3   1 <1>   0.1960 
  7 C       -3.1840    -0.2760     0.1950 C.3   1 <1>   0.1960 
  8 C        0.6800     2.1140    -0.6000 C.ar  1 <1>   0.1900 
  9 C        1.7100     1.0080     1.2160 C.ar  1 <1>  -0.1500 
 10 C       -1.9140    -2.6660    -0.2050 C.3   1 <1>  -0.1060 
 11 C       -3.7420    -1.0600    -0.9960 C.3   1 <1>  -0.1600 
 12 F       -0.3810     2.4970    -1.2580 F     1 <1>  -0.1900 
 13 C        1.9100     2.4650    -1.1260 C.ar  1 <1>  -0.1500 
 14 C        2.9540     1.3470     0.7080 C.ar  1 <1>  -0.1500 
 15 C       -2.8510    -3.8940    -0.2030 C.2   1 <1>   0.9060 
 16 C       -2.6840    -2.0480    -1.4800 C.3   1 <1>   0.2000 
 17 C       -1.1170    -3.3160     1.0280 C.3   1 <1>  -0.0650 
 18 C        3.0630     2.0760    -0.4660 C.ar  1 <1>  -0.1440 
 19 O       -2.6190    -4.8660    -0.9420 O.co2 1 <1>  -0.9000 
 20 O       -3.8430    -3.8800     0.5390 O.co2 1 <1>  -0.9000 
 21 O       -3.2540    -2.8810    -2.4470 O.3   1 <1>  -0.6800 
 22 C        0.3410    -3.7320     0.7080 C.3   1 <1>  -0.1950 
 23 C        4.4310     2.4450    -1.0130 C.3   1 <1>  -0.0970 
 24 C        0.8010    -4.0390    -0.6910 C.3   1 <1>  -0.2000 
 25 C        0.5840    -5.1490     0.2760 C.3   1 <1>  -0.2000 
 26 H       -0.4140    -1.2960    -1.0650 H     1 <1>   0.0800 
 27 H       -0.2120    -1.3570     0.5820 H     1 <1>   0.0800 
 28 H       -3.3610    -0.8270     1.1060 H     1 <1>   0.0800 
 29 H       -3.6940     0.6700     0.2690 H     1 <1>   0.0800 
 30 H        1.6500     0.4400     2.1310 H     1 <1>   0.1500 
 31 H       -3.9940    -0.3840    -1.7920 H     1 <1>   0.0800 
 32 H       -4.6300    -1.5830    -0.6860 H     1 <1>   0.0800 
 33 H        1.9540     3.0350    -2.0370 H     1 <1>   0.1500 
 34 H        3.8430     1.0400     1.2330 H     1 <1>   0.1500 
 35 H       -2.0230    -1.4720    -2.1070 H     1 <1>   0.0800 
 36 H       -1.1220    -2.6320     1.8620 H     1 <1>   0.0800 
 37 H       -1.5460    -4.1910     1.5010 H     1 <1>   0.0800 
 38 H       -3.1720    -3.8240    -2.1090 H     1 <1>   0.4000 
 39 H        1.0540    -3.3230     1.4040 H     1 <1>   0.1000 
 40 H        5.1120     1.6200    -0.9000 H     1 <1>   0.0800 
 41 H        4.8200     3.2920    -0.4780 H     1 <1>   0.0800 
 42 H        4.3700     2.6930    -2.0570 H     1 <1>   0.0800 
 43 H        0.1140    -3.9820    -1.5200 H     1 <1>   0.1000 
 44 H        1.8090    -3.7920    -0.9750 H     1 <1>   0.1000 
 45 H        1.4370    -5.6750     0.6670 H     1 <1>   0.1000 
 46 H       -0.2610    -5.7980     0.1080 H     1 <1>   0.1000 
@<TRIPOS>BOND
  1   1   2  2   
  2   1   3  2   
  3   1   4  am  
  4   1   5  1   
  5   4   6  1   
  6   4   7  1   
  7   5   8  ar  
  8   5   9  ar  
  9   6  10  1   
 10   6  26  1   
 11   6  27  1   
 12   7  11  1   
 13   7  28  1   
 14   7  29  1   
 15   8  12  1   
 16   8  13  ar  
 17   9  14  ar  
 18   9  30  1   
 19  10  15  1   
 20  10  16  1   
 21  10  17  1   
 22  11  16  1   
 23  11  31  1   
 24  11  32  1   
 25  13  18  ar  
 26  13  33  1   
 27  14  18  ar  
 28  14  34  1   
 29  15  19  ar  
 30  15  20  ar  
 31  16  21  1   
 32  16  35  1   
 33  17  22  1   
 34  17  36  1   
 35  17  37  1   
 36  18  23  1   
 37  21  38  1   
 38  22  24  1   
 39  22  25  1   
 40  22  39  1   
 41  23  40  1   
 42  23  41  1   
 43  23  42  1   
 44  24  25  1   
 45  24  43  1   
 46  24  44  1   
 47  25  45  1   
 48  25  46  1   
@<TRIPOS>SUBSTRUCTURE
  1 ****   6 GROUP 4 **** **** 0

# MOE 2024.06 (io_trps.svl 2023.06)
