@<TRIPOS>MOLECULE
NONAME
38 41 1 0 0 
SMALL
USER_CHARGES


@<TRIPOS>ATOM
  1 S       -0.6480     0.4220    -1.3180 S.3   1 <1>  -0.0800 
  2 C       -0.3870     1.8720    -0.3730 C.2   1 <1>  -0.1400 
  3 C        0.9880     0.5200    -1.9550 C.2   1 <1>  -0.1100 
  4 C        0.8500     2.3600    -0.5360 C.2   1 <1>  -0.1810 
  5 C       -1.4520     2.4720     0.5040 C.3   1 <1>   0.0200 
  6 C        1.6400     1.5870    -1.4510 C.2   1 <1>  -0.1500 
  7 C        1.3050     3.6180     0.2080 C.3   1 <1>   0.4610 
  8 C       -1.0320     3.9210     0.8010 C.3   1 <1>   0.1200 
  9 O        0.3270     3.9950     1.1620 O.3   1 <1>  -0.5600 
 10 C        2.5840     3.3340     1.0030 C.3   1 <1>  -0.1600 
 11 C        1.5330     4.7850    -0.7620 C.3   1 <1>  -0.1600 
 12 C        3.0950     4.5880     1.7140 C.3   1 <1>   0.1400 
 13 C        2.0500     6.0320    -0.0400 C.3   1 <1>   0.1400 
 14 N        3.2810     5.6820     0.7200 N.am  1 <1>  -0.6600 
 15 C        4.5350     6.1620     0.4030 C.2   1 <1>   0.7160 
 16 O        5.5080     5.4730     0.6490 O.2   1 <1>  -0.5700 
 17 C        4.7220     7.4500    -0.2200 C.2   1 <1>  -0.0860 
 18 C        3.9810     8.6100     0.0260 C.2   1 <1>   0.1390 
 19 C        5.6370     7.8610    -1.1420 C.2   1 <1>  -0.3020 
 20 N        4.3720     9.6250    -0.6790 N.2   1 <1>  -0.7070 
 21 N        5.4060     9.1560    -1.4000 N.pl3 1 <1>   0.3000 
 22 H        1.2920    -0.2430    -2.6480 H     1 <1>   0.1500 
 23 H       -1.5340     1.9120     1.4180 H     1 <1>   0.0800 
 24 H       -2.4020     2.4620     0.0030 H     1 <1>   0.0800 
 25 H        2.6530     1.8610    -1.6880 H     1 <1>   0.1500 
 26 H       -1.6120     4.3150     1.6170 H     1 <1>   0.0800 
 27 H       -1.1900     4.5400    -0.0640 H     1 <1>   0.0800 
 28 H        3.3560     2.9820     0.3440 H     1 <1>   0.0800 
 29 H        2.3900     2.5590     1.7210 H     1 <1>   0.0800 
 30 H        0.6260     5.0110    -1.2890 H     1 <1>   0.0800 
 31 H        2.2600     4.4920    -1.4970 H     1 <1>   0.0800 
 32 H        4.0220     4.3690     2.2180 H     1 <1>   0.0800 
 33 H        2.3820     4.9050     2.4570 H     1 <1>   0.0800 
 34 H        1.3040     6.3980     0.6450 H     1 <1>   0.0800 
 35 H        2.2500     6.7980    -0.7680 H     1 <1>   0.0800 
 36 H        3.1690     8.6600     0.7330 H     1 <1>   0.1500 
 37 H        6.4210     7.2880    -1.6030 H     1 <1>   0.1500 
 38 H        5.9320     9.7530    -2.0510 H     1 <1>   0.2700 
@<TRIPOS>BOND
  1   1   2  1   
  2   1   3  1   
  3   2   4  2   
  4   2   5  1   
  5   3   6  2   
  6   3  22  1   
  7   4   6  1   
  8   4   7  1   
  9   5   8  1   
 10   5  23  1   
 11   5  24  1   
 12   6  25  1   
 13   7   9  1   
 14   7  10  1   
 15   7  11  1   
 16   8   9  1   
 17   8  26  1   
 18   8  27  1   
 19  10  12  1   
 20  10  28  1   
 21  10  29  1   
 22  11  13  1   
 23  11  30  1   
 24  11  31  1   
 25  12  14  1   
 26  12  32  1   
 27  12  33  1   
 28  13  14  1   
 29  13  34  1   
 30  13  35  1   
 31  14  15  am  
 32  15  16  2   
 33  15  17  1   
 34  17  18  1   
 35  17  19  2   
 36  18  20  2   
 37  18  36  1   
 38  19  21  1   
 39  19  37  1   
 40  20  21  1   
 41  21  38  1   
@<TRIPOS>SUBSTRUCTURE
  1 ****  11 GROUP 4 **** **** 0

# MOE 2024.06 (io_trps.svl 2023.06)
