@<TRIPOS>MOLECULE
NONAME
36 37 1 0 0 
SMALL
USER_CHARGES


@<TRIPOS>ATOM
  1 S       -0.6600    -0.0120     0.0370 S.o2  1 <1>   1.0900 
  2 O       -1.6840     0.2390    -0.9520 O.2   1 <1>  -0.6500 
  3 O       -0.3690    -1.3640     0.4510 O.2   1 <1>  -0.6500 
  4 C        0.8650     0.7520    -0.5120 C.3   1 <1>  -0.0550 
  5 C       -1.0320     0.9570     1.4970 C.3   1 <1>  -0.0550 
  6 C        0.7670     2.2830    -0.6110 C.3   1 <1>  -0.1600 
  7 C       -0.9840     2.4720     1.2380 C.3   1 <1>  -0.1600 
  8 C        0.3920     2.9190     0.7330 C.3   1 <1>   0.2890 
  9 N        0.3520     4.3720     0.5540 N.pl3 1 <1>  -0.8690 
 10 C        1.4210     5.2260     0.6910 C.ar  1 <1>   0.4100 
 11 N        2.5030     4.7170     1.2790 N.ar  1 <1>  -0.6200 
 12 C        1.3330     6.5540     0.2260 C.ar  1 <1>   0.0860 
 13 C        3.5360     5.5230     1.4170 C.ar  1 <1>   0.1600 
 14 C        0.1290     7.0590    -0.3910 C.2   1 <1>   0.5440 
 15 C        2.4470     7.3690     0.3870 C.ar  1 <1>  -0.1500 
 16 C        3.5630     6.8390     0.9950 C.ar  1 <1>  -0.1500 
 17 O       -0.5170     6.3860    -1.1760 O.2   1 <1>  -0.5700 
 18 N       -0.3160     8.3220    -0.0990 N.am  1 <1>  -0.7300 
 19 C       -1.5280     8.9650    -0.6710 C.3   1 <1>   0.0600 
 20 H        1.1330     0.3540    -1.4730 H     1 <1>   0.0800 
 21 H        1.6540     0.5010     0.1710 H     1 <1>   0.0800 
 22 H       -0.3280     0.7170     2.2710 H     1 <1>   0.0800 
 23 H       -2.0080     0.6930     1.8570 H     1 <1>   0.0800 
 24 H        0.0310     2.5450    -1.3530 H     1 <1>   0.0800 
 25 H        1.7190     2.6720    -0.9270 H     1 <1>   0.0800 
 26 H       -1.2030     2.9900     2.1550 H     1 <1>   0.0800 
 27 H       -1.7370     2.7310     0.5130 H     1 <1>   0.0800 
 28 H        1.1350     2.6670     1.4730 H     1 <1>   0.0800 
 29 H       -0.3610     4.7000    -0.1170 H     1 <1>   0.4000 
 30 H        4.4120     5.1150     1.8930 H     1 <1>   0.1500 
 31 H        2.4420     8.3860     0.0380 H     1 <1>   0.1500 
 32 H        4.4470     7.4340     1.1400 H     1 <1>   0.1500 
 33 H        0.1480     8.8430     0.6470 H     1 <1>   0.3700 
 34 H       -1.9130     8.3840    -1.4920 H     1 <1>   0.0800 
 35 H       -1.2830     9.9490    -1.0310 H     1 <1>   0.0800 
 36 H       -2.2890     9.0420     0.0850 H     1 <1>   0.0800 
@<TRIPOS>BOND
  1   1   2  2   
  2   1   3  2   
  3   1   4  1   
  4   1   5  1   
  5   4   6  1   
  6   4  20  1   
  7   4  21  1   
  8   5   7  1   
  9   5  22  1   
 10   5  23  1   
 11   6   8  1   
 12   6  24  1   
 13   6  25  1   
 14   7   8  1   
 15   7  26  1   
 16   7  27  1   
 17   8   9  1   
 18   8  28  1   
 19   9  10  1   
 20   9  29  1   
 21  10  11  ar  
 22  10  12  ar  
 23  11  13  ar  
 24  12  14  1   
 25  12  15  ar  
 26  13  16  ar  
 27  13  30  1   
 28  14  17  2   
 29  14  18  am  
 30  15  16  ar  
 31  15  31  1   
 32  16  32  1   
 33  18  19  1   
 34  18  33  1   
 35  19  34  1   
 36  19  35  1   
 37  19  36  1   
@<TRIPOS>SUBSTRUCTURE
  1 ****   9 GROUP 4 **** **** 0

# MOE 2024.06 (io_trps.svl 2023.06)
