@<TRIPOS>MOLECULE
NONAME
53 55 1 0 0 
SMALL
USER_CHARGES


@<TRIPOS>ATOM
  1 S        0.1960    -0.4660    -0.8290 S.3   1 <1>  -0.3320 
  2 C        0.3180     1.2850    -0.4220 C.ar  1 <1>   0.1020 
  3 C       -1.5640    -0.9490    -0.5850 C.3   1 <1>   0.0700 
  4 C        1.5790     1.8520    -0.4700 C.ar  1 <1>  -0.1500 
  5 C       -0.7900     2.0450    -0.0750 C.ar  1 <1>  -0.1500 
  6 C       -1.6520    -2.4470    -0.8830 C.3   1 <1>   0.3430 
  7 C        1.7380     3.1930    -0.1650 C.ar  1 <1>  -0.1500 
  8 C       -0.6240     3.3860     0.2280 C.ar  1 <1>  -0.1500 
  9 N       -3.0470    -2.9960    -0.7590 N.4   1 <1>  -0.9590 
 10 C        0.6380     3.9580     0.1830 C.ar  1 <1>  -0.1500 
 11 C       -3.0280    -4.4080    -1.3020 C.3   1 <1>   0.3430 
 12 C       -3.5500    -2.8760     0.6440 C.3   1 <1>   0.3430 
 13 C       -3.6330    -5.4980    -0.3880 C.3   1 <1>   0.0000 
 14 C       -4.8880    -3.5880     0.8430 C.3   1 <1>  -0.1600 
 15 C       -4.9820    -4.9310     0.1070 C.3   1 <1>   0.2000 
 16 C       -3.9530    -6.7160    -1.2870 C.3   1 <1>   0.1200 
 17 C       -2.6850    -5.9560     0.7790 C.3   1 <1>  -0.0170 
 18 O       -5.6410    -5.8460     0.9070 O.3   1 <1>  -0.6800 
 19 O       -2.8390    -7.0450    -2.0440 O.3   1 <1>  -0.6800 
 20 C       -1.2840    -5.3420     0.8120 C.ar  1 <1>  -0.1430 
 21 C       -0.3630    -5.6290    -0.1850 C.ar  1 <1>  -0.1500 
 22 C       -0.9030    -4.5070     1.8540 C.ar  1 <1>  -0.1500 
 23 C        0.8910    -5.0440    -0.1760 C.ar  1 <1>  -0.1500 
 24 C        0.3500    -3.9210     1.8660 C.ar  1 <1>  -0.1500 
 25 C        1.2450    -4.1820     0.8440 C.ar  1 <1>  -0.1500 
 26 H       -1.8060    -0.7210     0.4370 H     1 <1>   0.0800 
 27 H       -2.1490    -0.3660    -1.2730 H     1 <1>   0.0800 
 28 H        2.4270     1.2500    -0.7420 H     1 <1>   0.1500 
 29 H       -1.7740     1.6240    -0.0370 H     1 <1>   0.1500 
 30 H       -0.9940    -2.9740    -0.2100 H     1 <1>   0.0800 
 31 H       -1.2890    -2.6130    -1.8840 H     1 <1>   0.0800 
 32 H        2.7170     3.6400    -0.2000 H     1 <1>   0.1500 
 33 H       -1.4730     3.9890     0.4990 H     1 <1>   0.1500 
 34 H       -3.6630    -2.4440    -1.3710 H     1 <1>   0.4500 
 35 H        0.7630     5.0010     0.4200 H     1 <1>   0.1500 
 36 H       -3.5840    -4.4170    -2.2250 H     1 <1>   0.0800 
 37 H       -2.0240    -4.6930    -1.5620 H     1 <1>   0.0800 
 38 H       -2.8310    -3.3120     1.3110 H     1 <1>   0.0800 
 39 H       -3.6550    -1.8380     0.9160 H     1 <1>   0.0800 
 40 H       -5.6770    -2.9470     0.4920 H     1 <1>   0.0800 
 41 H       -5.0350    -3.7230     1.9000 H     1 <1>   0.0800 
 42 H       -5.6170    -4.7840    -0.7520 H     1 <1>   0.0800 
 43 H       -4.7570    -6.4980    -1.9700 H     1 <1>   0.0800 
 44 H       -4.2330    -7.5730    -0.6950 H     1 <1>   0.0800 
 45 H       -3.1530    -5.7640     1.7270 H     1 <1>   0.0800 
 46 H       -2.5540    -7.0240     0.7430 H     1 <1>   0.0800 
 47 H       -5.2100    -5.9660     1.7760 H     1 <1>   0.4000 
 48 H       -2.9810    -7.8900    -2.5240 H     1 <1>   0.4000 
 49 H       -0.6110    -6.3150    -0.9780 H     1 <1>   0.1500 
 50 H       -1.5710    -4.3090     2.6750 H     1 <1>   0.1500 
 51 H        1.5970    -5.2680    -0.9590 H     1 <1>   0.1500 
 52 H        0.6390    -3.2700     2.6740 H     1 <1>   0.1500 
 53 H        2.2220    -3.7260     0.8520 H     1 <1>   0.1500 
@<TRIPOS>BOND
  1   1   2  1   
  2   1   3  1   
  3   2   4  ar  
  4   2   5  ar  
  5   3   6  1   
  6   3  26  1   
  7   3  27  1   
  8   4   7  ar  
  9   4  28  1   
 10   5   8  ar  
 11   5  29  1   
 12   6   9  1   
 13   6  30  1   
 14   6  31  1   
 15   7  10  ar  
 16   7  32  1   
 17   8  10  ar  
 18   8  33  1   
 19   9  11  1   
 20   9  12  1   
 21   9  34  1   
 22  10  35  1   
 23  11  13  1   
 24  11  36  1   
 25  11  37  1   
 26  12  14  1   
 27  12  38  1   
 28  12  39  1   
 29  13  15  1   
 30  13  16  1   
 31  13  17  1   
 32  14  15  1   
 33  14  40  1   
 34  14  41  1   
 35  15  18  1   
 36  15  42  1   
 37  16  19  1   
 38  16  43  1   
 39  16  44  1   
 40  17  20  1   
 41  17  45  1   
 42  17  46  1   
 43  18  47  1   
 44  19  48  1   
 45  20  21  ar  
 46  20  22  ar  
 47  21  23  ar  
 48  21  49  1   
 49  22  24  ar  
 50  22  50  1   
 51  23  25  ar  
 52  23  51  1   
 53  24  25  ar  
 54  24  52  1   
 55  25  53  1   
@<TRIPOS>SUBSTRUCTURE
  1 ****   6 GROUP 4 **** **** 0

# MOE 2024.06 (io_trps.svl 2023.06)
