@<TRIPOS>MOLECULE
NONAME
43 45 1 0 0 
SMALL
USER_CHARGES


@<TRIPOS>ATOM
  1 O        2.9540    -0.6890     1.9300 O.2   1 <1>  -0.5700 
  2 C        2.2270    -1.1820     1.1010 C.2   1 <1>   0.5690 
  3 N        1.8610    -0.5760    -0.0630 N.am  1 <1>  -0.4940 
  4 C        1.6400    -2.5720     1.3540 C.3   1 <1>   0.1710 
  5 C        2.1250     0.6930    -0.5830 C.2   1 <1>   0.2040 
  6 N        0.3910    -2.8340     0.5800 N.3   1 <1>  -0.8100 
  7 O        1.2740     1.1930    -1.4460 O.3   1 <1>  -0.0190 
  8 C        3.1060     1.6040    -0.4080 C.2   1 <1>  -0.1810 
  9 C        0.1060    -4.2810     0.5100 C.3   1 <1>   0.2530 
 10 C       -0.7650    -2.1210     1.1550 C.3   1 <1>   0.1100 
 11 N        1.6180     2.3900    -1.8410 N.2   1 <1>  -0.4100 
 12 C        2.7160     2.6630    -1.2300 C.2   1 <1>   0.1080 
 13 C        4.3560     1.5370     0.4550 C.3   1 <1>  -0.0590 
 14 C       -1.2320    -4.5790    -0.1620 C.ar  1 <1>  -0.1430 
 15 C       -1.9400    -2.1790     0.1750 C.3   1 <1>  -0.0170 
 16 C        3.4530     3.9790    -1.4130 C.3   1 <1>   0.0210 
 17 C       -2.2060    -3.5970    -0.3070 C.ar  1 <1>  -0.1430 
 18 C       -1.4870    -5.8620    -0.6220 C.ar  1 <1>  -0.1500 
 19 C        3.2400     4.9130    -0.2170 C.3   1 <1>  -0.2400 
 20 C       -3.4160    -3.9060    -0.9070 C.ar  1 <1>  -0.1500 
 21 C       -2.6970    -6.1680    -1.2200 C.ar  1 <1>  -0.1500 
 22 C       -3.6630    -5.1890    -1.3620 C.ar  1 <1>  -0.1500 
 23 H        1.1480    -1.1190    -0.5630 H     1 <1>   0.3700 
 24 H        1.4540    -2.6880     2.4070 H     1 <1>   0.0800 
 25 H        2.3930    -3.2850     1.0690 H     1 <1>   0.0800 
 26 H        0.0880    -4.6950     1.5040 H     1 <1>   0.0800 
 27 H        0.8910    -4.7650    -0.0450 H     1 <1>   0.0800 
 28 H       -0.5190    -1.0890     1.3420 H     1 <1>   0.0800 
 29 H       -1.0490    -2.5770     2.0890 H     1 <1>   0.0800 
 30 H        4.7100     0.5240     0.5150 H     1 <1>   0.0800 
 31 H        4.1310     1.8820     1.4480 H     1 <1>   0.0800 
 32 H        5.1430     2.1390     0.0420 H     1 <1>   0.0800 
 33 H       -1.7190    -1.5570    -0.6740 H     1 <1>   0.0800 
 34 H       -2.8170    -1.7860     0.6550 H     1 <1>   0.0800 
 35 H        3.0900     4.4580    -2.3060 H     1 <1>   0.0800 
 36 H        4.5010     3.7870    -1.5500 H     1 <1>   0.0800 
 37 H       -0.7440    -6.6330    -0.5160 H     1 <1>   0.1500 
 38 H        2.1900     5.1110    -0.0910 H     1 <1>   0.0800 
 39 H        3.7520     5.8450    -0.3780 H     1 <1>   0.0800 
 40 H        3.6150     4.4610     0.6840 H     1 <1>   0.0800 
 41 H       -4.1690    -3.1470    -1.0250 H     1 <1>   0.1500 
 42 H       -2.8870    -7.1660    -1.5740 H     1 <1>   0.1500 
 43 H       -4.6050    -5.4240    -1.8270 H     1 <1>   0.1500 
@<TRIPOS>BOND
  1   1   2  2   
  2   2   3  am  
  3   2   4  1   
  4   3   5  1   
  5   3  23  1   
  6   4   6  1   
  7   4  24  1   
  8   4  25  1   
  9   5   7  1   
 10   5   8  2   
 11   6   9  1   
 12   6  10  1   
 13   7  11  1   
 14   8  12  1   
 15   8  13  1   
 16   9  14  1   
 17   9  26  1   
 18   9  27  1   
 19  10  15  1   
 20  10  28  1   
 21  10  29  1   
 22  11  12  2   
 23  12  16  1   
 24  13  30  1   
 25  13  31  1   
 26  13  32  1   
 27  14  17  ar  
 28  14  18  ar  
 29  15  17  1   
 30  15  33  1   
 31  15  34  1   
 32  16  19  1   
 33  16  35  1   
 34  16  36  1   
 35  17  20  ar  
 36  18  21  ar  
 37  18  37  1   
 38  19  38  1   
 39  19  39  1   
 40  19  40  1   
 41  20  22  ar  
 42  20  41  1   
 43  21  22  ar  
 44  21  42  1   
 45  22  43  1   
@<TRIPOS>SUBSTRUCTURE
  1 ****   3 GROUP 4 **** **** 0

# MOE 2024.06 (io_trps.svl 2023.06)
