@<TRIPOS>MOLECULE
NONAME
51 53 1 0 0 
SMALL
USER_CHARGES


@<TRIPOS>ATOM
  1 S       -0.9530    -2.3460    -0.5160 S.3   1 <1>  -0.4600 
  2 C       -1.7290    -0.8370    -1.1460 C.3   1 <1>   0.1500 
  3 C        0.6070    -1.7510     0.2380 C.3   1 <1>   0.1310 
  4 C       -2.4220    -0.1440     0.0260 C.3   1 <1>  -0.2400 
  5 C       -2.7160    -1.2660    -2.2290 C.3   1 <1>  -0.2400 
  6 C        1.2650    -2.8800     1.0250 C.2   1 <1>   0.5690 
  7 O        1.2160    -2.8110     2.2310 O.2   1 <1>  -0.5700 
  8 N        1.8420    -3.9770     0.4180 N.am  1 <1>  -0.6600 
  9 C        2.2480    -5.1250     1.2950 C.3   1 <1>   0.2200 
 10 C        1.8220    -4.2190    -1.0490 C.3   1 <1>   0.1400 
 11 C        3.2510    -6.1150     0.6440 C.3   1 <1>   0.1200 
 12 C        0.9610    -5.8170     1.8120 C.3   1 <1>   0.3430 
 13 C        1.1510    -5.5590    -1.3760 C.3   1 <1>  -0.0800 
 14 O        2.6220    -7.0920    -0.1490 O.3   1 <1>  -0.5600 
 15 N        0.1940    -6.5830     0.7610 N.4   1 <1>  -0.9590 
 16 C        2.1890    -6.7020    -1.4210 C.3   1 <1>   0.1200 
 17 C       -0.1020    -5.8240    -0.5050 C.3   1 <1>   0.3430 
 18 C       -1.0000    -7.2560     1.3370 C.3   1 <1>   0.4860 
 19 C       -1.5890    -8.2030     0.3170 C.ar  1 <1>  -0.1430 
 20 C       -0.9310    -9.3490    -0.0710 C.ar  1 <1>   0.1600 
 21 C       -2.8050    -7.9480    -0.2740 C.ar  1 <1>   0.1600 
 22 N       -1.4210   -10.1590    -0.9790 N.ar  1 <1>  -0.6200 
 23 N       -3.3160    -8.7420    -1.1850 N.ar  1 <1>  -0.6200 
 24 C       -2.5940    -9.8100    -1.4860 C.ar  1 <1>   0.4700 
 25 H       -0.9520    -0.2180    -1.5620 H     1 <1>   0.0800 
 26 H        1.2460    -1.3970    -0.5490 H     1 <1>   0.0800 
 27 H        0.3580    -0.9410     0.8980 H     1 <1>   0.0800 
 28 H       -3.1510    -0.7980     0.4700 H     1 <1>   0.0800 
 29 H       -2.9230     0.7430    -0.3170 H     1 <1>   0.0800 
 30 H       -1.7080     0.1410     0.7760 H     1 <1>   0.0800 
 31 H       -3.4610    -1.9250    -1.8200 H     1 <1>   0.0800 
 32 H       -2.1970    -1.7730    -3.0230 H     1 <1>   0.0800 
 33 H       -3.2080    -0.4040    -2.6410 H     1 <1>   0.0800 
 34 H        2.7540    -4.7040     2.1480 H     1 <1>   0.0800 
 35 H        1.2910    -3.4350    -1.5570 H     1 <1>   0.0800 
 36 H        2.8310    -4.1990    -1.4270 H     1 <1>   0.0800 
 37 H        3.7610    -6.6490     1.4270 H     1 <1>   0.0800 
 38 H        3.9980    -5.6000     0.0640 H     1 <1>   0.0800 
 39 H        0.3280    -5.0620     2.2490 H     1 <1>   0.0800 
 40 H        1.2460    -6.4940     2.5990 H     1 <1>   0.0800 
 41 H        0.7960    -5.4510    -2.3860 H     1 <1>   0.0800 
 42 H        0.8750    -7.3030     0.4520 H     1 <1>   0.4500 
 43 H        3.0530    -6.4200    -2.0000 H     1 <1>   0.0800 
 44 H        1.7530    -7.5720    -1.8850 H     1 <1>   0.0800 
 45 H       -0.7880    -6.4000    -1.1040 H     1 <1>   0.0800 
 46 H       -0.5870    -4.8910    -0.2690 H     1 <1>   0.0800 
 47 H       -0.7210    -7.8110     2.2180 H     1 <1>   0.0800 
 48 H       -1.7330    -6.5180     1.6210 H     1 <1>   0.0800 
 49 H        0.0190    -9.6170     0.3620 H     1 <1>   0.1500 
 50 H       -3.3790    -7.0740    -0.0080 H     1 <1>   0.1500 
 51 H       -3.0080   -10.4710    -2.2300 H     1 <1>   0.1500 
@<TRIPOS>BOND
  1   1   2  1   
  2   1   3  1   
  3   2   4  1   
  4   2   5  1   
  5   2  25  1   
  6   3   6  1   
  7   3  26  1   
  8   3  27  1   
  9   4  28  1   
 10   4  29  1   
 11   4  30  1   
 12   5  31  1   
 13   5  32  1   
 14   5  33  1   
 15   6   7  2   
 16   6   8  am  
 17   8   9  1   
 18   8  10  1   
 19   9  11  1   
 20   9  12  1   
 21   9  34  1   
 22  10  13  1   
 23  10  35  1   
 24  10  36  1   
 25  11  14  1   
 26  11  37  1   
 27  11  38  1   
 28  12  15  1   
 29  12  39  1   
 30  12  40  1   
 31  13  16  1   
 32  13  17  1   
 33  13  41  1   
 34  14  16  1   
 35  15  17  1   
 36  15  18  1   
 37  15  42  1   
 38  16  43  1   
 39  16  44  1   
 40  17  45  1   
 41  17  46  1   
 42  18  19  1   
 43  18  47  1   
 44  18  48  1   
 45  19  20  ar  
 46  19  21  ar  
 47  20  22  ar  
 48  20  49  1   
 49  21  23  ar  
 50  21  50  1   
 51  22  24  ar  
 52  23  24  ar  
 53  24  51  1   
@<TRIPOS>SUBSTRUCTURE
  1 ****  17 GROUP 4 **** **** 0

# MOE 2024.06 (io_trps.svl 2023.06)
