@<TRIPOS>MOLECULE
NONAME
46 48 1 0 0 
SMALL
USER_CHARGES


@<TRIPOS>ATOM
  1 O        2.6780    -1.3420     1.3100 O.3   1 <1>  -0.5600 
  2 C        1.5180    -1.4570     0.5290 C.3   1 <1>   0.2000 
  3 C        2.4630    -0.7840     2.5730 C.3   1 <1>   0.0400 
  4 C        1.8770    -1.7110    -0.9480 C.3   1 <1>   0.0000 
  5 C        0.6650    -2.6550     0.9600 C.3   1 <1>  -0.1600 
  6 C        3.0300    -2.7390    -1.0470 C.3   1 <1>   0.3430 
  7 C        2.2250    -0.3850    -1.6810 C.3   1 <1>  -0.1600 
  8 C        0.5920    -2.3650    -1.4750 C.3   1 <1>  -0.1600 
  9 C        0.1000    -3.2610    -0.3330 C.3   1 <1>  -0.1600 
 10 N        4.3090    -2.0300    -0.7940 N.4   1 <1>  -0.9590 
 11 C        3.4390    -0.5380    -2.6140 C.3   1 <1>  -0.1600 
 12 C        4.6820    -1.0740    -1.8850 C.3   1 <1>   0.3430 
 13 C        5.4070    -2.9260    -0.3600 C.3   1 <1>   0.4860 
 14 C        6.5100    -2.0830     0.2300 C.ar  1 <1>  -0.1430 
 15 C        7.7050    -1.8900    -0.4250 C.ar  1 <1>   0.1600 
 16 C        6.3590    -1.4650     1.4500 C.ar  1 <1>   0.1600 
 17 N        8.6550    -1.1350     0.0730 N.ar  1 <1>  -0.6200 
 18 N        7.2960    -0.7070     1.9660 N.ar  1 <1>  -0.6200 
 19 C        8.3990    -0.5830     1.2470 C.ar  1 <1>   0.4770 
 20 C        9.4900     0.2810     1.8330 C.3   1 <1>  -0.0970 
 21 H        0.9410    -0.5490     0.6080 H     1 <1>   0.0800 
 22 H        3.4060    -0.7210     3.0860 H     1 <1>   0.0800 
 23 H        1.7900    -1.4090     3.1350 H     1 <1>   0.0800 
 24 H        2.0500     0.2050     2.4630 H     1 <1>   0.0800 
 25 H        1.2610    -3.3860     1.4780 H     1 <1>   0.0800 
 26 H       -0.1340    -2.3280     1.6020 H     1 <1>   0.0800 
 27 H        3.0440    -3.1850    -2.0280 H     1 <1>   0.0800 
 28 H        2.8750    -3.5140    -0.3150 H     1 <1>   0.0800 
 29 H        1.3810    -0.0220    -2.2430 H     1 <1>   0.0800 
 30 H        2.4640     0.3750    -0.9550 H     1 <1>   0.0800 
 31 H       -0.1560    -1.6110    -1.6560 H     1 <1>   0.0800 
 32 H        0.7430    -2.9170    -2.3870 H     1 <1>   0.0800 
 33 H        0.4710    -4.2650    -0.4580 H     1 <1>   0.0800 
 34 H       -0.9770    -3.2980    -0.3110 H     1 <1>   0.0800 
 35 H        4.0580    -1.4520     0.0350 H     1 <1>   0.4500 
 36 H        3.6790     0.4130    -3.0600 H     1 <1>   0.0800 
 37 H        3.1890    -1.2060    -3.4200 H     1 <1>   0.0800 
 38 H        5.2280    -0.2490    -1.4540 H     1 <1>   0.0800 
 39 H        5.3250    -1.5580    -2.6020 H     1 <1>   0.0800 
 40 H        5.0460    -3.6110     0.3900 H     1 <1>   0.0800 
 41 H        5.7760    -3.4960    -1.1970 H     1 <1>   0.0800 
 42 H        7.8980    -2.3560    -1.3770 H     1 <1>   0.1500 
 43 H        5.4530    -1.5850     2.0210 H     1 <1>   0.1500 
 44 H       10.0330     0.7740     1.0480 H     1 <1>   0.0800 
 45 H       10.1660    -0.3340     2.3950 H     1 <1>   0.0800 
 46 H        9.0670     1.0250     2.4830 H     1 <1>   0.0800 
@<TRIPOS>BOND
  1   1   2  1   
  2   1   3  1   
  3   2   4  1   
  4   2   5  1   
  5   2  21  1   
  6   3  22  1   
  7   3  23  1   
  8   3  24  1   
  9   4   6  1   
 10   4   7  1   
 11   4   8  1   
 12   5   9  1   
 13   5  25  1   
 14   5  26  1   
 15   6  10  1   
 16   6  27  1   
 17   6  28  1   
 18   7  11  1   
 19   7  29  1   
 20   7  30  1   
 21   8   9  1   
 22   8  31  1   
 23   8  32  1   
 24   9  33  1   
 25   9  34  1   
 26  10  12  1   
 27  10  13  1   
 28  10  35  1   
 29  11  12  1   
 30  11  36  1   
 31  11  37  1   
 32  12  38  1   
 33  12  39  1   
 34  13  14  1   
 35  13  40  1   
 36  13  41  1   
 37  14  15  ar  
 38  14  16  ar  
 39  15  17  ar  
 40  15  42  1   
 41  16  18  ar  
 42  16  43  1   
 43  17  19  ar  
 44  18  19  ar  
 45  19  20  1   
 46  20  44  1   
 47  20  45  1   
 48  20  46  1   
@<TRIPOS>SUBSTRUCTURE
  1 ****  10 GROUP 4 **** **** 0

# MOE 2024.06 (io_trps.svl 2023.06)
