@<TRIPOS>MOLECULE
NONAME
56 59 1 0 0 
SMALL
USER_CHARGES


@<TRIPOS>ATOM
  1 S       -0.2870     0.1800    -1.7370 S.o2  1 <1>   1.4470 
  2 O       -0.9610    -0.9630    -2.3150 O.2   1 <1>  -0.6500 
  3 O       -0.1100     1.3790    -2.5280 O.2   1 <1>  -0.6500 
  4 N       -1.1770     0.6240    -0.3650 N.am  1 <1>  -0.8490 
  5 C        1.3140    -0.3160    -1.0420 C.ar  1 <1>  -0.0090 
  6 C       -2.4090     1.3430    -0.7450 C.3   1 <1>   0.1960 
  7 C       -1.4990    -0.5280     0.4840 C.3   1 <1>   0.1960 
  8 C        2.0570     0.5660    -0.2680 C.ar  1 <1>  -0.1500 
  9 C        1.8330    -1.5870    -1.2550 C.ar  1 <1>  -0.1500 
 10 C       -3.1470     1.8980     0.4890 C.3   1 <1>   0.1440 
 11 C       -2.1810    -0.0610     1.7760 C.3   1 <1>  -0.1600 
 12 C        3.2730     0.1940     0.2790 C.ar  1 <1>  -0.1500 
 13 C        3.0480    -1.9660    -0.7110 C.ar  1 <1>  -0.1500 
 14 C       -4.4040     2.6050     0.0180 C.ar  1 <1>   0.1670 
 15 C       -3.4510     0.7500     1.4730 C.3   1 <1>  -0.1600 
 16 C       -2.3470     3.0480     1.1600 C.3   1 <1>  -0.1600 
 17 C        3.7760    -1.0770     0.0620 C.ar  1 <1>  -0.1430 
 18 N       -5.4810     2.0120    -0.4330 N.ar  1 <1>  -0.6200 
 19 C       -4.2790     3.9580     0.0990 C.ar  1 <1>  -0.1430 
 20 C       -2.9280     4.3700     0.6290 C.3   1 <1>  -0.0170 
 21 C        5.1110    -1.4900     0.6590 C.3   1 <1>  -0.0170 
 22 C       -6.4690     2.8310    -0.8020 C.ar  1 <1>   0.7200 
 23 C       -5.3460     4.7210    -0.3020 C.ar  1 <1>   0.1600 
 24 C        6.2530    -1.1630    -0.3050 C.3   1 <1>  -0.2400 
 25 N       -6.4470     4.1670    -0.7520 N.ar  1 <1>  -0.6200 
 26 N       -7.6220     2.2400    -1.2820 N.pl3 1 <1>  -0.8380 
 27 C       -8.8900     3.0020    -1.4450 C.3   1 <1>   0.1290 
 28 C       -7.6640     0.8110    -1.6980 C.3   1 <1>   0.1290 
 29 H       -3.0640     0.6800    -1.2870 H     1 <1>   0.0800 
 30 H       -2.1670     2.1660    -1.3970 H     1 <1>   0.0800 
 31 H       -0.5970    -1.0580     0.7390 H     1 <1>   0.0800 
 32 H       -2.1490    -1.2060    -0.0460 H     1 <1>   0.0800 
 33 H        1.6770     1.5580    -0.0930 H     1 <1>   0.1500 
 34 H        1.2810    -2.2910    -1.8550 H     1 <1>   0.1500 
 35 H       -1.4860     0.5340     2.3420 H     1 <1>   0.0800 
 36 H       -2.4370    -0.9190     2.3710 H     1 <1>   0.0800 
 37 H        3.8290     0.9000     0.8720 H     1 <1>   0.1500 
 38 H        3.4280    -2.9570    -0.8940 H     1 <1>   0.1500 
 39 H       -4.1800     0.0950     1.0270 H     1 <1>   0.0800 
 40 H       -3.8800     1.1360     2.3810 H     1 <1>   0.0800 
 41 H       -1.2900     2.9770     0.9700 H     1 <1>   0.0800 
 42 H       -2.5000     3.0200     2.2240 H     1 <1>   0.0800 
 43 H       -2.3260     4.7530    -0.1760 H     1 <1>   0.0800 
 44 H       -3.0130     5.1070     1.4080 H     1 <1>   0.0800 
 45 H        5.1060    -2.5450     0.8680 H     1 <1>   0.0800 
 46 H        5.2670    -0.9740     1.5910 H     1 <1>   0.0800 
 47 H       -5.2960     5.7940    -0.2560 H     1 <1>   0.1500 
 48 H        6.1150    -1.6870    -1.2340 H     1 <1>   0.0800 
 49 H        7.1950    -1.4570     0.1220 H     1 <1>   0.0800 
 50 H        6.2780    -0.1070    -0.5070 H     1 <1>   0.0800 
 51 H       -8.9470     3.7990    -0.7230 H     1 <1>   0.0800 
 52 H       -9.7340     2.3520    -1.2960 H     1 <1>   0.0800 
 53 H       -8.9310     3.4220    -2.4340 H     1 <1>   0.0800 
 54 H       -6.6950     0.4870    -2.0360 H     1 <1>   0.0800 
 55 H       -8.3630     0.6810    -2.5060 H     1 <1>   0.0800 
 56 H       -7.9660     0.2030    -0.8640 H     1 <1>   0.0800 
@<TRIPOS>BOND
  1   1   2  2   
  2   1   3  2   
  3   1   4  am  
  4   1   5  1   
  5   4   6  1   
  6   4   7  1   
  7   5   8  ar  
  8   5   9  ar  
  9   6  10  1   
 10   6  29  1   
 11   6  30  1   
 12   7  11  1   
 13   7  31  1   
 14   7  32  1   
 15   8  12  ar  
 16   8  33  1   
 17   9  13  ar  
 18   9  34  1   
 19  10  14  1   
 20  10  15  1   
 21  10  16  1   
 22  11  15  1   
 23  11  35  1   
 24  11  36  1   
 25  12  17  ar  
 26  12  37  1   
 27  13  17  ar  
 28  13  38  1   
 29  14  18  ar  
 30  14  19  ar  
 31  15  39  1   
 32  15  40  1   
 33  16  20  1   
 34  16  41  1   
 35  16  42  1   
 36  17  21  1   
 37  18  22  ar  
 38  19  20  1   
 39  19  23  ar  
 40  20  43  1   
 41  20  44  1   
 42  21  24  1   
 43  21  45  1   
 44  21  46  1   
 45  22  25  ar  
 46  22  26  1   
 47  23  25  ar  
 48  23  47  1   
 49  24  48  1   
 50  24  49  1   
 51  24  50  1   
 52  26  27  1   
 53  26  28  1   
 54  27  51  1   
 55  27  52  1   
 56  27  53  1   
 57  28  54  1   
 58  28  55  1   
 59  28  56  1   
@<TRIPOS>SUBSTRUCTURE
  1 ****   6 GROUP 4 **** **** 0

# MOE 2024.06 (io_trps.svl 2023.06)
