@<TRIPOS>MOLECULE
NONAME
50 53 1 0 0 
SMALL
USER_CHARGES


@<TRIPOS>ATOM
  1 O       -0.4720    -0.2810    -0.2180 O.2   1 <1>  -0.5700 
  2 C       -1.6000     0.2470    -0.0820 C.2   1 <1>   0.5410 
  3 C       -2.8020    -0.4980     0.1150 C.2   1 <1>   0.0140 
  4 C       -1.6490     1.6560    -0.1300 C.2   1 <1>  -0.1360 
  5 C       -2.8440    -1.9270     0.1770 C.2   1 <1>   0.2710 
  6 C       -3.9860     0.2600     0.2500 C.2   1 <1>  -0.1500 
  7 C       -2.8230     2.3420     0.0060 C.2   1 <1>  -0.1500 
  8 N       -4.0080    -2.5580     0.3630 N.2   1 <1>  -0.6210 
  9 N       -1.6980    -2.6560     0.0470 N.pl3 1 <1>  -0.6000 
 10 C       -4.0080     1.6310     0.1990 C.2   1 <1>  -0.1500 
 11 C       -4.0070    -3.8750     0.4160 C.2   1 <1>   0.4860 
 12 C       -1.6540    -4.0030     0.0910 C.2   1 <1>  -0.0380 
 13 N       -5.2230    -4.4250     0.6030 N.pl3 1 <1>  -0.8190 
 14 C       -2.8340    -4.6410     0.2800 C.2   1 <1>  -0.1360 
 15 C       -0.3140    -4.6860    -0.0730 C.3   1 <1>  -0.1020 
 16 C       -5.5870    -5.8500     0.7710 C.3   1 <1>   0.2090 
 17 C       -5.8460    -6.4860    -0.5890 C.3   1 <1>  -0.0170 
 18 C       -6.1330    -7.9560    -0.3960 C.ar  1 <1>   0.4770 
 19 N       -5.0730    -8.7540    -0.3640 N.ar  1 <1>  -0.6200 
 20 N       -7.4080    -8.2870    -0.2600 N.ar  1 <1>  -0.6200 
 21 C       -5.3170   -10.0360    -0.1890 C.ar  1 <1>   0.1670 
 22 C       -7.6100    -9.5700    -0.0840 C.ar  1 <1>   0.1670 
 23 C       -6.6070   -10.4910    -0.0400 C.ar  1 <1>  -0.1430 
 24 C       -4.1160   -10.9600    -0.1630 C.3   1 <1>  -0.0970 
 25 C       -8.9650   -10.2020     0.0900 C.3   1 <1>  -0.0170 
 26 C       -7.1530   -11.8860     0.1680 C.3   1 <1>  -0.0170 
 27 C       -8.6400   -11.6510     0.4980 C.3   1 <1>  -0.1600 
 28 H       -0.7180     2.1690    -0.2790 H     1 <1>   0.1500 
 29 H       -4.9170    -0.2600     0.3990 H     1 <1>   0.1500 
 30 H       -2.8500     3.4180    -0.0320 H     1 <1>   0.1500 
 31 H       -0.8350    -2.1050    -0.0940 H     1 <1>   0.4000 
 32 H       -4.9350     2.1690     0.3060 H     1 <1>   0.1500 
 33 H       -5.9880    -3.7500     0.6520 H     1 <1>   0.4000 
 34 H       -2.8900    -5.7090     0.3230 H     1 <1>   0.1500 
 35 H        0.3550    -4.3670     0.7060 H     1 <1>   0.0800 
 36 H        0.1100    -4.4310    -1.0260 H     1 <1>   0.0800 
 37 H       -0.4250    -5.7540    -0.0180 H     1 <1>   0.0800 
 38 H       -6.4710    -5.9240     1.3810 H     1 <1>   0.0800 
 39 H       -4.7930    -6.3740     1.2750 H     1 <1>   0.0800 
 40 H       -4.9820    -6.3750    -1.2190 H     1 <1>   0.0800 
 41 H       -6.6850    -6.0130    -1.0630 H     1 <1>   0.0800 
 42 H       -3.5430   -10.8240    -1.0610 H     1 <1>   0.0800 
 43 H       -4.4120   -11.9890    -0.0940 H     1 <1>   0.0800 
 44 H       -3.4970   -10.7170     0.6810 H     1 <1>   0.0800 
 45 H       -9.4930   -10.1700    -0.8460 H     1 <1>   0.0800 
 46 H       -9.5320    -9.6930     0.8490 H     1 <1>   0.0800 
 47 H       -6.6510   -12.3920     0.9730 H     1 <1>   0.0800 
 48 H       -7.0510   -12.4520    -0.7420 H     1 <1>   0.0800 
 49 H       -9.2750   -12.3570    -0.0080 H     1 <1>   0.0800 
 50 H       -8.7820   -11.7540     1.5600 H     1 <1>   0.0800 
@<TRIPOS>BOND
  1   1   2  2   
  2   2   3  1   
  3   2   4  1   
  4   3   5  2   
  5   3   6  1   
  6   4   7  2   
  7   4  28  1   
  8   5   8  1   
  9   5   9  1   
 10   6  10  2   
 11   6  29  1   
 12   7  10  1   
 13   7  30  1   
 14   8  11  2   
 15   9  12  1   
 16   9  31  1   
 17  10  32  1   
 18  11  13  1   
 19  11  14  1   
 20  12  14  2   
 21  12  15  1   
 22  13  16  1   
 23  13  33  1   
 24  14  34  1   
 25  15  35  1   
 26  15  36  1   
 27  15  37  1   
 28  16  17  1   
 29  16  38  1   
 30  16  39  1   
 31  17  18  1   
 32  17  40  1   
 33  17  41  1   
 34  18  19  ar  
 35  18  20  ar  
 36  19  21  ar  
 37  20  22  ar  
 38  21  23  ar  
 39  21  24  1   
 40  22  23  ar  
 41  22  25  1   
 42  23  26  1   
 43  24  42  1   
 44  24  43  1   
 45  24  44  1   
 46  25  27  1   
 47  25  45  1   
 48  25  46  1   
 49  26  27  1   
 50  26  47  1   
 51  26  48  1   
 52  27  49  1   
 53  27  50  1   
@<TRIPOS>SUBSTRUCTURE
  1 ****  13 GROUP 4 **** **** 0

# MOE 2024.06 (io_trps.svl 2023.06)
