@<TRIPOS>MOLECULE
NONAME
55 56 1 0 0 
SMALL
USER_CHARGES


@<TRIPOS>ATOM
  1 O       -0.4850     0.5510    -0.2290 O.2   1 <1>  -0.5700 
  2 C       -1.5050     1.0620     0.1660 C.2   1 <1>   0.5690 
  3 N       -2.6320     0.3160     0.3980 N.am  1 <1>  -0.6600 
  4 C       -1.5200     2.5700     0.4010 C.3   1 <1>  -0.0990 
  5 C       -2.6180    -1.1770     0.2680 C.3   1 <1>   0.1400 
  6 C       -3.9920     0.8470     0.7260 C.3   1 <1>   0.1400 
  7 C       -0.1280     3.2340     0.3440 C.3   1 <1>  -0.1600 
  8 C       -3.7530    -1.6690    -0.6470 C.3   1 <1>   0.3440 
  9 C       -5.0610     0.2580    -0.2270 C.3   1 <1>   0.2000 
 10 C       -0.2070     4.7340     0.6230 C.3   1 <1>   0.1400 
 11 O       -4.9790    -1.1440    -0.2120 O.3   1 <1>  -0.5600 
 12 C       -3.8220    -3.1930    -0.6490 C.ar  1 <1>  -0.1440 
 13 C       -6.5260     0.6870     0.0910 C.3   1 <1>   0.0000 
 14 N        1.1530     5.3090     0.5630 N.am  1 <1>  -0.7300 
 15 C       -3.1100    -3.9110    -1.5990 C.ar  1 <1>  -0.1500 
 16 C       -4.5750    -3.8850     0.2910 C.ar  1 <1>  -0.1500 
 17 C       -6.6770     2.2180     0.0400 C.3   1 <1>  -0.2400 
 18 C       -6.9870     0.1980     1.4770 C.3   1 <1>  -0.2400 
 19 C       -7.4750     0.0930    -0.9680 C.3   1 <1>  -0.2400 
 20 C        1.6320     6.3050    -0.2160 C.2   1 <1>   0.5690 
 21 C       -3.1480    -5.2950    -1.6100 C.ar  1 <1>  -0.1500 
 22 C       -4.6150    -5.2680     0.2820 C.ar  1 <1>  -0.1500 
 23 O        2.7760     6.6600    -0.1040 O.2   1 <1>  -0.5700 
 24 C        0.7490     6.9890    -1.2310 C.3   1 <1>  -0.1790 
 25 C       -3.9000    -5.9750    -0.6690 C.ar  1 <1>  -0.1500 
 26 H       -2.1520     3.0160    -0.3450 H     1 <1>   0.0800 
 27 H       -1.9480     2.7530     1.3690 H     1 <1>   0.0800 
 28 H       -1.6790    -1.5190    -0.1310 H     1 <1>   0.0800 
 29 H       -2.7370    -1.6190     1.2410 H     1 <1>   0.0800 
 30 H       -4.2300     0.5820     1.7400 H     1 <1>   0.0800 
 31 H       -4.0050     1.9170     0.6490 H     1 <1>   0.0800 
 32 H        0.2990     3.0760    -0.6320 H     1 <1>   0.0800 
 33 H        0.5120     2.7660     1.0730 H     1 <1>   0.0800 
 34 H       -3.5820    -1.3210    -1.6510 H     1 <1>   0.0800 
 35 H       -4.8340     0.5810    -1.2290 H     1 <1>   0.0800 
 36 H       -0.6150     4.9070     1.6050 H     1 <1>   0.0800 
 37 H       -0.8480     5.2080    -0.1000 H     1 <1>   0.0800 
 38 H        1.8400     4.8990     1.2000 H     1 <1>   0.3700 
 39 H       -2.5190    -3.3970    -2.3370 H     1 <1>   0.1500 
 40 H       -5.1370    -3.3440     1.0330 H     1 <1>   0.1500 
 41 H       -7.7100     2.4970     0.1590 H     1 <1>   0.0800 
 42 H       -6.3350     2.6010    -0.9060 H     1 <1>   0.0800 
 43 H       -6.1210     2.6940     0.8270 H     1 <1>   0.0800 
 44 H       -8.0200     0.4510     1.6410 H     1 <1>   0.0800 
 45 H       -6.4080     0.6450     2.2640 H     1 <1>   0.0800 
 46 H       -6.8900    -0.8710     1.5490 H     1 <1>   0.0800 
 47 H       -8.4900     0.4000    -0.7890 H     1 <1>   0.0800 
 48 H       -7.4430    -0.9830    -0.9420 H     1 <1>   0.0800 
 49 H       -7.1910     0.4130    -1.9540 H     1 <1>   0.0800 
 50 H       -2.5920    -5.8420    -2.3510 H     1 <1>   0.1500 
 51 H       -5.2030    -5.7930     1.0140 H     1 <1>   0.1500 
 52 H        0.3860     6.2690    -1.9400 H     1 <1>   0.0800 
 53 H        1.3160     7.7360    -1.7560 H     1 <1>   0.0800 
 54 H       -0.0760     7.4630    -0.7350 H     1 <1>   0.0800 
 55 H       -3.9310    -7.0500    -0.6770 H     1 <1>   0.1500 
@<TRIPOS>BOND
  1   1   2  2   
  2   2   3  am  
  3   2   4  1   
  4   3   5  1   
  5   3   6  1   
  6   4   7  1   
  7   4  26  1   
  8   4  27  1   
  9   5   8  1   
 10   5  28  1   
 11   5  29  1   
 12   6   9  1   
 13   6  30  1   
 14   6  31  1   
 15   7  10  1   
 16   7  32  1   
 17   7  33  1   
 18   8  11  1   
 19   8  12  1   
 20   8  34  1   
 21   9  11  1   
 22   9  13  1   
 23   9  35  1   
 24  10  14  1   
 25  10  36  1   
 26  10  37  1   
 27  12  15  ar  
 28  12  16  ar  
 29  13  17  1   
 30  13  18  1   
 31  13  19  1   
 32  14  20  am  
 33  14  38  1   
 34  15  21  ar  
 35  15  39  1   
 36  16  22  ar  
 37  16  40  1   
 38  17  41  1   
 39  17  42  1   
 40  17  43  1   
 41  18  44  1   
 42  18  45  1   
 43  18  46  1   
 44  19  47  1   
 45  19  48  1   
 46  19  49  1   
 47  20  23  2   
 48  20  24  1   
 49  21  25  ar  
 50  21  50  1   
 51  22  25  ar  
 52  22  51  1   
 53  24  52  1   
 54  24  53  1   
 55  24  54  1   
 56  25  55  1   
@<TRIPOS>SUBSTRUCTURE
  1 ****   3 GROUP 4 **** **** 0

# MOE 2024.06 (io_trps.svl 2023.06)
