@<TRIPOS>MOLECULE
NONAME
47 49 1 0 0 
SMALL
USER_CHARGES


@<TRIPOS>ATOM
  1 O        0.7510     0.3870     1.4890 O.2   1 <1>  -0.5700 
  2 C        1.7120     0.3100     0.7680 C.2   1 <1>   0.5950 
  3 C        2.2930    -0.9460     0.3710 C.2   1 <1>  -0.0860 
  4 C        2.3220     1.5960     0.2570 C.3   1 <1>  -0.1790 
  5 C        3.3300    -1.2220    -0.4860 C.2   1 <1>  -0.3020 
  6 C        1.8640    -2.2040     0.8310 C.2   1 <1>  -0.1500 
  7 N        3.5450    -2.5520    -0.5730 N.pl3 1 <1>   0.0480 
  8 C        2.6270    -3.1570     0.2370 C.2   1 <1>  -0.3320 
  9 C        4.6230    -3.1790    -1.3640 C.3   1 <1>   0.0160 
 10 C        2.5160    -4.6490     0.4230 C.3   1 <1>   0.5230 
 11 N        1.6240    -5.1290    -0.6550 N.4   1 <1>  -0.9590 
 12 C        0.1940    -4.7460    -0.4030 C.3   1 <1>   0.3430 
 13 C        1.6710    -6.6080    -0.8200 C.3   1 <1>   0.3430 
 14 C       -0.5960    -6.0570    -0.2910 C.3   1 <1>   0.2000 
 15 C        0.4470    -7.1480    -0.0840 C.3   1 <1>  -0.0800 
 16 O       -1.4850    -6.0400     0.7710 O.3   1 <1>  -0.6800 
 17 C       -0.0130    -8.5320    -0.5760 C.3   1 <1>   0.0200 
 18 C        1.0940    -9.5560    -0.4110 C.2   1 <1>  -0.0400 
 19 O        2.1960    -9.4400    -1.1030 O.3   1 <1>  -0.0190 
 20 C        1.2060   -10.6480     0.3590 C.2   1 <1>  -0.1500 
 21 N        3.0470   -10.3770    -0.8220 N.2   1 <1>  -0.4100 
 22 C        2.4760   -11.1290     0.0500 C.2   1 <1>   0.1080 
 23 C        3.1060   -12.3660     0.6520 C.3   1 <1>  -0.0590 
 24 H        3.3640     1.6320     0.5140 H     1 <1>   0.0800 
 25 H        1.8240     2.4380     0.7020 H     1 <1>   0.0800 
 26 H        2.2130     1.6490    -0.8100 H     1 <1>   0.0800 
 27 H        3.9240    -0.5090    -1.0320 H     1 <1>   0.1500 
 28 H        1.0580    -2.3170     1.5390 H     1 <1>   0.1500 
 29 H        5.2010    -2.4140    -1.8530 H     1 <1>   0.0800 
 30 H        4.2010    -3.8280    -2.1080 H     1 <1>   0.0800 
 31 H        5.2690    -3.7380    -0.7120 H     1 <1>   0.0800 
 32 H        2.0960    -4.8770     1.3890 H     1 <1>   0.0800 
 33 H        3.4910    -5.1040     0.3490 H     1 <1>   0.0800 
 34 H        1.9420    -4.6520    -1.5080 H     1 <1>   0.4500 
 35 H        0.1060    -4.1820     0.5110 H     1 <1>   0.0800 
 36 H       -0.1880    -4.1540    -1.2190 H     1 <1>   0.0800 
 37 H        1.5920    -6.8580    -1.8660 H     1 <1>   0.0800 
 38 H        2.5840    -7.0330    -0.4320 H     1 <1>   0.0800 
 39 H       -1.1620    -6.2120    -1.1950 H     1 <1>   0.0800 
 40 H        0.7040    -7.2180     0.9590 H     1 <1>   0.0800 
 41 H       -1.0460    -6.0520     1.6450 H     1 <1>   0.4000 
 42 H       -0.3000    -8.4920    -1.6130 H     1 <1>   0.0800 
 43 H       -0.8720    -8.8470    -0.0080 H     1 <1>   0.0800 
 44 H        0.5140   -11.0800     1.0590 H     1 <1>   0.1500 
 45 H        2.4970   -13.2260     0.4400 H     1 <1>   0.0800 
 46 H        3.1990   -12.2500     1.7160 H     1 <1>   0.0800 
 47 H        4.0830   -12.5230     0.2320 H     1 <1>   0.0800 
@<TRIPOS>BOND
  1   1   2  2   
  2   2   3  1   
  3   2   4  1   
  4   3   5  2   
  5   3   6  1   
  6   4  24  1   
  7   4  25  1   
  8   4  26  1   
  9   5   7  1   
 10   5  27  1   
 11   6   8  2   
 12   6  28  1   
 13   7   8  1   
 14   7   9  1   
 15   8  10  1   
 16   9  29  1   
 17   9  30  1   
 18   9  31  1   
 19  10  11  1   
 20  10  32  1   
 21  10  33  1   
 22  11  12  1   
 23  11  13  1   
 24  11  34  1   
 25  12  14  1   
 26  12  35  1   
 27  12  36  1   
 28  13  15  1   
 29  13  37  1   
 30  13  38  1   
 31  14  15  1   
 32  14  16  1   
 33  14  39  1   
 34  15  17  1   
 35  15  40  1   
 36  16  41  1   
 37  17  18  1   
 38  17  42  1   
 39  17  43  1   
 40  18  19  1   
 41  18  20  2   
 42  19  21  1   
 43  20  22  1   
 44  20  44  1   
 45  21  22  2   
 46  22  23  1   
 47  23  45  1   
 48  23  46  1   
 49  23  47  1   
@<TRIPOS>SUBSTRUCTURE
  1 ****  11 GROUP 4 **** **** 0

# MOE 2024.06 (io_trps.svl 2023.06)
