@<TRIPOS>MOLECULE
NONAME
38 40 1 0 0 
SMALL
USER_CHARGES


@<TRIPOS>ATOM
  1 O       -1.3200     0.4990    -2.0190 O.2   1 <1>  -0.5700 
  2 C       -2.0260     1.0350    -1.1820 C.2   1 <1>   0.5440 
  3 N       -3.1180     0.3560    -0.7020 N.am  1 <1>  -0.6600 
  4 C       -1.7400     2.3870    -0.7600 C.ar  1 <1>   0.0860 
  5 C       -4.1100     0.9790     0.2270 C.3   1 <1>   0.2350 
  6 C       -3.0090    -1.1100    -0.4610 C.3   1 <1>   0.2350 
  7 C       -0.9470     2.6860     0.3560 C.ar  1 <1>   0.0820 
  8 C       -2.2730     3.4580    -1.4780 C.ar  1 <1>  -0.1500 
  9 C       -4.6440    -0.1390     1.0990 C.3   1 <1>  -0.2420 
 10 C       -3.9510    -1.4190     0.6890 C.3   1 <1>  -0.2420 
 11 O       -0.3570     1.7270     1.1000 O.3   1 <1>  -0.3620 
 12 C       -0.7090     4.0020     0.7210 C.ar  1 <1>  -0.1500 
 13 C       -2.0360     4.7680    -1.1080 C.ar  1 <1>  -0.1500 
 14 C       -5.0530     0.3940     2.4750 C.2   1 <1>   0.9470 
 15 C       -5.4350    -1.2710     0.4980 C.3   1 <1>  -0.2000 
 16 C       -3.4000    -2.5400     1.5680 C.2   1 <1>   0.9470 
 17 C       -1.1520     1.0020     2.0250 C.3   1 <1>   0.0400 
 18 C       -1.2520     5.0500    -0.0020 C.ar  1 <1>  -0.1430 
 19 O       -6.2290     0.2820     2.8440 O.co2 1 <1>  -0.9000 
 20 O       -4.2440     1.0800     3.1160 O.co2 1 <1>  -0.9000 
 21 O       -3.9860    -3.6310     1.5890 O.co2 1 <1>  -0.9000 
 22 O       -2.3030    -2.3870     2.1220 O.co2 1 <1>  -0.9000 
 23 C       -0.9960     6.4900     0.4030 C.3   1 <1>  -0.0970 
 24 H       -3.6370     1.7300     0.8350 H     1 <1>   0.0800 
 25 H       -4.9120     1.4290    -0.3290 H     1 <1>   0.0800 
 26 H       -3.2920    -1.6590    -1.3410 H     1 <1>   0.0800 
 27 H       -1.9950    -1.3600    -0.1980 H     1 <1>   0.0800 
 28 H       -2.8810     3.2430    -2.3390 H     1 <1>   0.1500 
 29 H       -0.0930     4.1870     1.5820 H     1 <1>   0.1500 
 30 H       -2.4640     5.5710    -1.6830 H     1 <1>   0.1500 
 31 H       -5.8360    -1.1670    -0.4930 H     1 <1>   0.1000 
 32 H       -6.0800    -1.8380     1.1490 H     1 <1>   0.1000 
 33 H       -0.5070     0.5690     2.7660 H     1 <1>   0.0800 
 34 H       -1.6710     0.2130     1.5170 H     1 <1>   0.0800 
 35 H       -1.8560     1.6650     2.4970 H     1 <1>   0.0800 
 36 H       -1.9280     7.0220     0.4710 H     1 <1>   0.0800 
 37 H       -0.3720     6.9700    -0.3290 H     1 <1>   0.0800 
 38 H       -0.5070     6.5360     1.3590 H     1 <1>   0.0800 
@<TRIPOS>BOND
  1   1   2  2   
  2   2   3  am  
  3   2   4  1   
  4   3   5  1   
  5   3   6  1   
  6   4   7  ar  
  7   4   8  ar  
  8   5   9  1   
  9   5  24  1   
 10   5  25  1   
 11   6  10  1   
 12   6  26  1   
 13   6  27  1   
 14   7  11  1   
 15   7  12  ar  
 16   8  13  ar  
 17   8  28  1   
 18   9  10  1   
 19   9  14  1   
 20   9  15  1   
 21  10  15  1   
 22  10  16  1   
 23  11  17  1   
 24  12  18  ar  
 25  12  29  1   
 26  13  18  ar  
 27  13  30  1   
 28  14  19  ar  
 29  14  20  ar  
 30  15  31  1   
 31  15  32  1   
 32  16  21  ar  
 33  16  22  ar  
 34  17  33  1   
 35  17  34  1   
 36  17  35  1   
 37  18  23  1   
 38  23  36  1   
 39  23  37  1   
 40  23  38  1   
@<TRIPOS>SUBSTRUCTURE
  1 ****   5 GROUP 4 **** **** 0

# MOE 2024.06 (io_trps.svl 2023.06)
