@<TRIPOS>MOLECULE
NONAME
42 43 1 0 0 
SMALL
USER_CHARGES


@<TRIPOS>ATOM
  1 S       -0.1250     0.2400    -0.5980 S.o2  1 <1>   1.3330 
  2 O       -0.9250    -0.9530    -0.7510 O.2   1 <1>  -0.6500 
  3 O        0.2450     1.0160    -1.7600 O.2   1 <1>  -0.6500 
  4 N        1.3110    -0.2220     0.1880 N.am  1 <1>  -0.8490 
  5 C       -0.9180     1.3270     0.5970 C.3   1 <1>  -0.0550 
  6 C        1.1150    -1.3000     1.1670 C.3   1 <1>   0.1160 
  7 C        2.3440    -0.6300    -0.7720 C.3   1 <1>   0.1160 
  8 C       -0.3560     2.7610     0.7290 C.3   1 <1>  -0.0800 
  9 C       -0.7690     3.6960    -0.4050 C.3   1 <1>   0.2000 
 10 C        1.1640     2.9120     0.7950 C.3   1 <1>   0.2090 
 11 O       -2.0510     4.1720    -0.1650 O.3   1 <1>  -0.6800 
 12 C        0.2660     4.8250    -0.3970 C.3   1 <1>   0.2090 
 13 N        1.4240     4.3240     0.4080 N.pl3 1 <1>  -0.8380 
 14 C        2.6000     4.9880     0.5880 C.ar  1 <1>   0.1000 
 15 C        2.7460     6.3400     0.2440 C.ar  1 <1>  -0.1500 
 16 C        3.7330     4.3560     1.1210 C.ar  1 <1>  -0.1500 
 17 C        3.9360     7.0010     0.4190 C.ar  1 <1>   0.2180 
 18 C        4.9090     5.0370     1.2870 C.ar  1 <1>   0.2110 
 19 N        5.0000     6.3430     0.9370 N.ar  1 <1>  -0.1790 
 20 C        4.1030     8.4650     0.0480 C.3   1 <1>  -0.0970 
 21 H       -1.9560     1.4100     0.3370 H     1 <1>   0.0800 
 22 H       -0.8800     0.8580     1.5590 H     1 <1>   0.0800 
 23 H        2.0360    -1.5010     1.6860 H     1 <1>   0.0800 
 24 H        0.7890    -2.2020     0.6740 H     1 <1>   0.0800 
 25 H        0.3720    -1.0180     1.8920 H     1 <1>   0.0800 
 26 H        3.2430    -0.9190    -0.2560 H     1 <1>   0.0800 
 27 H        2.5820     0.1880    -1.4320 H     1 <1>   0.0800 
 28 H        1.9950    -1.4600    -1.3660 H     1 <1>   0.0800 
 29 H       -0.7330     3.1720     1.6490 H     1 <1>   0.0800 
 30 H       -0.7660     3.2070    -1.3640 H     1 <1>   0.0800 
 31 H        1.6600     2.2810     0.0810 H     1 <1>   0.0800 
 32 H        1.5280     2.6990     1.7850 H     1 <1>   0.0800 
 33 H       -2.0910     4.6370     0.6930 H     1 <1>   0.4000 
 34 H       -0.1400     5.7090     0.0630 H     1 <1>   0.0800 
 35 H        0.5830     5.0420    -1.4030 H     1 <1>   0.0800 
 36 H        1.9020     6.8620    -0.1640 H     1 <1>   0.1500 
 37 H        3.6790     3.3200     1.3970 H     1 <1>   0.1500 
 38 H        5.7790     4.5470     1.6960 H     1 <1>   0.1500 
 39 H        5.8850     6.8420     1.0640 H     1 <1>   0.4570 
 40 H        3.1850     8.8620    -0.3480 H     1 <1>   0.0800 
 41 H        4.8660     8.5780    -0.7020 H     1 <1>   0.0800 
 42 H        4.3710     9.0450     0.9140 H     1 <1>   0.0800 
@<TRIPOS>BOND
  1   1   2  2   
  2   1   3  2   
  3   1   4  am  
  4   1   5  1   
  5   4   6  1   
  6   4   7  1   
  7   5   8  1   
  8   5  21  1   
  9   5  22  1   
 10   6  23  1   
 11   6  24  1   
 12   6  25  1   
 13   7  26  1   
 14   7  27  1   
 15   7  28  1   
 16   8   9  1   
 17   8  10  1   
 18   8  29  1   
 19   9  11  1   
 20   9  12  1   
 21   9  30  1   
 22  10  13  1   
 23  10  31  1   
 24  10  32  1   
 25  11  33  1   
 26  12  13  1   
 27  12  34  1   
 28  12  35  1   
 29  13  14  1   
 30  14  15  ar  
 31  14  16  ar  
 32  15  17  ar  
 33  15  36  1   
 34  16  18  ar  
 35  16  37  1   
 36  17  19  ar  
 37  17  20  1   
 38  18  19  ar  
 39  18  38  1   
 40  19  39  1   
 41  20  40  1   
 42  20  41  1   
 43  20  42  1   
@<TRIPOS>SUBSTRUCTURE
  1 ****  10 GROUP 4 **** **** 0

# MOE 2024.06 (io_trps.svl 2023.06)
