@<TRIPOS>MOLECULE
NONAME
36 38 1 0 0 
SMALL
USER_CHARGES


@<TRIPOS>ATOM
  1 O       -2.9710     1.1440    -1.6870 O.2   1 <1>  -0.5700 
  2 C       -2.4220     1.1420    -0.5980 C.2   1 <1>   0.7160 
  3 N       -2.1010    -0.0730    -0.0600 N.am  1 <1>  -0.7300 
  4 C       -2.1190     2.3610     0.1450 C.2   1 <1>   0.1410 
  5 C       -2.4600    -1.3780    -0.6550 C.3   1 <1>   0.2200 
  6 N       -2.6540     3.5890    -0.1290 N.2   1 <1>  -0.5650 
  7 C       -1.2830     2.4920     1.2190 C.2   1 <1>  -0.3020 
  8 C       -3.8400    -1.7830    -0.1630 C.3   1 <1>  -0.0800 
  9 C       -1.5860    -2.4730    -0.0570 C.3   1 <1>   0.1200 
 10 C       -2.1430     4.3860     0.7460 C.2   1 <1>   0.0360 
 11 N       -1.2970     3.7760     1.5980 N.pl3 1 <1>   0.0330 
 12 C       -3.5320    -2.4770     1.1710 C.3   1 <1>   0.1200 
 13 C       -4.5440    -2.7190    -1.1620 C.3   1 <1>  -0.0160 
 14 O       -2.1670    -2.7890     1.1710 O.3   1 <1>  -0.5600 
 15 C       -5.9500    -3.0640    -0.6940 C.ar  1 <1>  -0.1430 
 16 C       -6.9710    -2.1370    -0.7440 C.ar  1 <1>  -0.1500 
 17 C       -6.2790    -4.3090    -0.1970 C.ar  1 <1>  -0.1500 
 18 C       -8.2360    -2.4870    -0.3000 C.ar  1 <1>   0.1600 
 19 C       -7.5770    -4.5570     0.2200 C.ar  1 <1>   0.1600 
 20 N       -8.5630    -3.6750     0.1830 N.ar  1 <1>  -0.6200 
 21 H       -1.8020    -0.1180     0.9140 H     1 <1>   0.3700 
 22 H       -2.3840    -1.3310    -1.7290 H     1 <1>   0.0800 
 23 H       -0.6900     1.7420     1.7100 H     1 <1>   0.1500 
 24 H       -4.4640    -0.9200    -0.0090 H     1 <1>   0.0800 
 25 H       -0.5680    -2.1600     0.0910 H     1 <1>   0.0800 
 26 H       -1.6110    -3.3580    -0.6690 H     1 <1>   0.0800 
 27 H       -2.3570     5.4390     0.8050 H     1 <1>   0.1500 
 28 H       -0.7790     4.2170     2.3650 H     1 <1>   0.2700 
 29 H       -4.0940    -3.3830     1.3110 H     1 <1>   0.0800 
 30 H       -3.7140    -1.8130     1.9980 H     1 <1>   0.0800 
 31 H       -3.9730    -3.6210    -1.2990 H     1 <1>   0.0800 
 32 H       -4.6140    -2.2300    -2.1180 H     1 <1>   0.0800 
 33 H       -6.7960    -1.1460    -1.1220 H     1 <1>   0.1500 
 34 H       -5.5430    -5.0880    -0.1280 H     1 <1>   0.1500 
 35 H       -9.0190    -1.7490    -0.3450 H     1 <1>   0.1500 
 36 H       -7.8170    -5.5330     0.6060 H     1 <1>   0.1500 
@<TRIPOS>BOND
  1   1   2  2   
  2   2   3  am  
  3   2   4  1   
  4   3   5  1   
  5   3  21  1   
  6   4   6  1   
  7   4   7  2   
  8   5   8  1   
  9   5   9  1   
 10   5  22  1   
 11   6  10  2   
 12   7  11  1   
 13   7  23  1   
 14   8  12  1   
 15   8  13  1   
 16   8  24  1   
 17   9  14  1   
 18   9  25  1   
 19   9  26  1   
 20  10  11  1   
 21  10  27  1   
 22  11  28  1   
 23  12  14  1   
 24  12  29  1   
 25  12  30  1   
 26  13  15  1   
 27  13  31  1   
 28  13  32  1   
 29  15  16  ar  
 30  15  17  ar  
 31  16  18  ar  
 32  16  33  1   
 33  17  19  ar  
 34  17  34  1   
 35  18  20  ar  
 36  18  35  1   
 37  19  20  ar  
 38  19  36  1   
@<TRIPOS>SUBSTRUCTURE
  1 ****   8 GROUP 4 **** **** 0

# MOE 2024.06 (io_trps.svl 2023.06)
