@<TRIPOS>MOLECULE
NONAME
32 33 1 0 0 
SMALL
USER_CHARGES


@<TRIPOS>ATOM
  1 O        0.2430    -2.3650     1.6360 O.3   1 <1>  -0.2800 
  2 C       -0.0900    -2.5490     0.3770 C.2   1 <1>  -0.0100 
  3 C       -0.8690    -2.2380     2.3310 C.2   1 <1>  -0.0100 
  4 C       -1.4350    -2.5590     0.2380 C.2   1 <1>  -0.1810 
  5 C       -1.9470    -2.3470     1.5270 C.2   1 <1>  -0.1500 
  6 C       -2.2510    -2.7660    -1.0200 C.3   1 <1>   0.5240 
  7 N       -3.0910    -3.9800    -0.8530 N.4   1 <1>  -0.9590 
  8 C       -2.3560    -5.2000    -0.4160 C.3   1 <1>   0.5230 
  9 C       -4.0060    -4.2360    -2.0100 C.3   1 <1>   0.3430 
 10 C       -3.3240    -6.0950     0.3530 C.2   1 <1>   0.0070 
 11 C       -5.3350    -3.4640    -1.8760 C.3   1 <1>   0.1200 
 12 N       -4.5520    -5.7680     0.6230 N.2   1 <1>  -0.5650 
 13 N       -2.9750    -7.3120     0.8360 N.pl3 1 <1>   0.0330 
 14 O       -5.1000    -2.1250    -1.5760 O.3   1 <1>  -0.6800 
 15 C       -5.0270    -6.8230     1.3130 C.2   1 <1>   0.0770 
 16 C       -4.0790    -7.7730     1.4500 C.2   1 <1>  -0.3020 
 17 H        0.7010    -2.6640    -0.3460 H     1 <1>   0.1500 
 18 H       -0.8000    -2.0680     3.3930 H     1 <1>   0.1500 
 19 H       -2.9860    -2.2810     1.8050 H     1 <1>   0.1500 
 20 H       -1.5950    -2.8810    -1.8660 H     1 <1>   0.0800 
 21 H       -2.8710    -1.8990    -1.1860 H     1 <1>   0.0800 
 22 H       -3.7260    -3.7980    -0.0590 H     1 <1>   0.4500 
 23 H       -1.5460    -4.9350     0.2440 H     1 <1>   0.0800 
 24 H       -1.9540    -5.7220    -1.2680 H     1 <1>   0.0800 
 25 H       -4.2450    -5.2860    -2.0560 H     1 <1>   0.0800 
 26 H       -3.5250    -3.9660    -2.9350 H     1 <1>   0.0800 
 27 H       -5.9310    -3.8900    -1.0850 H     1 <1>   0.0800 
 28 H       -5.8910    -3.5170    -2.7970 H     1 <1>   0.0800 
 29 H       -2.0730    -7.7980     0.7740 H     1 <1>   0.2700 
 30 H       -5.9460    -1.6290    -1.5130 H     1 <1>   0.4000 
 31 H       -6.0410    -6.8480     1.6830 H     1 <1>   0.1500 
 32 H       -4.1320    -8.7280     1.9440 H     1 <1>   0.1500 
@<TRIPOS>BOND
  1   1   2  1   
  2   1   3  1   
  3   2   4  2   
  4   2  17  1   
  5   3   5  2   
  6   3  18  1   
  7   4   5  1   
  8   4   6  1   
  9   5  19  1   
 10   6   7  1   
 11   6  20  1   
 12   6  21  1   
 13   7   8  1   
 14   7   9  1   
 15   7  22  1   
 16   8  10  1   
 17   8  23  1   
 18   8  24  1   
 19   9  11  1   
 20   9  25  1   
 21   9  26  1   
 22  10  12  2   
 23  10  13  1   
 24  11  14  1   
 25  11  27  1   
 26  11  28  1   
 27  12  15  1   
 28  13  16  1   
 29  13  29  1   
 30  14  30  1   
 31  15  16  2   
 32  15  31  1   
 33  16  32  1   
@<TRIPOS>SUBSTRUCTURE
  1 ****   7 GROUP 4 **** **** 0

# MOE 2024.06 (io_trps.svl 2023.06)
