@<TRIPOS>MOLECULE
NONAME
48 50 1 0 0 
SMALL
USER_CHARGES


@<TRIPOS>ATOM
  1 O        3.4030    -1.4280     0.3810 O.2   1 <1>  -0.5700 
  2 C        2.2430    -1.2310     0.6470 C.2   1 <1>   0.5690 
  3 N        1.6790    -0.0200     0.4210 N.am  1 <1>  -0.7300 
  4 C        1.4080    -2.3440     1.2480 C.3   1 <1>  -0.0990 
  5 C        2.3790     1.1030    -0.2640 C.3   1 <1>   0.2200 
  6 C        0.3580    -2.8700     0.2550 C.3   1 <1>  -0.1600 
  7 C        3.5970     1.5650     0.5640 C.3   1 <1>   0.4230 
  8 C        1.4990     2.3470    -0.3150 C.3   1 <1>   0.1200 
  9 C       -0.4080    -4.0770     0.8200 C.3   1 <1>   0.0960 
 10 N        4.8650     1.7380    -0.2460 N.4   1 <1>  -0.9590 
 11 C        3.1000     2.8710     1.2140 C.3   1 <1>   0.1200 
 12 O        1.7620     3.0300     0.8620 O.3   1 <1>  -0.5600 
 13 N       -1.4390    -4.5320    -0.1340 N.pl3 1 <1>   0.3140 
 14 C        5.2880     0.4290    -0.8440 C.3   1 <1>   0.3430 
 15 C        5.9790     2.2960     0.5800 C.3   1 <1>   0.3430 
 16 N       -1.1440    -5.0940    -1.2970 N.2   1 <1>  -0.7070 
 17 C       -2.7680    -4.4570    -0.0210 C.2   1 <1>   0.0360 
 18 C        6.4870     0.6430    -1.7690 C.3   1 <1>  -0.1600 
 19 C        7.1960     2.5680    -0.3060 C.3   1 <1>  -0.1600 
 20 C       -2.3130    -5.3180    -1.8020 C.2   1 <1>   0.3660 
 21 N       -3.3580    -4.9420    -1.0530 N.2   1 <1>  -0.5650 
 22 C        7.6600     1.3000    -1.0330 C.3   1 <1>  -0.1600 
 23 H        0.7090     0.1570     0.7010 H     1 <1>   0.3700 
 24 H        2.0690    -3.1450     1.5300 H     1 <1>   0.0800 
 25 H        0.9300    -1.9800     2.1390 H     1 <1>   0.0800 
 26 H        2.6390     0.7910    -1.2590 H     1 <1>   0.0800 
 27 H        0.8560    -3.1710    -0.6530 H     1 <1>   0.0800 
 28 H       -0.3380    -2.0860     0.0140 H     1 <1>   0.0800 
 29 H        3.7820     0.8390     1.3380 H     1 <1>   0.0800 
 30 H        0.4480     2.1220    -0.3760 H     1 <1>   0.0800 
 31 H        1.7800     2.9860    -1.1350 H     1 <1>   0.0800 
 32 H       -0.8860    -3.8200     1.7470 H     1 <1>   0.0800 
 33 H        0.2680    -4.8960     0.9930 H     1 <1>   0.0800 
 34 H        4.6900     2.3920    -1.0180 H     1 <1>   0.4500 
 35 H        3.6310     3.7340     0.8530 H     1 <1>   0.0800 
 36 H        3.1560     2.8230     2.2880 H     1 <1>   0.0800 
 37 H        5.5550    -0.2620    -0.0590 H     1 <1>   0.0800 
 38 H        4.4820    -0.0140    -1.4050 H     1 <1>   0.0800 
 39 H        5.6760     3.2170     1.0520 H     1 <1>   0.0800 
 40 H        6.2480     1.5920     1.3520 H     1 <1>   0.0800 
 41 H       -3.2650    -4.0390     0.8350 H     1 <1>   0.1500 
 42 H        6.8010    -0.3110    -2.1580 H     1 <1>   0.0800 
 43 H        6.1900     1.2490    -2.6080 H     1 <1>   0.0800 
 44 H        6.9560     3.3360    -1.0220 H     1 <1>   0.0800 
 45 H        8.0000     2.9390     0.3050 H     1 <1>   0.0800 
 46 H       -2.4640    -5.7790    -2.7650 H     1 <1>   0.1500 
 47 H        8.4450     1.5410    -1.7320 H     1 <1>   0.0800 
 48 H        8.0650     0.6040    -0.3160 H     1 <1>   0.0800 
@<TRIPOS>BOND
  1   1   2  2   
  2   2   3  am  
  3   2   4  1   
  4   3   5  1   
  5   3  23  1   
  6   4   6  1   
  7   4  24  1   
  8   4  25  1   
  9   5   7  1   
 10   5   8  1   
 11   5  26  1   
 12   6   9  1   
 13   6  27  1   
 14   6  28  1   
 15   7  10  1   
 16   7  11  1   
 17   7  29  1   
 18   8  12  1   
 19   8  30  1   
 20   8  31  1   
 21   9  13  1   
 22   9  32  1   
 23   9  33  1   
 24  10  14  1   
 25  10  15  1   
 26  10  34  1   
 27  11  12  1   
 28  11  35  1   
 29  11  36  1   
 30  13  16  1   
 31  13  17  1   
 32  14  18  1   
 33  14  37  1   
 34  14  38  1   
 35  15  19  1   
 36  15  39  1   
 37  15  40  1   
 38  16  20  2   
 39  17  21  2   
 40  17  41  1   
 41  18  22  1   
 42  18  42  1   
 43  18  43  1   
 44  19  22  1   
 45  19  44  1   
 46  19  45  1   
 47  20  21  1   
 48  20  46  1   
 49  22  47  1   
 50  22  48  1   
@<TRIPOS>SUBSTRUCTURE
  1 ****   2 GROUP 4 **** **** 0

# MOE 2024.06 (io_trps.svl 2023.06)
