@<TRIPOS>MOLECULE
NONAME
49 52 1 0 0 
SMALL
USER_CHARGES


@<TRIPOS>ATOM
  1 O       -3.1880    -1.0780     0.2650 O.2   1 <1>  -0.5700 
  2 C       -2.8450    -0.0270    -0.2510 C.2   1 <1>   0.7160 
  3 N       -3.3360     0.2960    -1.5000 N.am  1 <1>  -0.6600 
  4 C       -1.9600     0.8540     0.4680 C.2   1 <1>  -0.0860 
  5 C       -4.2030    -0.6640    -2.2450 C.3   1 <1>   0.1400 
  6 C       -3.4250     1.6990    -1.9930 C.3   1 <1>   0.1400 
  7 C       -0.7730     1.4070    -0.0200 C.2   1 <1>   0.1390 
  8 C       -2.0310     1.3430     1.7370 C.2   1 <1>  -0.3020 
  9 C       -5.5980    -0.8110    -1.6100 C.3   1 <1>   0.1400 
 10 C       -4.6790     2.4070    -1.4610 C.3   1 <1>  -0.1600 
 11 N       -0.1780     2.1720     0.8400 N.2   1 <1>  -0.7070 
 12 N       -0.9600     2.1250     1.9340 N.pl3 1 <1>   0.3000 
 13 N       -6.0920     0.4370    -0.9340 N.am  1 <1>  -0.6600 
 14 C       -6.0040     1.6830    -1.7420 C.3   1 <1>   0.1400 
 15 C       -6.5020     0.4960     0.3800 C.2   1 <1>   0.5690 
 16 O       -6.8900     1.5340     0.8680 O.2   1 <1>  -0.5700 
 17 C       -6.4760    -0.7090     1.3060 C.3   1 <1>   0.1570 
 18 N       -7.4260    -1.7610     0.8850 N.pl3 1 <1>   0.0480 
 19 C       -7.1060    -3.0610     0.6360 C.ar  1 <1>  -0.1520 
 20 C       -8.7720    -1.6740     0.6700 C.2   1 <1>   0.0070 
 21 C       -8.2910    -3.6720     0.2740 C.ar  1 <1>   0.2270 
 22 C       -5.9090    -3.7850     0.6790 C.ar  1 <1>  -0.1500 
 23 N       -9.3170    -2.7800     0.3040 N.2   1 <1>  -0.5650 
 24 C       -9.5670    -0.3940     0.8450 C.3   1 <1>  -0.0600 
 25 C       -8.3090    -5.0250    -0.0580 C.ar  1 <1>  -0.1500 
 26 C       -5.9340    -5.1220     0.3490 C.ar  1 <1>  -0.1500 
 27 C       -7.1340    -5.7440    -0.0200 C.ar  1 <1>  -0.1500 
 28 H       -3.7280    -1.6300    -2.2680 H     1 <1>   0.0800 
 29 H       -4.3110    -0.3400    -3.2650 H     1 <1>   0.0800 
 30 H       -3.4440     1.6960    -3.0700 H     1 <1>   0.0800 
 31 H       -2.5560     2.2590    -1.6960 H     1 <1>   0.0800 
 32 H       -0.3880     1.2180    -1.0080 H     1 <1>   0.1500 
 33 H       -2.7840     1.1640     2.4830 H     1 <1>   0.1500 
 34 H       -5.5310    -1.6160    -0.9080 H     1 <1>   0.0800 
 35 H       -6.3060    -1.1120    -2.3630 H     1 <1>   0.0800 
 36 H       -4.7270     3.3780    -1.9190 H     1 <1>   0.0800 
 37 H       -4.5790     2.5700    -0.4020 H     1 <1>   0.0800 
 38 H       -0.7250     2.6380     2.7940 H     1 <1>   0.2700 
 39 H       -6.0960     1.4530    -2.7900 H     1 <1>   0.0800 
 40 H       -6.8230     2.3320    -1.4780 H     1 <1>   0.0800 
 41 H       -6.7380    -0.3960     2.2980 H     1 <1>   0.0800 
 42 H       -5.4820    -1.1080     1.3360 H     1 <1>   0.0800 
 43 H       -4.9860    -3.3070     0.9610 H     1 <1>   0.1500 
 44 H       -9.3510     0.0570     1.7960 H     1 <1>   0.0800 
 45 H      -10.6190    -0.6120     0.8000 H     1 <1>   0.0800 
 46 H       -9.3290     0.2990     0.0600 H     1 <1>   0.0800 
 47 H       -9.2440    -5.4730    -0.3350 H     1 <1>   0.1500 
 48 H       -5.0290    -5.7030     0.3730 H     1 <1>   0.1500 
 49 H       -7.1290    -6.7890    -0.2730 H     1 <1>   0.1500 
@<TRIPOS>BOND
  1   1   2  2   
  2   2   3  am  
  3   2   4  1   
  4   3   5  1   
  5   3   6  1   
  6   4   7  1   
  7   4   8  2   
  8   5   9  1   
  9   5  28  1   
 10   5  29  1   
 11   6  10  1   
 12   6  30  1   
 13   6  31  1   
 14   7  11  2   
 15   7  32  1   
 16   8  12  1   
 17   8  33  1   
 18   9  13  1   
 19   9  34  1   
 20   9  35  1   
 21  10  14  1   
 22  10  36  1   
 23  10  37  1   
 24  11  12  1   
 25  12  38  1   
 26  13  14  1   
 27  13  15  am  
 28  14  39  1   
 29  14  40  1   
 30  15  16  2   
 31  15  17  1   
 32  17  18  1   
 33  17  41  1   
 34  17  42  1   
 35  18  19  1   
 36  18  20  1   
 37  19  21  ar  
 38  19  22  ar  
 39  20  23  2   
 40  20  24  1   
 41  21  23  1   
 42  21  25  ar  
 43  22  26  ar  
 44  22  43  1   
 45  24  44  1   
 46  24  45  1   
 47  24  46  1   
 48  25  27  ar  
 49  25  47  1   
 50  26  27  ar  
 51  26  48  1   
 52  27  49  1   
@<TRIPOS>SUBSTRUCTURE
  1 ****   9 GROUP 4 **** **** 0

# MOE 2024.06 (io_trps.svl 2023.06)
