@<TRIPOS>MOLECULE
NONAME
44 46 1 0 0 
SMALL
USER_CHARGES


@<TRIPOS>ATOM
  1 F       -2.4100     2.8620     1.7890 F     1 <1>  -0.3400 
  2 C       -1.1730     2.6100     1.3790 C.3   1 <1>   1.1640 
  3 F       -0.4280     2.6350     2.4790 F     1 <1>  -0.3400 
  4 F       -1.1520     1.3520     0.9630 F     1 <1>  -0.3400 
  5 C       -0.6820     3.6070     0.3160 C.ar  1 <1>  -0.1440 
  6 C       -1.4470     3.8360    -0.8370 C.ar  1 <1>   0.0860 
  7 C        0.5180     4.2940     0.4870 C.ar  1 <1>  -0.1500 
  8 C       -2.7080     3.1700    -1.0970 C.2   1 <1>   0.5440 
  9 C       -0.9770     4.7530    -1.7760 C.ar  1 <1>  -0.1500 
 10 C        0.9620     5.2000    -0.4580 C.ar  1 <1>  -0.1500 
 11 O       -2.6980     2.0280    -1.5110 O.2   1 <1>  -0.5700 
 12 N       -3.9120     3.8020    -0.8830 N.am  1 <1>  -0.6600 
 13 C        0.2120     5.4310    -1.5940 C.ar  1 <1>  -0.1500 
 14 C       -5.1930     3.1010    -1.2010 C.3   1 <1>   0.1400 
 15 C       -4.0160     5.1440    -0.2320 C.3   1 <1>   0.1400 
 16 C       -6.3260     4.1080    -1.4100 C.3   1 <1>  -0.1600 
 17 C       -5.2620     5.1840     0.6500 C.3   1 <1>  -0.1600 
 18 C       -6.5400     5.0250    -0.1920 C.3   1 <1>   0.4180 
 19 O       -6.8810     6.2780    -0.7320 O.3   1 <1>  -0.5600 
 20 C       -7.6790     4.4800     0.6690 C.2   1 <1>  -0.2880 
 21 C       -7.6040     7.1680     0.0750 C.3   1 <1>   0.1200 
 22 C       -8.7920     5.1570     0.9610 C.2   1 <1>  -0.2760 
 23 C       -8.9680     6.5760     0.4540 C.3   1 <1>  -0.0220 
 24 C       -9.9470     4.6070     1.7790 C.3   1 <1>  -0.1020 
 25 H        1.1280     4.1340     1.3610 H     1 <1>   0.1500 
 26 H       -1.5590     4.9290    -2.6640 H     1 <1>   0.1500 
 27 H        1.8920     5.7240    -0.3120 H     1 <1>   0.1500 
 28 H        0.5550     6.1340    -2.3350 H     1 <1>   0.1500 
 29 H       -5.4350     2.4350    -0.3910 H     1 <1>   0.0800 
 30 H       -5.0700     2.5110    -2.0940 H     1 <1>   0.0800 
 31 H       -4.0810     5.9060    -0.9910 H     1 <1>   0.0800 
 32 H       -3.1490     5.3370     0.3750 H     1 <1>   0.0800 
 33 H       -7.2350     3.5810    -1.6310 H     1 <1>   0.0800 
 34 H       -6.0790     4.7000    -2.2730 H     1 <1>   0.0800 
 35 H       -5.2870     6.0970     1.2110 H     1 <1>   0.0800 
 36 H       -5.1910     4.3790     1.3590 H     1 <1>   0.0800 
 37 H       -7.4960     3.4780     1.0100 H     1 <1>   0.1500 
 38 H       -7.7350     8.0810    -0.4780 H     1 <1>   0.0800 
 39 H       -7.0300     7.3780     0.9590 H     1 <1>   0.0800 
 40 H       -9.6190     6.5810    -0.4020 H     1 <1>   0.0800 
 41 H       -9.4070     7.1930     1.2160 H     1 <1>   0.0800 
 42 H      -10.0950     5.2030     2.6610 H     1 <1>   0.0800 
 43 H       -9.7460     3.5940     2.0810 H     1 <1>   0.0800 
 44 H      -10.8500     4.6160     1.1950 H     1 <1>   0.0800 
@<TRIPOS>BOND
  1   1   2  1   
  2   2   3  1   
  3   2   4  1   
  4   2   5  1   
  5   5   6  ar  
  6   5   7  ar  
  7   6   8  1   
  8   6   9  ar  
  9   7  10  ar  
 10   7  25  1   
 11   8  11  2   
 12   8  12  am  
 13   9  13  ar  
 14   9  26  1   
 15  10  13  ar  
 16  10  27  1   
 17  12  14  1   
 18  12  15  1   
 19  13  28  1   
 20  14  16  1   
 21  14  29  1   
 22  14  30  1   
 23  15  17  1   
 24  15  31  1   
 25  15  32  1   
 26  16  18  1   
 27  16  33  1   
 28  16  34  1   
 29  17  18  1   
 30  17  35  1   
 31  17  36  1   
 32  18  19  1   
 33  18  20  1   
 34  19  21  1   
 35  20  22  2   
 36  20  37  1   
 37  21  23  1   
 38  21  38  1   
 39  21  39  1   
 40  22  23  1   
 41  22  24  1   
 42  23  40  1   
 43  23  41  1   
 44  24  42  1   
 45  24  43  1   
 46  24  44  1   
@<TRIPOS>SUBSTRUCTURE
  1 ****  15 GROUP 4 **** **** 0

# MOE 2024.06 (io_trps.svl 2023.06)
