@<TRIPOS>MOLECULE
NONAME
41 43 1 0 0 
SMALL
USER_CHARGES


@<TRIPOS>ATOM
  1 F       -0.7570     2.0250    -2.0970 F     1 <1>  -0.1900 
  2 C       -1.5270     1.7570    -1.0680 C.ar  1 <1>   0.1900 
  3 C       -1.2350     2.3290     0.1770 C.ar  1 <1>   0.1000 
  4 C       -2.6010     0.9140    -1.2730 C.ar  1 <1>  -0.1500 
  5 N       -0.1550     3.1890     0.4250 N.pl3 1 <1>  -0.8380 
  6 C       -2.0860     2.0090     1.2280 C.ar  1 <1>  -0.1500 
  7 C       -3.4290     0.6160    -0.2040 C.ar  1 <1>  -0.1500 
  8 C       -0.2480     4.5230    -0.2380 C.3   1 <1>   0.2090 
  9 C        1.1920     2.5530     0.3250 C.3   1 <1>   0.2090 
 10 C       -3.1690     1.1640     1.0430 C.ar  1 <1>  -0.1500 
 11 C        0.8710     5.4650     0.2530 C.3   1 <1>   0.3430 
 12 C        2.2960     3.5160     0.8100 C.3   1 <1>   0.3430 
 13 N        2.2510     4.8570     0.1120 N.4   1 <1>  -0.9590 
 14 C        3.3370     5.7490     0.6050 C.3   1 <1>   0.3430 
 15 C        3.4670     6.9760    -0.2980 C.3   1 <1>  -0.1600 
 16 C        4.7120     7.8160     0.0490 C.3   1 <1>   0.0960 
 17 N        4.8300     8.9740    -0.8620 N.pl3 1 <1>   0.3140 
 18 N        4.8200     8.8570    -2.1700 N.2   1 <1>  -0.4180 
 19 C        4.9400    10.2580    -0.5790 C.2   1 <1>   0.0360 
 20 N        4.9180    10.0480    -2.6410 N.2   1 <1>   0.0000 
 21 N        4.9930    10.9380    -1.6570 N.2   1 <1>  -0.3380 
 22 H       -2.7860     0.4990    -2.2470 H     1 <1>   0.1500 
 23 H       -1.8930     2.4280     2.1990 H     1 <1>   0.1500 
 24 H       -4.2730    -0.0400    -0.3400 H     1 <1>   0.1500 
 25 H       -1.2060     4.9610    -0.0140 H     1 <1>   0.0800 
 26 H       -0.1820     4.4070    -1.3070 H     1 <1>   0.0800 
 27 H        1.3860     2.2610    -0.6920 H     1 <1>   0.0800 
 28 H        1.2050     1.6630     0.9310 H     1 <1>   0.0800 
 29 H       -3.8130     0.9310     1.8730 H     1 <1>   0.1500 
 30 H        0.6810     5.6940     1.2880 H     1 <1>   0.0800 
 31 H        0.8130     6.3850    -0.3050 H     1 <1>   0.0800 
 32 H        3.2550     3.0510     0.6510 H     1 <1>   0.0800 
 33 H        2.1690     3.6580     1.8710 H     1 <1>   0.0800 
 34 H        2.3990     4.6750    -0.8910 H     1 <1>   0.4500 
 35 H        4.2700     5.2080     0.5960 H     1 <1>   0.0800 
 36 H        3.1340     6.0530     1.6200 H     1 <1>   0.0800 
 37 H        2.5980     7.6010    -0.2000 H     1 <1>   0.0800 
 38 H        3.5510     6.6470    -1.3200 H     1 <1>   0.0800 
 39 H        5.6050     7.2250    -0.0560 H     1 <1>   0.0800 
 40 H        4.6550     8.1800     1.0600 H     1 <1>   0.0800 
 41 H        4.9770    10.6620     0.4150 H     1 <1>   0.1500 
@<TRIPOS>BOND
  1   1   2  1   
  2   2   3  ar  
  3   2   4  ar  
  4   3   5  1   
  5   3   6  ar  
  6   4   7  ar  
  7   4  22  1   
  8   5   8  1   
  9   5   9  1   
 10   6  10  ar  
 11   6  23  1   
 12   7  10  ar  
 13   7  24  1   
 14   8  11  1   
 15   8  25  1   
 16   8  26  1   
 17   9  12  1   
 18   9  27  1   
 19   9  28  1   
 20  10  29  1   
 21  11  13  1   
 22  11  30  1   
 23  11  31  1   
 24  12  13  1   
 25  12  32  1   
 26  12  33  1   
 27  13  14  1   
 28  13  34  1   
 29  14  15  1   
 30  14  35  1   
 31  14  36  1   
 32  15  16  1   
 33  15  37  1   
 34  15  38  1   
 35  16  17  1   
 36  16  39  1   
 37  16  40  1   
 38  17  18  1   
 39  17  19  1   
 40  18  20  2   
 41  19  21  2   
 42  19  41  1   
 43  20  21  1   
@<TRIPOS>SUBSTRUCTURE
  1 ****  11 GROUP 4 **** **** 0

# MOE 2024.06 (io_trps.svl 2023.06)
