@<TRIPOS>MOLECULE
NONAME
41 43 1 0 0 
SMALL
USER_CHARGES


@<TRIPOS>ATOM
  1 S       -0.1010    -0.0160     1.5130 S.3   1 <1>  -0.0800 
  2 C        0.6050     1.4750     0.9420 C.2   1 <1>   0.4620 
  3 C        1.0130    -0.9250     0.5080 C.2   1 <1>  -0.0450 
  4 N        1.5620     1.3170     0.1060 N.2   1 <1>  -0.5650 
  5 N        0.1200     2.6500     1.3940 N.pl3 1 <1>  -0.8840 
  6 C        1.7930    -0.0130    -0.1240 C.2   1 <1>   0.0460 
  7 C        0.9830    -2.3610     0.5150 C.2   1 <1>   0.7150 
  8 C        2.9230    -0.3340    -1.0830 C.3   1 <1>  -0.0590 
  9 O        2.0280    -2.9780     0.6210 O.2   1 <1>  -0.5700 
 10 N       -0.1860    -3.0810     0.3810 N.am  1 <1>  -0.6600 
 11 C       -1.4480    -2.5500    -0.2040 C.3   1 <1>   0.1400 
 12 C       -0.1920    -4.5690     0.3120 C.3   1 <1>   0.1400 
 13 C       -2.4050    -3.7400    -0.2070 C.3   1 <1>   0.2000 
 14 C       -1.4820    -4.9370    -0.4290 C.3   1 <1>  -0.0800 
 15 O       -2.9830    -3.8240     1.0520 O.3   1 <1>  -0.6800 
 16 C       -2.0570    -6.3090    -0.0320 C.3   1 <1>   0.0210 
 17 C       -1.0430    -7.4110    -0.2690 C.2   1 <1>   0.1080 
 18 N       -0.4970    -7.6300    -1.4250 N.2   1 <1>  -0.7070 
 19 C       -0.5810    -8.2900     0.7050 C.2   1 <1>  -0.1500 
 20 N        0.3370    -8.6660    -1.2170 N.pl3 1 <1>   0.3000 
 21 C        0.3050    -9.0830     0.0660 C.2   1 <1>  -0.3320 
 22 C        1.1350   -10.2300     0.6110 C.3   1 <1>  -0.0600 
 23 H       -0.6200     2.7160     2.0930 H     1 <1>   0.4000 
 24 H        0.5440     3.5250     1.0850 H     1 <1>   0.4000 
 25 H        3.0200    -1.3930    -1.2320 H     1 <1>   0.0800 
 26 H        3.8470     0.0450    -0.6860 H     1 <1>   0.0800 
 27 H        2.7350     0.1350    -2.0310 H     1 <1>   0.0800 
 28 H       -1.8550    -1.7330     0.3640 H     1 <1>   0.0800 
 29 H       -1.2590    -2.2280    -1.2140 H     1 <1>   0.0800 
 30 H        0.6710    -4.9440    -0.2150 H     1 <1>   0.0800 
 31 H       -0.1940    -4.9670     1.3120 H     1 <1>   0.0800 
 32 H       -3.1880    -3.6580    -0.9420 H     1 <1>   0.0800 
 33 H       -1.2420    -4.9730    -1.4780 H     1 <1>   0.0800 
 34 H       -2.2780    -3.7360     1.7250 H     1 <1>   0.4000 
 35 H       -2.9330    -6.5150    -0.6200 H     1 <1>   0.0800 
 36 H       -2.3440    -6.3160     1.0040 H     1 <1>   0.0800 
 37 H       -0.8820    -8.3100     1.7370 H     1 <1>   0.1500 
 38 H        0.9130    -9.0640    -1.9690 H     1 <1>   0.2700 
 39 H        0.9330   -10.3690     1.6580 H     1 <1>   0.0800 
 40 H        2.1840   -10.0220     0.4900 H     1 <1>   0.0800 
 41 H        0.8960   -11.1420     0.0930 H     1 <1>   0.0800 
@<TRIPOS>BOND
  1   1   2  1   
  2   1   3  1   
  3   2   4  2   
  4   2   5  1   
  5   3   6  2   
  6   3   7  1   
  7   4   6  1   
  8   5  23  1   
  9   5  24  1   
 10   6   8  1   
 11   7   9  2   
 12   7  10  am  
 13   8  25  1   
 14   8  26  1   
 15   8  27  1   
 16  10  11  1   
 17  10  12  1   
 18  11  13  1   
 19  11  28  1   
 20  11  29  1   
 21  12  14  1   
 22  12  30  1   
 23  12  31  1   
 24  13  14  1   
 25  13  15  1   
 26  13  32  1   
 27  14  16  1   
 28  14  33  1   
 29  15  34  1   
 30  16  17  1   
 31  16  35  1   
 32  16  36  1   
 33  17  18  2   
 34  17  19  1   
 35  18  20  1   
 36  19  21  2   
 37  19  37  1   
 38  20  21  1   
 39  20  38  1   
 40  21  22  1   
 41  22  39  1   
 42  22  40  1   
 43  22  41  1   
@<TRIPOS>SUBSTRUCTURE
  1 ****  10 GROUP 4 **** **** 0

# MOE 2024.06 (io_trps.svl 2023.06)
