@<TRIPOS>MOLECULE
NONAME
48 50 1 0 0 
SMALL
USER_CHARGES


@<TRIPOS>ATOM
  1 O       -0.8490     0.4590     0.6670 O.2   1 <1>  -0.5750 
  2 C       -1.5060     1.4450     0.4510 C.2   1 <1>   0.5640 
  3 N       -2.8200     1.5190     0.0930 N.am  1 <1>  -0.4820 
  4 C       -0.8950     2.8130     0.5640 C.3   1 <1>  -0.1070 
  5 C       -3.7450     0.4670    -0.0700 C.ar  1 <1>   0.1090 
  6 C       -3.2410     2.9230    -0.0720 C.3   1 <1>   0.1320 
  7 C       -2.1210     3.7430     0.5880 C.3   1 <1>  -0.0280 
  8 C       -4.7520     0.5440    -1.0300 C.ar  1 <1>  -0.1580 
  9 C       -3.6900    -0.6710     0.7290 C.ar  1 <1>  -0.1580 
 10 C       -1.9020     5.1050    -0.0590 C.2   1 <1>   0.8490 
 11 C       -5.6740    -0.4750    -1.1750 C.ar  1 <1>  -0.1580 
 12 C       -4.6090    -1.6950     0.5860 C.ar  1 <1>  -0.1580 
 13 O       -2.7520     5.5880    -0.7580 O.2   1 <1>  -0.5750 
 14 N       -0.7400     5.7690     0.1840 N.pl3 1 <1>  -0.7330 
 15 C       -5.6150    -1.6010    -0.3720 C.ar  1 <1>   0.0740 
 16 C       -0.3820     6.9660    -0.2920 C.cat 1 <1>   1.0690 
 17 O       -6.5640    -2.5520    -0.5900 O.3   1 <1>  -0.3690 
 18 N       -1.1070     7.7380    -1.0780 N.pl3 1 <1>  -0.7040 
 19 N        0.7830     7.5630    -0.0310 N.pl3 1 <1>  -0.7670 
 20 C       -6.6270    -3.7520     0.1480 C.3   1 <1>   0.1930 
 21 C       -0.4020     8.8860    -1.3470 C.2   1 <1>   0.1930 
 22 C        0.7710     8.7790    -0.6980 C.2   1 <1>   0.1930 
 23 C        1.9450     7.1210     0.7890 C.3   1 <1>   0.2670 
 24 C       -7.4100    -4.7560    -0.6940 C.3   1 <1>  -0.2470 
 25 C       -7.3350    -3.4820     1.4780 C.3   1 <1>  -0.2470 
 26 H       -0.2810     2.9710    -0.3050 H     1 <1>   0.0720 
 27 H       -0.3060     2.8860     1.4600 H     1 <1>   0.0720 
 28 H       -4.1920     3.0920     0.4060 H     1 <1>   0.0720 
 29 H       -3.3200     3.1360    -1.1240 H     1 <1>   0.0720 
 30 H       -2.4100     3.9040     1.6120 H     1 <1>   0.0720 
 31 H       -4.8210     1.3980    -1.6750 H     1 <1>   0.1420 
 32 H       -2.9210    -0.7600     1.4740 H     1 <1>   0.1420 
 33 H       -6.4490    -0.4080    -1.9170 H     1 <1>   0.1420 
 34 H       -4.5240    -2.5500     1.2270 H     1 <1>   0.1420 
 35 H       -0.0690     5.3170     0.7860 H     1 <1>   0.4440 
 36 H       -2.0440     7.4610    -1.3990 H     1 <1>   0.4440 
 37 H       -5.6290    -4.1240     0.2980 H     1 <1>   0.0720 
 38 H       -0.7790     9.6840    -1.9700 H     1 <1>   0.1420 
 39 H        1.5920     9.4820    -0.6670 H     1 <1>   0.1420 
 40 H        1.8030     6.1210     1.1610 H     1 <1>   0.0720 
 41 H        2.0750     7.7870     1.6260 H     1 <1>   0.0720 
 42 H        2.8420     7.1400     0.1920 H     1 <1>   0.0720 
 43 H       -8.4030    -4.3900    -0.8870 H     1 <1>   0.0720 
 44 H       -7.4820    -5.6940    -0.1760 H     1 <1>   0.0720 
 45 H       -6.9040    -4.9210    -1.6280 H     1 <1>   0.0720 
 46 H       -8.3260    -3.1040     1.3010 H     1 <1>   0.0720 
 47 H       -6.7860    -2.7680     2.0630 H     1 <1>   0.0720 
 48 H       -7.4110    -4.3930     2.0430 H     1 <1>   0.0720 
@<TRIPOS>BOND
  1   1   2  2   
  2   2   3  am  
  3   2   4  1   
  4   3   5  1   
  5   3   6  1   
  6   4   7  1   
  7   4  26  1   
  8   4  27  1   
  9   5   8  ar  
 10   5   9  ar  
 11   6   7  1   
 12   6  28  1   
 13   6  29  1   
 14   7  10  1   
 15   7  30  1   
 16   8  11  ar  
 17   8  31  1   
 18   9  12  ar  
 19   9  32  1   
 20  10  13  2   
 21  10  14  1   
 22  11  15  ar  
 23  11  33  1   
 24  12  15  ar  
 25  12  34  1   
 26  14  16  ar  
 27  14  35  1   
 28  15  17  1   
 29  16  18  ar  
 30  16  19  ar  
 31  17  20  1   
 32  18  21  1   
 33  18  36  1   
 34  19  22  1   
 35  19  23  1   
 36  20  24  1   
 37  20  25  1   
 38  20  37  1   
 39  21  22  2   
 40  21  38  1   
 41  22  39  1   
 42  23  40  1   
 43  23  41  1   
 44  23  42  1   
 45  24  43  1   
 46  24  44  1   
 47  24  45  1   
 48  25  46  1   
 49  25  47  1   
 50  25  48  1   
@<TRIPOS>SUBSTRUCTURE
  1 ****   6 GROUP 4 **** **** 0

# MOE 2024.06 (io_trps.svl 2023.06)
