@<TRIPOS>MOLECULE
NONAME
47 49 1 0 0 
SMALL
USER_CHARGES


@<TRIPOS>ATOM
  1 O        1.3810     0.3350    -2.7280 O.2   1 <1>  -0.5700 
  2 C        2.0790     0.2830    -1.7410 C.2   1 <1>   0.7150 
  3 N        2.2930    -0.9400    -1.1940 N.am  1 <1>  -0.7300 
  4 C        2.6320     1.4560    -1.1310 C.2   1 <1>  -0.2370 
  5 C        2.7210    -1.1210     0.2180 C.3   1 <1>   0.1400 
  6 N        3.8040     1.4730    -0.4490 N.pl3 1 <1>   0.3140 
  7 C        2.1590     2.7260    -1.0600 C.2   1 <1>  -0.1500 
  8 C        4.2320    -0.8700     0.3770 C.3   1 <1>   0.2000 
  9 N        4.0780     2.6740     0.0680 N.2   1 <1>  -0.7070 
 10 C        4.7770     0.3620    -0.3680 C.3   1 <1>   0.0960 
 11 C        3.0740     3.4550    -0.3030 C.2   1 <1>   0.2030 
 12 O        4.8970    -1.9820    -0.1180 O.3   1 <1>  -0.6800 
 13 C        2.9370     4.8660     0.0260 C.2   1 <1>   0.7160 
 14 O        1.9650     5.5170    -0.3180 O.2   1 <1>  -0.5700 
 15 N        3.9230     5.4810     0.7460 N.am  1 <1>  -0.7300 
 16 C        3.9700     6.8980     1.1550 C.3   1 <1>   0.1400 
 17 C        5.3020     7.5010     0.7120 C.3   1 <1>  -0.1600 
 18 C        5.3880     8.9860     1.0840 C.3   1 <1>  -0.0170 
 19 C        6.7230     9.5680     0.6500 C.ar  1 <1>  -0.1430 
 20 C        6.8830    10.0710    -0.6310 C.ar  1 <1>  -0.1500 
 21 C        7.7940     9.6020     1.5290 C.ar  1 <1>  -0.1500 
 22 C        8.0980    10.6030    -1.0270 C.ar  1 <1>  -0.1500 
 23 C        9.0090    10.1340     1.1320 C.ar  1 <1>  -0.1500 
 24 C        9.1680    10.6360    -0.1490 C.ar  1 <1>  -0.1430 
 25 C       10.5000    11.2210    -0.5830 C.3   1 <1>  -0.0970 
 26 H        1.7430    -1.6910    -1.6180 H     1 <1>   0.3700 
 27 H        2.4760    -2.1140     0.5570 H     1 <1>   0.0800 
 28 H        2.1800    -0.4240     0.8380 H     1 <1>   0.0800 
 29 H        1.2530     3.1180    -1.4900 H     1 <1>   0.1500 
 30 H        4.4760    -0.7960     1.4230 H     1 <1>   0.0800 
 31 H        5.6620     0.7180     0.1270 H     1 <1>   0.0800 
 32 H        5.0360     0.0960    -1.3760 H     1 <1>   0.0800 
 33 H        4.5740    -2.1880    -1.0190 H     1 <1>   0.4000 
 34 H        4.7150     4.8850     1.0030 H     1 <1>   0.3700 
 35 H        3.8700     6.9590     2.2260 H     1 <1>   0.0800 
 36 H        3.1530     7.4370     0.7040 H     1 <1>   0.0800 
 37 H        5.3990     7.4020    -0.3550 H     1 <1>   0.0800 
 38 H        6.1130     6.9740     1.1820 H     1 <1>   0.0800 
 39 H        5.2730     9.1040     2.1470 H     1 <1>   0.0800 
 40 H        4.5900     9.5290     0.6070 H     1 <1>   0.0800 
 41 H        6.0630    10.0510    -1.3260 H     1 <1>   0.1500 
 42 H        7.6880     9.2140     2.5260 H     1 <1>   0.1500 
 43 H        8.2060    10.9910    -2.0240 H     1 <1>   0.1500 
 44 H        9.8300    10.1550     1.8260 H     1 <1>   0.1500 
 45 H       10.6460    11.0790    -1.6390 H     1 <1>   0.0800 
 46 H       11.3090    10.7420    -0.0620 H     1 <1>   0.0800 
 47 H       10.5210    12.2740    -0.3670 H     1 <1>   0.0800 
@<TRIPOS>BOND
  1   1   2  2   
  2   2   3  am  
  3   2   4  1   
  4   3   5  1   
  5   3  26  1   
  6   4   6  1   
  7   4   7  2   
  8   5   8  1   
  9   5  27  1   
 10   5  28  1   
 11   6   9  1   
 12   6  10  1   
 13   7  11  1   
 14   7  29  1   
 15   8  10  1   
 16   8  12  1   
 17   8  30  1   
 18   9  11  2   
 19  10  31  1   
 20  10  32  1   
 21  11  13  1   
 22  12  33  1   
 23  13  14  2   
 24  13  15  am  
 25  15  16  1   
 26  15  34  1   
 27  16  17  1   
 28  16  35  1   
 29  16  36  1   
 30  17  18  1   
 31  17  37  1   
 32  17  38  1   
 33  18  19  1   
 34  18  39  1   
 35  18  40  1   
 36  19  20  ar  
 37  19  21  ar  
 38  20  22  ar  
 39  20  41  1   
 40  21  23  ar  
 41  21  42  1   
 42  22  24  ar  
 43  22  43  1   
 44  23  24  ar  
 45  23  44  1   
 46  24  25  1   
 47  25  45  1   
 48  25  46  1   
 49  25  47  1   
@<TRIPOS>SUBSTRUCTURE
  1 ****  15 GROUP 4 **** **** 0

# MOE 2024.06 (io_trps.svl 2023.06)
