@<TRIPOS>MOLECULE
NONAME
39 41 1 0 0 
SMALL
USER_CHARGES


@<TRIPOS>ATOM
  1 O        0.5790     3.0310    -0.3320 O.co2 1 <1>  -0.9000 
  2 C        1.6610     2.9100     0.2590 C.2   1 <1>   0.9470 
  3 O        1.8880     3.5490     1.2980 O.co2 1 <1>  -0.9000 
  4 C        2.8180     2.1380    -0.3940 C.3   1 <1>  -0.2420 
  5 C        3.1410     0.6660    -0.5070 C.3   1 <1>  -0.2420 
  6 C        4.1320     2.8690    -0.1820 C.3   1 <1>   0.2350 
  7 C        2.5450     1.3970    -1.6810 C.3   1 <1>  -0.2000 
  8 C        2.4230    -0.5590     0.0600 C.2   1 <1>   0.9470 
  9 C        4.6480     0.5000    -0.3960 C.3   1 <1>   0.2350 
 10 N        5.1950     1.8780    -0.5030 N.am  1 <1>  -0.6600 
 11 O        1.8080    -1.3090    -0.7100 O.co2 1 <1>  -0.9000 
 12 O        2.6070    -0.8660     1.2450 O.co2 1 <1>  -0.9000 
 13 C        6.4850     2.1730    -0.8370 C.2   1 <1>   0.5690 
 14 O        7.3000     1.3100    -1.0830 O.2   1 <1>  -0.5700 
 15 C        6.9350     3.6260    -0.9490 C.3   1 <1>   0.1810 
 16 O        6.8270     4.3030     0.2970 O.3   1 <1>  -0.3630 
 17 C        6.6130     5.6400     0.2400 C.ar  1 <1>   0.0830 
 18 C        7.5230     6.5250    -0.3490 C.ar  1 <1>   0.0830 
 19 C        5.4330     6.1250     0.7790 C.ar  1 <1>  -0.1500 
 20 O        8.7120     6.1180    -0.8580 O.3   1 <1>  -0.3620 
 21 C        7.2170     7.8740    -0.4240 C.ar  1 <1>  -0.1500 
 22 C        5.1400     7.4760     0.7100 C.ar  1 <1>  -0.1500 
 23 C        9.6660     5.6680     0.0780 C.3   1 <1>   0.0400 
 24 C        6.0280     8.3500     0.1040 C.ar  1 <1>  -0.1500 
 25 H        4.2320     3.1600     0.8490 H     1 <1>   0.0800 
 26 H        4.1840     3.7360    -0.8150 H     1 <1>   0.0800 
 27 H        3.1510     1.5920    -2.5460 H     1 <1>   0.1000 
 28 H        1.5220     1.1740    -1.9340 H     1 <1>   0.1000 
 29 H        5.0270    -0.1330    -1.1790 H     1 <1>   0.0800 
 30 H        4.9060     0.0870     0.5650 H     1 <1>   0.0800 
 31 H        6.3230     4.1310    -1.6740 H     1 <1>   0.0800 
 32 H        7.9600     3.6630    -1.2640 H     1 <1>   0.0800 
 33 H        4.7370     5.4460     1.2450 H     1 <1>   0.1500 
 34 H        7.9130     8.5460    -0.8930 H     1 <1>   0.1500 
 35 H        4.2150     7.8400     1.1250 H     1 <1>   0.1500 
 36 H       10.5740     5.4370    -0.4500 H     1 <1>   0.0800 
 37 H        9.2960     4.7870     0.5720 H     1 <1>   0.0800 
 38 H        9.8440     6.4500     0.7950 H     1 <1>   0.0800 
 39 H        5.7930     9.3980     0.0460 H     1 <1>   0.1500 
@<TRIPOS>BOND
  1   1   2  ar  
  2   2   3  ar  
  3   2   4  1   
  4   4   5  1   
  5   4   6  1   
  6   4   7  1   
  7   5   7  1   
  8   5   8  1   
  9   5   9  1   
 10   6  10  1   
 11   6  25  1   
 12   6  26  1   
 13   7  27  1   
 14   7  28  1   
 15   8  11  ar  
 16   8  12  ar  
 17   9  10  1   
 18   9  29  1   
 19   9  30  1   
 20  10  13  am  
 21  13  14  2   
 22  13  15  1   
 23  15  16  1   
 24  15  31  1   
 25  15  32  1   
 26  16  17  1   
 27  17  18  ar  
 28  17  19  ar  
 29  18  20  1   
 30  18  21  ar  
 31  19  22  ar  
 32  19  33  1   
 33  20  23  1   
 34  21  24  ar  
 35  21  34  1   
 36  22  24  ar  
 37  22  35  1   
 38  23  36  1   
 39  23  37  1   
 40  23  38  1   
 41  24  39  1   
@<TRIPOS>SUBSTRUCTURE
  1 ****   6 GROUP 4 **** **** 0

# MOE 2024.06 (io_trps.svl 2023.06)
