@<TRIPOS>MOLECULE
NONAME
40 42 1 0 0 
SMALL
USER_CHARGES


@<TRIPOS>ATOM
  1 O        1.0220     0.0970     1.1800 O.3   1 <1>  -0.6800 
  2 C        1.4110    -0.4840    -0.0250 C.3   1 <1>   0.2000 
  3 C        2.2940    -1.6910     0.2920 C.3   1 <1>  -0.0800 
  4 C        2.3710     0.4710    -0.7390 C.3   1 <1>   0.3430 
  5 C        3.6750    -1.0700     0.5720 C.3   1 <1>   0.3430 
  6 C        2.3330    -2.6890    -0.8870 C.3   1 <1>  -0.0170 
  7 N        3.6790     0.2850    -0.0520 N.4   1 <1>  -0.9590 
  8 C        3.0730    -3.9710    -0.5300 C.ar  1 <1>   0.1670 
  9 C        3.8970     1.3730     0.9370 C.3   1 <1>   0.5230 
 10 N        4.3830    -3.8710    -0.3770 N.ar  1 <1>  -0.6200 
 11 C        2.3710    -5.1680    -0.3850 C.ar  1 <1>   0.1600 
 12 C        4.3160     2.6210     0.1720 C.2   1 <1>   0.0070 
 13 C        4.9420    -5.0360    -0.0830 C.ar  1 <1>   0.1600 
 14 N        2.9260    -6.3270    -0.0800 N.ar  1 <1>  -0.6200 
 15 N        4.8110     2.5810    -1.0290 N.2   1 <1>  -0.5650 
 16 N        4.2100     3.8770     0.6750 N.pl3 1 <1>   0.0480 
 17 C        4.2360    -6.2240     0.0620 C.ar  1 <1>   0.1600 
 18 C        5.0420     3.8730    -1.3250 C.2   1 <1>   0.0770 
 19 C        4.6800     4.6730    -0.3000 C.2   1 <1>  -0.3020 
 20 C        3.7020     4.3290     1.9860 C.3   1 <1>   0.0160 
 21 H        0.2780    -0.3980     1.5870 H     1 <1>   0.4000 
 22 H        0.5320    -0.7060    -0.6070 H     1 <1>   0.0800 
 23 H        1.9360    -2.2140     1.1620 H     1 <1>   0.0800 
 24 H        2.0260     1.4910    -0.6960 H     1 <1>   0.0800 
 25 H        2.4660     0.1760    -1.7700 H     1 <1>   0.0800 
 26 H        4.4720    -1.6710     0.1670 H     1 <1>   0.0800 
 27 H        3.8170    -0.9860     1.6370 H     1 <1>   0.0800 
 28 H        2.8130    -2.2470    -1.7440 H     1 <1>   0.0800 
 29 H        1.3270    -2.9380    -1.1760 H     1 <1>   0.0800 
 30 H        4.4380     0.4270    -0.7420 H     1 <1>   0.4500 
 31 H        2.9950     1.5550     1.4980 H     1 <1>   0.0800 
 32 H        4.6870     1.1030     1.6170 H     1 <1>   0.0800 
 33 H        1.3050    -5.1730    -0.5260 H     1 <1>   0.1500 
 34 H        6.0090    -5.0550     0.0500 H     1 <1>   0.1500 
 35 H        4.7770    -7.1230     0.3040 H     1 <1>   0.1500 
 36 H        5.4640     4.1680    -2.2730 H     1 <1>   0.1500 
 37 H        4.7370     5.7440    -0.2210 H     1 <1>   0.1500 
 38 H        3.6960     5.4040     2.0160 H     1 <1>   0.0800 
 39 H        4.3410     3.9590     2.7670 H     1 <1>   0.0800 
 40 H        2.6990     3.9700     2.1310 H     1 <1>   0.0800 
@<TRIPOS>BOND
  1   1   2  1   
  2   1  21  1   
  3   2   3  1   
  4   2   4  1   
  5   2  22  1   
  6   3   5  1   
  7   3   6  1   
  8   3  23  1   
  9   4   7  1   
 10   4  24  1   
 11   4  25  1   
 12   5   7  1   
 13   5  26  1   
 14   5  27  1   
 15   6   8  1   
 16   6  28  1   
 17   6  29  1   
 18   7   9  1   
 19   7  30  1   
 20   8  10  ar  
 21   8  11  ar  
 22   9  12  1   
 23   9  31  1   
 24   9  32  1   
 25  10  13  ar  
 26  11  14  ar  
 27  11  33  1   
 28  12  15  2   
 29  12  16  1   
 30  13  17  ar  
 31  13  34  1   
 32  14  17  ar  
 33  15  18  1   
 34  16  19  1   
 35  16  20  1   
 36  17  35  1   
 37  18  19  2   
 38  18  36  1   
 39  19  37  1   
 40  20  38  1   
 41  20  39  1   
 42  20  40  1   
@<TRIPOS>SUBSTRUCTURE
  1 ****   5 GROUP 4 **** **** 0

# MOE 2024.06 (io_trps.svl 2023.06)
