@<TRIPOS>MOLECULE
NONAME
45 48 1 0 0 
SMALL
USER_CHARGES


@<TRIPOS>ATOM
  1 F        0.5040    -0.1590     1.7830 F     1 <1>  -0.1370 
  2 C        1.6060    -0.4050     1.1200 C.2   1 <1>  -0.0150 
  3 N        2.0130    -1.6570     0.9030 N.pl3 1 <1>   0.3340 
  4 C        2.4730     0.4890     0.5690 C.2   1 <1>   0.1410 
  5 C        3.1780    -1.4790     0.1880 C.2   1 <1>   0.1420 
  6 C        1.5420    -2.9240     1.2240 C.2   1 <1>  -0.1810 
  7 N        3.4790    -0.2160    -0.0270 N.2   1 <1>  -0.5650 
  8 C        2.4220     1.9360     0.5700 C.2   1 <1>   0.7160 
  9 C        3.8960    -2.6340    -0.2210 C.2   1 <1>  -0.1050 
 10 C        2.2350    -4.0240     0.8300 C.2   1 <1>  -0.1500 
 11 O        1.5580     2.5570     1.1630 O.2   1 <1>  -0.5700 
 12 N        3.4120     2.5940    -0.1170 N.am  1 <1>  -0.4940 
 13 C        3.4420    -3.8810     0.0890 C.2   1 <1>  -0.1380 
 14 C        3.6840     3.9730    -0.2800 C.2   1 <1>  -0.0880 
 15 C        4.1810    -5.1390    -0.3310 C.3   1 <1>  -0.1020 
 16 N        4.9310     4.5210    -0.2180 N.pl3 1 <1>   0.3140 
 17 C        2.8310     4.9960    -0.5320 C.2   1 <1>  -0.1810 
 18 N        4.8910     5.8590    -0.4360 N.2   1 <1>  -0.7070 
 19 C        6.1980     3.7860     0.0660 C.3   1 <1>   0.1760 
 20 C        3.6360     6.1270    -0.6130 C.2   1 <1>   0.1390 
 21 C        1.3250     4.9760    -0.7100 C.3   1 <1>  -0.0590 
 22 C        7.0820     4.4550     1.1200 C.3   1 <1>  -0.1600 
 23 C        7.1060     3.6730    -1.1600 C.3   1 <1>  -0.1600 
 24 C        8.4670     3.8530     0.8840 C.3   1 <1>  -0.1600 
 25 C        8.5270     3.5000    -0.6080 C.3   1 <1>  -0.1600 
 26 H        0.6260    -2.9660     1.7850 H     1 <1>   0.1500 
 27 H        4.8010    -2.4730    -0.7790 H     1 <1>   0.1500 
 28 H        1.8930    -5.0180     1.0650 H     1 <1>   0.1500 
 29 H        4.0740     1.9320    -0.5310 H     1 <1>   0.3700 
 30 H        3.5490    -5.7470    -0.9540 H     1 <1>   0.0800 
 31 H        4.4620    -5.7080     0.5380 H     1 <1>   0.0800 
 32 H        5.0710    -4.8950    -0.8820 H     1 <1>   0.0800 
 33 H        5.9590     2.7980     0.4130 H     1 <1>   0.0800 
 34 H        3.2680     7.1200    -0.8050 H     1 <1>   0.1500 
 35 H        1.0050     4.0150    -1.0690 H     1 <1>   0.0800 
 36 H        1.0220     5.7260    -1.4180 H     1 <1>   0.0800 
 37 H        0.8470     5.1680     0.2340 H     1 <1>   0.0800 
 38 H        6.7260     4.2710     2.1180 H     1 <1>   0.0800 
 39 H        7.1270     5.5160     0.9420 H     1 <1>   0.0800 
 40 H        7.0600     4.5890    -1.7260 H     1 <1>   0.0800 
 41 H        6.8200     2.8490    -1.7900 H     1 <1>   0.0800 
 42 H        8.5730     2.9550     1.4680 H     1 <1>   0.0800 
 43 H        9.2460     4.5430     1.1620 H     1 <1>   0.0800 
 44 H        9.2060     4.1560    -1.1270 H     1 <1>   0.0800 
 45 H        8.8640     2.4850    -0.7340 H     1 <1>   0.0800 
@<TRIPOS>BOND
  1   1   2  1   
  2   2   3  1   
  3   2   4  2   
  4   3   5  1   
  5   3   6  1   
  6   4   7  1   
  7   4   8  1   
  8   5   7  2   
  9   5   9  1   
 10   6  10  2   
 11   6  26  1   
 12   8  11  2   
 13   8  12  am  
 14   9  13  2   
 15   9  27  1   
 16  10  13  1   
 17  10  28  1   
 18  12  14  1   
 19  12  29  1   
 20  13  15  1   
 21  14  16  1   
 22  14  17  2   
 23  15  30  1   
 24  15  31  1   
 25  15  32  1   
 26  16  18  1   
 27  16  19  1   
 28  17  20  1   
 29  17  21  1   
 30  18  20  2   
 31  19  22  1   
 32  19  23  1   
 33  19  33  1   
 34  20  34  1   
 35  21  35  1   
 36  21  36  1   
 37  21  37  1   
 38  22  24  1   
 39  22  38  1   
 40  22  39  1   
 41  23  25  1   
 42  23  40  1   
 43  23  41  1   
 44  24  25  1   
 45  24  42  1   
 46  24  43  1   
 47  25  44  1   
 48  25  45  1   
@<TRIPOS>SUBSTRUCTURE
  1 ****  12 GROUP 4 **** **** 0

# MOE 2024.06 (io_trps.svl 2023.06)
