@<TRIPOS>MOLECULE
NONAME
54 56 1 0 0 
SMALL
USER_CHARGES


@<TRIPOS>ATOM
  1 O        0.5420    -0.0950     1.0280 O.2   1 <1>  -0.5700 
  2 C        1.2450    -0.5710     0.1580 C.2   1 <1>   0.5440 
  3 N        1.9980     0.2640    -0.6270 N.am  1 <1>  -0.7300 
  4 C        1.2740    -2.0050    -0.0650 C.ar  1 <1>   0.0860 
  5 C        2.0350     1.7480    -0.6100 C.3   1 <1>   0.2200 
  6 C        0.1610    -2.7940     0.2180 C.ar  1 <1>  -0.1500 
  7 C        2.4040    -2.6520    -0.5640 C.ar  1 <1>  -0.1500 
  8 C        2.2410     2.3060     0.8100 C.3   1 <1>  -0.0160 
  9 C        0.7610     2.2620    -1.2830 C.3   1 <1>  -0.2400 
 10 C        0.1330    -4.1650     0.0010 C.ar  1 <1>   0.1000 
 11 C        2.4120    -4.0170    -0.7870 C.ar  1 <1>  -0.1500 
 12 C        3.0590     3.5890     0.7940 C.ar  1 <1>   0.1670 
 13 N       -1.0290    -4.8970     0.2970 N.pl3 1 <1>  -0.8380 
 14 C        1.2860    -4.7840    -0.5140 C.ar  1 <1>   0.0830 
 15 N        2.4850     4.6590     0.2650 N.ar  1 <1>  -0.6200 
 16 C        4.3420     3.5860     1.3210 C.ar  1 <1>  -0.1500 
 17 C       -2.3880    -4.3150     0.1080 C.3   1 <1>   0.2090 
 18 C       -0.9770    -5.8500     1.4420 C.3   1 <1>   0.2090 
 19 O        1.2600    -6.1320    -0.7330 O.3   1 <1>  -0.3620 
 20 C        3.2060     5.7670     0.2580 C.ar  1 <1>   0.1670 
 21 C        5.0880     4.7440     1.3090 C.ar  1 <1>  -0.1500 
 22 C       -3.4460    -5.4330     0.0620 C.3   1 <1>   0.1200 
 23 C       -2.1100    -6.8860     1.3280 C.3   1 <1>   0.1200 
 24 C        2.2800    -6.7930    -1.4460 C.3   1 <1>   0.0400 
 25 C        4.4940     5.8590     0.7600 C.ar  1 <1>  -0.1500 
 26 C        2.5350     6.9810    -0.3470 C.3   1 <1>  -0.0970 
 27 O       -3.3590    -6.2600     1.1920 O.3   1 <1>  -0.5600 
 28 H        2.4280    -0.1420    -1.4580 H     1 <1>   0.3700 
 29 H        2.8790     2.0540    -1.2060 H     1 <1>   0.0800 
 30 H       -0.7050    -2.3100     0.6280 H     1 <1>   0.1500 
 31 H        3.2930    -2.0840    -0.7730 H     1 <1>   0.1500 
 32 H        2.7530     1.5750     1.4080 H     1 <1>   0.0800 
 33 H        1.2910     2.4990     1.2740 H     1 <1>   0.0800 
 34 H       -0.1050     1.9780    -0.7130 H     1 <1>   0.0800 
 35 H        0.6780     1.8680    -2.2790 H     1 <1>   0.0800 
 36 H        0.7850     3.3350    -1.3460 H     1 <1>   0.0800 
 37 H        3.3090    -4.4650    -1.1690 H     1 <1>   0.1500 
 38 H        4.7580     2.6880     1.7400 H     1 <1>   0.1500 
 39 H       -2.4140    -3.7550    -0.8100 H     1 <1>   0.0800 
 40 H       -2.6150    -3.6490     0.9230 H     1 <1>   0.0800 
 41 H       -1.0800    -5.3070     2.3650 H     1 <1>   0.0800 
 42 H       -0.0280    -6.3560     1.4550 H     1 <1>   0.0800 
 43 H        6.0870     4.7770     1.7090 H     1 <1>   0.1500 
 44 H       -3.3070    -6.0370    -0.8180 H     1 <1>   0.0800 
 45 H       -4.4330    -5.0080     0.0400 H     1 <1>   0.0800 
 46 H       -2.1420    -7.4980     2.2110 H     1 <1>   0.0800 
 47 H       -1.9460    -7.5170     0.4720 H     1 <1>   0.0800 
 48 H        1.9870    -7.8200    -1.5690 H     1 <1>   0.0800 
 49 H        3.1930    -6.7390    -0.8810 H     1 <1>   0.0800 
 50 H        2.3910    -6.3270    -2.4090 H     1 <1>   0.0800 
 51 H        5.0280     6.7900     0.7240 H     1 <1>   0.1500 
 52 H        1.6340     7.1980     0.1960 H     1 <1>   0.0800 
 53 H        2.2800     6.7760    -1.3710 H     1 <1>   0.0800 
 54 H        3.1790     7.8400    -0.3120 H     1 <1>   0.0800 
@<TRIPOS>BOND
  1   1   2  2   
  2   2   3  am  
  3   2   4  1   
  4   3   5  1   
  5   3  28  1   
  6   4   6  ar  
  7   4   7  ar  
  8   5   8  1   
  9   5   9  1   
 10   5  29  1   
 11   6  10  ar  
 12   6  30  1   
 13   7  11  ar  
 14   7  31  1   
 15   8  12  1   
 16   8  32  1   
 17   8  33  1   
 18   9  34  1   
 19   9  35  1   
 20   9  36  1   
 21  10  13  1   
 22  10  14  ar  
 23  11  14  ar  
 24  11  37  1   
 25  12  15  ar  
 26  12  16  ar  
 27  13  17  1   
 28  13  18  1   
 29  14  19  1   
 30  15  20  ar  
 31  16  21  ar  
 32  16  38  1   
 33  17  22  1   
 34  17  39  1   
 35  17  40  1   
 36  18  23  1   
 37  18  41  1   
 38  18  42  1   
 39  19  24  1   
 40  20  25  ar  
 41  20  26  1   
 42  21  25  ar  
 43  21  43  1   
 44  22  27  1   
 45  22  44  1   
 46  22  45  1   
 47  23  27  1   
 48  23  46  1   
 49  23  47  1   
 50  24  48  1   
 51  24  49  1   
 52  24  50  1   
 53  25  51  1   
 54  26  52  1   
 55  26  53  1   
 56  26  54  1   
@<TRIPOS>SUBSTRUCTURE
  1 ****   2 GROUP 4 **** **** 0

# MOE 2024.06 (io_trps.svl 2023.06)
