@<TRIPOS>MOLECULE
NONAME
56 59 1 0 0 
SMALL
USER_CHARGES


@<TRIPOS>ATOM
  1 O        0.2580     4.3810     2.7370 O.2   1 <1>  -0.5700 
  2 C        0.6330     3.6950     1.8170 C.2   1 <1>   0.5690 
  3 N        0.3530     3.9150     0.5170 N.am  1 <1>  -0.6600 
  4 C        1.5290     2.4990     1.9820 C.3   1 <1>  -0.0990 
  5 C        1.0540     2.9890    -0.3890 C.3   1 <1>   0.1400 
  6 C       -0.4170     5.0850    -0.0180 C.3   1 <1>   0.2010 
  7 C        1.6770     1.9470     0.5520 C.3   1 <1>  -0.1600 
  8 C        0.3190     5.8940    -1.0960 C.2   1 <1>   0.5690 
  9 O       -0.1920     5.9170    -2.1940 O.2   1 <1>  -0.5700 
 10 N        1.5000     6.5590    -0.8520 N.am  1 <1>  -0.6600 
 11 C        2.1790     6.5650     0.4920 C.3   1 <1>   0.2200 
 12 C        2.2690     7.0560    -2.0350 C.3   1 <1>   0.1400 
 13 C        2.4810     7.9930     0.9900 C.3   1 <1>   0.1200 
 14 C        3.4010     5.6170     0.5590 C.3   1 <1>   0.1100 
 15 C        3.6800     7.6070    -1.7550 C.3   1 <1>  -0.0800 
 16 O        3.6670     8.5300     0.4850 O.3   1 <1>  -0.5600 
 17 N        4.0890     5.3490    -0.7300 N.3   1 <1>  -0.8100 
 18 C        3.6500     8.8590    -0.8640 C.3   1 <1>   0.1200 
 19 C        4.7120     6.5520    -1.2950 C.3   1 <1>   0.1100 
 20 C        4.9730     4.1600    -0.6630 C.3   1 <1>   0.2900 
 21 C        5.7700     4.0170     0.6350 C.2   1 <1>   0.0060 
 22 N        5.3320     3.3370     1.6520 N.2   1 <1>  -0.5650 
 23 N        6.9990     4.5590     0.8380 N.pl3 1 <1>   0.0480 
 24 C        6.3120     3.4500     2.5650 C.2   1 <1>   0.0770 
 25 C        7.3340     4.1880     2.0870 C.2   1 <1>  -0.3020 
 26 C        7.8600     5.3370    -0.0780 C.3   1 <1>   0.0960 
 27 C        8.8470     4.4150    -0.7990 C.3   1 <1>  -0.2400 
 28 H        2.4780     2.8170     2.3750 H     1 <1>   0.0800 
 29 H        1.0790     1.7830     2.6430 H     1 <1>   0.0800 
 30 H        0.3630     2.5370    -1.0800 H     1 <1>   0.0800 
 31 H        1.8180     3.5220    -0.9310 H     1 <1>   0.0800 
 32 H       -1.3340     4.7180    -0.4420 H     1 <1>   0.0800 
 33 H       -0.6790     5.7450     0.7890 H     1 <1>   0.0800 
 34 H        1.1400     1.0200     0.4590 H     1 <1>   0.0800 
 35 H        2.7100     1.7740     0.3060 H     1 <1>   0.0800 
 36 H        1.4850     6.1970     1.2210 H     1 <1>   0.0800 
 37 H        2.3590     6.2440    -2.7360 H     1 <1>   0.0800 
 38 H        1.6830     7.8220    -2.5130 H     1 <1>   0.0800 
 39 H        2.5990     7.9610     2.0580 H     1 <1>   0.0800 
 40 H        1.6650     8.6560     0.7640 H     1 <1>   0.0800 
 41 H        3.0520     4.6800     0.9500 H     1 <1>   0.0800 
 42 H        4.1070     6.0000     1.2770 H     1 <1>   0.0800 
 43 H        4.0320     7.9610    -2.7060 H     1 <1>   0.0800 
 44 H        2.7880     9.4710    -1.0680 H     1 <1>   0.0800 
 45 H        4.5320     9.4460    -1.0450 H     1 <1>   0.0800 
 46 H        5.3870     6.9840    -0.5760 H     1 <1>   0.0800 
 47 H        5.2860     6.2610    -2.1570 H     1 <1>   0.0800 
 48 H        4.3460     3.2900    -0.7430 H     1 <1>   0.0800 
 49 H        5.6350     4.1410    -1.5090 H     1 <1>   0.0800 
 50 H        6.2290     2.9850     3.5340 H     1 <1>   0.1500 
 51 H        8.2600     4.4600     2.5590 H     1 <1>   0.1500 
 52 H        7.2500     5.8480    -0.7960 H     1 <1>   0.0800 
 53 H        8.3940     6.0730     0.4970 H     1 <1>   0.0800 
 54 H        8.3190     3.6800    -1.3810 H     1 <1>   0.0800 
 55 H        9.4790     3.9140    -0.0860 H     1 <1>   0.0800 
 56 H        9.4700     4.9910    -1.4590 H     1 <1>   0.0800 
@<TRIPOS>BOND
  1   1   2  2   
  2   2   3  am  
  3   2   4  1   
  4   3   5  1   
  5   3   6  1   
  6   4   7  1   
  7   4  28  1   
  8   4  29  1   
  9   5   7  1   
 10   5  30  1   
 11   5  31  1   
 12   6   8  1   
 13   6  32  1   
 14   6  33  1   
 15   7  34  1   
 16   7  35  1   
 17   8   9  2   
 18   8  10  am  
 19  10  11  1   
 20  10  12  1   
 21  11  13  1   
 22  11  14  1   
 23  11  36  1   
 24  12  15  1   
 25  12  37  1   
 26  12  38  1   
 27  13  16  1   
 28  13  39  1   
 29  13  40  1   
 30  14  17  1   
 31  14  41  1   
 32  14  42  1   
 33  15  18  1   
 34  15  19  1   
 35  15  43  1   
 36  16  18  1   
 37  17  19  1   
 38  17  20  1   
 39  18  44  1   
 40  18  45  1   
 41  19  46  1   
 42  19  47  1   
 43  20  21  1   
 44  20  48  1   
 45  20  49  1   
 46  21  22  2   
 47  21  23  1   
 48  22  24  1   
 49  23  25  1   
 50  23  26  1   
 51  24  25  2   
 52  24  50  1   
 53  25  51  1   
 54  26  27  1   
 55  26  52  1   
 56  26  53  1   
 57  27  54  1   
 58  27  55  1   
 59  27  56  1   
@<TRIPOS>SUBSTRUCTURE
  1 ****  14 GROUP 4 **** **** 0

# MOE 2024.06 (io_trps.svl 2023.06)
