@<TRIPOS>MOLECULE
NONAME
47 49 1 0 0 
SMALL
USER_CHARGES


@<TRIPOS>ATOM
  1 F       -0.3730     0.3560     0.2810 F     1 <1>  -0.1900 
  2 C       -1.6360     0.6830     0.1770 C.ar  1 <1>   0.1900 
  3 C       -2.0430     1.9380    -0.2890 C.ar  1 <1>   0.0830 
  4 C       -2.5520    -0.2780     0.5570 C.ar  1 <1>  -0.1500 
  5 O       -1.2400     2.9640    -0.6920 O.3   1 <1>  -0.3630 
  6 C       -3.4040     2.1860    -0.3590 C.ar  1 <1>  -0.1500 
  7 C       -3.9030     0.0040     0.4760 C.ar  1 <1>  -0.1500 
  8 C        0.1670     2.8690    -0.7360 C.3   1 <1>   0.0400 
  9 C       -4.3630     1.2410     0.0150 C.ar  1 <1>   0.0530 
 10 C       -5.7720     1.5490    -0.0730 C.2   1 <1>   0.0870 
 11 O       -6.1740     2.7940    -0.0380 O.3   1 <1>  -0.0190 
 12 C       -6.8890     0.7820    -0.1850 C.2   1 <1>  -0.0860 
 13 N       -7.4720     2.9170    -0.1210 N.2   1 <1>  -0.4100 
 14 C       -7.9300     1.7180    -0.2230 C.2   1 <1>   0.3720 
 15 C       -7.0190    -0.6390    -0.2680 C.2   1 <1>   0.7160 
 16 N       -9.2980     1.4200    -0.3540 N.pl3 1 <1>  -0.8210 
 17 O       -6.4590    -1.2260    -1.1770 O.2   1 <1>  -0.5700 
 18 N       -7.7260    -1.3760     0.6610 N.am  1 <1>  -0.6600 
 19 C      -10.2510     2.5220    -0.0410 C.3   1 <1>   0.1290 
 20 C       -9.6880     0.6360    -1.5610 C.3   1 <1>   0.1290 
 21 C       -7.9880    -2.8240     0.4530 C.3   1 <1>   0.2350 
 22 C       -8.4080    -0.7630     1.8360 C.3   1 <1>   0.0600 
 23 C       -9.3140    -3.0040    -0.2920 C.3   1 <1>  -0.1950 
 24 C      -10.6350    -2.9710     0.4100 C.3   1 <1>  -0.2000 
 25 C      -10.1070    -4.2640    -0.1450 C.3   1 <1>  -0.2000 
 26 H       -2.2100    -1.2340     0.9100 H     1 <1>   0.1500 
 27 H       -3.7240     3.1480    -0.7190 H     1 <1>   0.1500 
 28 H       -4.6050    -0.7510     0.7790 H     1 <1>   0.1500 
 29 H        0.5530     3.7990    -1.1130 H     1 <1>   0.0800 
 30 H        0.4440     2.0660    -1.3960 H     1 <1>   0.0800 
 31 H        0.5380     2.6980     0.2590 H     1 <1>   0.0800 
 32 H       -9.9870     2.9770     0.8980 H     1 <1>   0.0800 
 33 H      -11.2520     2.1340     0.0320 H     1 <1>   0.0800 
 34 H      -10.2120     3.2720    -0.8130 H     1 <1>   0.0800 
 35 H       -8.8190     0.2990    -2.0990 H     1 <1>   0.0800 
 36 H      -10.2820     1.2390    -2.2260 H     1 <1>   0.0800 
 37 H      -10.2610    -0.2230    -1.2590 H     1 <1>   0.0800 
 38 H       -8.0250    -3.3240     1.4050 H     1 <1>   0.0800 
 39 H       -7.1920    -3.2710    -0.1190 H     1 <1>   0.0800 
 40 H       -7.9310     0.1600     2.1180 H     1 <1>   0.0800 
 41 H       -8.3740    -1.4320     2.6770 H     1 <1>   0.0800 
 42 H       -9.4350    -0.5580     1.5890 H     1 <1>   0.0800 
 43 H       -9.2620    -2.5940    -1.2860 H     1 <1>   0.1000 
 44 H      -11.4650    -2.4940    -0.0810 H     1 <1>   0.1000 
 45 H      -10.6620    -2.8460     1.4780 H     1 <1>   0.1000 
 46 H       -9.7770    -5.0210     0.5460 H     1 <1>   0.1000 
 47 H      -10.5780    -4.6820    -1.0180 H     1 <1>   0.1000 
@<TRIPOS>BOND
  1   1   2  1   
  2   2   3  ar  
  3   2   4  ar  
  4   3   5  1   
  5   3   6  ar  
  6   4   7  ar  
  7   4  26  1   
  8   5   8  1   
  9   6   9  ar  
 10   6  27  1   
 11   7   9  ar  
 12   7  28  1   
 13   8  29  1   
 14   8  30  1   
 15   8  31  1   
 16   9  10  1   
 17  10  11  1   
 18  10  12  2   
 19  11  13  1   
 20  12  14  1   
 21  12  15  1   
 22  13  14  2   
 23  14  16  1   
 24  15  17  2   
 25  15  18  am  
 26  16  19  1   
 27  16  20  1   
 28  18  21  1   
 29  18  22  1   
 30  19  32  1   
 31  19  33  1   
 32  19  34  1   
 33  20  35  1   
 34  20  36  1   
 35  20  37  1   
 36  21  23  1   
 37  21  38  1   
 38  21  39  1   
 39  22  40  1   
 40  22  41  1   
 41  22  42  1   
 42  23  24  1   
 43  23  25  1   
 44  23  43  1   
 45  24  25  1   
 46  24  44  1   
 47  24  45  1   
 48  25  46  1   
 49  25  47  1   
@<TRIPOS>SUBSTRUCTURE
  1 ****  12 GROUP 4 **** **** 0

# MOE 2024.06 (io_trps.svl 2023.06)
