@<TRIPOS>MOLECULE
NONAME
51 52 1 0 0 
SMALL
USER_CHARGES


@<TRIPOS>ATOM
  1 S        1.3720     0.2110     0.8380 S.o2  1 <1>   1.3330 
  2 O        1.5650     0.9280     2.0780 O.2   1 <1>  -0.6500 
  3 O        1.7330    -1.1870     0.7570 O.2   1 <1>  -0.6500 
  4 N       -0.2610     0.3470     0.3940 N.am  1 <1>  -0.8490 
  5 C        2.2240     1.1070    -0.4580 C.3   1 <1>  -0.0550 
  6 C       -1.1590     0.2680     1.5500 C.3   1 <1>   0.1160 
  7 C       -0.6740    -0.6220    -0.6260 C.3   1 <1>   0.1160 
  8 C        3.7400     1.2250    -0.2240 C.3   1 <1>  -0.0800 
  9 C        4.4390     1.9830    -1.3400 C.3   1 <1>   0.2200 
 10 C        4.4900    -0.1020    -0.2050 C.3   1 <1>   0.1200 
 11 N        4.5790     3.4070    -0.9750 N.am  1 <1>  -0.7300 
 12 C        5.7860     1.2720    -1.4900 C.3   1 <1>   0.1200 
 13 O        5.7910     0.2230    -0.5710 O.3   1 <1>  -0.5600 
 14 C        3.7280     4.3920    -1.3560 C.2   1 <1>   0.5690 
 15 O        2.7730     4.1610    -2.0560 O.2   1 <1>  -0.5700 
 16 C        3.9640     5.8180    -0.8830 C.3   1 <1>   0.0440 
 17 C        5.2920     5.9920    -0.1520 C.ar  1 <1>  -0.1440 
 18 C        5.3680     5.7910     1.2180 C.ar  1 <1>  -0.1500 
 19 C        6.4380     6.3360    -0.8530 C.ar  1 <1>  -0.1500 
 20 C        6.5770     5.9290     1.8760 C.ar  1 <1>  -0.1500 
 21 C        7.6490     6.4750    -0.1970 C.ar  1 <1>  -0.1500 
 22 C        7.7240     6.2700     1.1780 C.ar  1 <1>   0.0820 
 23 O        8.8660     6.3820     1.8980 O.3   1 <1>  -0.3630 
 24 C       10.0870     6.7300     1.2880 C.3   1 <1>   0.1200 
 25 C       11.1600     6.7720     2.3710 C.3   1 <1>  -0.2400 
 26 H        2.0450     0.6270    -1.4000 H     1 <1>   0.0800 
 27 H        1.8130     2.0980    -0.5160 H     1 <1>   0.0800 
 28 H       -2.1830     0.3760     1.2360 H     1 <1>   0.0800 
 29 H       -0.9360     1.0610     2.2450 H     1 <1>   0.0800 
 30 H       -1.0380    -0.6770     2.0530 H     1 <1>   0.0800 
 31 H       -1.6890    -0.4310    -0.9280 H     1 <1>   0.0800 
 32 H       -0.6060    -1.6270    -0.2410 H     1 <1>   0.0800 
 33 H       -0.0420    -0.5410    -1.4940 H     1 <1>   0.0800 
 34 H        3.9210     1.7100     0.7210 H     1 <1>   0.0800 
 35 H        3.8980     1.8970    -2.2680 H     1 <1>   0.0800 
 36 H        4.1010    -0.7930    -0.9340 H     1 <1>   0.0800 
 37 H        4.4990    -0.5600     0.7700 H     1 <1>   0.0800 
 38 H        5.3500     3.6430    -0.3400 H     1 <1>   0.3700 
 39 H        6.6190     1.9180    -1.2740 H     1 <1>   0.0800 
 40 H        5.8880     0.8510    -2.4740 H     1 <1>   0.0800 
 41 H        3.9310     6.4670    -1.7380 H     1 <1>   0.0800 
 42 H        3.1530     6.0960    -0.2360 H     1 <1>   0.0800 
 43 H        4.4890     5.5250     1.7810 H     1 <1>   0.1500 
 44 H        6.3950     6.4950    -1.9170 H     1 <1>   0.1500 
 45 H        6.6400     5.7740     2.9380 H     1 <1>   0.1500 
 46 H        8.5160     6.7410    -0.7690 H     1 <1>   0.1500 
 47 H       10.3220     5.9850     0.5480 H     1 <1>   0.0800 
 48 H        9.9740     7.6960     0.8270 H     1 <1>   0.0800 
 49 H       11.2530     5.8060     2.8360 H     1 <1>   0.0800 
 50 H       10.9060     7.5050     3.1150 H     1 <1>   0.0800 
 51 H       12.1070     7.0360     1.9360 H     1 <1>   0.0800 
@<TRIPOS>BOND
  1   1   2  2   
  2   1   3  2   
  3   1   4  am  
  4   1   5  1   
  5   4   6  1   
  6   4   7  1   
  7   5   8  1   
  8   5  26  1   
  9   5  27  1   
 10   6  28  1   
 11   6  29  1   
 12   6  30  1   
 13   7  31  1   
 14   7  32  1   
 15   7  33  1   
 16   8   9  1   
 17   8  10  1   
 18   8  34  1   
 19   9  11  1   
 20   9  12  1   
 21   9  35  1   
 22  10  13  1   
 23  10  36  1   
 24  10  37  1   
 25  11  14  am  
 26  11  38  1   
 27  12  13  1   
 28  12  39  1   
 29  12  40  1   
 30  14  15  2   
 31  14  16  1   
 32  16  17  1   
 33  16  41  1   
 34  16  42  1   
 35  17  18  ar  
 36  17  19  ar  
 37  18  20  ar  
 38  18  43  1   
 39  19  21  ar  
 40  19  44  1   
 41  20  22  ar  
 42  20  45  1   
 43  21  22  ar  
 44  21  46  1   
 45  22  23  1   
 46  23  24  1   
 47  24  25  1   
 48  24  47  1   
 49  24  48  1   
 50  25  49  1   
 51  25  50  1   
 52  25  51  1   
@<TRIPOS>SUBSTRUCTURE
  1 ****  11 GROUP 4 **** **** 0

# MOE 2024.06 (io_trps.svl 2023.06)
