@<TRIPOS>MOLECULE
NONAME
52 55 1 0 0 
SMALL
USER_CHARGES


@<TRIPOS>ATOM
  1 O       -0.6170     0.4070     1.4220 O.2   1 <1>  -0.5700 
  2 C       -1.5950     1.0700     1.1360 C.2   1 <1>   0.5440 
  3 N       -2.7830     0.4260     0.8750 N.am  1 <1>  -0.6600 
  4 C       -1.4800     2.5140     1.0560 C.ar  1 <1>   0.0860 
  5 C       -3.8590     0.9690     0.0040 C.3   1 <1>   0.1400 
  6 C       -2.9480    -1.0420     1.0020 C.3   1 <1>   0.1400 
  7 C       -0.4420     3.1180     0.3780 C.ar  1 <1>  -0.1500 
  8 C       -2.4230     3.3540     1.6830 C.ar  1 <1>  -0.1500 
  9 C       -4.7120    -0.2370    -0.4220 C.3   1 <1>   0.2000 
 10 C       -3.7860    -1.4390    -0.2130 C.3   1 <1>  -0.0800 
 11 C       -0.3130     4.5090     0.2760 C.ar  1 <1>   0.3100 
 12 C       -2.3240     4.7180     1.6050 C.ar  1 <1>  -0.1500 
 13 O       -5.8140    -0.3640     0.4330 O.3   1 <1>  -0.5600 
 14 C       -4.5070    -2.7900    -0.0500 C.3   1 <1>   0.0200 
 15 N        0.7270     5.0300    -0.4230 N.ar  1 <1>  -0.6200 
 16 C       -1.2780     5.3330     0.9020 C.ar  1 <1>   0.3100 
 17 C       -6.9410     0.3660     0.0620 C.3   1 <1>   0.0400 
 18 C       -3.5540    -3.9740    -0.0220 C.2   1 <1>  -0.0400 
 19 C        0.7580     6.3250    -0.4610 C.ar  1 <1>   0.1670 
 20 N       -1.2200     6.6860     0.8420 N.ar  1 <1>  -0.6200 
 21 O       -4.0410    -5.1660     0.1960 O.3   1 <1>  -0.0190 
 22 C       -2.2260    -4.1000    -0.1840 C.2   1 <1>  -0.1500 
 23 C       -0.2130     7.1510     0.1700 C.ar  1 <1>   0.1670 
 24 C        1.9130     6.9410    -1.2330 C.3   1 <1>  -0.0970 
 25 N       -3.1140    -6.0810     0.1920 N.2   1 <1>  -0.4100 
 26 C       -2.0090    -5.4660    -0.0340 C.2   1 <1>   0.1080 
 27 C       -0.1130     8.6650     0.0830 C.3   1 <1>  -0.0970 
 28 C       -0.6600    -6.1430    -0.1220 C.3   1 <1>  -0.0590 
 29 H       -4.4500     1.6960     0.5310 H     1 <1>   0.0800 
 30 H       -3.4110     1.4230    -0.8630 H     1 <1>   0.0800 
 31 H       -2.0000    -1.5510     1.0190 H     1 <1>   0.0800 
 32 H       -3.4820    -1.2520     1.9130 H     1 <1>   0.0800 
 33 H        0.3100     2.5130    -0.0970 H     1 <1>   0.1500 
 34 H       -3.2250     2.8960     2.2370 H     1 <1>   0.1500 
 35 H       -5.0550    -0.1670    -1.4400 H     1 <1>   0.0800 
 36 H       -3.1280    -1.4970    -1.0620 H     1 <1>   0.0800 
 37 H       -3.0430     5.3580     2.0840 H     1 <1>   0.1500 
 38 H       -5.1930    -2.9280    -0.8660 H     1 <1>   0.0800 
 39 H       -5.0810    -2.7900     0.8610 H     1 <1>   0.0800 
 40 H       -7.7030     0.2020     0.8030 H     1 <1>   0.0800 
 41 H       -7.2900     0.0190    -0.8960 H     1 <1>   0.0800 
 42 H       -6.6970     1.4140     0.0210 H     1 <1>   0.0800 
 43 H       -1.4730    -3.3600    -0.3830 H     1 <1>   0.1500 
 44 H        1.5390     7.5310    -2.0490 H     1 <1>   0.0800 
 45 H        2.5460     6.1710    -1.6360 H     1 <1>   0.0800 
 46 H        2.5050     7.5580    -0.5830 H     1 <1>   0.0800 
 47 H        0.8070     9.0010     0.5250 H     1 <1>   0.0800 
 48 H       -0.9280     9.1260     0.6130 H     1 <1>   0.0800 
 49 H       -0.1560     8.9810    -0.9430 H     1 <1>   0.0800 
 50 H        0.0170    -5.7000     0.5850 H     1 <1>   0.0800 
 51 H       -0.2620    -6.0330    -1.1130 H     1 <1>   0.0800 
 52 H       -0.7600    -7.1900     0.1000 H     1 <1>   0.0800 
@<TRIPOS>BOND
  1   1   2  2   
  2   2   3  am  
  3   2   4  1   
  4   3   5  1   
  5   3   6  1   
  6   4   7  ar  
  7   4   8  ar  
  8   5   9  1   
  9   5  29  1   
 10   5  30  1   
 11   6  10  1   
 12   6  31  1   
 13   6  32  1   
 14   7  11  ar  
 15   7  33  1   
 16   8  12  ar  
 17   8  34  1   
 18   9  10  1   
 19   9  13  1   
 20   9  35  1   
 21  10  14  1   
 22  10  36  1   
 23  11  15  ar  
 24  11  16  ar  
 25  12  16  ar  
 26  12  37  1   
 27  13  17  1   
 28  14  18  1   
 29  14  38  1   
 30  14  39  1   
 31  15  19  ar  
 32  16  20  ar  
 33  17  40  1   
 34  17  41  1   
 35  17  42  1   
 36  18  21  1   
 37  18  22  2   
 38  19  23  ar  
 39  19  24  1   
 40  20  23  ar  
 41  21  25  1   
 42  22  26  1   
 43  22  43  1   
 44  23  27  1   
 45  24  44  1   
 46  24  45  1   
 47  24  46  1   
 48  25  26  2   
 49  26  28  1   
 50  27  47  1   
 51  27  48  1   
 52  27  49  1   
 53  28  50  1   
 54  28  51  1   
 55  28  52  1   
@<TRIPOS>SUBSTRUCTURE
  1 ****   2 GROUP 4 **** **** 0

# MOE 2024.06 (io_trps.svl 2023.06)
