@<TRIPOS>MOLECULE
NONAME
49 51 1 0 0 
SMALL
USER_CHARGES


@<TRIPOS>ATOM
  1 O        1.2870     0.3830     1.0230 O.2   1 <1>  -0.5700 
  2 C        2.0240    -0.3050     0.3380 C.2   1 <1>   0.7150 
  3 N        2.9350     0.3420    -0.4790 N.am  1 <1>  -0.6600 
  4 C        1.9160    -1.7480     0.4170 C.2   1 <1>   0.0550 
  5 C        3.7560    -0.3290    -1.5360 C.3   1 <1>   0.1400 
  6 C        3.1810     1.8050    -0.3640 C.3   1 <1>   0.1400 
  7 O        2.9860    -2.5290     0.3160 O.3   1 <1>  -0.2800 
  8 C        0.8340    -2.5320     0.6170 C.2   1 <1>   0.0460 
  9 C        5.2130    -0.5450    -1.0920 C.3   1 <1>   0.1400 
 10 C        4.2280     2.0990     0.7200 C.3   1 <1>  -0.1600 
 11 C        2.4650    -3.7300     0.4610 C.2   1 <1>   0.2980 
 12 N        1.2010    -3.8070     0.6380 N.2   1 <1>  -0.5650 
 13 C       -0.6260    -2.1710     0.8050 C.3   1 <1>  -0.0590 
 14 N        5.8500     0.7200    -0.6020 N.am  1 <1>  -0.6600 
 15 C        5.4160     1.1260     0.7650 C.3   1 <1>   0.1400 
 16 C        3.3990    -4.9150     0.4070 C.3   1 <1>  -0.0600 
 17 C        6.7870     1.3900    -1.3560 C.2   1 <1>   0.5690 
 18 O        7.1260     0.9670    -2.4440 O.2   1 <1>  -0.5700 
 19 C        7.4460     2.6970    -0.8490 C.3   1 <1>   0.4040 
 20 O        7.9810     3.4390    -1.9010 O.3   1 <1>  -0.6800 
 21 C        8.5620     2.4450     0.1640 C.ar  1 <1>  -0.1440 
 22 C        8.6920     3.2810     1.2640 C.ar  1 <1>  -0.1500 
 23 C        9.4510     1.3880     0.0120 C.ar  1 <1>  -0.1500 
 24 C        9.6830     3.0580     2.2040 C.ar  1 <1>  -0.1500 
 25 C       10.4410     1.1640     0.9520 C.ar  1 <1>  -0.1500 
 26 C       10.5570     1.9970     2.0500 C.ar  1 <1>  -0.1500 
 27 H        3.7530     0.2750    -2.4260 H     1 <1>   0.0800 
 28 H        3.3200    -1.2750    -1.8030 H     1 <1>   0.0800 
 29 H        2.2630     2.3180    -0.1320 H     1 <1>   0.0800 
 30 H        3.5310     2.1830    -1.3090 H     1 <1>   0.0800 
 31 H        5.7690    -0.9430    -1.9220 H     1 <1>   0.0800 
 32 H        5.2420    -1.2850    -0.3120 H     1 <1>   0.0800 
 33 H        3.7390     2.0770     1.6780 H     1 <1>   0.0800 
 34 H        4.5870     3.1010     0.5820 H     1 <1>   0.0800 
 35 H       -0.7810    -1.1130     0.7020 H     1 <1>   0.0800 
 36 H       -0.9470    -2.4750     1.7840 H     1 <1>   0.0800 
 37 H       -1.2210    -2.6810     0.0700 H     1 <1>   0.0800 
 38 H        5.1200     0.2460     1.3110 H     1 <1>   0.0800 
 39 H        6.2350     1.5670     1.3080 H     1 <1>   0.0800 
 40 H        3.8920    -4.9450    -0.5460 H     1 <1>   0.0800 
 41 H        2.8420    -5.8240     0.5440 H     1 <1>   0.0800 
 42 H        4.1330    -4.8320     1.1870 H     1 <1>   0.0800 
 43 H        6.6900     3.3130    -0.4020 H     1 <1>   0.0800 
 44 H        8.3210     2.7980    -2.5580 H     1 <1>   0.4000 
 45 H        8.0250     4.1160     1.3930 H     1 <1>   0.1500 
 46 H        9.3800     0.7320    -0.8390 H     1 <1>   0.1500 
 47 H        9.7770     3.7110     3.0540 H     1 <1>   0.1500 
 48 H       11.1240     0.3410     0.8260 H     1 <1>   0.1500 
 49 H       11.3280     1.8220     2.7800 H     1 <1>   0.1500 
@<TRIPOS>BOND
  1   1   2  2   
  2   2   3  am  
  3   2   4  1   
  4   3   5  1   
  5   3   6  1   
  6   4   7  1   
  7   4   8  2   
  8   5   9  1   
  9   5  27  1   
 10   5  28  1   
 11   6  10  1   
 12   6  29  1   
 13   6  30  1   
 14   7  11  1   
 15   8  12  1   
 16   8  13  1   
 17   9  14  1   
 18   9  31  1   
 19   9  32  1   
 20  10  15  1   
 21  10  33  1   
 22  10  34  1   
 23  11  12  2   
 24  11  16  1   
 25  13  35  1   
 26  13  36  1   
 27  13  37  1   
 28  14  15  1   
 29  14  17  am  
 30  15  38  1   
 31  15  39  1   
 32  16  40  1   
 33  16  41  1   
 34  16  42  1   
 35  17  18  2   
 36  17  19  1   
 37  19  20  1   
 38  19  21  1   
 39  19  43  1   
 40  20  44  1   
 41  21  22  ar  
 42  21  23  ar  
 43  22  24  ar  
 44  22  45  1   
 45  23  25  ar  
 46  23  46  1   
 47  24  26  ar  
 48  24  47  1   
 49  25  26  ar  
 50  25  48  1   
 51  26  49  1   
@<TRIPOS>SUBSTRUCTURE
  1 ****  14 GROUP 4 **** **** 0

# MOE 2024.06 (io_trps.svl 2023.06)
