@<TRIPOS>MOLECULE
NONAME
48 51 1 0 0 
SMALL
USER_CHARGES


@<TRIPOS>ATOM
  1 O       -0.9610     1.8120    -1.9040 O.3   1 <1>  -0.0190 
  2 N       -0.9640     3.0910    -1.8470 N.2   1 <1>  -0.4100 
  3 C       -1.1320     1.3030    -0.7140 C.2   1 <1>   0.4250 
  4 C       -1.1350     3.3360    -0.6030 C.2   1 <1>   0.3350 
  5 N       -1.2590     2.2400     0.1600 N.2   1 <1>  -0.5650 
  6 C       -1.1560    -0.1290    -0.5080 C.ar  1 <1>   0.0530 
  7 C       -1.2100     4.7370     0.0090 C.3   1 <1>   0.2910 
  8 C       -1.2360    -0.6670     0.7780 C.ar  1 <1>  -0.1500 
  9 C       -1.1000    -1.0300    -1.5740 C.ar  1 <1>  -0.1500 
 10 N        0.0960     5.3530     0.3840 N.3   1 <1>  -0.8100 
 11 C       -1.2590    -2.0330     0.9920 C.ar  1 <1>  -0.1500 
 12 C       -1.1230    -2.3970    -1.3670 C.ar  1 <1>  -0.1500 
 13 C       -0.0730     6.6750     1.0370 C.3   1 <1>   0.2530 
 14 C        0.9750     4.4730     1.1950 C.3   1 <1>   0.1100 
 15 C       -1.2030    -2.9020    -0.0820 C.ar  1 <1>  -0.1500 
 16 C       -1.0220     7.6340     0.3100 C.ar  1 <1>   0.1670 
 17 C        1.9210     3.6210     0.3310 C.3   1 <1>   0.2000 
 18 N       -0.5640     8.2420    -0.7760 N.ar  1 <1>  -0.6200 
 19 C       -2.3010     7.8270     0.8160 C.ar  1 <1>  -0.1500 
 20 O        2.8810     3.0300     1.1460 O.3   1 <1>  -0.5600 
 21 C        2.7360     4.4080    -0.6870 C.3   1 <1>  -0.1600 
 22 C       -1.4100     9.0570    -1.3840 C.ar  1 <1>   0.1600 
 23 C       -3.1720     8.6820     0.1750 C.ar  1 <1>  -0.1500 
 24 C        3.9730     2.6430     0.3770 C.3   1 <1>   0.1200 
 25 C        4.0100     3.5890    -0.8210 C.3   1 <1>  -0.1600 
 26 C       -2.7030     9.3090    -0.9590 C.ar  1 <1>  -0.1500 
 27 H       -1.8440     4.6880     0.8760 H     1 <1>   0.0800 
 28 H       -1.6920     5.3690    -0.7170 H     1 <1>   0.0800 
 29 H       -1.2790     0.0000     1.6230 H     1 <1>   0.1500 
 30 H       -1.0370    -0.6590    -2.5820 H     1 <1>   0.1500 
 31 H       -1.3210    -2.4200     1.9950 H     1 <1>   0.1500 
 32 H       -1.0780    -3.0710    -2.2050 H     1 <1>   0.1500 
 33 H        0.8900     7.1530     1.0970 H     1 <1>   0.0800 
 34 H       -0.4260     6.5290     2.0430 H     1 <1>   0.0800 
 35 H        0.3840     3.8300     1.8240 H     1 <1>   0.0800 
 36 H        1.5990     5.0790     1.8300 H     1 <1>   0.0800 
 37 H       -1.2210    -3.9660     0.0820 H     1 <1>   0.1500 
 38 H        1.3900     2.8250    -0.1560 H     1 <1>   0.0800 
 39 H       -2.6180     7.3120     1.7050 H     1 <1>   0.1500 
 40 H        2.9560     5.3870    -0.2980 H     1 <1>   0.0800 
 41 H        2.2010     4.5120    -1.6140 H     1 <1>   0.0800 
 42 H       -1.0510     9.5520    -2.2700 H     1 <1>   0.1500 
 43 H       -4.1700     8.8520     0.5400 H     1 <1>   0.1500 
 44 H        3.8170     1.6240     0.0650 H     1 <1>   0.0800 
 45 H        4.8610     2.7140     0.9820 H     1 <1>   0.0800 
 46 H        4.8830     4.2160    -0.7930 H     1 <1>   0.0800 
 47 H        4.0120     3.0210    -1.7350 H     1 <1>   0.0800 
 48 H       -3.3290     9.9880    -1.5090 H     1 <1>   0.1500 
@<TRIPOS>BOND
  1   1   2  1   
  2   1   3  1   
  3   2   4  2   
  4   3   5  2   
  5   3   6  1   
  6   4   5  1   
  7   4   7  1   
  8   6   8  ar  
  9   6   9  ar  
 10   7  10  1   
 11   7  27  1   
 12   7  28  1   
 13   8  11  ar  
 14   8  29  1   
 15   9  12  ar  
 16   9  30  1   
 17  10  13  1   
 18  10  14  1   
 19  11  15  ar  
 20  11  31  1   
 21  12  15  ar  
 22  12  32  1   
 23  13  16  1   
 24  13  33  1   
 25  13  34  1   
 26  14  17  1   
 27  14  35  1   
 28  14  36  1   
 29  15  37  1   
 30  16  18  ar  
 31  16  19  ar  
 32  17  20  1   
 33  17  21  1   
 34  17  38  1   
 35  18  22  ar  
 36  19  23  ar  
 37  19  39  1   
 38  20  24  1   
 39  21  25  1   
 40  21  40  1   
 41  21  41  1   
 42  22  26  ar  
 43  22  42  1   
 44  23  26  ar  
 45  23  43  1   
 46  24  25  1   
 47  24  44  1   
 48  24  45  1   
 49  25  46  1   
 50  25  47  1   
 51  26  48  1   
@<TRIPOS>SUBSTRUCTURE
  1 ****   4 GROUP 4 **** **** 0

# MOE 2024.06 (io_trps.svl 2023.06)
