@<TRIPOS>MOLECULE
NONAME
52 55 1 0 0 
SMALL
USER_CHARGES


@<TRIPOS>ATOM
  1 S       -0.1140    -0.4760     1.0750 S.3   1 <1>  -0.3320 
  2 C        1.2200     0.5170     0.3790 C.ar  1 <1>   0.1020 
  3 C       -0.3890    -1.8780    -0.0940 C.3   1 <1>   0.0700 
  4 C        1.6420     1.6060     1.1220 C.ar  1 <1>  -0.1500 
  5 C        1.8040     0.2130    -0.8430 C.ar  1 <1>  -0.1500 
  6 C       -1.5010    -2.7550     0.4770 C.3   1 <1>  -0.0990 
  7 C        2.6650     2.4010     0.6390 C.ar  1 <1>   0.0830 
  8 C        2.8260     1.0150    -1.3280 C.ar  1 <1>  -0.1500 
  9 C       -1.7150    -3.9700    -0.3940 C.2   1 <1>   0.5690 
 10 O        3.0830     3.4560     1.3850 O.3   1 <1>  -0.3630 
 11 C        3.2540     2.1100    -0.5950 C.ar  1 <1>   0.0830 
 12 O       -1.9040    -3.8230    -1.5760 O.2   1 <1>  -0.5700 
 13 N       -1.6940    -5.1970     0.1780 N.am  1 <1>  -0.7300 
 14 C        4.3200     4.0430     1.0260 C.3   1 <1>   0.1200 
 15 O        4.2450     2.8880    -1.1010 O.3   1 <1>  -0.3630 
 16 C       -1.8530    -6.4770    -0.5520 C.3   1 <1>   0.2200 
 17 C        4.4310     4.1560    -0.5000 C.3   1 <1>   0.1200 
 18 C       -3.2300    -7.0830    -0.3150 C.3   1 <1>  -0.0800 
 19 C       -0.9700    -7.5260     0.1080 C.3   1 <1>   0.1200 
 20 C       -3.0520    -7.8400     1.0080 C.3   1 <1>   0.1200 
 21 C       -4.4130    -6.0980    -0.3290 C.3   1 <1>  -0.0170 
 22 O       -1.6760    -7.9220     1.2440 O.3   1 <1>  -0.5600 
 23 C       -5.7340    -6.8340    -0.1740 C.ar  1 <1>  -0.1440 
 24 C       -6.3480    -7.4540    -1.2440 C.ar  1 <1>  -0.1500 
 25 C       -6.3870    -6.9240     1.0390 C.ar  1 <1>  -0.1500 
 26 C       -7.5480    -8.1190    -1.0530 C.ar  1 <1>   0.1600 
 27 C       -7.5850    -7.6140     1.1220 C.ar  1 <1>   0.1600 
 28 N       -8.1800    -8.2170     0.1050 N.ar  1 <1>  -0.6200 
 29 H       -0.6680    -1.4620    -1.0470 H     1 <1>   0.0800 
 30 H        0.5380    -2.4180    -0.1740 H     1 <1>   0.0800 
 31 H        1.1830     1.8310     2.0660 H     1 <1>   0.1500 
 32 H        1.4830    -0.6280    -1.4260 H     1 <1>   0.1500 
 33 H       -1.2420    -3.0600     1.4730 H     1 <1>   0.0800 
 34 H       -2.4170    -2.1940     0.5140 H     1 <1>   0.0800 
 35 H        3.2910     0.8000    -2.2730 H     1 <1>   0.1500 
 36 H       -1.5620    -5.3130     1.1850 H     1 <1>   0.3700 
 37 H        4.3720     5.0130     1.4870 H     1 <1>   0.0800 
 38 H        5.1090     3.4240     1.4140 H     1 <1>   0.0800 
 39 H       -1.6280    -6.3500    -1.5980 H     1 <1>   0.0800 
 40 H        5.4000     4.5200    -0.7880 H     1 <1>   0.0800 
 41 H        3.6760     4.8200    -0.8820 H     1 <1>   0.0800 
 42 H       -3.3990    -7.8180    -1.0820 H     1 <1>   0.0800 
 43 H       -0.0050    -7.1450     0.3920 H     1 <1>   0.0800 
 44 H       -0.8550    -8.3870    -0.5280 H     1 <1>   0.0800 
 45 H       -3.4600    -8.8350     0.9540 H     1 <1>   0.0800 
 46 H       -3.4930    -7.3100     1.8340 H     1 <1>   0.0800 
 47 H       -4.4140    -5.5550    -1.2600 H     1 <1>   0.0800 
 48 H       -4.3130    -5.3770     0.4620 H     1 <1>   0.0800 
 49 H       -5.9060    -7.4250    -2.2230 H     1 <1>   0.1500 
 50 H       -5.9780    -6.4640     1.9200 H     1 <1>   0.1500 
 51 H       -8.0120    -8.5970    -1.8990 H     1 <1>   0.1500 
 52 H       -8.0800    -7.6740     2.0760 H     1 <1>   0.1500 
@<TRIPOS>BOND
  1   1   2  1   
  2   1   3  1   
  3   2   4  ar  
  4   2   5  ar  
  5   3   6  1   
  6   3  29  1   
  7   3  30  1   
  8   4   7  ar  
  9   4  31  1   
 10   5   8  ar  
 11   5  32  1   
 12   6   9  1   
 13   6  33  1   
 14   6  34  1   
 15   7  10  1   
 16   7  11  ar  
 17   8  11  ar  
 18   8  35  1   
 19   9  12  2   
 20   9  13  am  
 21  10  14  1   
 22  11  15  1   
 23  13  16  1   
 24  13  36  1   
 25  14  17  1   
 26  14  37  1   
 27  14  38  1   
 28  15  17  1   
 29  16  18  1   
 30  16  19  1   
 31  16  39  1   
 32  17  40  1   
 33  17  41  1   
 34  18  20  1   
 35  18  21  1   
 36  18  42  1   
 37  19  22  1   
 38  19  43  1   
 39  19  44  1   
 40  20  22  1   
 41  20  45  1   
 42  20  46  1   
 43  21  23  1   
 44  21  47  1   
 45  21  48  1   
 46  23  24  ar  
 47  23  25  ar  
 48  24  26  ar  
 49  24  49  1   
 50  25  27  ar  
 51  25  50  1   
 52  26  28  ar  
 53  26  51  1   
 54  27  28  ar  
 55  27  52  1   
@<TRIPOS>SUBSTRUCTURE
  1 ****   6 GROUP 4 **** **** 0

# MOE 2024.06 (io_trps.svl 2023.06)
