@<TRIPOS>MOLECULE
NONAME
41 43 1 0 0 
SMALL
USER_CHARGES


@<TRIPOS>ATOM
  1 O        0.6050    -0.0810    -0.8350 O.3   1 <1>  -0.6800 
  2 C        1.8640    -0.1680    -1.4260 C.3   1 <1>   0.2000 
  3 C        2.6740    -1.3080    -0.8010 C.3   1 <1>  -0.0800 
  4 C        2.6720     1.0940    -1.0960 C.3   1 <1>   0.2090 
  5 C        3.3320    -0.6630     0.4160 C.3   1 <1>   0.2090 
  6 C        1.8990    -2.5980    -0.4730 C.3   1 <1>  -0.0170 
  7 N        3.5870     0.7450     0.0280 N.pl3 1 <1>  -0.8380 
  8 C        2.8180    -3.6560     0.1160 C.ar  1 <1>  -0.1440 
  9 C        4.9000     1.1360    -0.0940 C.ar  1 <1>   0.4100 
 10 C        2.8230    -3.9530     1.4640 C.ar  1 <1>  -0.1500 
 11 C        3.6990    -4.3740    -0.6680 C.ar  1 <1>  -0.1500 
 12 N        5.6300     0.5110    -0.9970 N.ar  1 <1>  -0.6200 
 13 C        5.4300     2.1470     0.6940 C.ar  1 <1>  -0.1440 
 14 C        3.6830    -4.9250     1.9480 C.ar  1 <1>   0.1600 
 15 C        4.5180    -5.3250    -0.0840 C.ar  1 <1>   0.1600 
 16 C        6.8830     0.9030    -1.0910 C.ar  1 <1>   0.4770 
 17 C        6.7470     2.4630     0.4920 C.ar  1 <1>   0.1600 
 18 C        4.5850     2.8710     1.7350 C.3   1 <1>  -0.0970 
 19 N        4.5310    -5.6190     1.2060 N.ar  1 <1>  -0.6200 
 20 N        7.4960     1.8490    -0.4030 N.ar  1 <1>  -0.6200 
 21 C        7.7220     0.1860    -2.1210 C.3   1 <1>  -0.0970 
 22 H        0.0540    -0.8460    -1.0850 H     1 <1>   0.4000 
 23 H        1.7310    -0.2840    -2.4880 H     1 <1>   0.0800 
 24 H        3.4690    -1.5510    -1.4840 H     1 <1>   0.0800 
 25 H        2.0250     1.9070    -0.8160 H     1 <1>   0.0800 
 26 H        3.2540     1.3850    -1.9540 H     1 <1>   0.0800 
 27 H        4.2450    -1.1710     0.6830 H     1 <1>   0.0800 
 28 H        2.6610    -0.6720     1.2580 H     1 <1>   0.0800 
 29 H        1.4480    -2.9850    -1.3700 H     1 <1>   0.0800 
 30 H        1.1100    -2.3880     0.2280 H     1 <1>   0.0800 
 31 H        2.1690    -3.4390     2.1440 H     1 <1>   0.1500 
 32 H        3.7580    -4.2010    -1.7270 H     1 <1>   0.1500 
 33 H        3.6740    -5.1420     3.0030 H     1 <1>   0.1500 
 34 H        5.1990    -5.8740    -0.7110 H     1 <1>   0.1500 
 35 H        7.2130     3.2400     1.0740 H     1 <1>   0.1500 
 36 H        5.1600     3.6140     2.2560 H     1 <1>   0.0800 
 37 H        4.2050     2.1610     2.4490 H     1 <1>   0.0800 
 38 H        3.7500     3.3500     1.2540 H     1 <1>   0.0800 
 39 H        8.7610     0.2330    -1.8510 H     1 <1>   0.0800 
 40 H        7.5830     0.6530    -3.0770 H     1 <1>   0.0800 
 41 H        7.4250    -0.8440    -2.1820 H     1 <1>   0.0800 
@<TRIPOS>BOND
  1   1   2  1   
  2   1  22  1   
  3   2   3  1   
  4   2   4  1   
  5   2  23  1   
  6   3   5  1   
  7   3   6  1   
  8   3  24  1   
  9   4   7  1   
 10   4  25  1   
 11   4  26  1   
 12   5   7  1   
 13   5  27  1   
 14   5  28  1   
 15   6   8  1   
 16   6  29  1   
 17   6  30  1   
 18   7   9  1   
 19   8  10  ar  
 20   8  11  ar  
 21   9  12  ar  
 22   9  13  ar  
 23  10  14  ar  
 24  10  31  1   
 25  11  15  ar  
 26  11  32  1   
 27  12  16  ar  
 28  13  17  ar  
 29  13  18  1   
 30  14  19  ar  
 31  14  33  1   
 32  15  19  ar  
 33  15  34  1   
 34  16  20  ar  
 35  16  21  1   
 36  17  20  ar  
 37  17  35  1   
 38  18  36  1   
 39  18  37  1   
 40  18  38  1   
 41  21  39  1   
 42  21  40  1   
 43  21  41  1   
@<TRIPOS>SUBSTRUCTURE
  1 ****   5 GROUP 4 **** **** 0

# MOE 2024.06 (io_trps.svl 2023.06)
