@<TRIPOS>MOLECULE
NONAME
57 59 1 0 0 
SMALL
USER_CHARGES


@<TRIPOS>ATOM
  1 O        0.3350     0.5970    -1.0700 O.3   1 <1>  -0.5320 
  2 C        1.4520     1.2110    -0.6570 C.ar  1 <1>   0.0830 
  3 C        1.3500     2.4240     0.0000 C.ar  1 <1>  -0.1500 
  4 C        2.6920     0.6370    -0.8820 C.ar  1 <1>  -0.1500 
  5 C        2.4930     3.0720     0.4310 C.ar  1 <1>  -0.1500 
  6 C        3.8350     1.2880    -0.4500 C.ar  1 <1>  -0.1500 
  7 C        3.7420     2.5100     0.2030 C.ar  1 <1>  -0.1430 
  8 C        4.9930     3.2370     0.6530 C.3   1 <1>  -0.0170 
  9 C        5.4090     4.2010    -0.4610 C.3   1 <1>   0.3430 
 10 N        6.5820     5.0580    -0.0770 N.4   1 <1>  -0.9590 
 11 C        6.7020     6.1800    -1.0550 C.3   1 <1>   0.3430 
 12 C        7.8360     4.2500     0.0380 C.3   1 <1>   0.3430 
 13 C        7.8650     7.0950    -0.6700 C.3   1 <1>  -0.1600 
 14 C        9.0130     5.1480     0.4250 C.3   1 <1>  -0.1600 
 15 C        9.1660     6.2960    -0.5780 C.3   1 <1>   0.4230 
 16 N       10.3020     7.1940    -0.2370 N.4   1 <1>  -0.9590 
 17 C       11.6620     6.6190    -0.5270 C.3   1 <1>   0.3430 
 18 C       10.3160     7.8580     1.1170 C.3   1 <1>   0.3430 
 19 C       12.7470     7.7220    -0.4450 C.3   1 <1>   0.1100 
 20 C       11.4140     8.9500     1.1760 C.3   1 <1>   0.1100 
 21 N       12.1700     9.0440    -0.0990 N.3   1 <1>  -0.8100 
 22 C       13.2300    10.0780    -0.0580 C.3   1 <1>   0.1100 
 23 C       12.6490    11.4950    -0.1420 C.3   1 <1>   0.1200 
 24 O       13.6890    12.4110    -0.1900 O.3   1 <1>  -0.6800 
 25 H        0.5000    -0.2600    -1.5010 H     1 <1>   0.4500 
 26 H        0.3760     2.8480     0.1700 H     1 <1>   0.1500 
 27 H        2.7700    -0.3080    -1.3870 H     1 <1>   0.1500 
 28 H        2.3910     4.0120     0.9450 H     1 <1>   0.1500 
 29 H        4.7920     0.8290    -0.6290 H     1 <1>   0.1500 
 30 H        5.7650     2.5160     0.8520 H     1 <1>   0.0800 
 31 H        4.7800     3.7770     1.5580 H     1 <1>   0.0800 
 32 H        4.5610     4.8300    -0.6850 H     1 <1>   0.0800 
 33 H        5.6350     3.6350    -1.3510 H     1 <1>   0.0800 
 34 H        6.3570     5.4580     0.8460 H     1 <1>   0.4500 
 35 H        5.7850     6.7520    -1.0730 H     1 <1>   0.0800 
 36 H        6.8630     5.7840    -2.0460 H     1 <1>   0.0800 
 37 H        8.0430     3.7650    -0.9030 H     1 <1>   0.0800 
 38 H        7.7140     3.4820     0.7870 H     1 <1>   0.0800 
 39 H        7.6330     7.5740     0.2630 H     1 <1>   0.0800 
 40 H        7.9610     7.8550    -1.4260 H     1 <1>   0.0800 
 41 H        9.9050     4.5470     0.4320 H     1 <1>   0.0800 
 42 H        8.8500     5.5210     1.4200 H     1 <1>   0.0800 
 43 H        9.3580     5.8690    -1.5510 H     1 <1>   0.0800 
 44 H       10.2970     8.0150    -0.8710 H     1 <1>   0.4500 
 45 H       11.6820     6.1920    -1.5170 H     1 <1>   0.0800 
 46 H       11.8970     5.8370     0.1750 H     1 <1>   0.0800 
 47 H       10.5010     7.1290     1.8890 H     1 <1>   0.0800 
 48 H        9.3650     8.3200     1.3190 H     1 <1>   0.0800 
 49 H       13.2450     7.7880    -1.3990 H     1 <1>   0.0800 
 50 H       13.4880     7.4400     0.2850 H     1 <1>   0.0800 
 51 H       12.0880     8.7330     1.9890 H     1 <1>   0.0800 
 52 H       10.9450     9.8950     1.3910 H     1 <1>   0.0800 
 53 H       13.8800     9.9490    -0.9090 H     1 <1>   0.0800 
 54 H       13.8160     9.9720     0.8390 H     1 <1>   0.0800 
 55 H       12.0370    11.7310     0.7100 H     1 <1>   0.0800 
 56 H       12.0770    11.6080    -1.0470 H     1 <1>   0.0800 
 57 H       14.1530    12.4730     0.6680 H     1 <1>   0.4000 
@<TRIPOS>BOND
  1   1   2  1   
  2   1  25  1   
  3   2   3  ar  
  4   2   4  ar  
  5   3   5  ar  
  6   3  26  1   
  7   4   6  ar  
  8   4  27  1   
  9   5   7  ar  
 10   5  28  1   
 11   6   7  ar  
 12   6  29  1   
 13   7   8  1   
 14   8   9  1   
 15   8  30  1   
 16   8  31  1   
 17   9  10  1   
 18   9  32  1   
 19   9  33  1   
 20  10  11  1   
 21  10  12  1   
 22  10  34  1   
 23  11  13  1   
 24  11  35  1   
 25  11  36  1   
 26  12  14  1   
 27  12  37  1   
 28  12  38  1   
 29  13  15  1   
 30  13  39  1   
 31  13  40  1   
 32  14  15  1   
 33  14  41  1   
 34  14  42  1   
 35  15  16  1   
 36  15  43  1   
 37  16  17  1   
 38  16  18  1   
 39  16  44  1   
 40  17  19  1   
 41  17  45  1   
 42  17  46  1   
 43  18  20  1   
 44  18  47  1   
 45  18  48  1   
 46  19  21  1   
 47  19  49  1   
 48  19  50  1   
 49  20  21  1   
 50  20  51  1   
 51  20  52  1   
 52  21  22  1   
 53  22  23  1   
 54  22  53  1   
 55  22  54  1   
 56  23  24  1   
 57  23  55  1   
 58  23  56  1   
 59  24  57  1   
@<TRIPOS>SUBSTRUCTURE
  1 ****  10 GROUP 4 **** **** 0

# MOE 2024.06 (io_trps.svl 2023.06)
