@<TRIPOS>MOLECULE
NONAME
54 57 1 0 0 
SMALL
USER_CHARGES


@<TRIPOS>ATOM
  1 O        1.3870     0.2280    -0.7820 O.2   1 <1>  -0.5700 
  2 C        2.2300    -0.5990    -1.0910 C.2   1 <1>   0.5440 
  3 N        3.4440    -0.1290    -1.5720 N.am  1 <1>  -0.6600 
  4 C        1.9300    -2.0180    -0.8820 C.ar  1 <1>   0.3960 
  5 C        4.6590    -0.9710    -1.8020 C.3   1 <1>   0.1400 
  6 C        3.6630     1.3160    -1.8360 C.3   1 <1>   0.1400 
  7 N        2.1070    -2.9120    -1.8740 N.ar  1 <1>  -0.6200 
  8 C        1.4510    -2.4100     0.3640 C.ar  1 <1>  -0.1500 
  9 C        5.6810    -0.8290    -0.6660 C.3   1 <1>   0.1400 
 10 C        4.0530     2.0650    -0.5560 C.3   1 <1>  -0.1600 
 11 C        1.8040    -4.1700    -1.6120 C.ar  1 <1>   0.1600 
 12 C        1.1490    -3.7260     0.6290 C.ar  1 <1>   0.0830 
 13 N        6.0930     0.5930    -0.4230 N.am  1 <1>  -0.6600 
 14 C        5.0800     1.3690     0.3520 C.3   1 <1>   0.1400 
 15 C        1.3310    -4.6310    -0.3990 C.ar  1 <1>  -0.1500 
 16 O        0.6970    -4.0410     1.8620 O.3   1 <1>  -0.3630 
 17 C        7.3700     0.9990    -0.7510 C.2   1 <1>   0.5690 
 18 C        0.3210    -5.3580     2.1980 C.3   1 <1>   0.0400 
 19 O        8.0480     0.3220    -1.4910 O.2   1 <1>  -0.5700 
 20 C        8.0220     2.3080    -0.2720 C.3   1 <1>   0.1610 
 21 C        8.2270     2.3770     1.2390 C.2   1 <1>   0.0060 
 22 C        7.3150     3.5680    -0.8160 C.3   1 <1>  -0.1600 
 23 N        7.8160     1.5380     2.1130 N.2   1 <1>  -0.3380 
 24 N        8.8860     3.3500     1.8430 N.pl3 1 <1>   0.3140 
 25 C        8.2140     4.8140    -0.9060 C.3   1 <1>  -0.1600 
 26 N        8.2200     2.0080     3.2860 N.2   1 <1>   0.0000 
 27 N        8.8690     3.1040     3.1330 N.2   1 <1>  -0.4180 
 28 C        9.5700     4.5260     1.2720 C.3   1 <1>   0.0960 
 29 C        8.6190     5.4110     0.4520 C.3   1 <1>  -0.1600 
 30 H        5.1250    -0.6830    -2.7290 H     1 <1>   0.0800 
 31 H        4.3970    -2.0060    -1.8950 H     1 <1>   0.0800 
 32 H        2.7660     1.7470    -2.2470 H     1 <1>   0.0800 
 33 H        4.4430     1.4300    -2.5690 H     1 <1>   0.0800 
 34 H        1.3110    -1.6710     1.1310 H     1 <1>   0.1500 
 35 H        6.5420    -1.4280    -0.9060 H     1 <1>   0.0800 
 36 H        5.2630    -1.2400     0.2360 H     1 <1>   0.0800 
 37 H        3.1610     2.2360     0.0200 H     1 <1>   0.0800 
 38 H        4.4170     3.0330    -0.8390 H     1 <1>   0.0800 
 39 H        1.9420    -4.8790    -2.4120 H     1 <1>   0.1500 
 40 H        4.5550     0.6930     1.0050 H     1 <1>   0.0800 
 41 H        5.5520     2.0970     0.9840 H     1 <1>   0.0800 
 42 H        1.1150    -5.6750    -0.2800 H     1 <1>   0.1500 
 43 H       -0.0170    -5.3590     3.2190 H     1 <1>   0.0800 
 44 H        1.1760    -6.0030     2.0960 H     1 <1>   0.0800 
 45 H       -0.4770    -5.6700     1.5490 H     1 <1>   0.0800 
 46 H        9.0080     2.2970    -0.7020 H     1 <1>   0.0800 
 47 H        6.4610     3.8000    -0.2070 H     1 <1>   0.0800 
 48 H        6.9580     3.3470    -1.8080 H     1 <1>   0.0800 
 49 H        7.6710     5.5710    -1.4480 H     1 <1>   0.0800 
 50 H        9.0940     4.5890    -1.4860 H     1 <1>   0.0800 
 51 H       10.3900     4.1880     0.6650 H     1 <1>   0.0800 
 52 H        9.9730     5.1000     2.0880 H     1 <1>   0.0800 
 53 H        7.7440     5.6430     1.0360 H     1 <1>   0.0800 
 54 H        9.1240     6.3420     0.2610 H     1 <1>   0.0800 
@<TRIPOS>BOND
  1   1   2  2   
  2   2   3  am  
  3   2   4  1   
  4   3   5  1   
  5   3   6  1   
  6   4   7  ar  
  7   4   8  ar  
  8   5   9  1   
  9   5  30  1   
 10   5  31  1   
 11   6  10  1   
 12   6  32  1   
 13   6  33  1   
 14   7  11  ar  
 15   8  12  ar  
 16   8  34  1   
 17   9  13  1   
 18   9  35  1   
 19   9  36  1   
 20  10  14  1   
 21  10  37  1   
 22  10  38  1   
 23  11  15  ar  
 24  11  39  1   
 25  12  15  ar  
 26  12  16  1   
 27  13  14  1   
 28  13  17  am  
 29  14  40  1   
 30  14  41  1   
 31  15  42  1   
 32  16  18  1   
 33  17  19  2   
 34  17  20  1   
 35  18  43  1   
 36  18  44  1   
 37  18  45  1   
 38  20  21  1   
 39  20  22  1   
 40  20  46  1   
 41  21  23  2   
 42  21  24  1   
 43  22  25  1   
 44  22  47  1   
 45  22  48  1   
 46  23  26  1   
 47  24  27  1   
 48  24  28  1   
 49  25  29  1   
 50  25  49  1   
 51  25  50  1   
 52  26  27  2   
 53  28  29  1   
 54  28  51  1   
 55  28  52  1   
 56  29  53  1   
 57  29  54  1   
@<TRIPOS>SUBSTRUCTURE
  1 ****  14 GROUP 4 **** **** 0

# MOE 2024.06 (io_trps.svl 2023.06)
