@<TRIPOS>MOLECULE
NONAME
46 47 1 0 0 
SMALL
USER_CHARGES


@<TRIPOS>ATOM
  1 O       -0.1650     1.0970    -0.5140 O.3   1 <1>  -0.2800 
  2 C        0.9390     1.6600    -0.8810 C.2   1 <1>   0.2980 
  3 C       -0.2430     0.0580    -1.2820 C.2   1 <1>   0.2980 
  4 N        1.5260     1.0230    -1.8210 N.2   1 <1>  -0.3380 
  5 C        1.4320     2.9380    -0.2180 C.3   1 <1>   0.5230 
  6 N        0.7520    -0.0270    -2.0810 N.2   1 <1>  -0.3380 
  7 C       -1.4170    -0.8870    -1.1680 C.3   1 <1>  -0.0600 
  8 N        2.8590     3.2190    -0.5940 N.4   1 <1>  -0.9590 
  9 C        3.1000     4.6330    -1.0010 C.3   1 <1>   0.5610 
 10 C        3.9420     2.6660     0.2980 C.3   1 <1>   0.4230 
 11 C        4.4700     4.6690    -1.6460 C.2   1 <1>  -0.2880 
 12 C        3.0700     5.6520     0.1570 C.3   1 <1>  -0.1600 
 13 C        5.2540     2.5760    -0.5130 C.3   1 <1>  -0.0220 
 14 C        3.6070     1.2970     0.9290 C.3   1 <1>  -0.0220 
 15 C        5.4310     3.7620    -1.4460 C.2   1 <1>  -0.2880 
 16 C        1.7170     5.9100     0.8460 C.3   1 <1>  -0.1600 
 17 C        4.7230     0.8140     1.8420 C.2   1 <1>  -0.2880 
 18 C        0.6420     6.4190    -0.1270 C.3   1 <1>  -0.1600 
 19 C        5.4510    -0.2860     1.6310 C.2   1 <1>  -0.3000 
 20 C       -0.6910     6.6200     0.5970 C.3   1 <1>  -0.2400 
 21 H        1.3360     2.8540     0.8500 H     1 <1>   0.0800 
 22 H        0.7970     3.7400    -0.5490 H     1 <1>   0.0800 
 23 H       -1.3140    -1.6850    -1.8810 H     1 <1>   0.0800 
 24 H       -2.3310    -0.3580    -1.3650 H     1 <1>   0.0800 
 25 H       -1.4550    -1.3040    -0.1790 H     1 <1>   0.0800 
 26 H        2.9910     2.6970    -1.4750 H     1 <1>   0.4500 
 27 H        2.3700     4.9150    -1.7430 H     1 <1>   0.0800 
 28 H        4.1030     3.3600     1.1060 H     1 <1>   0.0800 
 29 H        4.6020     5.5210    -2.2930 H     1 <1>   0.1500 
 30 H        3.8020     5.3850     0.8980 H     1 <1>   0.0800 
 31 H        3.3980     6.5950    -0.2470 H     1 <1>   0.0800 
 32 H        6.0860     2.5340     0.1690 H     1 <1>   0.0800 
 33 H        5.2690     1.6690    -1.0940 H     1 <1>   0.0800 
 34 H        2.7170     1.3600     1.5280 H     1 <1>   0.0800 
 35 H        3.4510     0.5660     0.1550 H     1 <1>   0.0800 
 36 H        6.3990     3.8020    -1.9240 H     1 <1>   0.1500 
 37 H        1.3760     5.0350     1.3670 H     1 <1>   0.0800 
 38 H        1.8690     6.6670     1.5990 H     1 <1>   0.0800 
 39 H        4.8830     1.4450     2.7030 H     1 <1>   0.1500 
 40 H        0.9540     7.3640    -0.5420 H     1 <1>   0.0800 
 41 H        0.4890     5.7390    -0.9440 H     1 <1>   0.0800 
 42 H        6.2370    -0.6200     2.2880 H     1 <1>   0.1500 
 43 H        5.3300    -0.9530     0.7930 H     1 <1>   0.1500 
 44 H       -0.5830     7.3330     1.3970 H     1 <1>   0.0800 
 45 H       -1.0520     5.6930     1.0080 H     1 <1>   0.0800 
 46 H       -1.4300     6.9970    -0.0890 H     1 <1>   0.0800 
@<TRIPOS>BOND
  1   1   2  1   
  2   1   3  1   
  3   2   4  2   
  4   2   5  1   
  5   3   6  2   
  6   3   7  1   
  7   4   6  1   
  8   5   8  1   
  9   5  21  1   
 10   5  22  1   
 11   7  23  1   
 12   7  24  1   
 13   7  25  1   
 14   8   9  1   
 15   8  10  1   
 16   8  26  1   
 17   9  11  1   
 18   9  12  1   
 19   9  27  1   
 20  10  13  1   
 21  10  14  1   
 22  10  28  1   
 23  11  15  2   
 24  11  29  1   
 25  12  16  1   
 26  12  30  1   
 27  12  31  1   
 28  13  15  1   
 29  13  32  1   
 30  13  33  1   
 31  14  17  1   
 32  14  34  1   
 33  14  35  1   
 34  15  36  1   
 35  16  18  1   
 36  16  37  1   
 37  16  38  1   
 38  17  19  2   
 39  17  39  1   
 40  18  20  1   
 41  18  40  1   
 42  18  41  1   
 43  19  42  1   
 44  19  43  1   
 45  20  44  1   
 46  20  45  1   
 47  20  46  1   
@<TRIPOS>SUBSTRUCTURE
  1 ****   8 GROUP 4 **** **** 0

# MOE 2024.06 (io_trps.svl 2023.06)
