@<TRIPOS>MOLECULE
NONAME
52 53 1 0 0 
SMALL
USER_CHARGES


@<TRIPOS>ATOM
  1 S        0.3960    -0.1200     0.1570 S.o2  1 <1>   1.3330 
  2 O       -0.3610     0.9670     0.7350 O.2   1 <1>  -0.6500 
  3 O        0.8130    -1.2240     0.9920 O.2   1 <1>  -0.6500 
  4 N       -0.4900    -0.7560    -1.1430 N.am  1 <1>  -0.8490 
  5 C        1.8260     0.5860    -0.6600 C.3   1 <1>  -0.0550 
  6 C       -1.9360    -0.7330    -0.8990 C.3   1 <1>   0.1160 
  7 C       -0.0710    -2.1080    -1.5290 C.3   1 <1>   0.1160 
  8 C        2.7630     1.3440     0.2990 C.3   1 <1>  -0.0800 
  9 C        3.8330     2.1040    -0.4680 C.3   1 <1>   0.2200 
 10 C        3.5830     0.3950     1.1880 C.3   1 <1>   0.1200 
 11 N        4.2410     3.2800     0.3260 N.am  1 <1>  -0.7300 
 12 C        4.9700     1.0940    -0.5020 C.3   1 <1>   0.1200 
 13 O        4.8980     0.4220     0.7160 O.3   1 <1>  -0.5600 
 14 C        4.0710     4.5740    -0.0490 C.2   1 <1>   0.5690 
 15 O        3.5680     4.8610    -1.1100 O.2   1 <1>  -0.5700 
 16 C        4.5230     5.6930     0.8990 C.3   1 <1>   0.1710 
 17 N        5.9390     6.1340     0.7590 N.3   1 <1>  -0.8100 
 18 C        6.1830     6.7040    -0.5820 C.3   1 <1>   0.2530 
 19 C        6.8990     5.0700     1.0890 C.3   1 <1>   0.0300 
 20 C        7.5440     7.3870    -0.6560 C.ar  1 <1>  -0.1440 
 21 C        7.8860     8.3570     0.2790 C.ar  1 <1>  -0.1500 
 22 C        8.4440     7.0470    -1.6590 C.ar  1 <1>  -0.1500 
 23 C        9.1170     8.9890     0.2180 C.ar  1 <1>  -0.1500 
 24 C        9.6790     7.6700    -1.7320 C.ar  1 <1>  -0.1500 
 25 C        9.9910     8.6310    -0.7900 C.ar  1 <1>   0.1900 
 26 F       11.1540     9.2220    -0.8540 F     1 <1>  -0.1900 
 27 H        2.3710    -0.1870    -1.1650 H     1 <1>   0.0800 
 28 H        1.4710     1.2750    -1.4030 H     1 <1>   0.0800 
 29 H       -2.4650    -1.1290    -1.7480 H     1 <1>   0.0800 
 30 H       -2.2670     0.2800    -0.7400 H     1 <1>   0.0800 
 31 H       -2.1770    -1.3160    -0.0250 H     1 <1>   0.0800 
 32 H       -0.5990    -2.4210    -2.4140 H     1 <1>   0.0800 
 33 H       -0.2740    -2.8070    -0.7340 H     1 <1>   0.0800 
 34 H        0.9840    -2.1250    -1.7410 H     1 <1>   0.0800 
 35 H        2.1690     2.0160     0.8960 H     1 <1>   0.0800 
 36 H        3.5240     2.4030    -1.4560 H     1 <1>   0.0800 
 37 H        3.2350    -0.6230     1.1540 H     1 <1>   0.0800 
 38 H        3.5940     0.7320     2.2100 H     1 <1>   0.0800 
 39 H        4.7150     3.0500     1.2020 H     1 <1>   0.3700 
 40 H        5.9360     1.5570    -0.6060 H     1 <1>   0.0800 
 41 H        4.8210     0.3730    -1.2870 H     1 <1>   0.0800 
 42 H        4.3610     5.3690     1.9110 H     1 <1>   0.0800 
 43 H        3.8820     6.5410     0.7360 H     1 <1>   0.0800 
 44 H        6.1170     5.9290    -1.3270 H     1 <1>   0.0800 
 45 H        5.4250     7.4370    -0.8000 H     1 <1>   0.0800 
 46 H        7.8980     5.4700     1.1120 H     1 <1>   0.0800 
 47 H        6.8610     4.2810     0.3570 H     1 <1>   0.0800 
 48 H        6.6810     4.6650     2.0620 H     1 <1>   0.0800 
 49 H        7.1870     8.6120     1.0570 H     1 <1>   0.1500 
 50 H        8.1860     6.2960    -2.3870 H     1 <1>   0.1500 
 51 H        9.3940     9.7390     0.9350 H     1 <1>   0.1500 
 52 H       10.3870     7.4200    -2.5010 H     1 <1>   0.1500 
@<TRIPOS>BOND
  1   1   2  2   
  2   1   3  2   
  3   1   4  am  
  4   1   5  1   
  5   4   6  1   
  6   4   7  1   
  7   5   8  1   
  8   5  27  1   
  9   5  28  1   
 10   6  29  1   
 11   6  30  1   
 12   6  31  1   
 13   7  32  1   
 14   7  33  1   
 15   7  34  1   
 16   8   9  1   
 17   8  10  1   
 18   8  35  1   
 19   9  11  1   
 20   9  12  1   
 21   9  36  1   
 22  10  13  1   
 23  10  37  1   
 24  10  38  1   
 25  11  14  am  
 26  11  39  1   
 27  12  13  1   
 28  12  40  1   
 29  12  41  1   
 30  14  15  2   
 31  14  16  1   
 32  16  17  1   
 33  16  42  1   
 34  16  43  1   
 35  17  18  1   
 36  17  19  1   
 37  18  20  1   
 38  18  44  1   
 39  18  45  1   
 40  19  46  1   
 41  19  47  1   
 42  19  48  1   
 43  20  21  ar  
 44  20  22  ar  
 45  21  23  ar  
 46  21  49  1   
 47  22  24  ar  
 48  22  50  1   
 49  23  25  ar  
 50  23  51  1   
 51  24  25  ar  
 52  24  52  1   
 53  25  26  1   
@<TRIPOS>SUBSTRUCTURE
  1 ****  11 GROUP 4 **** **** 0

# MOE 2024.06 (io_trps.svl 2023.06)
