@<TRIPOS>MOLECULE
NONAME
38 40 1 0 0 
SMALL
USER_CHARGES


@<TRIPOS>ATOM
  1 O        0.4830    -0.3250     0.7060 O.3   1 <1>  -0.6800 
  2 C        1.2370    -0.2110    -0.4620 C.3   1 <1>   0.2000 
  3 C        2.3090    -1.3020    -0.5170 C.3   1 <1>  -0.0800 
  4 C        2.0350     1.0980    -0.4330 C.3   1 <1>   0.2090 
  5 C        3.4920    -0.7130     0.2480 C.3   1 <1>   0.2090 
  6 C        1.8970    -2.6930    -0.0040 C.3   1 <1>   0.0210 
  7 N        3.4100     0.7560     0.0540 N.pl3 1 <1>  -0.8380 
  8 C        3.0410    -3.6750    -0.1480 C.2   1 <1>   0.1080 
  9 C        4.5340     1.4330    -0.3950 C.ar  1 <1>   0.4100 
 10 N        3.3860    -4.1840    -1.2890 N.2   1 <1>  -0.7070 
 11 C        3.8450    -4.1240     0.8940 C.2   1 <1>  -0.1500 
 12 N        4.4730     1.9040    -1.6400 N.ar  1 <1>  -0.6200 
 13 C        5.6610     1.5900     0.4290 C.ar  1 <1>   0.0730 
 14 N        4.4310    -4.9820    -1.0030 N.pl3 1 <1>   0.3000 
 15 C        4.7300    -4.9610     0.3140 C.2   1 <1>  -0.3320 
 16 C        5.5370     2.5400    -2.0890 C.ar  1 <1>   0.1600 
 17 C        5.6860     1.0690     1.7610 C.1   1 <1>   0.4840 
 18 C        6.7620     2.2620    -0.0700 C.ar  1 <1>  -0.1500 
 19 C        5.8590    -5.7530     0.9460 C.3   1 <1>  -0.0600 
 20 C        6.6920     2.7440    -1.3590 C.ar  1 <1>  -0.1500 
 21 N        5.7700     0.6460     2.8190 N.1   1 <1>  -0.5570 
 22 H       -0.0820    -1.1180     0.6730 H     1 <1>   0.4000 
 23 H        0.5640    -0.2450    -1.3010 H     1 <1>   0.0800 
 24 H        2.6210    -1.4000    -1.5430 H     1 <1>   0.0800 
 25 H        1.5730     1.8200     0.2170 H     1 <1>   0.0800 
 26 H        2.0770     1.5010    -1.4290 H     1 <1>   0.0800 
 27 H        4.4240    -1.1100    -0.1210 H     1 <1>   0.0800 
 28 H        3.4030    -0.9260     1.3000 H     1 <1>   0.0800 
 29 H        1.0600    -3.0570    -0.5720 H     1 <1>   0.0800 
 30 H        1.6110    -2.6450     1.0310 H     1 <1>   0.0800 
 31 H        3.7600    -3.8440     1.9290 H     1 <1>   0.1500 
 32 H        4.9180    -5.5250    -1.7260 H     1 <1>   0.2700 
 33 H        5.4870     2.9190    -3.0960 H     1 <1>   0.1500 
 34 H        7.6460     2.4040     0.5280 H     1 <1>   0.1500 
 35 H        5.8970    -5.5620     2.0040 H     1 <1>   0.0800 
 36 H        6.8020    -5.4680     0.5140 H     1 <1>   0.0800 
 37 H        5.7060    -6.8070     0.7940 H     1 <1>   0.0800 
 38 H        7.5210     3.2730    -1.7940 H     1 <1>   0.1500 
@<TRIPOS>BOND
  1   1   2  1   
  2   1  22  1   
  3   2   3  1   
  4   2   4  1   
  5   2  23  1   
  6   3   5  1   
  7   3   6  1   
  8   3  24  1   
  9   4   7  1   
 10   4  25  1   
 11   4  26  1   
 12   5   7  1   
 13   5  27  1   
 14   5  28  1   
 15   6   8  1   
 16   6  29  1   
 17   6  30  1   
 18   7   9  1   
 19   8  10  2   
 20   8  11  1   
 21   9  12  ar  
 22   9  13  ar  
 23  10  14  1   
 24  11  15  2   
 25  11  31  1   
 26  12  16  ar  
 27  13  17  1   
 28  13  18  ar  
 29  14  15  1   
 30  14  32  1   
 31  15  19  1   
 32  16  20  ar  
 33  16  33  1   
 34  17  21  3   
 35  18  20  ar  
 36  18  34  1   
 37  19  35  1   
 38  19  36  1   
 39  19  37  1   
 40  20  38  1   
@<TRIPOS>SUBSTRUCTURE
  1 ****   5 GROUP 4 **** **** 0

# MOE 2024.06 (io_trps.svl 2023.06)
