@<TRIPOS>MOLECULE
NONAME
48 50 1 0 0 
SMALL
USER_CHARGES


@<TRIPOS>ATOM
  1 CL       0.0320     1.0980    -0.8640 Cl    1 <1>  -0.1770 
  2 C        1.6020     1.4880    -0.1890 C.ar  1 <1>   0.1770 
  3 C        2.6380     0.5530    -0.0750 C.ar  1 <1>   0.0830 
  4 C        1.7830     2.7980     0.2080 C.ar  1 <1>  -0.1500 
  5 O        2.5810    -0.7560    -0.4180 O.3   1 <1>  -0.3630 
  6 C        3.8540     0.9840     0.4320 C.ar  1 <1>  -0.1500 
  7 C        3.0050     3.2340     0.7140 C.ar  1 <1>   0.0860 
  8 C        1.4090    -1.5230    -0.2620 C.3   1 <1>   0.1200 
  9 C        4.0310     2.2980     0.8240 C.ar  1 <1>  -0.1500 
 10 C        3.1990     4.6150     1.0990 C.2   1 <1>   0.5440 
 11 C        1.8170    -2.9880    -0.0980 C.3   1 <1>  -0.1600 
 12 O        2.6230     5.0340     2.0850 O.2   1 <1>  -0.5700 
 13 N        3.9980     5.4710     0.3650 N.am  1 <1>  -0.6600 
 14 C        0.5910    -3.8900     0.0810 C.3   1 <1>  -0.2400 
 15 C        4.4430     6.7770     0.9580 C.3   1 <1>   0.1400 
 16 C        4.4470     5.1530    -1.0300 C.3   1 <1>   0.1400 
 17 C        5.9700     7.0080     1.0040 C.3   1 <1>   0.2200 
 18 C        5.9680     5.1910    -1.2710 C.3   1 <1>  -0.0190 
 19 N        6.4880     7.4390    -0.3260 N.am  1 <1>  -0.6600 
 20 C        6.8070     5.8450     1.5950 C.3   1 <1>   0.1200 
 21 C        6.4600     6.6130    -1.4110 C.2   1 <1>   0.5690 
 22 C        6.8670     4.3900    -0.3110 C.3   1 <1>   0.1200 
 23 C        6.9810     8.8430    -0.4150 C.3   1 <1>   0.0600 
 24 O        6.5620     4.5830     1.0360 O.3   1 <1>  -0.5600 
 25 O        6.8250     6.9750    -2.5040 O.2   1 <1>  -0.5700 
 26 H        0.9720     3.4980     0.1210 H     1 <1>   0.1500 
 27 H        4.6610     0.2780     0.5240 H     1 <1>   0.1500 
 28 H        0.8810    -1.1770     0.6100 H     1 <1>   0.0800 
 29 H        0.8030    -1.3990    -1.1410 H     1 <1>   0.0800 
 30 H        4.9780     2.6130     1.2300 H     1 <1>   0.1500 
 31 H        2.3640    -3.3020    -0.9700 H     1 <1>   0.0800 
 32 H        2.4550    -3.0820     0.7630 H     1 <1>   0.0800 
 33 H       -0.0550    -3.8230    -0.7770 H     1 <1>   0.0800 
 34 H        0.0360    -3.6040     0.9570 H     1 <1>   0.0800 
 35 H        0.9030    -4.9140     0.1930 H     1 <1>   0.0800 
 36 H        3.9810     7.5810     0.4130 H     1 <1>   0.0800 
 37 H        4.0870     6.8450     1.9710 H     1 <1>   0.0800 
 38 H        4.0950     4.1770    -1.3120 H     1 <1>   0.0800 
 39 H        3.9780     5.8530    -1.7000 H     1 <1>   0.0800 
 40 H        6.1180     7.8380     1.6730 H     1 <1>   0.0800 
 41 H        6.1180     4.7480    -2.2390 H     1 <1>   0.0800 
 42 H        6.5730     5.7570     2.6410 H     1 <1>   0.0800 
 43 H        7.8580     6.0600     1.5050 H     1 <1>   0.0800 
 44 H        7.9040     4.6350    -0.4660 H     1 <1>   0.0800 
 45 H        6.7380     3.3400    -0.5050 H     1 <1>   0.0800 
 46 H        7.7890     8.9910     0.2800 H     1 <1>   0.0800 
 47 H        6.1820     9.5260    -0.1850 H     1 <1>   0.0800 
 48 H        7.3410     9.0610    -1.4060 H     1 <1>   0.0800 
@<TRIPOS>BOND
  1   1   2  1   
  2   2   3  ar  
  3   2   4  ar  
  4   3   5  1   
  5   3   6  ar  
  6   4   7  ar  
  7   4  26  1   
  8   5   8  1   
  9   6   9  ar  
 10   6  27  1   
 11   7   9  ar  
 12   7  10  1   
 13   8  11  1   
 14   8  28  1   
 15   8  29  1   
 16   9  30  1   
 17  10  12  2   
 18  10  13  am  
 19  11  14  1   
 20  11  31  1   
 21  11  32  1   
 22  13  15  1   
 23  13  16  1   
 24  14  33  1   
 25  14  34  1   
 26  14  35  1   
 27  15  17  1   
 28  15  36  1   
 29  15  37  1   
 30  16  18  1   
 31  16  38  1   
 32  16  39  1   
 33  17  19  1   
 34  17  20  1   
 35  17  40  1   
 36  18  21  1   
 37  18  22  1   
 38  18  41  1   
 39  19  21  am  
 40  19  23  1   
 41  20  24  1   
 42  20  42  1   
 43  20  43  1   
 44  21  25  2   
 45  22  24  1   
 46  22  44  1   
 47  22  45  1   
 48  23  46  1   
 49  23  47  1   
 50  23  48  1   
@<TRIPOS>SUBSTRUCTURE
  1 ****   7 GROUP 4 **** **** 0

# MOE 2024.06 (io_trps.svl 2023.06)
