@<TRIPOS>MOLECULE
NONAME
55 58 1 0 0 
SMALL
USER_CHARGES


@<TRIPOS>ATOM
  1 O        0.7750     0.5990    -0.4360 O.2   1 <1>  -0.5700 
  2 C        1.5980    -0.2820    -0.2430 C.2   1 <1>   0.7160 
  3 N        2.8240     0.0920     0.2840 N.am  1 <1>  -0.6600 
  4 C        1.2380    -1.6540    -0.5850 C.2   1 <1>   0.2030 
  5 C        3.8470    -0.8580     0.8300 C.3   1 <1>   0.1400 
  6 C        3.2610     1.5170     0.2990 C.3   1 <1>   0.1400 
  7 N        2.0260    -2.6700    -0.8010 N.2   1 <1>  -0.4100 
  8 C       -0.0680    -2.0880    -0.7630 C.2   1 <1>  -0.1500 
  9 C        4.9810    -1.1320    -0.1710 C.3   1 <1>   0.1400 
 10 C        3.9020     1.9130    -1.0400 C.3   1 <1>  -0.1600 
 11 O        1.3280    -3.7390    -1.0980 O.3   1 <1>  -0.0190 
 12 C        0.0640    -3.3790    -1.0730 C.2   1 <1>  -0.0400 
 13 N        5.6180     0.1390    -0.6450 N.am  1 <1>  -0.6600 
 14 C        4.8120     0.8510    -1.6740 C.3   1 <1>   0.1400 
 15 C       -1.0020    -4.4150    -1.3860 C.3   1 <1>   0.0200 
 16 C        6.7310     0.6680    -0.0020 C.2   1 <1>   0.7160 
 17 C       -1.0400    -5.5520    -0.3480 C.3   1 <1>  -0.0800 
 18 O        7.1320     0.0630     0.9820 O.2   1 <1>  -0.5700 
 19 C        7.4340     1.8950    -0.3950 C.2   1 <1>   0.2030 
 20 C       -2.0640    -6.6170    -0.7600 C.3   1 <1>  -0.2400 
 21 C       -1.3760    -5.0280     1.0560 C.3   1 <1>  -0.2400 
 22 N        7.2140     2.6860    -1.4370 N.2   1 <1>  -0.7070 
 23 C        8.5070     2.4060     0.3520 C.2   1 <1>  -0.1500 
 24 N        8.1250     3.6660    -1.3480 N.pl3 1 <1>   0.3000 
 25 C        8.9190     3.5230    -0.2740 C.2   1 <1>  -0.2370 
 26 C       10.0340     4.4870     0.0740 C.3   1 <1>  -0.0150 
 27 C       10.3920     4.7330     1.5040 C.3   1 <1>  -0.2000 
 28 C        9.7010     5.7990     0.7060 C.3   1 <1>  -0.2000 
 29 H        3.3840    -1.7870     1.1130 H     1 <1>   0.0800 
 30 H        4.2750    -0.4440     1.7270 H     1 <1>   0.0800 
 31 H        3.9770     1.6610     1.0900 H     1 <1>   0.0800 
 32 H        2.4230     2.1610     0.5040 H     1 <1>   0.0800 
 33 H       -0.9490    -1.4800    -0.6620 H     1 <1>   0.1500 
 34 H        4.5930    -1.6800    -1.0120 H     1 <1>   0.0800 
 35 H        5.7170    -1.7620     0.2980 H     1 <1>   0.0800 
 36 H        4.4670     2.8150    -0.8920 H     1 <1>   0.0800 
 37 H        3.1210     2.1510    -1.7390 H     1 <1>   0.0800 
 38 H        5.4500     1.2930    -2.4180 H     1 <1>   0.0800 
 39 H        4.1940     0.1350    -2.1890 H     1 <1>   0.0800 
 40 H       -0.7980    -4.8250    -2.3600 H     1 <1>   0.0800 
 41 H       -1.9620    -3.9320    -1.4270 H     1 <1>   0.0800 
 42 H       -0.0680    -6.0150    -0.3140 H     1 <1>   0.0800 
 43 H       -3.0550    -6.1990    -0.8010 H     1 <1>   0.0800 
 44 H       -2.0640    -7.4270    -0.0510 H     1 <1>   0.0800 
 45 H       -1.8190    -7.0190    -1.7270 H     1 <1>   0.0800 
 46 H       -2.3320    -4.5350     1.0610 H     1 <1>   0.0800 
 47 H       -0.6270    -4.3320     1.3900 H     1 <1>   0.0800 
 48 H       -1.4080    -5.8420     1.7590 H     1 <1>   0.0800 
 49 H        8.8980     1.9600     1.2500 H     1 <1>   0.1500 
 50 H        8.1890     4.4300    -2.0310 H     1 <1>   0.2700 
 51 H       10.8460     4.4610    -0.6340 H     1 <1>   0.1000 
 52 H       11.4290     4.8620     1.7590 H     1 <1>   0.1000 
 53 H        9.8370     4.2260     2.2740 H     1 <1>   0.1000 
 54 H        8.6730     6.0210     0.9360 H     1 <1>   0.1000 
 55 H       10.2600     6.6720     0.4170 H     1 <1>   0.1000 
@<TRIPOS>BOND
  1   1   2  2   
  2   2   3  am  
  3   2   4  1   
  4   3   5  1   
  5   3   6  1   
  6   4   7  2   
  7   4   8  1   
  8   5   9  1   
  9   5  29  1   
 10   5  30  1   
 11   6  10  1   
 12   6  31  1   
 13   6  32  1   
 14   7  11  1   
 15   8  12  2   
 16   8  33  1   
 17   9  13  1   
 18   9  34  1   
 19   9  35  1   
 20  10  14  1   
 21  10  36  1   
 22  10  37  1   
 23  11  12  1   
 24  12  15  1   
 25  13  14  1   
 26  13  16  am  
 27  14  38  1   
 28  14  39  1   
 29  15  17  1   
 30  15  40  1   
 31  15  41  1   
 32  16  18  2   
 33  16  19  1   
 34  17  20  1   
 35  17  21  1   
 36  17  42  1   
 37  19  22  2   
 38  19  23  1   
 39  20  43  1   
 40  20  44  1   
 41  20  45  1   
 42  21  46  1   
 43  21  47  1   
 44  21  48  1   
 45  22  24  1   
 46  23  25  2   
 47  23  49  1   
 48  24  25  1   
 49  24  50  1   
 50  25  26  1   
 51  26  27  1   
 52  26  28  1   
 53  26  51  1   
 54  27  28  1   
 55  27  52  1   
 56  27  53  1   
 57  28  54  1   
 58  28  55  1   
@<TRIPOS>SUBSTRUCTURE
  1 ****   9 GROUP 4 **** **** 0

# MOE 2024.06 (io_trps.svl 2023.06)
