@<TRIPOS>MOLECULE
NONAME
45 46 1 0 0 
SMALL
USER_CHARGES


@<TRIPOS>ATOM
  1 S        0.2270    -0.3950     0.5060 S.3   1 <1>  -0.0800 
  2 C       -1.3960    -0.9780     0.3120 C.2   1 <1>   0.4420 
  3 C       -0.3850     1.1900     0.1890 C.2   1 <1>   0.1980 
  4 N       -2.2190    -0.0280     0.0460 N.2   1 <1>  -0.3380 
  5 N       -1.5900    -2.3290     0.4610 N.am  1 <1>  -0.4940 
  6 N       -1.6360     1.2040    -0.0230 N.2   1 <1>  -0.3380 
  7 C        0.5770     2.3560     0.1920 C.3   1 <1>   0.0200 
  8 C       -2.7240    -3.0900     0.3730 C.2   1 <1>   0.7160 
  9 C       -0.1990     3.6350    -0.1470 C.3   1 <1>   0.3430 
 10 O       -3.8030    -2.5830     0.1280 O.2   1 <1>  -0.5700 
 11 C       -2.5670    -4.5150     0.5850 C.2   1 <1>   0.2030 
 12 N        0.6770     4.8510    -0.2330 N.4   1 <1>  -0.9590 
 13 N       -1.4160    -5.1100     0.8560 N.2   1 <1>  -0.7070 
 14 C       -3.6010    -5.4580     0.5340 C.2   1 <1>  -0.1500 
 15 C        1.2290     5.2590     1.0990 C.3   1 <1>   0.2630 
 16 C       -0.1000     5.9830    -0.8290 C.3   1 <1>   0.2630 
 17 N       -1.7160    -6.4130     0.9750 N.pl3 1 <1>   0.3000 
 18 C       -3.0290    -6.6520     0.7830 C.2   1 <1>  -0.3320 
 19 C       -3.6730    -8.0280     0.8600 C.3   1 <1>   0.0200 
 20 C       -3.5430    -8.8230    -0.4530 C.3   1 <1>  -0.0800 
 21 C       -4.3390   -10.1310    -0.3560 C.3   1 <1>  -0.2400 
 22 C       -2.0840    -9.1410    -0.8150 C.3   1 <1>  -0.2400 
 23 H       -0.7750    -2.9050     0.6740 H     1 <1>   0.3700 
 24 H        1.3390     2.1770    -0.5450 H     1 <1>   0.0800 
 25 H        1.0230     2.4270     1.1660 H     1 <1>   0.0800 
 26 H       -0.9660     3.7880     0.5960 H     1 <1>   0.0800 
 27 H       -0.6940     3.4830    -1.0930 H     1 <1>   0.0800 
 28 H        1.4640     4.6460    -0.8700 H     1 <1>   0.4500 
 29 H       -4.6330    -5.2250     0.3320 H     1 <1>   0.1500 
 30 H        0.4280     5.4670     1.7900 H     1 <1>   0.0800 
 31 H        1.8340     6.1460     0.9980 H     1 <1>   0.0800 
 32 H        1.8440     4.4750     1.5110 H     1 <1>   0.0800 
 33 H       -0.9400     6.2340    -0.2020 H     1 <1>   0.0800 
 34 H       -0.4700     5.7110    -1.8050 H     1 <1>   0.0800 
 35 H        0.5260     6.8550    -0.9320 H     1 <1>   0.0800 
 36 H       -1.0090    -7.1300     1.1830 H     1 <1>   0.2700 
 37 H       -4.7190    -7.8930     1.0770 H     1 <1>   0.0800 
 38 H       -3.2470    -8.5850     1.6750 H     1 <1>   0.0800 
 39 H       -3.9680    -8.2300    -1.2470 H     1 <1>   0.0800 
 40 H       -3.9470   -10.7600     0.4230 H     1 <1>   0.0800 
 41 H       -4.2900   -10.6680    -1.2870 H     1 <1>   0.0800 
 42 H       -5.3740    -9.9260    -0.1450 H     1 <1>   0.0800 
 43 H       -1.5970    -9.6660    -0.0140 H     1 <1>   0.0800 
 44 H       -1.5410    -8.2390    -1.0310 H     1 <1>   0.0800 
 45 H       -2.0490    -9.7570    -1.6970 H     1 <1>   0.0800 
@<TRIPOS>BOND
  1   1   2  1   
  2   1   3  1   
  3   2   4  2   
  4   2   5  1   
  5   3   6  2   
  6   3   7  1   
  7   4   6  1   
  8   5   8  am  
  9   5  23  1   
 10   7   9  1   
 11   7  24  1   
 12   7  25  1   
 13   8  10  2   
 14   8  11  1   
 15   9  12  1   
 16   9  26  1   
 17   9  27  1   
 18  11  13  2   
 19  11  14  1   
 20  12  15  1   
 21  12  16  1   
 22  12  28  1   
 23  13  17  1   
 24  14  18  2   
 25  14  29  1   
 26  15  30  1   
 27  15  31  1   
 28  15  32  1   
 29  16  33  1   
 30  16  34  1   
 31  16  35  1   
 32  17  18  1   
 33  17  36  1   
 34  18  19  1   
 35  19  20  1   
 36  19  37  1   
 37  19  38  1   
 38  20  21  1   
 39  20  22  1   
 40  20  39  1   
 41  21  40  1   
 42  21  41  1   
 43  21  42  1   
 44  22  43  1   
 45  22  44  1   
 46  22  45  1   
@<TRIPOS>SUBSTRUCTURE
  1 ****   5 GROUP 4 **** **** 0

# MOE 2024.06 (io_trps.svl 2023.06)
