@<TRIPOS>MOLECULE
NONAME
45 47 1 0 0 
SMALL
USER_CHARGES


@<TRIPOS>ATOM
  1 O       -1.5120     0.3900    -1.8450 O.2   1 <1>  -0.5700 
  2 C       -1.4310     0.4120    -0.6270 C.2   1 <1>   0.7160 
  3 N       -1.6020    -0.7660     0.0390 N.am  1 <1>  -0.7300 
  4 C       -1.1840     1.6260     0.1440 C.2   1 <1>   0.2030 
  5 C       -1.8790    -2.0930    -0.5520 C.3   1 <1>   0.2200 
  6 N       -1.1360     1.6520     1.4660 N.2   1 <1>  -0.7070 
  7 C       -0.9670     2.9210    -0.3680 C.2   1 <1>  -0.1810 
  8 C       -3.3400    -2.4820    -0.3810 C.3   1 <1>  -0.0800 
  9 C       -1.1990    -3.1690     0.2850 C.3   1 <1>   0.1200 
 10 N       -0.8920     2.9270     1.7890 N.pl3 1 <1>   0.3000 
 11 C       -0.7830     3.7180     0.7060 C.2   1 <1>  -0.3320 
 12 C       -0.9520     3.3100    -1.8380 C.3   1 <1>  -0.0590 
 13 C       -3.3720    -3.0650     1.0340 C.3   1 <1>   0.1200 
 14 C       -4.3700    -1.3630    -0.6260 C.3   1 <1>  -0.0170 
 15 O       -2.0570    -3.4120     1.3610 O.3   1 <1>  -0.5600 
 16 C       -0.5040     5.2080     0.8110 C.3   1 <1>   0.0200 
 17 C       -5.7890    -1.8960    -0.5000 C.ar  1 <1>  -0.1430 
 18 C       -1.7350     5.9440     1.3400 C.3   1 <1>  -0.2400 
 19 C       -6.4040    -2.5750    -1.5330 C.ar  1 <1>  -0.1500 
 20 C       -6.5340    -1.7310     0.6490 C.ar  1 <1>  -0.1500 
 21 C       -7.6950    -3.0470    -1.3680 C.ar  1 <1>   0.1600 
 22 C       -7.8200    -2.2430     0.7120 C.ar  1 <1>   0.1600 
 23 N       -8.4180    -2.9000    -0.2690 N.ar  1 <1>  -0.6200 
 24 H       -1.5500    -0.7190     1.0620 H     1 <1>   0.3700 
 25 H       -1.5610    -2.1210    -1.5810 H     1 <1>   0.0800 
 26 H       -3.5480    -3.2870    -1.0640 H     1 <1>   0.0800 
 27 H       -0.2340    -2.8650     0.6510 H     1 <1>   0.0800 
 28 H       -1.1090    -4.0840    -0.2730 H     1 <1>   0.0800 
 29 H       -0.8030     3.2400     2.7630 H     1 <1>   0.2700 
 30 H       -0.1680     2.7790    -2.3480 H     1 <1>   0.0800 
 31 H       -0.7920     4.3630    -1.9630 H     1 <1>   0.0800 
 32 H       -1.8930     3.0530    -2.2920 H     1 <1>   0.0800 
 33 H       -3.9940    -3.9420     1.0950 H     1 <1>   0.0800 
 34 H       -3.7000    -2.3350     1.7540 H     1 <1>   0.0800 
 35 H       -4.2270    -0.9560    -1.6120 H     1 <1>   0.0800 
 36 H       -4.2290    -0.5610     0.0770 H     1 <1>   0.0800 
 37 H        0.3340     5.3760     1.4650 H     1 <1>   0.0800 
 38 H       -0.2430     5.6050    -0.1540 H     1 <1>   0.0800 
 39 H       -1.9900     5.5990     2.3260 H     1 <1>   0.0800 
 40 H       -2.5730     5.7720     0.6870 H     1 <1>   0.0800 
 41 H       -1.5430     7.0010     1.3830 H     1 <1>   0.0800 
 42 H       -5.8910    -2.7400    -2.4620 H     1 <1>   0.1500 
 43 H       -6.1290    -1.2090     1.4970 H     1 <1>   0.1500 
 44 H       -8.1590    -3.5750    -2.1840 H     1 <1>   0.1500 
 45 H       -8.3860    -2.1050     1.6170 H     1 <1>   0.1500 
@<TRIPOS>BOND
  1   1   2  2   
  2   2   3  am  
  3   2   4  1   
  4   3   5  1   
  5   3  24  1   
  6   4   6  2   
  7   4   7  1   
  8   5   8  1   
  9   5   9  1   
 10   5  25  1   
 11   6  10  1   
 12   7  11  2   
 13   7  12  1   
 14   8  13  1   
 15   8  14  1   
 16   8  26  1   
 17   9  15  1   
 18   9  27  1   
 19   9  28  1   
 20  10  11  1   
 21  10  29  1   
 22  11  16  1   
 23  12  30  1   
 24  12  31  1   
 25  12  32  1   
 26  13  15  1   
 27  13  33  1   
 28  13  34  1   
 29  14  17  1   
 30  14  35  1   
 31  14  36  1   
 32  16  18  1   
 33  16  37  1   
 34  16  38  1   
 35  17  19  ar  
 36  17  20  ar  
 37  18  39  1   
 38  18  40  1   
 39  18  41  1   
 40  19  21  ar  
 41  19  42  1   
 42  20  22  ar  
 43  20  43  1   
 44  21  23  ar  
 45  21  44  1   
 46  22  23  ar  
 47  22  45  1   
@<TRIPOS>SUBSTRUCTURE
  1 ****   3 GROUP 4 **** **** 0

# MOE 2024.06 (io_trps.svl 2023.06)
