@<TRIPOS>MOLECULE
NONAME
49 51 1 0 0 
SMALL
USER_CHARGES


@<TRIPOS>ATOM
  1 F       -0.6520     0.0730     0.4910 F     1 <1>  -0.1900 
  2 C       -1.7210    -0.6800     0.5200 C.ar  1 <1>   0.1900 
  3 C       -1.9000    -1.7490    -0.3660 C.ar  1 <1>   0.0830 
  4 C       -2.6700    -0.3610     1.4730 C.ar  1 <1>  -0.1500 
  5 O       -1.0400    -2.1600    -1.3400 O.3   1 <1>  -0.3630 
  6 C       -3.0710    -2.4810    -0.2610 C.ar  1 <1>  -0.1500 
  7 C       -3.8280    -1.1130     1.5500 C.ar  1 <1>  -0.1500 
  8 C        0.2500    -1.6150    -1.5080 C.3   1 <1>   0.0400 
  9 C       -4.0560    -2.1820     0.6810 C.ar  1 <1>   0.0860 
 10 C       -5.2740    -2.9660     0.7520 C.2   1 <1>   0.5440 
 11 O       -5.1950    -4.1710     0.9050 O.2   1 <1>  -0.5700 
 12 N       -6.5180    -2.3810     0.6480 N.am  1 <1>  -0.6600 
 13 C       -7.7550    -3.1760     0.9060 C.3   1 <1>   0.1400 
 14 C       -6.7120    -0.9850     0.1530 C.3   1 <1>   0.1400 
 15 C       -8.8710    -2.2630     1.4180 C.3   1 <1>  -0.1600 
 16 C       -8.0630    -0.8520    -0.5500 C.3   1 <1>  -0.1600 
 17 C       -9.2350    -1.1410     0.4140 C.3   1 <1>   0.2800 
 18 O       -9.3650     0.0340     1.1910 O.3   1 <1>  -0.5600 
 19 C      -10.5620    -1.4810    -0.3360 C.3   1 <1>   0.2000 
 20 C      -10.5720     0.7420     1.1810 C.3   1 <1>   0.1200 
 21 O      -10.4240    -2.5780    -1.1950 O.3   1 <1>  -0.6800 
 22 C      -11.2090    -0.2610    -1.0560 C.3   1 <1>   0.2800 
 23 C      -10.9670     1.0390    -0.2670 C.3   1 <1>  -0.1600 
 24 O      -12.5730    -0.4870    -1.0690 O.3   1 <1>  -0.6800 
 25 C      -10.8230    -0.0780    -2.5310 C.3   1 <1>  -0.2400 
 26 H       -2.5000     0.4620     2.1440 H     1 <1>   0.1500 
 27 H       -3.2270    -3.3120    -0.9260 H     1 <1>   0.1500 
 28 H       -4.5720    -0.8800     2.2930 H     1 <1>   0.1500 
 29 H        0.7430    -2.1580    -2.2930 H     1 <1>   0.0800 
 30 H        0.7990    -1.7240    -0.5890 H     1 <1>   0.0800 
 31 H        0.1610    -0.5790    -1.7830 H     1 <1>   0.0800 
 32 H       -8.0610    -3.6590    -0.0070 H     1 <1>   0.0800 
 33 H       -7.5500    -3.9400     1.6370 H     1 <1>   0.0800 
 34 H       -6.6740    -0.3050     0.9870 H     1 <1>   0.0800 
 35 H       -5.9260    -0.7290    -0.5370 H     1 <1>   0.0800 
 36 H       -8.5400    -1.8350     2.3480 H     1 <1>   0.0800 
 37 H       -9.7310    -2.8690     1.6330 H     1 <1>   0.0800 
 38 H       -8.0750    -1.5400    -1.3760 H     1 <1>   0.0800 
 39 H       -8.1550     0.1390    -0.9520 H     1 <1>   0.0800 
 40 H      -11.2580    -1.7990     0.4210 H     1 <1>   0.0800 
 41 H      -11.3230     0.1600     1.6880 H     1 <1>   0.0800 
 42 H      -10.4150     1.6570     1.7260 H     1 <1>   0.0800 
 43 H      -11.2920    -2.7490    -1.6110 H     1 <1>   0.4000 
 44 H      -10.1590     1.5950    -0.7080 H     1 <1>   0.0800 
 45 H      -11.8370     1.6700    -0.2880 H     1 <1>   0.0800 
 46 H      -13.0170     0.2140    -1.5820 H     1 <1>   0.4000 
 47 H       -9.7610     0.0400    -2.6300 H     1 <1>   0.0800 
 48 H      -11.2920     0.7970    -2.9430 H     1 <1>   0.0800 
 49 H      -11.1120    -0.9360    -3.1130 H     1 <1>   0.0800 
@<TRIPOS>BOND
  1   1   2  1   
  2   2   3  ar  
  3   2   4  ar  
  4   3   5  1   
  5   3   6  ar  
  6   4   7  ar  
  7   4  26  1   
  8   5   8  1   
  9   6   9  ar  
 10   6  27  1   
 11   7   9  ar  
 12   7  28  1   
 13   8  29  1   
 14   8  30  1   
 15   8  31  1   
 16   9  10  1   
 17  10  11  2   
 18  10  12  am  
 19  12  13  1   
 20  12  14  1   
 21  13  15  1   
 22  13  32  1   
 23  13  33  1   
 24  14  16  1   
 25  14  34  1   
 26  14  35  1   
 27  15  17  1   
 28  15  36  1   
 29  15  37  1   
 30  16  17  1   
 31  16  38  1   
 32  16  39  1   
 33  17  18  1   
 34  17  19  1   
 35  18  20  1   
 36  19  21  1   
 37  19  22  1   
 38  19  40  1   
 39  20  23  1   
 40  20  41  1   
 41  20  42  1   
 42  21  43  1   
 43  22  23  1   
 44  22  24  1   
 45  22  25  1   
 46  23  44  1   
 47  23  45  1   
 48  24  46  1   
 49  25  47  1   
 50  25  48  1   
 51  25  49  1   
@<TRIPOS>SUBSTRUCTURE
  1 ****  14 GROUP 4 **** **** 0

# MOE 2024.06 (io_trps.svl 2023.06)
