@<TRIPOS>MOLECULE
NONAME
46 47 1 0 0 
SMALL
USER_CHARGES


@<TRIPOS>ATOM
  1 O        1.2360    -0.3510    -3.1900 O.2   1 <1>  -0.5700 
  2 C        1.4340    -0.8360    -2.1020 C.2   1 <1>   0.5690 
  3 N        1.9220    -0.1450    -1.0300 N.am  1 <1>  -0.4940 
  4 C        1.1210    -2.3270    -1.8630 C.3   1 <1>   0.2510 
  5 C        2.3050     1.1920    -0.9000 C.2   1 <1>   0.2040 
  6 N        0.6020    -2.5790    -0.4760 N.3   1 <1>  -0.8100 
  7 C        2.3960    -3.1440    -2.1270 C.3   1 <1>  -0.2400 
  8 O        2.2990     2.0240    -1.9140 O.3   1 <1>  -0.0190 
  9 C        2.7270     1.8710     0.1850 C.2   1 <1>  -0.1810 
 10 C        0.4110    -4.0200    -0.1690 C.3   1 <1>   0.1100 
 11 C       -0.7110    -1.9020    -0.2960 C.3   1 <1>   0.1100 
 12 N        2.6940     3.2220    -1.5620 N.2   1 <1>  -0.4100 
 13 C        2.9580     3.1560    -0.3060 C.2   1 <1>   0.1080 
 14 C        2.9170     1.3890     1.6140 C.3   1 <1>  -0.0590 
 15 C       -0.2360    -4.2390     1.2170 C.3   1 <1>   0.2000 
 16 C       -1.3170    -2.1740     1.0970 C.3   1 <1>   0.2000 
 17 C        3.4540     4.3440     0.5000 C.3   1 <1>   0.0210 
 18 O       -1.4430    -3.5460     1.3000 O.3   1 <1>  -0.5600 
 19 C       -0.5490    -5.7090     1.4770 C.3   1 <1>  -0.2400 
 20 C       -2.7110    -1.5710     1.2430 C.3   1 <1>  -0.2400 
 21 C        4.9840     4.3660     0.5770 C.3   1 <1>  -0.2400 
 22 H        1.9320    -0.7140    -0.1820 H     1 <1>   0.3700 
 23 H        0.3740    -2.6200    -2.5800 H     1 <1>   0.0800 
 24 H        3.1170    -2.9810    -1.3470 H     1 <1>   0.0800 
 25 H        2.8310    -2.8330    -3.0610 H     1 <1>   0.0800 
 26 H        2.1760    -4.1920    -2.2120 H     1 <1>   0.0800 
 27 H       -0.2090    -4.4770    -0.9210 H     1 <1>   0.0800 
 28 H        1.3620    -4.5210    -0.1640 H     1 <1>   0.0800 
 29 H       -0.6020    -0.8390    -0.4140 H     1 <1>   0.0800 
 30 H       -1.4060    -2.2460    -1.0440 H     1 <1>   0.0800 
 31 H        3.9410     1.5200     1.9110 H     1 <1>   0.0800 
 32 H        2.6650     0.3480     1.6990 H     1 <1>   0.0800 
 33 H        2.2850     1.9510     2.2780 H     1 <1>   0.0800 
 34 H        0.4190    -3.8680     1.9870 H     1 <1>   0.0800 
 35 H       -0.6700    -1.7760     1.8610 H     1 <1>   0.0800 
 36 H        3.1090     5.2490     0.0300 H     1 <1>   0.0800 
 37 H        3.0370     4.3090     1.4900 H     1 <1>   0.0800 
 38 H       -1.2310    -6.0820     0.7340 H     1 <1>   0.0800 
 39 H       -0.9920    -5.8190     2.4510 H     1 <1>   0.0800 
 40 H        0.3530    -6.2920     1.4450 H     1 <1>   0.0800 
 41 H       -3.3750    -1.9880     0.5070 H     1 <1>   0.0800 
 42 H       -2.6700    -0.5060     1.1110 H     1 <1>   0.0800 
 43 H       -3.0950    -1.7790     2.2250 H     1 <1>   0.0800 
 44 H        5.3970     4.4130    -0.4160 H     1 <1>   0.0800 
 45 H        5.3490     3.4770     1.0580 H     1 <1>   0.0800 
 46 H        5.3160     5.2250     1.1310 H     1 <1>   0.0800 
@<TRIPOS>BOND
  1   1   2  2   
  2   2   3  am  
  3   2   4  1   
  4   3   5  1   
  5   3  22  1   
  6   4   6  1   
  7   4   7  1   
  8   4  23  1   
  9   5   8  1   
 10   5   9  2   
 11   6  10  1   
 12   6  11  1   
 13   7  24  1   
 14   7  25  1   
 15   7  26  1   
 16   8  12  1   
 17   9  13  1   
 18   9  14  1   
 19  10  15  1   
 20  10  27  1   
 21  10  28  1   
 22  11  16  1   
 23  11  29  1   
 24  11  30  1   
 25  12  13  2   
 26  13  17  1   
 27  14  31  1   
 28  14  32  1   
 29  14  33  1   
 30  15  18  1   
 31  15  19  1   
 32  15  34  1   
 33  16  18  1   
 34  16  20  1   
 35  16  35  1   
 36  17  21  1   
 37  17  36  1   
 38  17  37  1   
 39  19  38  1   
 40  19  39  1   
 41  19  40  1   
 42  20  41  1   
 43  20  42  1   
 44  20  43  1   
 45  21  44  1   
 46  21  45  1   
 47  21  46  1   
@<TRIPOS>SUBSTRUCTURE
  1 ****   3 GROUP 4 **** **** 0

# MOE 2024.06 (io_trps.svl 2023.06)
