@<TRIPOS>MOLECULE
NONAME
46 48 1 0 0 
SMALL
USER_CHARGES


@<TRIPOS>ATOM
  1 O       -1.8690    -3.9860     0.9210 O.2   1 <1>  -0.5700 
  2 C       -0.6830    -4.1650     0.8440 C.2   1 <1>   0.5690 
  3 N       -0.0800    -5.2060     1.4540 N.am  1 <1>  -0.7300 
  4 C        0.1950    -3.2150     0.0600 C.3   1 <1>  -0.0990 
  5 C        1.3740    -5.4490     1.4090 C.3   1 <1>   0.1400 
  6 C        1.2280    -4.0000    -0.7740 C.3   1 <1>  -0.0800 
  7 C        1.9060    -5.1690    -0.0140 C.3   1 <1>  -0.0800 
  8 C        2.3580    -3.1170    -1.3240 C.3   1 <1>  -0.1600 
  9 C        3.4120    -4.8760    -0.0530 C.3   1 <1>  -0.1600 
 10 C        3.5900    -4.0170    -1.3030 C.3   1 <1>   0.4230 
 11 N        4.8680    -3.2530    -1.3560 N.4   1 <1>  -0.9590 
 12 C        5.1590    -2.3900    -0.1720 C.3   1 <1>   0.4860 
 13 C        6.0220    -4.1610    -1.6520 C.3   1 <1>   0.2630 
 14 C        6.2450    -1.4060    -0.5580 C.ar  1 <1>  -0.1440 
 15 C        7.5510    -1.6010    -0.1360 C.ar  1 <1>  -0.1500 
 16 C        5.9480    -0.3020    -1.3440 C.ar  1 <1>  -0.1500 
 17 C        8.5430    -0.7140    -0.5110 C.ar  1 <1>  -0.1500 
 18 C        6.9480     0.5800    -1.7130 C.ar  1 <1>  -0.1500 
 19 C        8.2700     0.3970    -1.3080 C.ar  1 <1>   0.0860 
 20 C        9.3340     1.3090    -1.6950 C.2   1 <1>   0.5440 
 21 O       10.4840     0.9400    -1.7720 O.2   1 <1>  -0.5700 
 22 N        9.1030     2.6110    -1.9790 N.am  1 <1>  -0.8000 
 23 H       -0.6710    -5.8250     2.0160 H     1 <1>   0.3700 
 24 H       -0.4210    -2.6110    -0.5810 H     1 <1>   0.0800 
 25 H        0.6810    -2.5700     0.7680 H     1 <1>   0.0800 
 26 H        1.8440    -4.7980     2.1270 H     1 <1>   0.0800 
 27 H        1.5810    -6.4690     1.6890 H     1 <1>   0.0800 
 28 H        0.6960    -4.4330    -1.6070 H     1 <1>   0.0800 
 29 H        1.7300    -6.0630    -0.5910 H     1 <1>   0.0800 
 30 H        2.4860    -2.2640    -0.6850 H     1 <1>   0.0800 
 31 H        2.1300    -2.7850    -2.3220 H     1 <1>   0.0800 
 32 H        3.9790    -5.7890    -0.1090 H     1 <1>   0.0800 
 33 H        3.6850    -4.3330     0.8330 H     1 <1>   0.0800 
 34 H        3.5290    -4.6660    -2.1630 H     1 <1>   0.0800 
 35 H        4.7970    -2.6020    -2.1500 H     1 <1>   0.4500 
 36 H        4.2810    -1.8410     0.1250 H     1 <1>   0.0800 
 37 H        5.4820    -2.9920     0.6620 H     1 <1>   0.0800 
 38 H        6.1840    -4.8440    -0.8340 H     1 <1>   0.0800 
 39 H        6.9230    -3.5860    -1.8050 H     1 <1>   0.0800 
 40 H        5.8300    -4.7320    -2.5460 H     1 <1>   0.0800 
 41 H        7.8170    -2.4390     0.4870 H     1 <1>   0.1500 
 42 H        4.9410    -0.1140    -1.6770 H     1 <1>   0.1500 
 43 H        9.5570    -0.8750    -0.1840 H     1 <1>   0.1500 
 44 H        6.7010     1.4240    -2.3340 H     1 <1>   0.1500 
 45 H        9.9030     3.2010    -2.2130 H     1 <1>   0.3700 
 46 H        8.2220     3.0910    -1.8030 H     1 <1>   0.3700 
@<TRIPOS>BOND
  1   1   2  2   
  2   2   3  am  
  3   2   4  1   
  4   3   5  1   
  5   3  23  1   
  6   4   6  1   
  7   4  24  1   
  8   4  25  1   
  9   5   7  1   
 10   5  26  1   
 11   5  27  1   
 12   6   7  1   
 13   6   8  1   
 14   6  28  1   
 15   7   9  1   
 16   7  29  1   
 17   8  10  1   
 18   8  30  1   
 19   8  31  1   
 20   9  10  1   
 21   9  32  1   
 22   9  33  1   
 23  10  11  1   
 24  10  34  1   
 25  11  12  1   
 26  11  13  1   
 27  11  35  1   
 28  12  14  1   
 29  12  36  1   
 30  12  37  1   
 31  13  38  1   
 32  13  39  1   
 33  13  40  1   
 34  14  15  ar  
 35  14  16  ar  
 36  15  17  ar  
 37  15  41  1   
 38  16  18  ar  
 39  16  42  1   
 40  17  19  ar  
 41  17  43  1   
 42  18  19  ar  
 43  18  44  1   
 44  19  20  1   
 45  20  21  2   
 46  20  22  am  
 47  22  45  1   
 48  22  46  1   
@<TRIPOS>SUBSTRUCTURE
  1 ****  12 GROUP 4 **** **** 0

# MOE 2024.06 (io_trps.svl 2023.06)
