@<TRIPOS>MOLECULE
NONAME
61 64 1 0 0 
SMALL
USER_CHARGES


@<TRIPOS>ATOM
  1 O        0.3290     0.1440    -1.9460 O.3   1 <1>  -0.5600 
  2 C        1.5660    -0.5250    -1.9400 C.3   1 <1>   0.2000 
  3 C        0.4070     1.5370    -1.9960 C.3   1 <1>   0.1200 
  4 C        2.4690    -0.0390    -0.7720 C.3   1 <1>   0.5660 
  5 C        1.3040    -2.0360    -1.8240 C.3   1 <1>   0.1200 
  6 C        1.1500     2.0670    -0.7590 C.3   1 <1>   0.3430 
  7 N        2.5100     1.4490    -0.6140 N.4   1 <1>  -0.9590 
  8 C        3.9050    -0.5140    -0.9530 C.ar  1 <1>  -0.1430 
  9 O        0.9470    -2.3640    -0.5180 O.3   1 <1>  -0.6800 
 10 C        3.1250     1.8400     0.6850 C.3   1 <1>   0.4870 
 11 C        4.4810    -1.3080     0.0290 C.ar  1 <1>  -0.1500 
 12 C        4.6570    -0.1640    -2.0700 C.ar  1 <1>  -0.1500 
 13 C        3.5030     3.3050     0.6070 C.ar  1 <1>  -0.1430 
 14 C        5.7920    -1.7340    -0.0830 C.ar  1 <1>   0.0830 
 15 C        5.9730    -0.5780    -2.1830 C.ar  1 <1>  -0.1500 
 16 C        2.6400     4.2400     1.1270 C.ar  1 <1>   0.0830 
 17 C        4.7190     3.6900    -0.0100 C.ar  1 <1>   0.0000 
 18 O        6.2680    -2.5250     0.9080 O.3   1 <1>  -0.3630 
 19 C        6.5570    -1.3420    -1.1870 C.ar  1 <1>   0.0830 
 20 O        1.5000     3.8020     1.7210 O.3   1 <1>  -0.3630 
 21 C        2.9400     5.6090     1.0150 C.ar  1 <1>  -0.1500 
 22 C        4.9920     5.0710    -0.1470 C.ar  1 <1>   0.0000 
 23 C        5.6880     2.7790    -0.4970 C.ar  1 <1>  -0.1500 
 24 C        6.6350    -3.8410     0.5510 C.3   1 <1>   0.0400 
 25 O        7.8620    -1.6670    -1.3420 O.3   1 <1>  -0.3630 
 26 C        0.7510     4.6380     2.5810 C.3   1 <1>   0.0400 
 27 C        4.0850     6.0060     0.3870 C.ar  1 <1>  -0.1500 
 28 C        6.1660     5.4790    -0.8090 C.ar  1 <1>  -0.1500 
 29 C        6.8220     3.2040    -1.1310 C.ar  1 <1>  -0.1500 
 30 C        8.7670    -1.1560    -0.3860 C.3   1 <1>   0.0400 
 31 C        7.0620     4.5700    -1.2970 C.ar  1 <1>  -0.1500 
 32 H        2.0350    -0.3310    -2.8880 H     1 <1>   0.0800 
 33 H        0.9000     1.8310    -2.9070 H     1 <1>   0.0800 
 34 H       -0.5990     1.9200    -2.0120 H     1 <1>   0.0800 
 35 H        2.0750    -0.4700     0.1340 H     1 <1>   0.0800 
 36 H        2.1920    -2.5940    -2.0710 H     1 <1>   0.0800 
 37 H        0.5070    -2.3270    -2.4870 H     1 <1>   0.0800 
 38 H        0.5560     1.8460     0.1130 H     1 <1>   0.0800 
 39 H        1.2400     3.1390    -0.8280 H     1 <1>   0.0800 
 40 H        3.1260     1.8210    -1.3430 H     1 <1>   0.4500 
 41 H        0.5450    -3.2580    -0.4840 H     1 <1>   0.4000 
 42 H        2.4270     1.6780     1.4900 H     1 <1>   0.0800 
 43 H        4.0060     1.2530     0.8840 H     1 <1>   0.0800 
 44 H        3.9200    -1.6170     0.8960 H     1 <1>   0.1500 
 45 H        4.2440     0.4350    -2.8640 H     1 <1>   0.1500 
 46 H        6.5620    -0.3070    -3.0420 H     1 <1>   0.1500 
 47 H        2.2750     6.3540     1.4110 H     1 <1>   0.1500 
 48 H        5.5550     1.7240    -0.3640 H     1 <1>   0.1500 
 49 H        6.8900    -4.3740     1.4490 H     1 <1>   0.0800 
 50 H        7.4830    -3.8120    -0.1090 H     1 <1>   0.0800 
 51 H        5.8010    -4.3160     0.0650 H     1 <1>   0.0800 
 52 H       -0.0100     4.0420     3.0530 H     1 <1>   0.0800 
 53 H        0.2900     5.4190     2.0010 H     1 <1>   0.0800 
 54 H        1.4050     5.0510     3.3290 H     1 <1>   0.0800 
 55 H        4.3160     7.0530     0.2910 H     1 <1>   0.1500 
 56 H        6.3530     6.5330    -0.9240 H     1 <1>   0.1500 
 57 H        7.5480     2.5000    -1.5020 H     1 <1>   0.1500 
 58 H        9.7640    -1.3990    -0.7050 H     1 <1>   0.0800 
 59 H        8.5720    -1.6060     0.5700 H     1 <1>   0.0800 
 60 H        8.6480    -0.0890    -0.3290 H     1 <1>   0.0800 
 61 H        7.9580     4.8900    -1.8010 H     1 <1>   0.1500 
@<TRIPOS>BOND
  1   1   2  1   
  2   1   3  1   
  3   2   4  1   
  4   2   5  1   
  5   2  32  1   
  6   3   6  1   
  7   3  33  1   
  8   3  34  1   
  9   4   7  1   
 10   4   8  1   
 11   4  35  1   
 12   5   9  1   
 13   5  36  1   
 14   5  37  1   
 15   6   7  1   
 16   6  38  1   
 17   6  39  1   
 18   7  10  1   
 19   7  40  1   
 20   8  11  ar  
 21   8  12  ar  
 22   9  41  1   
 23  10  13  1   
 24  10  42  1   
 25  10  43  1   
 26  11  14  ar  
 27  11  44  1   
 28  12  15  ar  
 29  12  45  1   
 30  13  16  ar  
 31  13  17  ar  
 32  14  18  1   
 33  14  19  ar  
 34  15  19  ar  
 35  15  46  1   
 36  16  20  1   
 37  16  21  ar  
 38  17  22  ar  
 39  17  23  ar  
 40  18  24  1   
 41  19  25  1   
 42  20  26  1   
 43  21  27  ar  
 44  21  47  1   
 45  22  27  ar  
 46  22  28  ar  
 47  23  29  ar  
 48  23  48  1   
 49  24  49  1   
 50  24  50  1   
 51  24  51  1   
 52  25  30  1   
 53  26  52  1   
 54  26  53  1   
 55  26  54  1   
 56  27  55  1   
 57  28  31  ar  
 58  28  56  1   
 59  29  31  ar  
 60  29  57  1   
 61  30  58  1   
 62  30  59  1   
 63  30  60  1   
 64  31  61  1   
@<TRIPOS>SUBSTRUCTURE
  1 ****  10 GROUP 4 **** **** 0

# MOE 2024.06 (io_trps.svl 2023.06)
