@<TRIPOS>MOLECULE
NONAME
44 46 1 0 0 
SMALL
USER_CHARGES


@<TRIPOS>ATOM
  1 O        0.5680    -0.2170     0.2050 O.2   1 <1>  -0.5700 
  2 C        1.3180    -1.1410     0.3840 C.2   1 <1>   0.5690 
  3 N        1.0560    -2.1060     1.2890 N.am  1 <1>  -0.7300 
  4 C        2.6010    -1.2700    -0.4070 C.3   1 <1>  -0.0990 
  5 C        1.9690    -3.2400     1.5260 C.3   1 <1>   0.1400 
  6 C        2.7950    -2.7240    -0.8920 C.3   1 <1>  -0.0800 
  7 C        2.4340    -3.8010     0.1640 C.3   1 <1>  -0.0800 
  8 C        4.2280    -3.0080    -1.3570 C.3   1 <1>  -0.1600 
  9 C        3.6520    -4.7300     0.2870 C.3   1 <1>  -0.1600 
 10 C        4.4980    -4.4550    -0.9600 C.3   1 <1>   0.4230 
 11 N        5.9650    -4.7670    -0.8590 N.4   1 <1>  -0.9590 
 12 C        6.6510    -4.4940     0.4610 C.3   1 <1>   0.5230 
 13 C        6.1870    -6.1940    -1.2440 C.3   1 <1>   0.2630 
 14 C        6.6490    -3.0280     0.8580 C.2   1 <1>   0.0060 
 15 N        5.7600    -2.5150     1.6340 N.2   1 <1>  -0.3380 
 16 N        7.5380    -2.1080     0.4690 N.pl3 1 <1>   0.0330 
 17 N        6.0400    -1.2210     1.7500 N.2   1 <1>  -0.3380 
 18 C        7.0990    -0.9950     1.0550 C.2   1 <1>   0.0060 
 19 C        7.7680     0.3620     0.9180 C.3   1 <1>   0.0200 
 20 C        7.6670     0.8930    -0.5160 C.3   1 <1>  -0.2400 
 21 H        0.2320    -1.9900     1.8830 H     1 <1>   0.3700 
 22 H        2.5770    -0.5940    -1.2430 H     1 <1>   0.0800 
 23 H        3.4050    -0.9750     0.2420 H     1 <1>   0.0800 
 24 H        2.8120    -2.8830     2.0960 H     1 <1>   0.0800 
 25 H        1.4650    -4.0040     2.0950 H     1 <1>   0.0800 
 26 H        2.1300    -2.8710    -1.7280 H     1 <1>   0.0800 
 27 H        1.6150    -4.3770    -0.2330 H     1 <1>   0.0800 
 28 H        4.8990    -2.3280    -0.8730 H     1 <1>   0.0800 
 29 H        4.3080    -2.8750    -2.4210 H     1 <1>   0.0800 
 30 H        3.3390    -5.7580     0.3210 H     1 <1>   0.0800 
 31 H        4.1680    -4.4970     1.1950 H     1 <1>   0.0800 
 32 H        4.0770    -5.0540    -1.7520 H     1 <1>   0.0800 
 33 H        6.4150    -4.1690    -1.5610 H     1 <1>   0.4500 
 34 H        6.1650    -5.0550     1.2420 H     1 <1>   0.0800 
 35 H        7.6730    -4.8310     0.4130 H     1 <1>   0.0800 
 36 H        5.7080    -6.8520    -0.5370 H     1 <1>   0.0800 
 37 H        7.2410    -6.4210    -1.2690 H     1 <1>   0.0800 
 38 H        5.7750    -6.3860    -2.2230 H     1 <1>   0.0800 
 39 H        8.3680    -2.1890    -0.1240 H     1 <1>   0.2700 
 40 H        7.2850     1.0550     1.5850 H     1 <1>   0.0800 
 41 H        8.8000     0.2890     1.2140 H     1 <1>   0.0800 
 42 H        6.6340     0.9640    -0.8090 H     1 <1>   0.0800 
 43 H        8.1840     0.2490    -1.2030 H     1 <1>   0.0800 
 44 H        8.1040     1.8750    -0.5720 H     1 <1>   0.0800 
@<TRIPOS>BOND
  1   1   2  2   
  2   2   3  am  
  3   2   4  1   
  4   3   5  1   
  5   3  21  1   
  6   4   6  1   
  7   4  22  1   
  8   4  23  1   
  9   5   7  1   
 10   5  24  1   
 11   5  25  1   
 12   6   7  1   
 13   6   8  1   
 14   6  26  1   
 15   7   9  1   
 16   7  27  1   
 17   8  10  1   
 18   8  28  1   
 19   8  29  1   
 20   9  10  1   
 21   9  30  1   
 22   9  31  1   
 23  10  11  1   
 24  10  32  1   
 25  11  12  1   
 26  11  13  1   
 27  11  33  1   
 28  12  14  1   
 29  12  34  1   
 30  12  35  1   
 31  13  36  1   
 32  13  37  1   
 33  13  38  1   
 34  14  15  2   
 35  14  16  1   
 36  15  17  1   
 37  16  18  1   
 38  16  39  1   
 39  17  18  2   
 40  18  19  1   
 41  19  20  1   
 42  19  40  1   
 43  19  41  1   
 44  20  42  1   
 45  20  43  1   
 46  20  44  1   
@<TRIPOS>SUBSTRUCTURE
  1 ****   8 GROUP 4 **** **** 0

# MOE 2024.06 (io_trps.svl 2023.06)
