@<TRIPOS>MOLECULE
NONAME
53 57 1 0 0 
SMALL
USER_CHARGES


@<TRIPOS>ATOM
  1 O        0.0660     0.9170    -1.7930 O.2   1 <1>  -0.5700 
  2 C        0.1800     1.9620    -1.1950 C.2   1 <1>   0.5690 
  3 N       -0.6740     2.3790    -0.2100 N.am  1 <1>  -0.5090 
  4 C        1.3160     2.8920    -1.5660 C.3   1 <1>  -0.0990 
  5 C       -1.8650     1.6130     0.2160 C.3   1 <1>   0.0490 
  6 C       -0.4090     3.6510     0.5140 C.3   1 <1>   0.1400 
  7 C        0.7640     4.3170    -1.7020 C.3   1 <1>  -0.1600 
  8 C       -2.0090     1.2460     1.6620 C.3   1 <1>  -0.2000 
  9 C       -1.7020     0.1900     0.6510 C.3   1 <1>  -0.2000 
 10 C        0.0440     4.8160    -0.4120 C.3   1 <1>   0.0000 
 11 C        1.0430     5.6590     0.4250 C.3   1 <1>   0.2090 
 12 C       -1.1970     5.6650    -0.8210 C.3   1 <1>  -0.1600 
 13 N        1.1890     7.0390    -0.1090 N.pl3 1 <1>  -0.8210 
 14 C       -1.3250     6.9510     0.0070 C.3   1 <1>  -0.1600 
 15 C        2.3230     7.7620     0.3030 C.2   1 <1>   0.3720 
 16 C       -0.0800     7.8280    -0.1940 C.3   1 <1>   0.2090 
 17 N        3.1270     7.3350     1.2180 N.2   1 <1>  -0.4100 
 18 C        2.7490     9.0000    -0.1870 C.2   1 <1>  -0.2330 
 19 O        4.0520     8.2490     1.3360 O.3   1 <1>  -0.0190 
 20 C        3.8770     9.2630     0.5220 C.2   1 <1>   0.0870 
 21 C        2.1050     9.7770    -1.1950 C.2   1 <1>   1.0330 
 22 C        4.8150    10.3630     0.5390 C.ar  1 <1>   0.0530 
 23 O        1.1130    10.4750    -0.9140 O.co2 1 <1>  -0.9000 
 24 O        2.5380     9.7980    -2.3600 O.co2 1 <1>  -0.9000 
 25 C        5.5790    10.6290     1.6770 C.ar  1 <1>  -0.1500 
 26 C        5.0090    11.1980    -0.5620 C.ar  1 <1>  -0.1500 
 27 C        6.4850    11.6730     1.7180 C.ar  1 <1>  -0.1500 
 28 C        5.9110    12.2450    -0.5290 C.ar  1 <1>  -0.1500 
 29 C        6.6530    12.4860     0.6120 C.ar  1 <1>  -0.1500 
 30 H        1.7450     2.5770    -2.5000 H     1 <1>   0.0800 
 31 H        2.0770     2.8470    -0.8100 H     1 <1>   0.0800 
 32 H       -2.7450     1.8690    -0.3500 H     1 <1>   0.1000 
 33 H        0.3620     3.4400     1.2350 H     1 <1>   0.0800 
 34 H       -1.2850     3.9460     1.0670 H     1 <1>   0.0800 
 35 H        0.0690     4.2920    -2.5230 H     1 <1>   0.0800 
 36 H        1.5500     4.9990    -1.9820 H     1 <1>   0.0800 
 37 H       -2.9890     1.2470     2.1050 H     1 <1>   0.1000 
 38 H       -1.2360     1.5110     2.3600 H     1 <1>   0.1000 
 39 H       -0.7160    -0.2400     0.6130 H     1 <1>   0.1000 
 40 H       -2.4690    -0.5140     0.3850 H     1 <1>   0.1000 
 41 H        2.0030     5.1710     0.4310 H     1 <1>   0.0800 
 42 H        0.7100     5.7350     1.4460 H     1 <1>   0.0800 
 43 H       -2.1000     5.0840    -0.7530 H     1 <1>   0.0800 
 44 H       -1.1070     5.9810    -1.8470 H     1 <1>   0.0800 
 45 H       -1.4450     6.7250     1.0520 H     1 <1>   0.0800 
 46 H       -2.1900     7.5070    -0.3070 H     1 <1>   0.0800 
 47 H       -0.1300     8.2730    -1.1740 H     1 <1>   0.0800 
 48 H       -0.0690     8.6280     0.5280 H     1 <1>   0.0800 
 49 H        5.4540    10.0080     2.5460 H     1 <1>   0.1500 
 50 H        4.4480    11.0260    -1.4640 H     1 <1>   0.1500 
 51 H        7.0580    11.8540     2.6110 H     1 <1>   0.1500 
 52 H        6.0300    12.8690    -1.3970 H     1 <1>   0.1500 
 53 H        7.3550    13.3010     0.6380 H     1 <1>   0.1500 
@<TRIPOS>BOND
  1   1   2  2   
  2   2   3  am  
  3   2   4  1   
  4   3   5  1   
  5   3   6  1   
  6   4   7  1   
  7   4  30  1   
  8   4  31  1   
  9   5   8  1   
 10   5   9  1   
 11   5  32  1   
 12   6  10  1   
 13   6  33  1   
 14   6  34  1   
 15   7  10  1   
 16   7  35  1   
 17   7  36  1   
 18   8   9  1   
 19   8  37  1   
 20   8  38  1   
 21   9  39  1   
 22   9  40  1   
 23  10  11  1   
 24  10  12  1   
 25  11  13  1   
 26  11  41  1   
 27  11  42  1   
 28  12  14  1   
 29  12  43  1   
 30  12  44  1   
 31  13  15  1   
 32  13  16  1   
 33  14  16  1   
 34  14  45  1   
 35  14  46  1   
 36  15  17  2   
 37  15  18  1   
 38  16  47  1   
 39  16  48  1   
 40  17  19  1   
 41  18  20  2   
 42  18  21  1   
 43  19  20  1   
 44  20  22  1   
 45  21  23  ar  
 46  21  24  ar  
 47  22  25  ar  
 48  22  26  ar  
 49  25  27  ar  
 50  25  49  1   
 51  26  28  ar  
 52  26  50  1   
 53  27  29  ar  
 54  27  51  1   
 55  28  29  ar  
 56  28  52  1   
 57  29  53  1   
@<TRIPOS>SUBSTRUCTURE
  1 ****  13 GROUP 4 **** **** 0

# MOE 2024.06 (io_trps.svl 2023.06)
