@<TRIPOS>MOLECULE
NONAME
56 58 1 0 0 
SMALL
USER_CHARGES


@<TRIPOS>ATOM
  1 O        2.2060    -0.5860     2.5070 O.2   1 <1>  -0.5700 
  2 C        1.8110    -0.8870     1.3940 C.2   1 <1>   0.5440 
  3 N        1.7080     0.1380     0.4770 N.am  1 <1>  -0.6600 
  4 C        1.6070    -2.2740     1.0380 C.ar  1 <1>   0.0860 
  5 C        2.3110    -0.0180    -0.8650 C.3   1 <1>   0.1400 
  6 C        1.5130     1.5560     0.9050 C.3   1 <1>   0.1400 
  7 C        0.4870    -2.7190     0.2750 C.ar  1 <1>   0.0000 
  8 C        2.5550    -3.2040     1.4180 C.ar  1 <1>  -0.1500 
  9 C        3.7560     0.5130    -0.8220 C.3   1 <1>  -0.1600 
 10 C        2.6840     2.4390     0.4360 C.3   1 <1>  -0.1600 
 11 C        0.4440    -4.0600    -0.1840 C.ar  1 <1>   0.0000 
 12 C       -0.6030    -1.8780    -0.0500 C.ar  1 <1>  -0.1500 
 13 C        2.4780    -4.5300     1.0240 C.ar  1 <1>  -0.1500 
 14 C        3.9820     1.6440     0.2130 C.3   1 <1>   0.2800 
 15 C        1.4510    -4.9790     0.2260 C.ar  1 <1>   0.1000 
 16 C       -0.6130    -4.4410    -1.0390 C.ar  1 <1>  -0.1500 
 17 C       -1.6300    -2.2910    -0.8530 C.ar  1 <1>  -0.1500 
 18 O        4.3160     1.0480     1.4270 O.3   1 <1>  -0.6800 
 19 C        5.1630     2.5770    -0.1770 C.3   1 <1>   0.3430 
 20 N        1.4040    -6.3180    -0.1340 N.pl3 1 <1>  -0.8380 
 21 C       -1.6270    -3.5860    -1.3690 C.ar  1 <1>  -0.1500 
 22 N        6.4770     2.0270     0.3000 N.4   1 <1>  -0.9590 
 23 C        2.5920    -6.9960    -0.7150 C.3   1 <1>   0.1290 
 24 C        0.3990    -7.2050     0.5070 C.3   1 <1>   0.1290 
 25 C        7.3920     3.0970     0.7930 C.3   1 <1>   0.2630 
 26 C        7.1420     1.1310    -0.6900 C.3   1 <1>   0.2630 
 27 H        1.7250     0.5470    -1.5720 H     1 <1>   0.0800 
 28 H        2.2990    -1.0490    -1.1800 H     1 <1>   0.0800 
 29 H        1.4330     1.6080     1.9780 H     1 <1>   0.0800 
 30 H        0.5870     1.9250     0.4980 H     1 <1>   0.0800 
 31 H        3.3820    -2.8950     2.0340 H     1 <1>   0.1500 
 32 H        3.9850     0.8700    -1.8090 H     1 <1>   0.0800 
 33 H        4.4220    -0.3060    -0.6190 H     1 <1>   0.0800 
 34 H        2.8420     3.2250     1.1540 H     1 <1>   0.0800 
 35 H        2.3990     2.9120    -0.4870 H     1 <1>   0.0800 
 36 H       -0.6350    -0.8800     0.3460 H     1 <1>   0.1500 
 37 H        3.2320    -5.2200     1.3540 H     1 <1>   0.1500 
 38 H       -0.6110    -5.4390    -1.4370 H     1 <1>   0.1500 
 39 H       -2.4450    -1.6310    -1.0950 H     1 <1>   0.1500 
 40 H        3.5350     0.5280     1.7630 H     1 <1>   0.4000 
 41 H        4.9900     3.5270     0.2990 H     1 <1>   0.0800 
 42 H        5.1770     2.7450    -1.2400 H     1 <1>   0.0800 
 43 H       -2.4270    -3.8990    -2.0170 H     1 <1>   0.1500 
 44 H        6.1770     1.4460     1.1150 H     1 <1>   0.4500 
 45 H        3.2660    -6.2650    -1.1280 H     1 <1>   0.0800 
 46 H        2.2810    -7.6620    -1.5010 H     1 <1>   0.0800 
 47 H        3.1040    -7.5580     0.0460 H     1 <1>   0.0800 
 48 H       -0.3430    -6.6140     1.0160 H     1 <1>   0.0800 
 49 H        0.8790    -7.8480     1.2230 H     1 <1>   0.0800 
 50 H       -0.0870    -7.8050    -0.2420 H     1 <1>   0.0800 
 51 H        7.6780     3.7500    -0.0160 H     1 <1>   0.0800 
 52 H        8.2820     2.6610     1.2160 H     1 <1>   0.0800 
 53 H        6.9040     3.6830     1.5550 H     1 <1>   0.0800 
 54 H        7.4090     1.6840    -1.5760 H     1 <1>   0.0800 
 55 H        6.4830     0.3250    -0.9670 H     1 <1>   0.0800 
 56 H        8.0370     0.7070    -0.2650 H     1 <1>   0.0800 
@<TRIPOS>BOND
  1   1   2  2   
  2   2   3  am  
  3   2   4  1   
  4   3   5  1   
  5   3   6  1   
  6   4   7  ar  
  7   4   8  ar  
  8   5   9  1   
  9   5  27  1   
 10   5  28  1   
 11   6  10  1   
 12   6  29  1   
 13   6  30  1   
 14   7  11  ar  
 15   7  12  ar  
 16   8  13  ar  
 17   8  31  1   
 18   9  14  1   
 19   9  32  1   
 20   9  33  1   
 21  10  14  1   
 22  10  34  1   
 23  10  35  1   
 24  11  15  ar  
 25  11  16  ar  
 26  12  17  ar  
 27  12  36  1   
 28  13  15  ar  
 29  13  37  1   
 30  14  18  1   
 31  14  19  1   
 32  15  20  1   
 33  16  21  ar  
 34  16  38  1   
 35  17  21  ar  
 36  17  39  1   
 37  18  40  1   
 38  19  22  1   
 39  19  41  1   
 40  19  42  1   
 41  20  23  1   
 42  20  24  1   
 43  21  43  1   
 44  22  25  1   
 45  22  26  1   
 46  22  44  1   
 47  23  45  1   
 48  23  46  1   
 49  23  47  1   
 50  24  48  1   
 51  24  49  1   
 52  24  50  1   
 53  25  51  1   
 54  25  52  1   
 55  25  53  1   
 56  26  54  1   
 57  26  55  1   
 58  26  56  1   
@<TRIPOS>SUBSTRUCTURE
  1 ****   4 GROUP 4 **** **** 0

# MOE 2024.06 (io_trps.svl 2023.06)
