@<TRIPOS>MOLECULE
NONAME
51 54 1 0 0 
SMALL
USER_CHARGES


@<TRIPOS>ATOM
  1 O        0.1340    -0.0250     0.4810 O.2   1 <1>  -0.5700 
  2 C       -0.8120     0.4580    -0.0950 C.2   1 <1>   0.5690 
  3 N       -2.1040     0.1440     0.2720 N.am  1 <1>  -0.6600 
  4 C       -0.4870     1.3850    -1.2570 C.3   1 <1>   0.1570 
  5 C       -2.3680    -0.6610     1.5010 C.3   1 <1>   0.1400 
  6 C       -3.3560     0.4660    -0.4720 C.3   1 <1>   0.1400 
  7 N       -0.0180     2.7050    -0.7850 N.pl3 1 <1>   0.0480 
  8 C       -3.0380    -1.9800     1.1090 C.3   1 <1>  -0.1600 
  9 C       -4.0260    -0.8390    -0.9050 C.3   1 <1>  -0.1600 
 10 C       -0.7070     3.7200    -0.2020 C.2   1 <1>   0.0070 
 11 C        1.2340     3.1820    -0.9200 C.2   1 <1>  -0.3020 
 12 C       -4.3210    -1.7520     0.2980 C.3   1 <1>   0.4240 
 13 N        0.0090     4.7720     0.0250 N.2   1 <1>  -0.5650 
 14 C       -2.1760     3.6590     0.1620 C.3   1 <1>  -0.0600 
 15 C        1.2310     4.4350    -0.4220 C.2   1 <1>   0.0770 
 16 O       -5.1880    -1.0560     1.1620 O.3   1 <1>  -0.5600 
 17 C       -4.9190    -3.1020    -0.1570 C.ar  1 <1>  -0.1430 
 18 C       -6.5550    -1.1160     0.8950 C.3   1 <1>   0.1200 
 19 C       -6.2040    -3.4820     0.2160 C.ar  1 <1>  -0.1430 
 20 C       -4.1790    -3.9660    -0.9570 C.ar  1 <1>  -0.1500 
 21 C       -7.0320    -2.5530     1.0800 C.3   1 <1>  -0.0170 
 22 C       -6.7310    -4.6960    -0.1940 C.ar  1 <1>  -0.1500 
 23 C       -4.7040    -5.1770    -1.3690 C.ar  1 <1>  -0.1500 
 24 C       -5.9800    -5.5530    -0.9920 C.ar  1 <1>   0.0830 
 25 O       -6.4210    -6.7570    -1.4370 O.3   1 <1>  -0.3630 
 26 C       -7.6980    -7.2430    -1.0920 C.3   1 <1>   0.0400 
 27 H       -1.3180     1.5270    -1.9120 H     1 <1>   0.0800 
 28 H        0.3030     0.9330    -1.8260 H     1 <1>   0.0800 
 29 H       -3.0120    -0.1020     2.1590 H     1 <1>   0.0800 
 30 H       -1.4550    -0.8660     2.0350 H     1 <1>   0.0800 
 31 H       -3.1700     1.0730    -1.3360 H     1 <1>   0.0800 
 32 H       -4.0180     1.0150     0.1780 H     1 <1>   0.0800 
 33 H       -3.2760    -2.5440     1.9920 H     1 <1>   0.0800 
 34 H       -2.3320    -2.5550     0.5410 H     1 <1>   0.0800 
 35 H       -3.3710    -1.3460    -1.5890 H     1 <1>   0.0800 
 36 H       -4.9350    -0.6300    -1.4370 H     1 <1>   0.0800 
 37 H        2.0420     2.6190    -1.3480 H     1 <1>   0.1500 
 38 H       -2.7670     3.4350    -0.7050 H     1 <1>   0.0800 
 39 H       -2.4900     4.6100     0.5540 H     1 <1>   0.0800 
 40 H       -2.3350     2.9140     0.9200 H     1 <1>   0.0800 
 41 H        2.0570     5.1240    -0.3580 H     1 <1>   0.1500 
 42 H       -6.7370    -0.7750    -0.1080 H     1 <1>   0.0800 
 43 H       -7.0560    -0.4620     1.5870 H     1 <1>   0.0800 
 44 H       -3.1830    -3.7070    -1.2690 H     1 <1>   0.1500 
 45 H       -8.0710    -2.6180     0.8090 H     1 <1>   0.0800 
 46 H       -6.9330    -2.8340     2.1140 H     1 <1>   0.0800 
 47 H       -7.7230    -4.9630     0.1140 H     1 <1>   0.1500 
 48 H       -4.1260    -5.8400    -1.9870 H     1 <1>   0.1500 
 49 H       -7.8210    -8.2090    -1.5470 H     1 <1>   0.0800 
 50 H       -8.4430    -6.5640    -1.4680 H     1 <1>   0.0800 
 51 H       -7.7600    -7.3320    -0.0220 H     1 <1>   0.0800 
@<TRIPOS>BOND
  1   1   2  2   
  2   2   3  am  
  3   2   4  1   
  4   3   5  1   
  5   3   6  1   
  6   4   7  1   
  7   4  27  1   
  8   4  28  1   
  9   5   8  1   
 10   5  29  1   
 11   5  30  1   
 12   6   9  1   
 13   6  31  1   
 14   6  32  1   
 15   7  10  1   
 16   7  11  1   
 17   8  12  1   
 18   8  33  1   
 19   8  34  1   
 20   9  12  1   
 21   9  35  1   
 22   9  36  1   
 23  10  13  2   
 24  10  14  1   
 25  11  15  2   
 26  11  37  1   
 27  12  16  1   
 28  12  17  1   
 29  13  15  1   
 30  14  38  1   
 31  14  39  1   
 32  14  40  1   
 33  15  41  1   
 34  16  18  1   
 35  17  19  ar  
 36  17  20  ar  
 37  18  21  1   
 38  18  42  1   
 39  18  43  1   
 40  19  21  1   
 41  19  22  ar  
 42  20  23  ar  
 43  20  44  1   
 44  21  45  1   
 45  21  46  1   
 46  22  24  ar  
 47  22  47  1   
 48  23  24  ar  
 49  23  48  1   
 50  24  25  1   
 51  25  26  1   
 52  26  49  1   
 53  26  50  1   
 54  26  51  1   
@<TRIPOS>SUBSTRUCTURE
  1 ****   9 GROUP 4 **** **** 0

# MOE 2024.06 (io_trps.svl 2023.06)
