@<TRIPOS>MOLECULE
NONAME
43 46 1 0 0 
SMALL
USER_CHARGES


@<TRIPOS>ATOM
  1 O        1.7000    -0.2680    -0.8350 O.3   1 <1>  -0.0190 
  2 N        0.8140     0.4380    -1.4670 N.2   1 <1>  -0.4100 
  3 C        1.6970     0.2290     0.3780 C.2   1 <1>   0.2980 
  4 C        0.3430     1.2850    -0.6380 C.2   1 <1>   0.3350 
  5 N        0.8870     1.1960     0.5690 N.2   1 <1>  -0.5650 
  6 C        2.6480    -0.3730     1.4150 C.3   1 <1>   0.4690 
  7 C       -0.7330     2.3320    -0.9330 C.3   1 <1>   0.1010 
  8 N        2.6960    -1.8700     1.3670 N.pl3 1 <1>  -0.8220 
  9 C        4.0970     0.0600     1.1950 C.3   1 <1>  -0.1600 
 10 C       -1.6810     1.8990    -2.0630 C.3   1 <1>  -0.2400 
 11 C       -0.0930     3.6850    -1.2730 C.3   1 <1>  -0.2400 
 12 C        1.7350    -2.6020     2.0830 C.2   1 <1>   0.2700 
 13 C        4.1030    -2.3400     1.3910 C.3   1 <1>   0.2090 
 14 C        4.9320    -1.1050     1.7160 C.3   1 <1>  -0.1600 
 15 N        1.0660    -2.1370     3.0780 N.2   1 <1>  -0.3380 
 16 N        1.3740    -3.8830     1.8620 N.pl3 1 <1>   0.5930 
 17 N        0.2950    -3.1350     3.4990 N.2   1 <1>   0.0000 
 18 N        0.4690    -4.1870     2.7920 N.2   1 <1>  -0.4180 
 19 C        1.8290    -4.7930     0.8650 C.ar  1 <1>  -0.0230 
 20 C        2.1330    -6.1120     1.1930 C.ar  1 <1>  -0.1500 
 21 C        1.9830    -4.3860    -0.4590 C.ar  1 <1>  -0.1500 
 22 C        2.5870    -6.9950     0.2300 C.ar  1 <1>  -0.1500 
 23 C        2.4370    -5.2680    -1.4220 C.ar  1 <1>  -0.1500 
 24 C        2.7410    -6.5730    -1.0790 C.ar  1 <1>  -0.1500 
 25 H        2.3390    -0.0530     2.3960 H     1 <1>   0.0800 
 26 H       -1.3190     2.4490    -0.0380 H     1 <1>   0.0800 
 27 H        4.2760     0.1920     0.1420 H     1 <1>   0.0800 
 28 H        4.3120     0.9830     1.7030 H     1 <1>   0.0800 
 29 H       -1.1400     1.7900    -2.9870 H     1 <1>   0.0800 
 30 H       -2.4600     2.6280    -2.2010 H     1 <1>   0.0800 
 31 H       -2.1330     0.9540    -1.8200 H     1 <1>   0.0800 
 32 H        0.5090     3.5990    -2.1600 H     1 <1>   0.0800 
 33 H        0.5380     4.0040    -0.4620 H     1 <1>   0.0800 
 34 H       -0.8500     4.4310    -1.4340 H     1 <1>   0.0800 
 35 H        4.2510    -3.1140     2.1250 H     1 <1>   0.0800 
 36 H        4.3620    -2.7170     0.4150 H     1 <1>   0.0800 
 37 H        5.0430    -1.0300     2.7850 H     1 <1>   0.0800 
 38 H        5.9080    -1.1470     1.2640 H     1 <1>   0.0800 
 39 H        2.0110    -6.4520     2.2090 H     1 <1>   0.1500 
 40 H        1.7460    -3.3720    -0.7410 H     1 <1>   0.1500 
 41 H        2.8190    -8.0120     0.4970 H     1 <1>   0.1500 
 42 H        2.5520    -4.9390    -2.4410 H     1 <1>   0.1500 
 43 H        3.0940    -7.2600    -1.8290 H     1 <1>   0.1500 
@<TRIPOS>BOND
  1   1   2  1   
  2   1   3  1   
  3   2   4  2   
  4   3   5  2   
  5   3   6  1   
  6   4   5  1   
  7   4   7  1   
  8   6   8  1   
  9   6   9  1   
 10   6  25  1   
 11   7  10  1   
 12   7  11  1   
 13   7  26  1   
 14   8  12  1   
 15   8  13  1   
 16   9  14  1   
 17   9  27  1   
 18   9  28  1   
 19  10  29  1   
 20  10  30  1   
 21  10  31  1   
 22  11  32  1   
 23  11  33  1   
 24  11  34  1   
 25  12  15  2   
 26  12  16  1   
 27  13  14  1   
 28  13  35  1   
 29  13  36  1   
 30  14  37  1   
 31  14  38  1   
 32  15  17  1   
 33  16  18  1   
 34  16  19  1   
 35  17  18  2   
 36  19  20  ar  
 37  19  21  ar  
 38  20  22  ar  
 39  20  39  1   
 40  21  23  ar  
 41  21  40  1   
 42  22  24  ar  
 43  22  41  1   
 44  23  24  ar  
 45  23  42  1   
 46  24  43  1   
@<TRIPOS>SUBSTRUCTURE
  1 ****   8 GROUP 4 **** **** 0

# MOE 2024.06 (io_trps.svl 2023.06)
