@<TRIPOS>MOLECULE
NONAME
50 52 1 0 0 
SMALL
USER_CHARGES


@<TRIPOS>ATOM
  1 O       -0.2130     1.0720     0.3460 O.2   1 <1>  -0.5700 
  2 C       -0.3160     2.2670     0.1960 C.2   1 <1>   0.5690 
  3 N       -1.3560     2.9880     0.7170 N.am  1 <1>  -0.6600 
  4 C        0.7490     2.9850    -0.6310 C.3   1 <1>   0.1810 
  5 C       -1.4910     4.4610     0.4640 C.3   1 <1>   0.3640 
  6 C       -2.4000     2.3720     1.5860 C.3   1 <1>   0.0600 
  7 O        0.8620     4.3450    -0.2940 O.3   1 <1>  -0.5600 
  8 C       -2.8800     4.7870    -0.1150 C.ar  1 <1>  -0.1430 
  9 C       -0.3520     5.0800    -0.3940 C.3   1 <1>   0.2610 
 10 C       -3.4450     4.1700    -1.2370 C.ar  1 <1>  -0.1430 
 11 C       -3.6110     5.7690     0.5440 C.ar  1 <1>  -0.1500 
 12 C       -0.1120     6.5340     0.0390 C.2   1 <1>   0.5690 
 13 C       -4.7140     4.5460    -1.6560 C.ar  1 <1>  -0.1500 
 14 C       -2.7500     3.0800    -2.0450 C.3   1 <1>  -0.0960 
 15 C       -4.8730     6.1360     0.1160 C.ar  1 <1>  -0.1500 
 16 O       -0.9850     7.3570    -0.0980 O.2   1 <1>  -0.5700 
 17 N        1.0920     6.8730     0.5750 N.am  1 <1>  -0.7300 
 18 C       -5.4270     5.5210    -0.9870 C.ar  1 <1>  -0.1500 
 19 C        1.4870     8.2180     1.0360 C.3   1 <1>   0.1400 
 20 C        2.4750     8.8160     0.0370 C.3   1 <1>  -0.1600 
 21 C        2.8320    10.2560     0.4230 C.3   1 <1>   0.0960 
 22 N        3.7960    10.8260    -0.5380 N.pl3 1 <1>   0.0480 
 23 C        5.1330    10.9630    -0.3910 C.2   1 <1>   0.0360 
 24 C        3.5340    11.3330    -1.7560 C.2   1 <1>  -0.3020 
 25 N        5.7220    11.5080    -1.4060 N.2   1 <1>  -0.5650 
 26 C        4.7150    11.7420    -2.2680 C.2   1 <1>   0.0770 
 27 H        0.5160     2.9050    -1.6760 H     1 <1>   0.0800 
 28 H        1.7030     2.5230    -0.4520 H     1 <1>   0.0800 
 29 H       -1.4250     4.9290     1.4310 H     1 <1>   0.0800 
 30 H       -2.4790     2.9200     2.5080 H     1 <1>   0.0800 
 31 H       -2.1500     1.3500     1.8140 H     1 <1>   0.0800 
 32 H       -3.3510     2.3880     1.0840 H     1 <1>   0.0800 
 33 H       -0.6420     5.0940    -1.4270 H     1 <1>   0.0800 
 34 H       -3.2000     6.2730     1.4010 H     1 <1>   0.1500 
 35 H       -5.1640     4.0780    -2.5140 H     1 <1>   0.1500 
 36 H       -3.2730     2.8910    -2.9650 H     1 <1>   0.0800 
 37 H       -2.7280     2.1630    -1.4850 H     1 <1>   0.0800 
 38 H       -1.7490     3.3660    -2.2980 H     1 <1>   0.0800 
 39 H       -5.4180     6.9020     0.6390 H     1 <1>   0.1500 
 40 H        1.8040     6.1340     0.6050 H     1 <1>   0.3700 
 41 H       -6.4090     5.8020    -1.3260 H     1 <1>   0.1500 
 42 H        0.6120     8.8440     1.1080 H     1 <1>   0.0800 
 43 H        1.9330     8.1430     2.0130 H     1 <1>   0.0800 
 44 H        2.0240     8.8170    -0.9410 H     1 <1>   0.0800 
 45 H        3.3680     8.2180     0.0150 H     1 <1>   0.0800 
 46 H        3.2680    10.2830     1.4050 H     1 <1>   0.0800 
 47 H        1.9490    10.8710     0.4230 H     1 <1>   0.0800 
 48 H        5.6460    10.6410     0.4980 H     1 <1>   0.1500 
 49 H        2.5490    11.3760    -2.1840 H     1 <1>   0.1500 
 50 H        4.8970    12.1990    -3.2270 H     1 <1>   0.1500 
@<TRIPOS>BOND
  1   1   2  2   
  2   2   3  am  
  3   2   4  1   
  4   3   5  1   
  5   3   6  1   
  6   4   7  1   
  7   4  27  1   
  8   4  28  1   
  9   5   8  1   
 10   5   9  1   
 11   5  29  1   
 12   6  30  1   
 13   6  31  1   
 14   6  32  1   
 15   7   9  1   
 16   8  10  ar  
 17   8  11  ar  
 18   9  12  1   
 19   9  33  1   
 20  10  13  ar  
 21  10  14  1   
 22  11  15  ar  
 23  11  34  1   
 24  12  16  2   
 25  12  17  am  
 26  13  18  ar  
 27  13  35  1   
 28  14  36  1   
 29  14  37  1   
 30  14  38  1   
 31  15  18  ar  
 32  15  39  1   
 33  17  19  1   
 34  17  40  1   
 35  18  41  1   
 36  19  20  1   
 37  19  42  1   
 38  19  43  1   
 39  20  21  1   
 40  20  44  1   
 41  20  45  1   
 42  21  22  1   
 43  21  46  1   
 44  21  47  1   
 45  22  23  1   
 46  22  24  1   
 47  23  25  2   
 48  23  48  1   
 49  24  26  2   
 50  24  49  1   
 51  25  26  1   
 52  26  50  1   
@<TRIPOS>SUBSTRUCTURE
  1 ****  12 GROUP 4 **** **** 0

# MOE 2024.06 (io_trps.svl 2023.06)
