@<TRIPOS>MOLECULE
NONAME
48 50 1 0 0 
SMALL
USER_CHARGES


@<TRIPOS>ATOM
  1 O        0.0410     0.6290     1.3220 O.2   1 <1>  -0.5700 
  2 C        0.0450     1.6360     0.6620 C.2   1 <1>   0.5690 
  3 N       -0.3760     2.8070     1.1900 N.am  1 <1>  -0.7300 
  4 C        0.5050     1.5960    -0.8000 C.3   1 <1>   0.1810 
  5 C       -0.4040     4.0820     0.4350 C.3   1 <1>   0.3640 
  6 O        0.8200     2.8740    -1.3130 O.3   1 <1>  -0.5600 
  7 C       -1.7140     4.8100     0.7130 C.ar  1 <1>  -0.1440 
  8 C       -0.1820     3.8540    -1.0790 C.3   1 <1>   0.2610 
  9 C       -2.9290     4.1360     0.7390 C.ar  1 <1>  -0.1500 
 10 C       -1.6990     6.1800     0.9360 C.ar  1 <1>  -0.1500 
 11 C        0.1230     5.1880    -1.7750 C.2   1 <1>   0.5690 
 12 C       -4.1050     4.8200     0.9910 C.ar  1 <1>  -0.1500 
 13 C       -2.8750     6.8640     1.1880 C.ar  1 <1>  -0.1500 
 14 O       -0.7240     5.5980    -2.5370 O.2   1 <1>  -0.5700 
 15 N        1.2710     5.9200    -1.5380 N.am  1 <1>  -0.6600 
 16 C       -4.0790     6.1840     1.2170 C.ar  1 <1>  -0.1500 
 17 C        1.4510     7.2720    -2.1330 C.3   1 <1>   0.1400 
 18 C        2.4740     5.4460    -0.7970 C.3   1 <1>   0.1400 
 19 C        1.7570     8.2830    -1.0240 C.3   1 <1>  -0.1600 
 20 C        2.7970     6.4270     0.3340 C.3   1 <1>  -0.1600 
 21 C        2.9800     7.8650    -0.1850 C.3   1 <1>  -0.0800 
 22 C        3.2270     8.8170     1.0000 C.3   1 <1>  -0.1600 
 23 C        3.5640    10.2420     0.5570 C.3   1 <1>   0.1200 
 24 O        3.8860    10.9790     1.6790 O.3   1 <1>  -0.6800 
 25 H       -0.7200     2.8230     2.1520 H     1 <1>   0.3700 
 26 H       -0.2710     1.1690    -1.4080 H     1 <1>   0.0800 
 27 H        1.3850     0.9840    -0.8810 H     1 <1>   0.0800 
 28 H        0.3980     4.6910     0.8100 H     1 <1>   0.0800 
 29 H       -1.0960     3.4780    -1.5050 H     1 <1>   0.0800 
 30 H       -2.9690     3.0750     0.5630 H     1 <1>   0.1500 
 31 H       -0.7730     6.7280     0.9100 H     1 <1>   0.1500 
 32 H       -5.0420     4.2900     1.0100 H     1 <1>   0.1500 
 33 H       -2.8560     7.9260     1.3580 H     1 <1>   0.1500 
 34 H       -4.9940     6.7160     1.4110 H     1 <1>   0.1500 
 35 H        2.2630     7.2400    -2.8390 H     1 <1>   0.0800 
 36 H        0.5650     7.5820    -2.6620 H     1 <1>   0.0800 
 37 H        2.3310     4.4640    -0.3870 H     1 <1>   0.0800 
 38 H        3.3030     5.3940    -1.4820 H     1 <1>   0.0800 
 39 H        1.9310     9.2390    -1.4840 H     1 <1>   0.0800 
 40 H        0.8890     8.3740    -0.3950 H     1 <1>   0.0800 
 41 H        2.0030     6.3990     1.0590 H     1 <1>   0.0800 
 42 H        3.6980     6.1030     0.8240 H     1 <1>   0.0800 
 43 H        3.8500     7.8790    -0.8220 H     1 <1>   0.0800 
 44 H        4.0550     8.4410     1.5760 H     1 <1>   0.0800 
 45 H        2.3560     8.8360     1.6310 H     1 <1>   0.0800 
 46 H        2.7310    10.7180     0.0700 H     1 <1>   0.0800 
 47 H        4.4180    10.2500    -0.0990 H     1 <1>   0.0800 
 48 H        3.1350    11.0030     2.3020 H     1 <1>   0.4000 
@<TRIPOS>BOND
  1   1   2  2   
  2   2   3  am  
  3   2   4  1   
  4   3   5  1   
  5   3  25  1   
  6   4   6  1   
  7   4  26  1   
  8   4  27  1   
  9   5   7  1   
 10   5   8  1   
 11   5  28  1   
 12   6   8  1   
 13   7   9  ar  
 14   7  10  ar  
 15   8  11  1   
 16   8  29  1   
 17   9  12  ar  
 18   9  30  1   
 19  10  13  ar  
 20  10  31  1   
 21  11  14  2   
 22  11  15  am  
 23  12  16  ar  
 24  12  32  1   
 25  13  16  ar  
 26  13  33  1   
 27  15  17  1   
 28  15  18  1   
 29  16  34  1   
 30  17  19  1   
 31  17  35  1   
 32  17  36  1   
 33  18  20  1   
 34  18  37  1   
 35  18  38  1   
 36  19  21  1   
 37  19  39  1   
 38  19  40  1   
 39  20  21  1   
 40  20  41  1   
 41  20  42  1   
 42  21  22  1   
 43  21  43  1   
 44  22  23  1   
 45  22  44  1   
 46  22  45  1   
 47  23  24  1   
 48  23  46  1   
 49  23  47  1   
 50  24  48  1   
@<TRIPOS>SUBSTRUCTURE
  1 ****   5 GROUP 4 **** **** 0

# MOE 2024.06 (io_trps.svl 2023.06)
