@<TRIPOS>MOLECULE
NONAME
44 45 1 0 0 
SMALL
USER_CHARGES


@<TRIPOS>ATOM
  1 O       -1.1260     0.6440     0.6580 O.2   1 <1>  -0.5700 
  2 C       -0.7400     1.7520     0.2700 C.2   1 <1>   0.3890 
  3 C       -1.6290     2.6820    -0.2910 C.3   1 <1>  -0.7150 
  4 C        0.6520     2.0860     0.4560 C.ar  1 <1>   0.0860 
  5 C       -1.1760     3.9980    -0.4870 C.2   1 <1>   0.5350 
  6 C       -2.9360     2.3030    -0.6540 C.2   1 <1>   0.5350 
  7 C        1.0990     3.3760     0.1340 C.ar  1 <1>   0.1170 
  8 C        1.5730     1.1570     0.9530 C.ar  1 <1>  -0.1500 
  9 O       -1.9580     4.9170    -0.7470 O.2   1 <1>  -0.5700 
 10 N        0.1770     4.3080    -0.3770 N.am  1 <1>  -0.4770 
 11 O       -3.1860     1.2720    -1.2810 O.2   1 <1>  -0.5700 
 12 N       -3.9810     3.1400    -0.3940 N.am  1 <1>  -0.4300 
 13 C        2.4490     3.6860     0.3460 C.ar  1 <1>  -0.1500 
 14 C        2.8990     1.4790     1.1430 C.ar  1 <1>  -0.1500 
 15 C        0.6300     5.6260    -0.9110 C.3   1 <1>   0.1400 
 16 N       -5.3760     2.8770    -0.7670 N.am  1 <1>  -0.4300 
 17 C        3.3380     2.7550     0.8400 C.ar  1 <1>  -0.1500 
 18 C        0.6720     6.6690     0.2130 C.3   1 <1>  -0.1600 
 19 C       -6.4110     2.5810     0.0820 C.2   1 <1>   0.6300 
 20 C        1.2000     8.0170    -0.2910 C.3   1 <1>  -0.2400 
 21 O       -6.3350     2.9170     1.2620 O.2   1 <1>  -0.5700 
 22 C       -7.5980     1.9030    -0.4470 C.2   1 <1>   0.7200 
 23 O       -7.7840     1.7150    -1.6380 O.2   1 <1>  -0.5700 
 24 O       -8.5390     1.4690     0.4070 O.3   1 <1>  -0.4300 
 25 C       -9.6940     0.7910    -0.0300 C.3   1 <1>   0.1200 
 26 C      -10.5250     0.4380     1.1990 C.3   1 <1>  -0.2400 
 27 H        1.2240     0.1670     1.1900 H     1 <1>   0.1500 
 28 H       -3.6770     4.1060    -0.2070 H     1 <1>   0.3700 
 29 H        2.8220     4.6670     0.1320 H     1 <1>   0.1500 
 30 H        3.5850     0.7450     1.5270 H     1 <1>   0.1500 
 31 H       -0.0440     5.9570    -1.6830 H     1 <1>   0.0800 
 32 H        1.5940     5.5200    -1.3730 H     1 <1>   0.0800 
 33 H       -5.4640     2.5570    -1.7380 H     1 <1>   0.3700 
 34 H        4.3710     3.0160     0.9910 H     1 <1>   0.1500 
 35 H        1.2980     6.3160     1.0130 H     1 <1>   0.0800 
 36 H       -0.3250     6.7990     0.5980 H     1 <1>   0.0800 
 37 H        2.2010     7.9130    -0.6690 H     1 <1>   0.0800 
 38 H        1.2070     8.7300     0.5140 H     1 <1>   0.0800 
 39 H        0.5670     8.3940    -1.0750 H     1 <1>   0.0800 
 40 H       -9.3890    -0.0970    -0.5580 H     1 <1>   0.0800 
 41 H      -10.2410     1.4400    -0.6940 H     1 <1>   0.0800 
 42 H       -9.9600    -0.1960     1.8580 H     1 <1>   0.0800 
 43 H      -11.4150    -0.0860     0.8980 H     1 <1>   0.0800 
 44 H      -10.8130     1.3330     1.7210 H     1 <1>   0.0800 
@<TRIPOS>BOND
  1   1   2  2   
  2   2   3  1   
  3   2   4  1   
  4   3   5  1   
  5   3   6  1   
  6   4   7  ar  
  7   4   8  ar  
  8   5   9  2   
  9   5  10  am  
 10   6  11  2   
 11   6  12  am  
 12   7  10  1   
 13   7  13  ar  
 14   8  14  ar  
 15   8  27  1   
 16  10  15  1   
 17  12  16  1   
 18  12  28  1   
 19  13  17  ar  
 20  13  29  1   
 21  14  17  ar  
 22  14  30  1   
 23  15  18  1   
 24  15  31  1   
 25  15  32  1   
 26  16  19  am  
 27  16  33  1   
 28  17  34  1   
 29  18  20  1   
 30  18  35  1   
 31  18  36  1   
 32  19  21  2   
 33  19  22  1   
 34  20  37  1   
 35  20  38  1   
 36  20  39  1   
 37  22  23  2   
 38  22  24  1   
 39  24  25  1   
 40  25  26  1   
 41  25  40  1   
 42  25  41  1   
 43  26  42  1   
 44  26  43  1   
 45  26  44  1   
@<TRIPOS>SUBSTRUCTURE
  1 ****   3 GROUP 4 **** **** 0

# MOE 2024.06 (io_trps.svl 2023.06)
