@<TRIPOS>MOLECULE
NONAME
21 22 1 0 0 
SMALL
USER_CHARGES


@<TRIPOS>ATOM
  1 CL      -0.0450     0.0390     0.3580 Cl    1 <1>  -0.1770 
  2 C       -0.0050     1.7740     0.1900 C.ar  1 <1>   0.4870 
  3 N       -1.1790     2.3740     0.2120 N.ar  1 <1>  -0.6200 
  4 C        1.2280     2.4060     0.0530 C.ar  1 <1>  -0.1440 
  5 C       -1.1390     3.6870     0.0940 C.ar  1 <1>   0.1600 
  6 C        1.2490     3.7870    -0.0660 C.ar  1 <1>  -0.1440 
  7 C        2.5270     1.6020     0.0520 C.3   1 <1>  -0.0160 
  8 C        0.0230     4.4270    -0.0440 C.ar  1 <1>  -0.1500 
  9 C        2.5380     4.5800    -0.2230 C.3   1 <1>   0.4870 
 10 C        3.7460     2.4400    -0.3490 C.3   1 <1>   0.3430 
 11 N        3.6810     3.7830     0.2950 N.4   1 <1>  -0.9060 
 12 H       -2.0870     4.2030     0.1080 H     1 <1>   0.1500 
 13 H        2.4470     0.7740    -0.6320 H     1 <1>   0.0800 
 14 H        2.6880     1.1900     1.0340 H     1 <1>   0.0800 
 15 H       -0.0540     5.4970    -0.1340 H     1 <1>   0.1500 
 16 H        2.4600     5.5090     0.3190 H     1 <1>   0.0800 
 17 H        2.6900     4.8070    -1.2660 H     1 <1>   0.0800 
 18 H        3.7580     2.5560    -1.4210 H     1 <1>   0.0800 
 19 H        4.6470     1.9250    -0.0560 H     1 <1>   0.0800 
 20 H        3.5490     3.6630     1.3070 H     1 <1>   0.4500 
 21 H        4.5590     4.2970     0.1530 H     1 <1>   0.4500 
@<TRIPOS>BOND
  1   1   2  1   
  2   2   3  ar  
  3   2   4  ar  
  4   3   5  ar  
  5   4   6  ar  
  6   4   7  1   
  7   5   8  ar  
  8   5  12  1   
  9   6   8  ar  
 10   6   9  1   
 11   7  10  1   
 12   7  13  1   
 13   7  14  1   
 14   8  15  1   
 15   9  11  1   
 16   9  16  1   
 17   9  17  1   
 18  10  11  1   
 19  10  18  1   
 20  10  19  1   
 21  11  20  1   
 22  11  21  1   
@<TRIPOS>SUBSTRUCTURE
  1 ****   4 GROUP 4 **** **** 0

# MOE 2024.06 (io_trps.svl 2023.06)
