@<TRIPOS>MOLECULE
NONAME
53 55 1 0 0 
SMALL
USER_CHARGES


@<TRIPOS>ATOM
  1 CL      -1.2960    -0.9530    -0.2100 Cl    1 <1>  -0.1770 
  2 C       -0.1660    -2.2860    -0.2740 C.ar  1 <1>   0.1770 
  3 C        0.8320    -2.3060    -1.2580 C.ar  1 <1>  -0.1440 
  4 C       -0.3020    -3.2910     0.6580 C.ar  1 <1>  -0.1500 
  5 C        1.7110    -3.3730    -1.2960 C.ar  1 <1>  -0.1500 
  6 C        0.9570    -1.1730    -2.2670 C.3   1 <1>  -0.0960 
  7 C        0.5750    -4.3740     0.6050 C.ar  1 <1>   0.0000 
  8 C        1.5670    -4.3910    -0.3610 C.ar  1 <1>   0.1400 
  9 C        0.7510    -5.5780     1.3220 C.2   1 <1>  -0.1810 
 10 O        2.3060    -5.4940    -0.2440 O.3   1 <1>  -0.2800 
 11 C        1.8140    -6.1940     0.7710 C.2   1 <1>  -0.0100 
 12 C       -0.1350    -6.0470     2.4650 C.3   1 <1>   0.0820 
 13 C       -0.6460    -7.4820     2.3350 C.2   1 <1>   0.5690 
 14 O       -0.4580    -8.1960     3.2890 O.2   1 <1>  -0.5700 
 15 N       -1.3400    -7.9530     1.2400 N.am  1 <1>  -0.6600 
 16 C       -1.7480    -9.4070     1.2660 C.3   1 <1>   0.3210 
 17 C       -1.5080    -7.2140    -0.0620 C.3   1 <1>   0.1400 
 18 C       -2.8110    -9.8140     0.2390 C.2   1 <1>   0.0460 
 19 C       -2.5460    -6.0730     0.0000 C.3   1 <1>   0.3430 
 20 N       -4.0850    -9.3620     0.3110 N.2   1 <1>  -0.5650 
 21 C       -2.6640   -10.6520    -0.8150 C.2   1 <1>  -0.3320 
 22 N       -3.8610    -6.5080     0.5730 N.4   1 <1>  -0.9590 
 23 C       -4.6820    -9.9540    -0.6730 C.2   1 <1>   0.0360 
 24 N       -3.8720   -10.7480    -1.4000 N.pl3 1 <1>   0.0330 
 25 C       -1.4560   -11.4180    -1.3350 C.3   1 <1>  -0.0600 
 26 C       -5.0170    -5.8520    -0.1000 C.3   1 <1>   0.2630 
 27 C       -3.9470    -6.3640     2.0560 C.3   1 <1>   0.2630 
 28 H       -1.0650    -3.2300     1.4110 H     1 <1>   0.1500 
 29 H        2.5010    -3.4400    -2.0230 H     1 <1>   0.1500 
 30 H        0.0510    -1.0850    -2.8410 H     1 <1>   0.0800 
 31 H        1.7730    -1.3470    -2.9440 H     1 <1>   0.0800 
 32 H        1.1330    -0.2430    -1.7550 H     1 <1>   0.0800 
 33 H        2.2900    -7.1300     1.0180 H     1 <1>   0.1500 
 34 H       -0.9810    -5.3990     2.5670 H     1 <1>   0.0800 
 35 H        0.4310    -5.9680     3.3770 H     1 <1>   0.0800 
 36 H       -2.1350    -9.6490     2.2410 H     1 <1>   0.0800 
 37 H       -0.8680   -10.0060     1.1210 H     1 <1>   0.0800 
 38 H       -1.7960    -7.8890    -0.8460 H     1 <1>   0.0800 
 39 H       -0.5640    -6.8150    -0.3790 H     1 <1>   0.0800 
 40 H       -2.6960    -5.7150    -1.0050 H     1 <1>   0.0800 
 41 H       -2.1490    -5.2560     0.5760 H     1 <1>   0.0800 
 42 H       -3.9290    -7.5390     0.3950 H     1 <1>   0.4500 
 43 H       -5.7270    -9.8470    -0.9090 H     1 <1>   0.1500 
 44 H       -4.1300   -11.3220    -2.2100 H     1 <1>   0.2700 
 45 H       -0.5760   -11.1930    -0.7600 H     1 <1>   0.0800 
 46 H       -1.2630   -11.1580    -2.3610 H     1 <1>   0.0800 
 47 H       -1.6360   -12.4770    -1.2750 H     1 <1>   0.0800 
 48 H       -4.9940    -4.7880     0.0660 H     1 <1>   0.0800 
 49 H       -5.9430    -6.2450     0.2890 H     1 <1>   0.0800 
 50 H       -4.9860    -6.0410    -1.1610 H     1 <1>   0.0800 
 51 H       -3.8410    -5.3310     2.3430 H     1 <1>   0.0800 
 52 H       -3.1760    -6.9440     2.5340 H     1 <1>   0.0800 
 53 H       -4.9000    -6.7260     2.4060 H     1 <1>   0.0800 
@<TRIPOS>BOND
  1   1   2  1   
  2   2   3  ar  
  3   2   4  ar  
  4   3   5  ar  
  5   3   6  1   
  6   4   7  ar  
  7   4  28  1   
  8   5   8  ar  
  9   5  29  1   
 10   6  30  1   
 11   6  31  1   
 12   6  32  1   
 13   7   8  ar  
 14   7   9  1   
 15   8  10  1   
 16   9  11  2   
 17   9  12  1   
 18  10  11  1   
 19  11  33  1   
 20  12  13  1   
 21  12  34  1   
 22  12  35  1   
 23  13  14  2   
 24  13  15  am  
 25  15  16  1   
 26  15  17  1   
 27  16  18  1   
 28  16  36  1   
 29  16  37  1   
 30  17  19  1   
 31  17  38  1   
 32  17  39  1   
 33  18  20  1   
 34  18  21  2   
 35  19  22  1   
 36  19  40  1   
 37  19  41  1   
 38  20  23  2   
 39  21  24  1   
 40  21  25  1   
 41  22  26  1   
 42  22  27  1   
 43  22  42  1   
 44  23  24  1   
 45  23  43  1   
 46  24  44  1   
 47  25  45  1   
 48  25  46  1   
 49  25  47  1   
 50  26  48  1   
 51  26  49  1   
 52  26  50  1   
 53  27  51  1   
 54  27  52  1   
 55  27  53  1   
@<TRIPOS>SUBSTRUCTURE
  1 ****  17 GROUP 4 **** **** 0

# MOE 2024.06 (io_trps.svl 2023.06)
