@<TRIPOS>MOLECULE
NONAME
56 59 1 0 0 
SMALL
USER_CHARGES


@<TRIPOS>ATOM
  1 O        0.5060    -0.4280     2.6550 O.2   1 <1>  -0.5700 
  2 C        0.8690    -0.9220     1.6140 C.2   1 <1>   0.5690 
  3 N        1.5000    -0.2140     0.6460 N.am  1 <1>  -0.7300 
  4 C        0.5990    -2.4070     1.3570 C.3   1 <1>   0.1710 
  5 C        1.8170     1.2180     0.6750 C.3   1 <1>   0.2200 
  6 N        0.4130    -2.7620    -0.0850 N.3   1 <1>  -0.8100 
  7 C        0.9890     1.9280    -0.4010 C.3   1 <1>  -0.1600 
  8 C        3.3190     1.3980     0.4310 C.3   1 <1>  -0.1600 
  9 C       -0.8250    -2.1980    -0.6530 C.3   1 <1>   0.1100 
 10 C        0.2690    -4.2110    -0.2590 C.3   1 <1>   0.1100 
 11 C        1.3580     3.4160    -0.4950 C.3   1 <1>  -0.1600 
 12 C        3.6930     2.8850     0.3380 C.3   1 <1>  -0.1600 
 13 C       -1.9340    -3.2360    -0.4460 C.3   1 <1>   0.2000 
 14 C       -1.2150    -4.5230    -0.0390 C.3   1 <1>  -0.0800 
 15 C        2.8630     3.5990    -0.7370 C.3   1 <1>  -0.1600 
 16 O       -2.7810    -2.8420     0.5790 O.3   1 <1>  -0.6800 
 17 C       -1.7020    -5.7480    -0.8280 C.3   1 <1>  -0.0170 
 18 C       -0.9670    -7.0070    -0.3990 C.ar  1 <1>   0.1670 
 19 N        0.1430    -7.2910    -1.0090 N.ar  1 <1>  -0.6200 
 20 C       -1.5110    -7.7910     0.6310 C.ar  1 <1>  -0.1500 
 21 C        0.8100    -8.4080    -0.6210 C.ar  1 <1>   0.3100 
 22 C       -0.8640    -8.9180     1.0390 C.ar  1 <1>  -0.1500 
 23 C        0.3420    -9.2580     0.4050 C.ar  1 <1>   0.0000 
 24 C        2.0160    -8.7350    -1.2620 C.ar  1 <1>  -0.1500 
 25 C        1.0970   -10.3980     0.7480 C.ar  1 <1>  -0.1500 
 26 C        2.7350    -9.8480    -0.9130 C.ar  1 <1>  -0.1500 
 27 C        2.2690   -10.6880     0.1030 C.ar  1 <1>  -0.1500 
 28 H        1.6980    -0.7160    -0.2240 H     1 <1>   0.3700 
 29 H       -0.2630    -2.6990     1.9280 H     1 <1>   0.0800 
 30 H        1.4440    -2.9500     1.7410 H     1 <1>   0.0800 
 31 H        1.5650     1.6240     1.6410 H     1 <1>   0.0800 
 32 H        1.1630     1.4630    -1.3550 H     1 <1>   0.0800 
 33 H       -0.0560     1.8360    -0.1600 H     1 <1>   0.0800 
 34 H        3.8660     0.9430     1.2380 H     1 <1>   0.0800 
 35 H        3.5950     0.9090    -0.4870 H     1 <1>   0.0800 
 36 H       -1.0770    -1.2390    -0.2320 H     1 <1>   0.0800 
 37 H       -0.6740    -2.0720    -1.7110 H     1 <1>   0.0800 
 38 H        0.5470    -4.4620    -1.2700 H     1 <1>   0.0800 
 39 H        0.9040    -4.7670     0.4110 H     1 <1>   0.0800 
 40 H        0.8050     3.8760    -1.2950 H     1 <1>   0.0800 
 41 H        1.0830     3.9090     0.4220 H     1 <1>   0.0800 
 42 H        3.5200     3.3550     1.2920 H     1 <1>   0.0800 
 43 H        4.7410     2.9800     0.1090 H     1 <1>   0.0800 
 44 H       -2.5240    -3.3490    -1.3390 H     1 <1>   0.0800 
 45 H       -1.3580    -4.7110     1.0110 H     1 <1>   0.0800 
 46 H        3.1020     4.6490    -0.7380 H     1 <1>   0.0800 
 47 H        3.1190     3.2030    -1.7060 H     1 <1>   0.0800 
 48 H       -2.2550    -2.5620     1.3530 H     1 <1>   0.4000 
 49 H       -1.5450    -5.5930    -1.8810 H     1 <1>   0.0800 
 50 H       -2.7580    -5.8780    -0.6720 H     1 <1>   0.0800 
 51 H       -2.4360    -7.4900     1.0890 H     1 <1>   0.1500 
 52 H       -1.2500    -9.5450     1.8230 H     1 <1>   0.1500 
 53 H        2.3560    -8.0780    -2.0400 H     1 <1>   0.1500 
 54 H        0.7340   -11.0400     1.5300 H     1 <1>   0.1500 
 55 H        3.6580   -10.0870    -1.4130 H     1 <1>   0.1500 
 56 H        2.8450   -11.5590     0.3670 H     1 <1>   0.1500 
@<TRIPOS>BOND
  1   1   2  2   
  2   2   3  am  
  3   2   4  1   
  4   3   5  1   
  5   3  28  1   
  6   4   6  1   
  7   4  29  1   
  8   4  30  1   
  9   5   7  1   
 10   5   8  1   
 11   5  31  1   
 12   6   9  1   
 13   6  10  1   
 14   7  11  1   
 15   7  32  1   
 16   7  33  1   
 17   8  12  1   
 18   8  34  1   
 19   8  35  1   
 20   9  13  1   
 21   9  36  1   
 22   9  37  1   
 23  10  14  1   
 24  10  38  1   
 25  10  39  1   
 26  11  15  1   
 27  11  40  1   
 28  11  41  1   
 29  12  15  1   
 30  12  42  1   
 31  12  43  1   
 32  13  14  1   
 33  13  16  1   
 34  13  44  1   
 35  14  17  1   
 36  14  45  1   
 37  15  46  1   
 38  15  47  1   
 39  16  48  1   
 40  17  18  1   
 41  17  49  1   
 42  17  50  1   
 43  18  19  ar  
 44  18  20  ar  
 45  19  21  ar  
 46  20  22  ar  
 47  20  51  1   
 48  21  23  ar  
 49  21  24  ar  
 50  22  23  ar  
 51  22  52  1   
 52  23  25  ar  
 53  24  26  ar  
 54  24  53  1   
 55  25  27  ar  
 56  25  54  1   
 57  26  27  ar  
 58  26  55  1   
 59  27  56  1   
@<TRIPOS>SUBSTRUCTURE
  1 ****  10 GROUP 4 **** **** 0

# MOE 2024.06 (io_trps.svl 2023.06)
