@<TRIPOS>MOLECULE
NONAME
44 45 1 0 0 
SMALL
USER_CHARGES


@<TRIPOS>ATOM
  1 S        0.6210    -0.2920    -0.4290 S.o2  1 <1>   1.3330 
  2 O       -0.4580    -0.3240    -1.3890 O.2   1 <1>  -0.6500 
  3 O        0.8720    -1.4520     0.3980 O.2   1 <1>  -0.6500 
  4 N        0.3470     1.0290     0.6010 N.am  1 <1>  -0.8490 
  5 C        2.1460     0.1220    -1.2750 C.3   1 <1>  -0.0550 
  6 C       -0.0530     2.2500    -0.1090 C.3   1 <1>   0.1160 
  7 C       -0.6330     0.7110     1.6410 C.3   1 <1>   0.1160 
  8 C        3.3290     0.3850    -0.3260 C.3   1 <1>  -0.0800 
  9 C        4.5070     1.0280    -1.0520 C.3   1 <1>   0.2200 
 10 C        3.9220    -0.8760     0.3030 C.3   1 <1>   0.1200 
 11 N        4.7240     2.3850    -0.5040 N.am  1 <1>  -0.7300 
 12 C        5.6790     0.0990    -0.7420 C.3   1 <1>   0.1200 
 13 O        5.2920    -0.6410     0.3690 O.3   1 <1>  -0.5600 
 14 C        3.9700     3.4730    -0.8360 C.2   1 <1>   0.5440 
 15 O        3.1570     3.3480    -1.7320 O.2   1 <1>  -0.5700 
 16 C        4.1110     4.7470    -0.1550 C.ar  1 <1>   0.0860 
 17 C        4.5390     4.8780     1.1670 C.ar  1 <1>   0.1900 
 18 C        3.8010     5.9400    -0.8180 C.ar  1 <1>  -0.1500 
 19 F        4.8360     3.8130     1.8670 F     1 <1>  -0.1900 
 20 C        4.6520     6.1170     1.7760 C.ar  1 <1>   0.1900 
 21 C        3.9150     7.1810    -0.2100 C.ar  1 <1>  -0.1500 
 22 F        5.0570     6.1860     3.0200 F     1 <1>  -0.1900 
 23 C        4.3450     7.2890     1.1040 C.ar  1 <1>  -0.1440 
 24 C        4.4710     8.6500     1.7750 C.3   1 <1>  -0.0970 
 25 H        2.4010    -0.6660    -1.9560 H     1 <1>   0.0800 
 26 H        1.9770     1.0050    -1.8600 H     1 <1>   0.0800 
 27 H       -0.1710     3.0610     0.5890 H     1 <1>   0.0800 
 28 H       -0.9840     2.0960    -0.6290 H     1 <1>   0.0800 
 29 H        0.7010     2.5330    -0.8230 H     1 <1>   0.0800 
 30 H       -0.7650     1.5520     2.3000 H     1 <1>   0.0800 
 31 H       -0.2890    -0.1250     2.2270 H     1 <1>   0.0800 
 32 H       -1.5810     0.4550     1.1960 H     1 <1>   0.0800 
 33 H        3.0020     1.0240     0.4750 H     1 <1>   0.0800 
 34 H        4.3570     1.0910    -2.1170 H     1 <1>   0.0800 
 35 H        3.7630    -1.7460    -0.3110 H     1 <1>   0.0800 
 36 H        3.5440    -1.0560     1.2950 H     1 <1>   0.0800 
 37 H        5.2430     2.4010     0.3800 H     1 <1>   0.3700 
 38 H        6.5890     0.6280    -0.5220 H     1 <1>   0.0800 
 39 H        5.8400    -0.5900    -1.5520 H     1 <1>   0.0800 
 40 H        3.4620     5.8890    -1.8400 H     1 <1>   0.1500 
 41 H        3.6650     8.0670    -0.7700 H     1 <1>   0.1500 
 42 H        4.1980     9.4420     1.1010 H     1 <1>   0.0800 
 43 H        5.4850     8.8090     2.0970 H     1 <1>   0.0800 
 44 H        3.8260     8.6960     2.6350 H     1 <1>   0.0800 
@<TRIPOS>BOND
  1   1   2  2   
  2   1   3  2   
  3   1   4  am  
  4   1   5  1   
  5   4   6  1   
  6   4   7  1   
  7   5   8  1   
  8   5  25  1   
  9   5  26  1   
 10   6  27  1   
 11   6  28  1   
 12   6  29  1   
 13   7  30  1   
 14   7  31  1   
 15   7  32  1   
 16   8   9  1   
 17   8  10  1   
 18   8  33  1   
 19   9  11  1   
 20   9  12  1   
 21   9  34  1   
 22  10  13  1   
 23  10  35  1   
 24  10  36  1   
 25  11  14  am  
 26  11  37  1   
 27  12  13  1   
 28  12  38  1   
 29  12  39  1   
 30  14  15  2   
 31  14  16  1   
 32  16  17  ar  
 33  16  18  ar  
 34  17  19  1   
 35  17  20  ar  
 36  18  21  ar  
 37  18  40  1   
 38  20  22  1   
 39  20  23  ar  
 40  21  23  ar  
 41  21  41  1   
 42  23  24  1   
 43  24  42  1   
 44  24  43  1   
 45  24  44  1   
@<TRIPOS>SUBSTRUCTURE
  1 ****  14 GROUP 4 **** **** 0

# MOE 2024.06 (io_trps.svl 2023.06)
