@<TRIPOS>MOLECULE
NONAME
43 46 1 0 0 
SMALL
USER_CHARGES


@<TRIPOS>ATOM
  1 O        0.6220    -0.0350     0.8790 O.2   1 <1>  -0.5700 
  2 C        1.5020    -0.5130     0.1920 C.2   1 <1>   0.6160 
  3 N        2.5390     0.2880    -0.2270 N.am  1 <1>  -0.6600 
  4 C        1.4240    -1.9210    -0.1240 C.2   1 <1>   0.0140 
  5 C        2.3820     1.7800    -0.2390 C.3   1 <1>   0.1400 
  6 C        3.9450    -0.1970    -0.3470 C.3   1 <1>   0.1400 
  7 C        0.9700    -2.8040     0.8240 C.2   1 <1>   0.2290 
  8 C        1.7650    -2.4320    -1.4070 C.2   1 <1>  -0.1500 
  9 C        3.1260     2.4610     0.9180 C.3   1 <1>   0.2090 
 10 C        4.6510    -0.0840     1.0110 C.3   1 <1>  -0.1600 
 11 N        0.8690    -4.1510     0.5570 N.pl3 1 <1>  -0.6290 
 12 C        1.6530    -3.7720    -1.6660 C.2   1 <1>  -0.1410 
 13 N        4.6040     2.4220     0.6970 N.pl3 1 <1>  -0.8380 
 14 C        5.3570     1.2590     1.2410 C.3   1 <1>   0.2090 
 15 C        1.1950    -4.6410    -0.6620 C.cat 1 <1>   0.7910 
 16 C        0.4470    -5.2210     1.3240 C.2   1 <1>   0.2000 
 17 C        5.2520     3.4780     0.0890 C.ar  1 <1>   0.7200 
 18 N        0.9960    -5.9680    -0.6660 N.pl3 1 <1>  -0.7000 
 19 C        0.5280    -6.3350     0.5700 C.2   1 <1>   0.2000 
 20 N        6.5560     3.6110     0.3260 N.ar  1 <1>  -0.6200 
 21 N        4.5140     4.2740    -0.6860 N.ar  1 <1>  -0.6200 
 22 C        7.1550     4.6200    -0.2570 C.ar  1 <1>   0.1600 
 23 C        5.1400     5.2740    -1.2570 C.ar  1 <1>   0.1600 
 24 C        6.4820     5.4960    -1.0720 C.ar  1 <1>  -0.1500 
 25 H        1.3390     2.0350    -0.1700 H     1 <1>   0.0800 
 26 H        2.7460     2.1740    -1.1720 H     1 <1>   0.0800 
 27 H        4.4690     0.3780    -1.0930 H     1 <1>   0.0800 
 28 H        3.9560    -1.2240    -0.6590 H     1 <1>   0.0800 
 29 H        0.6770    -2.4550     1.8040 H     1 <1>   0.1500 
 30 H        2.1020    -1.7390    -2.1630 H     1 <1>   0.1500 
 31 H        2.8710     1.9850     1.8490 H     1 <1>   0.0800 
 32 H        2.8010     3.4850     0.9850 H     1 <1>   0.0800 
 33 H        5.4040    -0.8490     1.0700 H     1 <1>   0.0800 
 34 H        3.9560    -0.2690     1.8100 H     1 <1>   0.0800 
 35 H        1.9010    -4.1830    -2.6270 H     1 <1>   0.1500 
 36 H        6.3210     1.2060     0.7620 H     1 <1>   0.0800 
 37 H        5.5270     1.4100     2.2930 H     1 <1>   0.0800 
 38 H        0.1200    -5.1140     2.3470 H     1 <1>   0.1500 
 39 H        1.1610    -6.5870    -1.4640 H     1 <1>   0.4500 
 40 H        0.2820    -7.3530     0.8350 H     1 <1>   0.1500 
 41 H        8.2090     4.7520    -0.0800 H     1 <1>   0.1500 
 42 H        4.5680     5.9320    -1.8880 H     1 <1>   0.1500 
 43 H        6.9830     6.3190    -1.5450 H     1 <1>   0.1500 
@<TRIPOS>BOND
  1   1   2  2   
  2   2   3  am  
  3   2   4  1   
  4   3   5  1   
  5   3   6  1   
  6   4   7  2   
  7   4   8  1   
  8   5   9  1   
  9   5  25  1   
 10   5  26  1   
 11   6  10  1   
 12   6  27  1   
 13   6  28  1   
 14   7  11  1   
 15   7  29  1   
 16   8  12  2   
 17   8  30  1   
 18   9  13  1   
 19   9  31  1   
 20   9  32  1   
 21  10  14  1   
 22  10  33  1   
 23  10  34  1   
 24  11  15  ar  
 25  11  16  1   
 26  12  15  1   
 27  12  35  1   
 28  13  14  1   
 29  13  17  1   
 30  14  36  1   
 31  14  37  1   
 32  15  18  ar  
 33  16  19  2   
 34  16  38  1   
 35  17  20  ar  
 36  17  21  ar  
 37  18  19  1   
 38  18  39  1   
 39  19  40  1   
 40  20  22  ar  
 41  21  23  ar  
 42  22  24  ar  
 43  22  41  1   
 44  23  24  ar  
 45  23  42  1   
 46  24  43  1   
@<TRIPOS>SUBSTRUCTURE
  1 ****   3 GROUP 4 **** **** 0

# MOE 2024.06 (io_trps.svl 2023.06)
