@<TRIPOS>MOLECULE
NONAME
50 52 1 0 0 
SMALL
USER_CHARGES


@<TRIPOS>ATOM
  1 O        1.0000     0.1410    -4.4580 O.2   1 <1>  -0.5700 
  2 C        0.6030     0.1860    -3.3190 C.2   1 <1>   0.5690 
  3 N        0.8140     1.3010    -2.5320 N.am  1 <1>  -0.6600 
  4 C       -0.0420    -1.0780    -2.7420 C.3   1 <1>   0.1810 
  5 C        0.2060     1.5310    -1.1860 C.3   1 <1>   0.1400 
  6 C        1.8840     2.2640    -2.8840 C.3   1 <1>   0.1400 
  7 O        0.6460    -1.4390    -1.5730 O.3   1 <1>  -0.5600 
  8 C        1.0490     0.9980    -0.0030 C.3   1 <1>   0.3430 
  9 C        3.2390     1.7160    -2.4180 C.3   1 <1>  -0.1600 
 10 C        0.2490    -2.5970    -0.9200 C.3   1 <1>   0.2640 
 11 N        2.5320     1.2390    -0.0580 N.4   1 <1>  -0.9590 
 12 C        3.1830     0.6840    -1.2850 C.3   1 <1>   0.3430 
 13 C        0.9710    -2.5540     0.4180 C.ar  1 <1>  -0.1440 
 14 C        3.1580     0.5990     1.1530 C.3   1 <1>   0.5240 
 15 C        0.3140    -2.1320     1.5650 C.ar  1 <1>  -0.1500 
 16 C        2.3100    -2.9070     0.4930 C.ar  1 <1>  -0.1500 
 17 C        4.6030     1.0520     1.3720 C.2   1 <1>   0.3350 
 18 C        0.9910    -2.0570     2.7700 C.ar  1 <1>  -0.1500 
 19 C        2.9870    -2.8370     1.6990 C.ar  1 <1>  -0.1500 
 20 N        5.0880     2.1570     0.9590 N.2   1 <1>  -0.4100 
 21 N        5.4780     0.2980     2.0170 N.2   1 <1>  -0.5650 
 22 C        2.3280    -2.4070     2.8370 C.ar  1 <1>  -0.1500 
 23 O        6.3340     2.1840     1.3260 O.3   1 <1>  -0.0190 
 24 C        6.5050     1.0470     1.9540 C.2   1 <1>   0.2980 
 25 C        7.8660     0.7300     2.5330 C.3   1 <1>  -0.0600 
 26 H        0.0380    -1.8810    -3.4540 H     1 <1>   0.0800 
 27 H       -1.0750    -0.8970    -2.5090 H     1 <1>   0.0800 
 28 H       -0.7630     1.0660    -1.1510 H     1 <1>   0.0800 
 29 H        0.0420     2.5860    -1.0520 H     1 <1>   0.0800 
 30 H        1.6860     3.2150    -2.4180 H     1 <1>   0.0800 
 31 H        1.8990     2.4250    -3.9500 H     1 <1>   0.0800 
 32 H        0.8800    -0.0600     0.0760 H     1 <1>   0.0800 
 33 H        0.6550     1.4320     0.9000 H     1 <1>   0.0800 
 34 H        3.8880     2.5300    -2.1490 H     1 <1>   0.0800 
 35 H        3.6940     1.2320    -3.2640 H     1 <1>   0.0800 
 36 H        0.5490    -3.4510    -1.5040 H     1 <1>   0.0800 
 37 H       -0.8200    -2.5910    -0.7900 H     1 <1>   0.0800 
 38 H        2.7540     2.2430    -0.0150 H     1 <1>   0.4500 
 39 H        4.1940     0.3850    -1.0610 H     1 <1>   0.0800 
 40 H        2.6500    -0.1940    -1.6160 H     1 <1>   0.0800 
 41 H        3.1440    -0.4710     1.0420 H     1 <1>   0.0800 
 42 H        2.5950     0.8480     2.0350 H     1 <1>   0.0800 
 43 H       -0.7290    -1.8670     1.5280 H     1 <1>   0.1500 
 44 H        2.8300    -3.2430    -0.3890 H     1 <1>   0.1500 
 45 H        0.4750    -1.7390     3.6610 H     1 <1>   0.1500 
 46 H        4.0250    -3.1230     1.7540 H     1 <1>   0.1500 
 47 H        2.8530    -2.3600     3.7770 H     1 <1>   0.1500 
 48 H        7.8470    -0.2300     3.0150 H     1 <1>   0.0800 
 49 H        8.1370     1.4790     3.2550 H     1 <1>   0.0800 
 50 H        8.6000     0.7140     1.7490 H     1 <1>   0.0800 
@<TRIPOS>BOND
  1   1   2  2   
  2   2   3  am  
  3   2   4  1   
  4   3   5  1   
  5   3   6  1   
  6   4   7  1   
  7   4  26  1   
  8   4  27  1   
  9   5   8  1   
 10   5  28  1   
 11   5  29  1   
 12   6   9  1   
 13   6  30  1   
 14   6  31  1   
 15   7  10  1   
 16   8  11  1   
 17   8  32  1   
 18   8  33  1   
 19   9  12  1   
 20   9  34  1   
 21   9  35  1   
 22  10  13  1   
 23  10  36  1   
 24  10  37  1   
 25  11  12  1   
 26  11  14  1   
 27  11  38  1   
 28  12  39  1   
 29  12  40  1   
 30  13  15  ar  
 31  13  16  ar  
 32  14  17  1   
 33  14  41  1   
 34  14  42  1   
 35  15  18  ar  
 36  15  43  1   
 37  16  19  ar  
 38  16  44  1   
 39  17  20  2   
 40  17  21  1   
 41  18  22  ar  
 42  18  45  1   
 43  19  22  ar  
 44  19  46  1   
 45  20  23  1   
 46  21  24  2   
 47  22  47  1   
 48  23  24  1   
 49  24  25  1   
 50  25  48  1   
 51  25  49  1   
 52  25  50  1   
@<TRIPOS>SUBSTRUCTURE
  1 ****  11 GROUP 4 **** **** 0

# MOE 2024.06 (io_trps.svl 2023.06)
