@<TRIPOS>MOLECULE
NONAME
45 47 1 0 0 
SMALL
USER_CHARGES


@<TRIPOS>ATOM
  1 S       -0.0510    -0.4290    -1.3340 S.o2  1 <1>   1.4470 
  2 O        0.1150    -1.8660    -1.2180 O.2   1 <1>  -0.6500 
  3 O       -0.0560     0.1550    -2.6550 O.2   1 <1>  -0.6500 
  4 N       -1.5450    -0.0950    -0.5980 N.am  1 <1>  -0.8490 
  5 C        1.1610     0.4060    -0.2860 C.ar  1 <1>  -0.0090 
  6 C       -1.8810    -1.0430     0.4930 C.3   1 <1>   0.1960 
  7 C       -2.6270     0.0880    -1.5970 C.3   1 <1>   0.1960 
  8 C        1.1100     1.7810    -0.0940 C.ar  1 <1>   0.1900 
  9 C        2.1830    -0.2920     0.3580 C.ar  1 <1>  -0.1500 
 10 C       -2.7360    -2.1900    -0.0920 C.3   1 <1>   0.4230 
 11 C       -4.0240    -0.2210    -1.0290 C.3   1 <1>  -0.1600 
 12 F        0.1760     2.4780    -0.6820 F     1 <1>  -0.1900 
 13 C        2.0070     2.4710     0.7000 C.ar  1 <1>  -0.1500 
 14 C        3.1020     0.3660     1.1630 C.ar  1 <1>  -0.1500 
 15 N       -2.8020    -3.4850     0.6560 N.4   1 <1>  -0.9590 
 16 C       -4.1440    -1.6300    -0.3610 C.3   1 <1>  -0.1060 
 17 C        2.9950     1.7360     1.3200 C.ar  1 <1>   0.1900 
 18 C       -3.5110    -4.5210    -0.1470 C.3   1 <1>   0.3430 
 19 C       -1.4910    -3.9710     1.1600 C.3   1 <1>   0.2630 
 20 C       -4.9150    -1.4830     0.9630 C.2   1 <1>   0.9060 
 21 C       -4.8590    -2.6450    -1.2810 C.3   1 <1>  -0.1600 
 22 F        3.8590     2.3520     2.0780 F     1 <1>  -0.1900 
 23 C       -4.8910    -4.0350    -0.6140 C.3   1 <1>  -0.1600 
 24 O       -6.0420    -0.9940     0.9400 O.co2 1 <1>  -0.9000 
 25 O       -4.4040    -1.9030     2.0140 O.co2 1 <1>  -0.9000 
 26 H       -0.9820    -1.4080     0.9530 H     1 <1>   0.0800 
 27 H       -2.4380    -0.5170     1.2510 H     1 <1>   0.0800 
 28 H       -2.5960     1.1010    -1.9660 H     1 <1>   0.0800 
 29 H       -2.4630    -0.5660    -2.4390 H     1 <1>   0.0800 
 30 H        2.2650    -1.3590     0.2270 H     1 <1>   0.1500 
 31 H       -2.2900    -2.4180    -1.0450 H     1 <1>   0.0800 
 32 H       -4.2460     0.5440    -0.3030 H     1 <1>   0.0800 
 33 H       -4.7630    -0.1150    -1.8040 H     1 <1>   0.0800 
 34 H        1.9380     3.5350     0.8290 H     1 <1>   0.1500 
 35 H        3.8920    -0.1700     1.6620 H     1 <1>   0.1500 
 36 H       -3.4220    -3.2200     1.4680 H     1 <1>   0.4500 
 37 H       -2.9160    -4.7640    -1.0120 H     1 <1>   0.0800 
 38 H       -3.6340    -5.4150     0.4410 H     1 <1>   0.0800 
 39 H       -0.7970    -4.0870     0.3430 H     1 <1>   0.0800 
 40 H       -1.6140    -4.9180     1.6580 H     1 <1>   0.0800 
 41 H       -1.0830    -3.2680     1.8680 H     1 <1>   0.0800 
 42 H       -5.8700    -2.3160    -1.4620 H     1 <1>   0.0800 
 43 H       -4.3530    -2.7060    -2.2290 H     1 <1>   0.0800 
 44 H       -5.3000    -4.7500    -1.3050 H     1 <1>   0.0800 
 45 H       -5.5530    -4.0090     0.2360 H     1 <1>   0.0800 
@<TRIPOS>BOND
  1   1   2  2   
  2   1   3  2   
  3   1   4  am  
  4   1   5  1   
  5   4   6  1   
  6   4   7  1   
  7   5   8  ar  
  8   5   9  ar  
  9   6  10  1   
 10   6  26  1   
 11   6  27  1   
 12   7  11  1   
 13   7  28  1   
 14   7  29  1   
 15   8  12  1   
 16   8  13  ar  
 17   9  14  ar  
 18   9  30  1   
 19  10  15  1   
 20  10  16  1   
 21  10  31  1   
 22  11  16  1   
 23  11  32  1   
 24  11  33  1   
 25  13  17  ar  
 26  13  34  1   
 27  14  17  ar  
 28  14  35  1   
 29  15  18  1   
 30  15  19  1   
 31  15  36  1   
 32  16  20  1   
 33  16  21  1   
 34  17  22  1   
 35  18  23  1   
 36  18  37  1   
 37  18  38  1   
 38  19  39  1   
 39  19  40  1   
 40  19  41  1   
 41  20  24  ar  
 42  20  25  ar  
 43  21  23  1   
 44  21  42  1   
 45  21  43  1   
 46  23  44  1   
 47  23  45  1   
@<TRIPOS>SUBSTRUCTURE
  1 ****   6 GROUP 4 **** **** 0

# MOE 2024.06 (io_trps.svl 2023.06)
