@<TRIPOS>MOLECULE
NONAME
53 55 1 0 0 
SMALL
USER_CHARGES


@<TRIPOS>ATOM
  1 O       -0.0150     1.2630    -1.1390 O.2   1 <1>  -0.5700 
  2 C       -0.3110     2.4060    -0.8800 C.2   1 <1>   0.5690 
  3 N       -1.2750     2.7580     0.0320 N.am  1 <1>  -0.6600 
  4 C        0.4300     3.5100    -1.6270 C.3   1 <1>   0.1810 
  5 C       -1.6020     4.2050     0.2780 C.3   1 <1>   0.3640 
  6 C       -2.0070     1.7980     0.9060 C.3   1 <1>   0.2200 
  7 O        0.5720     4.6630    -0.8400 O.3   1 <1>  -0.5600 
  8 C       -3.0480     4.4690    -0.1510 C.ar  1 <1>  -0.1440 
  9 C       -0.6600     5.2290    -0.4190 C.3   1 <1>   0.2610 
 10 C       -1.0320     1.1000     1.8530 C.3   1 <1>  -0.2400 
 11 C       -2.8170     0.7970     0.0810 C.3   1 <1>  -0.2400 
 12 C       -3.5260     4.0300    -1.3800 C.ar  1 <1>  -0.1500 
 13 C       -3.9030     5.1680     0.6890 C.ar  1 <1>  -0.1500 
 14 C       -0.3980     6.4240     0.5090 C.2   1 <1>   0.5690 
 15 C       -4.8340     4.2800    -1.7570 C.ar  1 <1>  -0.1500 
 16 C       -5.2100     5.4200     0.3130 C.ar  1 <1>  -0.1500 
 17 O       -1.3140     6.9420     1.1040 O.2   1 <1>  -0.5700 
 18 N        0.8700     6.8860     0.6490 N.am  1 <1>  -0.7300 
 19 C       -5.6770     4.9760    -0.9100 C.ar  1 <1>  -0.1500 
 20 C        1.2780     8.0670     1.4220 C.3   1 <1>   0.3210 
 21 C        2.3860     8.7630     0.6640 C.2   1 <1>  -0.1810 
 22 C        2.2540     9.3900    -0.5690 C.2   1 <1>   0.1390 
 23 C        3.6860     8.9250     0.9890 C.2   1 <1>  -0.3020 
 24 N        3.3730     9.9000    -0.9830 N.2   1 <1>  -0.7070 
 25 N        4.2630     9.6150    -0.0150 N.pl3 1 <1>   0.3140 
 26 C        5.6780    10.0280    -0.1080 C.3   1 <1>   0.0960 
 27 C        5.9480    11.2760     0.7440 C.3   1 <1>  -0.2400 
 28 H       -0.0970     3.7630    -2.5280 H     1 <1>   0.0800 
 29 H        1.4160     3.1650    -1.8830 H     1 <1>   0.0800 
 30 H       -1.5290     4.3670     1.3400 H     1 <1>   0.0800 
 31 H       -2.7080     2.3490     1.5110 H     1 <1>   0.0800 
 32 H       -1.1460     5.6100    -1.2980 H     1 <1>   0.0800 
 33 H       -0.3490     0.4740     1.3080 H     1 <1>   0.0800 
 34 H       -1.5760     0.4810     2.5430 H     1 <1>   0.0800 
 35 H       -0.4750     1.8270     2.4150 H     1 <1>   0.0800 
 36 H       -2.1760     0.1500    -0.4890 H     1 <1>   0.0800 
 37 H       -3.4820     1.3150    -0.5850 H     1 <1>   0.0800 
 38 H       -3.4090     0.1850     0.7360 H     1 <1>   0.0800 
 39 H       -2.8860     3.4810    -2.0480 H     1 <1>   0.1500 
 40 H       -3.5540     5.5300     1.6420 H     1 <1>   0.1500 
 41 H       -5.1960     3.9320    -2.7090 H     1 <1>   0.1500 
 42 H       -5.8630     5.9640     0.9730 H     1 <1>   0.1500 
 43 H        1.6180     6.4130     0.1320 H     1 <1>   0.3700 
 44 H       -6.6950     5.1720    -1.2020 H     1 <1>   0.1500 
 45 H        0.4420     8.7340     1.5560 H     1 <1>   0.0800 
 46 H        1.6320     7.7560     2.3900 H     1 <1>   0.0800 
 47 H        1.3340     9.4500    -1.1270 H     1 <1>   0.1500 
 48 H        4.2260     8.5970     1.8590 H     1 <1>   0.1500 
 49 H        6.2940     9.2110     0.2190 H     1 <1>   0.0800 
 50 H        5.8990    10.2340    -1.1400 H     1 <1>   0.0800 
 51 H        5.7430    11.0750     1.7800 H     1 <1>   0.0800 
 52 H        5.3280    12.0890     0.4090 H     1 <1>   0.0800 
 53 H        6.9780    11.5680     0.6470 H     1 <1>   0.0800 
@<TRIPOS>BOND
  1   1   2  2   
  2   2   3  am  
  3   2   4  1   
  4   3   5  1   
  5   3   6  1   
  6   4   7  1   
  7   4  28  1   
  8   4  29  1   
  9   5   8  1   
 10   5   9  1   
 11   5  30  1   
 12   6  10  1   
 13   6  11  1   
 14   6  31  1   
 15   7   9  1   
 16   8  12  ar  
 17   8  13  ar  
 18   9  14  1   
 19   9  32  1   
 20  10  33  1   
 21  10  34  1   
 22  10  35  1   
 23  11  36  1   
 24  11  37  1   
 25  11  38  1   
 26  12  15  ar  
 27  12  39  1   
 28  13  16  ar  
 29  13  40  1   
 30  14  17  2   
 31  14  18  am  
 32  15  19  ar  
 33  15  41  1   
 34  16  19  ar  
 35  16  42  1   
 36  18  20  1   
 37  18  43  1   
 38  19  44  1   
 39  20  21  1   
 40  20  45  1   
 41  20  46  1   
 42  21  22  1   
 43  21  23  2   
 44  22  24  2   
 45  22  47  1   
 46  23  25  1   
 47  23  48  1   
 48  24  25  1   
 49  25  26  1   
 50  26  27  1   
 51  26  49  1   
 52  26  50  1   
 53  27  51  1   
 54  27  52  1   
 55  27  53  1   
@<TRIPOS>SUBSTRUCTURE
  1 ****   9 GROUP 4 **** **** 0

# MOE 2024.06 (io_trps.svl 2023.06)
