@<TRIPOS>MOLECULE
NONAME
52 55 1 0 0 
SMALL
USER_CHARGES


@<TRIPOS>ATOM
  1 O        3.4430    -2.7280    -1.3230 O.2   1 <1>  -0.5700 
  2 C        2.6890    -1.8370    -1.0090 C.2   1 <1>   0.5690 
  3 N        3.0760    -0.9260    -0.0540 N.am  1 <1>  -0.6600 
  4 C        1.3420    -1.7660    -1.7230 C.3   1 <1>   0.0440 
  5 C        4.2090    -1.2730     0.8510 C.3   1 <1>   0.1400 
  6 C        2.4590     0.4120     0.1420 C.3   1 <1>   0.1400 
  7 C        0.1700    -1.5490    -0.7700 C.ar  1 <1>  -0.1440 
  8 C        5.5480    -0.9510     0.1700 C.3   1 <1>   0.3430 
  9 C        3.5260     1.5120     0.2250 C.3   1 <1>  -0.1600 
 10 C       -0.7090    -0.4900    -0.9530 C.ar  1 <1>   0.1600 
 11 C       -0.0300    -2.3980     0.3000 C.ar  1 <1>  -0.1500 
 12 N        5.8120     0.5220    -0.0070 N.4   1 <1>  -0.9590 
 13 C        4.7230     1.2810    -0.7050 C.3   1 <1>   0.3430 
 14 N       -1.7250    -0.2020    -0.1580 N.ar  1 <1>  -0.6200 
 15 C       -1.0930    -2.1210     1.1310 C.ar  1 <1>  -0.1500 
 16 C        7.1140     0.7130    -0.7040 C.3   1 <1>   0.4860 
 17 C       -1.8960    -1.0260     0.8630 C.ar  1 <1>   0.1600 
 18 C        7.5190     2.1680    -0.5790 C.ar  1 <1>  -0.1430 
 19 C        7.9540     2.6700     0.6450 C.ar  1 <1>  -0.1500 
 20 C        7.4490     3.0060    -1.6910 C.ar  1 <1>  -0.1500 
 21 C        8.2950     4.0060     0.7360 C.ar  1 <1>  -0.1430 
 22 C        7.7940     4.3440    -1.5860 C.ar  1 <1>  -0.1500 
 23 C        8.2110     4.8220    -0.3600 C.ar  1 <1>   0.0820 
 24 C        8.7890     4.8190     1.8960 C.3   1 <1>  -0.0170 
 25 O        8.5740     6.0870    -0.1030 O.3   1 <1>  -0.3630 
 26 C        8.9750     6.2070     1.2550 C.3   1 <1>   0.1200 
 27 H        1.1850    -2.6910    -2.2480 H     1 <1>   0.0800 
 28 H        1.3860    -0.9840    -2.4570 H     1 <1>   0.0800 
 29 H        4.1750    -2.3300     1.0570 H     1 <1>   0.0800 
 30 H        4.1190    -0.7600     1.7920 H     1 <1>   0.0800 
 31 H        1.8550     0.4060     1.0350 H     1 <1>   0.0800 
 32 H        1.8110     0.6350    -0.6870 H     1 <1>   0.0800 
 33 H        5.5550    -1.4440    -0.7900 H     1 <1>   0.0800 
 34 H        6.3380    -1.3830     0.7620 H     1 <1>   0.0800 
 35 H        3.8520     1.6440     1.2410 H     1 <1>   0.0800 
 36 H        3.0510     2.4330    -0.0620 H     1 <1>   0.0800 
 37 H       -0.5730     0.1640    -1.7970 H     1 <1>   0.1500 
 38 H        0.6130    -3.2430     0.4850 H     1 <1>   0.1500 
 39 H        5.9240     0.9580     0.9150 H     1 <1>   0.4500 
 40 H        5.0980     2.2480    -1.0000 H     1 <1>   0.0800 
 41 H        4.4090     0.7590    -1.5950 H     1 <1>   0.0800 
 42 H       -1.3010    -2.7460     1.9800 H     1 <1>   0.1500 
 43 H        7.0270     0.4380    -1.7430 H     1 <1>   0.0800 
 44 H        7.8740     0.0980    -0.2510 H     1 <1>   0.0800 
 45 H       -2.7230    -0.8180     1.5220 H     1 <1>   0.1500 
 46 H        8.0380     2.0460     1.5180 H     1 <1>   0.1500 
 47 H        7.1310     2.6320    -2.6490 H     1 <1>   0.1500 
 48 H        7.7480     5.0120    -2.4290 H     1 <1>   0.1500 
 49 H        9.7240     4.4430     2.2720 H     1 <1>   0.0800 
 50 H        8.0640     4.8580     2.6890 H     1 <1>   0.0800 
 51 H       10.0050     6.5170     1.2720 H     1 <1>   0.0800 
 52 H        8.3540     6.9500     1.7240 H     1 <1>   0.0800 
@<TRIPOS>BOND
  1   1   2  2   
  2   2   3  am  
  3   2   4  1   
  4   3   5  1   
  5   3   6  1   
  6   4   7  1   
  7   4  27  1   
  8   4  28  1   
  9   5   8  1   
 10   5  29  1   
 11   5  30  1   
 12   6   9  1   
 13   6  31  1   
 14   6  32  1   
 15   7  10  ar  
 16   7  11  ar  
 17   8  12  1   
 18   8  33  1   
 19   8  34  1   
 20   9  13  1   
 21   9  35  1   
 22   9  36  1   
 23  10  14  ar  
 24  10  37  1   
 25  11  15  ar  
 26  11  38  1   
 27  12  13  1   
 28  12  16  1   
 29  12  39  1   
 30  13  40  1   
 31  13  41  1   
 32  14  17  ar  
 33  15  17  ar  
 34  15  42  1   
 35  16  18  1   
 36  16  43  1   
 37  16  44  1   
 38  17  45  1   
 39  18  19  ar  
 40  18  20  ar  
 41  19  21  ar  
 42  19  46  1   
 43  20  22  ar  
 44  20  47  1   
 45  21  23  ar  
 46  21  24  1   
 47  22  23  ar  
 48  22  48  1   
 49  23  25  1   
 50  24  26  1   
 51  24  49  1   
 52  24  50  1   
 53  25  26  1   
 54  26  51  1   
 55  26  52  1   
@<TRIPOS>SUBSTRUCTURE
  1 ****  13 GROUP 4 **** **** 0

# MOE 2024.06 (io_trps.svl 2023.06)
