@<TRIPOS>MOLECULE
NONAME
54 57 1 0 0 
SMALL
USER_CHARGES


@<TRIPOS>ATOM
  1 O        0.2430     0.2260     0.4390 O.2   1 <1>  -0.5700 
  2 C       -0.6730     0.8160    -0.0790 C.2   1 <1>   0.5690 
  3 N       -1.8910     0.2280    -0.2700 N.am  1 <1>  -0.6600 
  4 C       -0.4340     2.2550    -0.4750 C.3   1 <1>  -0.0990 
  5 C       -3.0980     0.8170    -0.9070 C.3   1 <1>   0.1400 
  6 C       -2.2000    -1.1260     0.2410 C.3   1 <1>   0.1400 
  7 C       -0.5110     3.1330     0.7750 C.3   1 <1>   0.0960 
  8 C       -4.2420    -0.1590    -0.6070 C.3   1 <1>   0.2000 
  9 C       -3.5340    -1.5030    -0.4080 C.3   1 <1>  -0.0800 
 10 N       -0.4540     4.5600     0.4010 N.pl3 1 <1>   0.0480 
 11 O       -4.8640     0.2110     0.5910 O.3   1 <1>  -0.5600 
 12 C       -4.3420    -2.5370     0.3980 C.3   1 <1>   0.0200 
 13 C        0.6610     5.2420     0.0290 C.ar  1 <1>  -0.1520 
 14 C       -1.4820     5.4470     0.2740 C.2   1 <1>   0.0060 
 15 C       -5.9350     1.0910     0.4560 C.3   1 <1>   0.0400 
 16 C       -3.6950    -3.9120     0.4310 C.2   1 <1>  -0.0400 
 17 C        0.2240     6.5110    -0.3040 C.ar  1 <1>   0.2270 
 18 C        2.0140     4.9000    -0.0580 C.ar  1 <1>  -0.1500 
 19 N       -1.1230     6.6100    -0.1410 N.2   1 <1>  -0.5650 
 20 C       -2.9240     5.1050     0.5920 C.3   1 <1>  -0.0600 
 21 O       -4.2510    -4.8480     1.1540 O.3   1 <1>  -0.0190 
 22 C       -2.6070    -4.4410    -0.1520 C.2   1 <1>  -0.1500 
 23 C        1.1360     7.4720    -0.7360 C.ar  1 <1>  -0.1500 
 24 C        2.9090     5.8560    -0.4870 C.ar  1 <1>  -0.1500 
 25 N       -3.5950    -5.9710     1.0880 N.2   1 <1>  -0.4100 
 26 C       -2.5980    -5.7540     0.3090 C.2   1 <1>   0.1080 
 27 C        2.4710     7.1420    -0.8270 C.ar  1 <1>  -0.1500 
 28 C       -1.5600    -6.7920    -0.0530 C.3   1 <1>  -0.0590 
 29 H        0.5460     2.3290    -0.9110 H     1 <1>   0.0800 
 30 H       -1.1510     2.5760    -1.2060 H     1 <1>   0.0800 
 31 H       -3.3080     1.7970    -0.5180 H     1 <1>   0.0800 
 32 H       -2.9360     0.8710    -1.9690 H     1 <1>   0.0800 
 33 H       -1.4150    -1.8180    -0.0100 H     1 <1>   0.0800 
 34 H       -2.3010    -1.0760     1.3130 H     1 <1>   0.0800 
 35 H        0.3110     2.9100     1.4330 H     1 <1>   0.0800 
 36 H       -1.4260     2.9420     1.3050 H     1 <1>   0.0800 
 37 H       -4.9750    -0.2030    -1.3960 H     1 <1>   0.0800 
 38 H       -3.3240    -1.9100    -1.3810 H     1 <1>   0.0800 
 39 H       -5.3220    -2.6370    -0.0330 H     1 <1>   0.0800 
 40 H       -4.4670    -2.1940     1.4110 H     1 <1>   0.0800 
 41 H       -6.3080     1.3140     1.4410 H     1 <1>   0.0800 
 42 H       -6.7110     0.6200    -0.1230 H     1 <1>   0.0800 
 43 H       -5.6030     1.9970    -0.0190 H     1 <1>   0.0800 
 44 H        2.3440     3.9110     0.2070 H     1 <1>   0.1500 
 45 H       -3.5470     5.9630     0.4140 H     1 <1>   0.0800 
 46 H       -3.0170     4.8240     1.6250 H     1 <1>   0.0800 
 47 H       -3.2600     4.3000    -0.0330 H     1 <1>   0.0800 
 48 H       -1.8890    -4.0040    -0.8200 H     1 <1>   0.1500 
 49 H        0.7700     8.4490    -0.9890 H     1 <1>   0.1500 
 50 H        3.9560     5.6220    -0.5640 H     1 <1>   0.1500 
 51 H        3.1880     7.8720    -1.1590 H     1 <1>   0.1500 
 52 H       -0.5860    -6.4530     0.2490 H     1 <1>   0.0800 
 53 H       -1.5660    -6.9600    -1.1140 H     1 <1>   0.0800 
 54 H       -1.7770    -7.7180     0.4480 H     1 <1>   0.0800 
@<TRIPOS>BOND
  1   1   2  2   
  2   2   3  am  
  3   2   4  1   
  4   3   5  1   
  5   3   6  1   
  6   4   7  1   
  7   4  29  1   
  8   4  30  1   
  9   5   8  1   
 10   5  31  1   
 11   5  32  1   
 12   6   9  1   
 13   6  33  1   
 14   6  34  1   
 15   7  10  1   
 16   7  35  1   
 17   7  36  1   
 18   8   9  1   
 19   8  11  1   
 20   8  37  1   
 21   9  12  1   
 22   9  38  1   
 23  10  13  1   
 24  10  14  1   
 25  11  15  1   
 26  12  16  1   
 27  12  39  1   
 28  12  40  1   
 29  13  17  ar  
 30  13  18  ar  
 31  14  19  2   
 32  14  20  1   
 33  15  41  1   
 34  15  42  1   
 35  15  43  1   
 36  16  21  1   
 37  16  22  2   
 38  17  19  1   
 39  17  23  ar  
 40  18  24  ar  
 41  18  44  1   
 42  20  45  1   
 43  20  46  1   
 44  20  47  1   
 45  21  25  1   
 46  22  26  1   
 47  22  48  1   
 48  23  27  ar  
 49  23  49  1   
 50  24  27  ar  
 51  24  50  1   
 52  25  26  2   
 53  26  28  1   
 54  27  51  1   
 55  28  52  1   
 56  28  53  1   
 57  28  54  1   
@<TRIPOS>SUBSTRUCTURE
  1 ****   3 GROUP 4 **** **** 0

# MOE 2024.06 (io_trps.svl 2023.06)
