@<TRIPOS>MOLECULE
NONAME
59 62 1 0 0 
SMALL
USER_CHARGES


@<TRIPOS>ATOM
  1 O        1.0170     0.2640    -0.7580 O.2   1 <1>  -0.5700 
  2 C        1.9990    -0.3450    -0.3730 C.2   1 <1>   0.7030 
  3 N        3.2450     0.2310    -0.5330 N.am  1 <1>  -0.6600 
  4 C        1.8100    -1.6600     0.2260 C.2   1 <1>   0.2770 
  5 C        4.4880    -0.5800    -0.7350 C.3   1 <1>   0.1400 
  6 C        3.3170     1.6700    -0.9370 C.3   1 <1>   0.1400 
  7 N        0.9770    -2.6830    -0.2370 N.pl3 1 <1>  -0.7640 
  8 C        2.3800    -2.1440     1.3590 C.2   1 <1>   0.2000 
  9 C        5.4720    -0.4520     0.4410 C.3   1 <1>   0.1100 
 10 C        4.6830     2.3340    -0.7310 C.3   1 <1>  -0.1600 
 11 C        1.0720    -3.7080     0.5970 C.cat 1 <1>   0.6500 
 12 C        0.1010    -2.5590    -1.4390 C.3   1 <1>   0.2740 
 13 N        1.9220    -3.4160     1.5700 N.pl3 1 <1>  -0.7000 
 14 N        6.2150     0.8170     0.4470 N.3   1 <1>  -0.8100 
 15 C        5.3560     2.0040     0.6010 C.3   1 <1>   0.1100 
 16 C        7.2930     0.7900     1.4860 C.3   1 <1>   0.1710 
 17 C        8.2490     1.9980     1.5240 C.2   1 <1>   0.5690 
 18 O        8.4600     2.4540     2.6250 O.2   1 <1>  -0.5700 
 19 N        8.8260     2.5170     0.3710 N.am  1 <1>  -0.4770 
 20 C        9.4480     3.7930     0.2730 C.ar  1 <1>   0.1170 
 21 C        8.8890     1.6910    -0.8670 C.3   1 <1>   0.1400 
 22 C       10.4540     4.0320    -0.6710 C.ar  1 <1>  -0.1430 
 23 C        9.0660     4.8560     1.0900 C.ar  1 <1>  -0.1500 
 24 C       10.3450     1.5800    -1.3130 C.3   1 <1>  -0.1600 
 25 C       11.0590     5.2750    -0.7550 C.ar  1 <1>  -0.1500 
 26 C       10.9030     2.9610    -1.6580 C.3   1 <1>  -0.0170 
 27 C        9.6730     6.0940     1.0010 C.ar  1 <1>  -0.1500 
 28 C       10.6800     6.3110     0.0790 C.ar  1 <1>  -0.1430 
 29 C       11.3520     7.6680    -0.0210 C.3   1 <1>  -0.0970 
 30 H        4.9810    -0.2770    -1.6440 H     1 <1>   0.0800 
 31 H        4.2280    -1.6160    -0.8530 H     1 <1>   0.0800 
 32 H        2.5890     2.2190    -0.3620 H     1 <1>   0.0800 
 33 H        3.0350     1.7580    -1.9730 H     1 <1>   0.0800 
 34 H        3.0690    -1.6450     2.0210 H     1 <1>   0.1500 
 35 H        6.1860    -1.2530     0.3510 H     1 <1>   0.0800 
 36 H        4.9550    -0.5740     1.3750 H     1 <1>   0.0800 
 37 H        4.5250     3.3970    -0.7700 H     1 <1>   0.0800 
 38 H        5.3450     2.0970    -1.5450 H     1 <1>   0.0800 
 39 H        0.5310    -4.6410     0.5030 H     1 <1>   0.1500 
 40 H        0.6930    -2.3040    -2.3020 H     1 <1>   0.0800 
 41 H       -0.6300    -1.7830    -1.2810 H     1 <1>   0.0800 
 42 H       -0.4130    -3.4850    -1.6310 H     1 <1>   0.0800 
 43 H        2.1680    -4.0300     2.3550 H     1 <1>   0.4500 
 44 H        4.6310     1.8600     1.3840 H     1 <1>   0.0800 
 45 H        5.9600     2.8550     0.8680 H     1 <1>   0.0800 
 46 H        7.8990    -0.0870     1.3450 H     1 <1>   0.0800 
 47 H        6.8360     0.7080     2.4570 H     1 <1>   0.0800 
 48 H        8.2940     2.1610    -1.6320 H     1 <1>   0.0800 
 49 H        8.5070     0.7010    -0.7060 H     1 <1>   0.0800 
 50 H        8.2820     4.7240     1.8110 H     1 <1>   0.1500 
 51 H       10.4200     0.9350    -2.1690 H     1 <1>   0.0800 
 52 H       10.9210     1.1450    -0.5140 H     1 <1>   0.0800 
 53 H       11.8330     5.4430    -1.4830 H     1 <1>   0.1500 
 54 H       11.9780     2.9160    -1.6850 H     1 <1>   0.0800 
 55 H       10.5560     3.2450    -2.6360 H     1 <1>   0.0800 
 56 H        9.3560     6.8870     1.6550 H     1 <1>   0.1500 
 57 H       12.3780     7.5570    -0.3230 H     1 <1>   0.0800 
 58 H       11.3320     8.1690     0.9300 H     1 <1>   0.0800 
 59 H       10.8390     8.2750    -0.7450 H     1 <1>   0.0800 
@<TRIPOS>BOND
  1   1   2  2   
  2   2   3  am  
  3   2   4  1   
  4   3   5  1   
  5   3   6  1   
  6   4   7  1   
  7   4   8  2   
  8   5   9  1   
  9   5  30  1   
 10   5  31  1   
 11   6  10  1   
 12   6  32  1   
 13   6  33  1   
 14   7  11  ar  
 15   7  12  1   
 16   8  13  1   
 17   8  34  1   
 18   9  14  1   
 19   9  35  1   
 20   9  36  1   
 21  10  15  1   
 22  10  37  1   
 23  10  38  1   
 24  11  13  ar  
 25  11  39  1   
 26  12  40  1   
 27  12  41  1   
 28  12  42  1   
 29  13  43  1   
 30  14  15  1   
 31  14  16  1   
 32  15  44  1   
 33  15  45  1   
 34  16  17  1   
 35  16  46  1   
 36  16  47  1   
 37  17  18  2   
 38  17  19  am  
 39  19  20  1   
 40  19  21  1   
 41  20  22  ar  
 42  20  23  ar  
 43  21  24  1   
 44  21  48  1   
 45  21  49  1   
 46  22  25  ar  
 47  22  26  1   
 48  23  27  ar  
 49  23  50  1   
 50  24  26  1   
 51  24  51  1   
 52  24  52  1   
 53  25  28  ar  
 54  25  53  1   
 55  26  54  1   
 56  26  55  1   
 57  27  28  ar  
 58  27  56  1   
 59  28  29  1   
 60  29  57  1   
 61  29  58  1   
 62  29  59  1   
@<TRIPOS>SUBSTRUCTURE
  1 ****  14 GROUP 4 **** **** 0

# MOE 2024.06 (io_trps.svl 2023.06)
