@<TRIPOS>MOLECULE
NONAME
46 48 1 0 0 
SMALL
USER_CHARGES


@<TRIPOS>ATOM
  1 F        1.1440    -0.2940    -1.2950 F     1 <1>  -0.3400 
  2 C        0.2770    -1.2960    -1.1900 C.3   1 <1>   1.1640 
  3 F       -0.9000    -0.7210    -0.9660 F     1 <1>  -0.3400 
  4 F        0.2170    -1.8370    -2.4040 F     1 <1>  -0.3400 
  5 C        0.6770    -2.2920    -0.1060 C.ar  1 <1>  -0.1440 
  6 C       -0.0840    -3.4480     0.0760 C.ar  1 <1>   0.4100 
  7 C        1.7850    -2.0910     0.6980 C.ar  1 <1>  -0.1500 
  8 N        0.2130    -4.3970     0.9590 N.ar  1 <1>  -0.6200 
  9 N       -1.2190    -3.6970    -0.6680 N.pl3 1 <1>  -0.8380 
 10 C        2.0810    -3.0620     1.6310 C.ar  1 <1>  -0.1500 
 11 C        1.2750    -4.1790     1.7160 C.ar  1 <1>   0.1600 
 12 C       -1.2820    -4.9920    -1.3960 C.3   1 <1>   0.2090 
 13 C       -2.5210    -3.2180    -0.1210 C.3   1 <1>   0.2090 
 14 C       -1.9340    -6.0930    -0.5200 C.3   1 <1>   0.4230 
 15 C       -3.1580    -4.3070     0.7500 C.3   1 <1>  -0.1600 
 16 N       -1.9100    -7.4840    -1.1510 N.4   1 <1>  -0.9590 
 17 C       -3.3300    -5.6690     0.0240 C.3   1 <1>   0.0000 
 18 C       -2.8730    -8.4530    -0.5350 C.3   1 <1>   0.3430 
 19 C       -2.0370    -7.5180    -2.6450 C.3   1 <1>   0.2630 
 20 C       -3.8240    -6.7210     1.0620 C.3   1 <1>  -0.1600 
 21 C       -4.3440    -5.5360    -1.1470 C.3   1 <1>   0.1200 
 22 C       -3.1470    -8.0970     0.9240 C.3   1 <1>  -0.1600 
 23 O       -5.5370    -4.9700    -0.7290 O.3   1 <1>  -0.6800 
 24 H        2.4110    -1.2160     0.6140 H     1 <1>   0.1500 
 25 H        2.9290    -2.9530     2.2840 H     1 <1>   0.1500 
 26 H        1.5190    -4.9320     2.4460 H     1 <1>   0.1500 
 27 H       -1.8320    -4.8380    -2.3060 H     1 <1>   0.0800 
 28 H       -0.2790    -5.2890    -1.6510 H     1 <1>   0.0800 
 29 H       -2.3620    -2.3360     0.4780 H     1 <1>   0.0800 
 30 H       -3.1770    -2.9480    -0.9320 H     1 <1>   0.0800 
 31 H       -1.3070    -6.1530     0.3540 H     1 <1>   0.0800 
 32 H       -2.5280    -4.4300     1.6140 H     1 <1>   0.0800 
 33 H       -4.1050    -3.9460     1.1110 H     1 <1>   0.0800 
 34 H       -0.9700    -7.8410    -0.9220 H     1 <1>   0.4500 
 35 H       -3.8070    -8.4310    -1.0720 H     1 <1>   0.0800 
 36 H       -2.4770    -9.4540    -0.5990 H     1 <1>   0.0800 
 37 H       -2.9860    -7.1100    -2.9520 H     1 <1>   0.0800 
 38 H       -1.9670    -8.5330    -3.0020 H     1 <1>   0.0800 
 39 H       -1.2490    -6.9440    -3.1050 H     1 <1>   0.0800 
 40 H       -3.6430    -6.3760     2.0660 H     1 <1>   0.0800 
 41 H       -4.8900    -6.8490     0.9800 H     1 <1>   0.0800 
 42 H       -4.5770    -6.4930    -1.5760 H     1 <1>   0.0800 
 43 H       -3.9640    -4.8980    -1.9250 H     1 <1>   0.0800 
 44 H       -3.7830    -8.8480     1.3600 H     1 <1>   0.0800 
 45 H       -2.2200    -8.1120     1.4730 H     1 <1>   0.0800 
 46 H       -5.9620    -5.4870    -0.0170 H     1 <1>   0.4000 
@<TRIPOS>BOND
  1   1   2  1   
  2   2   3  1   
  3   2   4  1   
  4   2   5  1   
  5   5   6  ar  
  6   5   7  ar  
  7   6   8  ar  
  8   6   9  1   
  9   7  10  ar  
 10   7  24  1   
 11   8  11  ar  
 12   9  12  1   
 13   9  13  1   
 14  10  11  ar  
 15  10  25  1   
 16  11  26  1   
 17  12  14  1   
 18  12  27  1   
 19  12  28  1   
 20  13  15  1   
 21  13  29  1   
 22  13  30  1   
 23  14  16  1   
 24  14  17  1   
 25  14  31  1   
 26  15  17  1   
 27  15  32  1   
 28  15  33  1   
 29  16  18  1   
 30  16  19  1   
 31  16  34  1   
 32  17  20  1   
 33  17  21  1   
 34  18  22  1   
 35  18  35  1   
 36  18  36  1   
 37  19  37  1   
 38  19  38  1   
 39  19  39  1   
 40  20  22  1   
 41  20  40  1   
 42  20  41  1   
 43  21  23  1   
 44  21  42  1   
 45  21  43  1   
 46  22  44  1   
 47  22  45  1   
 48  23  46  1   
@<TRIPOS>SUBSTRUCTURE
  1 ****   9 GROUP 4 **** **** 0

# MOE 2024.06 (io_trps.svl 2023.06)
