@<TRIPOS>MOLECULE
NONAME
44 46 1 0 0 
SMALL
USER_CHARGES


@<TRIPOS>ATOM
  1 CL      -1.7710    -0.3770     2.7890 Cl    1 <1>  -0.1770 
  2 C       -2.8350    -1.0700     1.5850 C.ar  1 <1>   0.1770 
  3 C       -3.4990    -0.2640     0.6650 C.ar  1 <1>  -0.1440 
  4 C       -2.9900    -2.4410     1.6050 C.ar  1 <1>  -0.1500 
  5 C       -4.3710    -0.8600    -0.2580 C.ar  1 <1>  -0.0090 
  6 C       -3.2620     1.2480     0.7010 C.3   1 <1>  -0.0960 
  7 C       -3.8310    -3.0360     0.6880 C.ar  1 <1>  -0.1500 
  8 S       -5.3530     0.0690    -1.4850 S.o2  1 <1>   1.4470 
  9 C       -4.5070    -2.2470    -0.2240 C.ar  1 <1>  -0.1500 
 10 O       -4.4560     0.8000    -2.3550 O.2   1 <1>  -0.6500 
 11 O       -6.3200    -0.8140    -2.0980 O.2   1 <1>  -0.6500 
 12 N       -6.1900     1.2200    -0.5570 N.am  1 <1>  -0.8490 
 13 C       -7.0060     0.7520     0.5810 C.3   1 <1>   0.1960 
 14 C       -6.7950     2.3130    -1.3170 C.3   1 <1>   0.1960 
 15 C       -8.5030     0.4760     0.2840 C.3   1 <1>   0.0000 
 16 C       -8.2140     1.9630    -1.7710 C.3   1 <1>  -0.1600 
 17 C       -9.2390     0.2640     1.6240 C.3   1 <1>   0.2000 
 18 C       -9.1050     1.6270    -0.5660 C.3   1 <1>  -0.1600 
 19 C       -8.7750    -0.8790    -0.3990 C.3   1 <1>  -0.1600 
 20 O       -9.5450     1.4450     2.2720 O.3   1 <1>  -0.6800 
 21 C      -10.5110    -0.5100     1.3020 C.3   1 <1>  -0.1600 
 22 C      -10.1670    -1.3370     0.0590 C.3   1 <1>  -0.1600 
 23 H       -2.4570    -3.0300     2.3300 H     1 <1>   0.1500 
 24 H       -3.4260     1.7100    -0.2530 H     1 <1>   0.0800 
 25 H       -2.2470     1.4740     0.9740 H     1 <1>   0.0800 
 26 H       -3.9200     1.7040     1.4180 H     1 <1>   0.0800 
 27 H       -3.9600    -4.1060     0.6840 H     1 <1>   0.1500 
 28 H       -5.1630    -2.7290    -0.9320 H     1 <1>   0.1500 
 29 H       -6.5570    -0.1190     1.0260 H     1 <1>   0.0800 
 30 H       -6.9690     1.5280     1.3280 H     1 <1>   0.0800 
 31 H       -6.8350     3.1850    -0.6860 H     1 <1>   0.0800 
 32 H       -6.1850     2.5610    -2.1700 H     1 <1>   0.0800 
 33 H       -8.6290     2.8070    -2.2930 H     1 <1>   0.0800 
 34 H       -8.1780     1.1440    -2.4660 H     1 <1>   0.0800 
 35 H       -8.6270    -0.3250     2.2880 H     1 <1>   0.0800 
 36 H      -10.0940     1.3730    -0.9070 H     1 <1>   0.0800 
 37 H       -9.1830     2.5200     0.0290 H     1 <1>   0.0800 
 38 H       -8.7340    -0.8260    -1.4720 H     1 <1>   0.0800 
 39 H       -8.0480    -1.6030    -0.0720 H     1 <1>   0.0800 
 40 H      -10.1870     1.9520     1.7420 H     1 <1>   0.4000 
 41 H      -10.7920    -1.1420     2.1260 H     1 <1>   0.0800 
 42 H      -11.3180     0.1620     1.0700 H     1 <1>   0.0800 
 43 H      -10.1600    -2.3900     0.2820 H     1 <1>   0.0800 
 44 H      -10.8930    -1.1530    -0.7150 H     1 <1>   0.0800 
@<TRIPOS>BOND
  1   1   2  1   
  2   2   3  ar  
  3   2   4  ar  
  4   3   5  ar  
  5   3   6  1   
  6   4   7  ar  
  7   4  23  1   
  8   5   8  1   
  9   5   9  ar  
 10   6  24  1   
 11   6  25  1   
 12   6  26  1   
 13   7   9  ar  
 14   7  27  1   
 15   8  10  2   
 16   8  11  2   
 17   8  12  am  
 18   9  28  1   
 19  12  13  1   
 20  12  14  1   
 21  13  15  1   
 22  13  29  1   
 23  13  30  1   
 24  14  16  1   
 25  14  31  1   
 26  14  32  1   
 27  15  17  1   
 28  15  18  1   
 29  15  19  1   
 30  16  18  1   
 31  16  33  1   
 32  16  34  1   
 33  17  20  1   
 34  17  21  1   
 35  17  35  1   
 36  18  36  1   
 37  18  37  1   
 38  19  22  1   
 39  19  38  1   
 40  19  39  1   
 41  20  40  1   
 42  21  22  1   
 43  21  41  1   
 44  21  42  1   
 45  22  43  1   
 46  22  44  1   
@<TRIPOS>SUBSTRUCTURE
  1 ****  13 GROUP 4 **** **** 0

# MOE 2024.06 (io_trps.svl 2023.06)
