@<TRIPOS>MOLECULE
NONAME
51 53 1 0 0 
SMALL
USER_CHARGES


@<TRIPOS>ATOM
  1 O       -0.6570     0.3370     1.3850 O.2   1 <1>  -0.5700 
  2 C       -1.4420     0.8730     0.6390 C.2   1 <1>   0.5690 
  3 N       -2.4040     0.1510    -0.0080 N.am  1 <1>  -0.6600 
  4 C       -1.3640     2.3760     0.4260 C.3   1 <1>  -0.0990 
  5 C       -3.5340     0.6840    -0.8110 C.3   1 <1>   0.1400 
  6 C       -2.5350    -1.3190     0.1480 C.3   1 <1>   0.1400 
  7 C       -0.0630     3.0090     0.9380 C.3   1 <1>  -0.0160 
  8 C       -4.6110    -0.3930    -0.6950 C.3   1 <1>   0.2000 
  9 C       -3.8080    -1.6970    -0.6210 C.3   1 <1>  -0.0800 
 10 C       -0.0440     4.5010     0.6200 C.ar  1 <1>  -0.1440 
 11 O       -5.2860    -0.1960     0.4990 O.3   1 <1>  -0.6800 
 12 C       -4.5600    -2.9030    -0.0270 C.3   1 <1>  -0.0170 
 13 C        0.5240     5.0160    -0.5420 C.ar  1 <1>  -0.1440 
 14 C       -0.6250     5.3680     1.5330 C.ar  1 <1>  -0.1500 
 15 C       -3.7040    -4.1590    -0.0840 C.ar  1 <1>  -0.1440 
 16 C        0.4950     6.3850    -0.7660 C.ar  1 <1>  -0.1500 
 17 C        1.1850     4.1240    -1.5840 C.3   1 <1>  -0.0970 
 18 C       -0.6490     6.7310     1.3000 C.ar  1 <1>  -0.1500 
 19 C       -3.6230    -4.9310    -1.2250 C.ar  1 <1>  -0.1500 
 20 C       -2.9630    -4.5910     0.9970 C.ar  1 <1>  -0.1500 
 21 C       -0.0900     7.2470     0.1450 C.ar  1 <1>  -0.1440 
 22 C       -2.8260    -6.0630    -1.2310 C.ar  1 <1>   0.1600 
 23 C       -2.1960    -5.7390     0.8870 C.ar  1 <1>   0.1600 
 24 C       -0.1080     8.7420    -0.1180 C.3   1 <1>  -0.0970 
 25 N       -2.1090    -6.4860    -0.2020 N.ar  1 <1>  -0.6200 
 26 H       -1.4540     2.5790    -0.6250 H     1 <1>   0.0800 
 27 H       -2.1960     2.8340     0.9280 H     1 <1>   0.0800 
 28 H       -3.8850     1.6340    -0.4470 H     1 <1>   0.0800 
 29 H       -3.2200     0.7800    -1.8360 H     1 <1>   0.0800 
 30 H       -1.6700    -1.8230    -0.2490 H     1 <1>   0.0800 
 31 H       -2.6300    -1.5520     1.1950 H     1 <1>   0.0800 
 32 H        0.7850     2.5130     0.5010 H     1 <1>   0.0800 
 33 H        0.0100     2.8670     2.0030 H     1 <1>   0.0800 
 34 H       -5.3240    -0.3710    -1.5020 H     1 <1>   0.0800 
 35 H       -3.5090    -1.9500    -1.6230 H     1 <1>   0.0800 
 36 H       -4.6280    -0.0820     1.2150 H     1 <1>   0.4000 
 37 H       -5.4680    -3.0660    -0.5810 H     1 <1>   0.0800 
 38 H       -4.8390    -2.7070     0.9930 H     1 <1>   0.0800 
 39 H       -1.0660     4.9850     2.4360 H     1 <1>   0.1500 
 40 H        0.9350     6.7890    -1.6600 H     1 <1>   0.1500 
 41 H        1.4610     4.6880    -2.4560 H     1 <1>   0.0800 
 42 H        0.5140     3.3430    -1.8900 H     1 <1>   0.0800 
 43 H        2.0750     3.6820    -1.1730 H     1 <1>   0.0800 
 44 H       -1.1050     7.3850     2.0220 H     1 <1>   0.1500 
 45 H       -4.1720    -4.6640    -2.1100 H     1 <1>   0.1500 
 46 H       -2.9730    -4.0490     1.9250 H     1 <1>   0.1500 
 47 H       -2.7750    -6.6540    -2.1300 H     1 <1>   0.1500 
 48 H       -1.6230    -6.0600     1.7400 H     1 <1>   0.1500 
 49 H       -0.9250     9.2080     0.4030 H     1 <1>   0.0800 
 50 H       -0.2230     8.9350    -1.1690 H     1 <1>   0.0800 
 51 H        0.8140     9.1810     0.2190 H     1 <1>   0.0800 
@<TRIPOS>BOND
  1   1   2  2   
  2   2   3  am  
  3   2   4  1   
  4   3   5  1   
  5   3   6  1   
  6   4   7  1   
  7   4  26  1   
  8   4  27  1   
  9   5   8  1   
 10   5  28  1   
 11   5  29  1   
 12   6   9  1   
 13   6  30  1   
 14   6  31  1   
 15   7  10  1   
 16   7  32  1   
 17   7  33  1   
 18   8   9  1   
 19   8  11  1   
 20   8  34  1   
 21   9  12  1   
 22   9  35  1   
 23  10  13  ar  
 24  10  14  ar  
 25  11  36  1   
 26  12  15  1   
 27  12  37  1   
 28  12  38  1   
 29  13  16  ar  
 30  13  17  1   
 31  14  18  ar  
 32  14  39  1   
 33  15  19  ar  
 34  15  20  ar  
 35  16  21  ar  
 36  16  40  1   
 37  17  41  1   
 38  17  42  1   
 39  17  43  1   
 40  18  21  ar  
 41  18  44  1   
 42  19  22  ar  
 43  19  45  1   
 44  20  23  ar  
 45  20  46  1   
 46  21  24  1   
 47  22  25  ar  
 48  22  47  1   
 49  23  25  ar  
 50  23  48  1   
 51  24  49  1   
 52  24  50  1   
 53  24  51  1   
@<TRIPOS>SUBSTRUCTURE
  1 ****   2 GROUP 4 **** **** 0

# MOE 2024.06 (io_trps.svl 2023.06)
