@<TRIPOS>MOLECULE
NONAME
42 43 1 0 0 
SMALL
USER_CHARGES


@<TRIPOS>ATOM
  1 F       -0.8000    -2.5880    -1.2290 F     1 <1>  -0.1900 
  2 C       -1.9950    -2.5800    -0.6800 C.ar  1 <1>   0.1900 
  3 C       -2.5190    -1.4840     0.0010 C.ar  1 <1>   0.3930 
  4 C       -2.7610    -3.7120    -0.7840 C.ar  1 <1>   0.1600 
  5 O       -1.8980    -0.2980     0.1920 O.3   1 <1>  -0.3620 
  6 N       -3.7230    -1.5440     0.5320 N.ar  1 <1>  -0.6200 
  7 N       -3.9700    -3.7770    -0.2580 N.ar  1 <1>  -0.6200 
  8 C       -0.6230     0.0310    -0.3130 C.3   1 <1>   0.0400 
  9 C       -4.3730    -2.6770     0.3700 C.ar  1 <1>   0.7200 
 10 N       -5.6040    -2.6940     0.9320 N.pl3 1 <1>  -0.8690 
 11 C       -6.2570    -3.9250     1.4360 C.3   1 <1>   0.2090 
 12 C       -6.9620    -4.6610     0.2740 C.3   1 <1>   0.3430 
 13 N       -6.7220    -6.1480     0.2390 N.4   1 <1>  -0.9590 
 14 C       -5.2820    -6.4280    -0.0950 C.3   1 <1>   0.3430 
 15 C       -7.6300    -6.7780    -0.7620 C.3   1 <1>   0.3430 
 16 C       -4.9750    -7.9280    -0.1660 C.3   1 <1>  -0.0190 
 17 C       -7.4030    -8.2920    -0.7950 C.3   1 <1>  -0.1600 
 18 C       -3.5270    -8.1050    -0.5980 C.2   1 <1>   0.5690 
 19 C       -5.9450    -8.6400    -1.1280 C.3   1 <1>  -0.1600 
 20 O       -2.9420    -7.1900    -1.1190 O.2   1 <1>  -0.5700 
 21 N       -2.9020    -9.2780    -0.3980 N.am  1 <1>  -0.8000 
 22 H       -2.3730    -4.5730    -1.3040 H     1 <1>   0.1500 
 23 H       -0.4010     1.0420    -0.0230 H     1 <1>   0.0800 
 24 H       -0.6390    -0.0430    -1.3860 H     1 <1>   0.0800 
 25 H        0.1070    -0.6360     0.1110 H     1 <1>   0.0800 
 26 H       -5.7380    -1.8460     1.4930 H     1 <1>   0.4000 
 27 H       -6.9840    -3.6550     2.1830 H     1 <1>   0.0800 
 28 H       -5.5130    -4.5500     1.8970 H     1 <1>   0.0800 
 29 H       -6.6090    -4.2310    -0.6500 H     1 <1>   0.0800 
 30 H       -8.0190    -4.4660     0.3450 H     1 <1>   0.0800 
 31 H       -6.9300    -6.5510     1.1610 H     1 <1>   0.4500 
 32 H       -4.6330    -5.9760     0.6370 H     1 <1>   0.0800 
 33 H       -5.0440    -5.9820    -1.0480 H     1 <1>   0.0800 
 34 H       -7.4330    -6.3670    -1.7400 H     1 <1>   0.0800 
 35 H       -8.6590    -6.5740    -0.5100 H     1 <1>   0.0800 
 36 H       -5.0760    -8.3420     0.8210 H     1 <1>   0.0800 
 37 H       -8.0470    -8.7240    -1.5410 H     1 <1>   0.0800 
 38 H       -7.6810    -8.7190     0.1540 H     1 <1>   0.0800 
 39 H       -5.8020    -9.7070    -1.0730 H     1 <1>   0.0800 
 40 H       -5.7290    -8.3350    -2.1400 H     1 <1>   0.0800 
 41 H       -1.9320    -9.3840    -0.7050 H     1 <1>   0.3700 
 42 H       -3.3260   -10.1110     0.0130 H     1 <1>   0.3700 
@<TRIPOS>BOND
  1   1   2  1   
  2   2   3  ar  
  3   2   4  ar  
  4   3   5  1   
  5   3   6  ar  
  6   4   7  ar  
  7   4  22  1   
  8   5   8  1   
  9   6   9  ar  
 10   7   9  ar  
 11   8  23  1   
 12   8  24  1   
 13   8  25  1   
 14   9  10  1   
 15  10  11  1   
 16  10  26  1   
 17  11  12  1   
 18  11  27  1   
 19  11  28  1   
 20  12  13  1   
 21  12  29  1   
 22  12  30  1   
 23  13  14  1   
 24  13  15  1   
 25  13  31  1   
 26  14  16  1   
 27  14  32  1   
 28  14  33  1   
 29  15  17  1   
 30  15  34  1   
 31  15  35  1   
 32  16  18  1   
 33  16  19  1   
 34  16  36  1   
 35  17  19  1   
 36  17  37  1   
 37  17  38  1   
 38  18  20  2   
 39  18  21  am  
 40  19  39  1   
 41  19  40  1   
 42  21  41  1   
 43  21  42  1   
@<TRIPOS>SUBSTRUCTURE
  1 ****   7 GROUP 4 **** **** 0

# MOE 2024.06 (io_trps.svl 2023.06)
