@<TRIPOS>MOLECULE
NONAME
43 44 1 0 0 
SMALL
USER_CHARGES


@<TRIPOS>ATOM
  1 S       -0.7500    -0.6800     0.8330 S.o2  1 <1>   1.4470 
  2 O       -0.9250    -0.6590     2.2680 O.2   1 <1>  -0.6500 
  3 O        0.0350    -1.7220     0.2110 O.2   1 <1>  -0.6500 
  4 N       -2.2730    -0.8570     0.1460 N.am  1 <1>  -0.9140 
  5 C       -0.2200     0.9510     0.2450 C.ar  1 <1>  -0.0090 
  6 C       -3.2020    -1.7020     0.8810 C.3   1 <1>   0.1960 
  7 C        0.8950     1.0990    -0.5730 C.ar  1 <1>  -0.1500 
  8 C       -0.9220     2.0980     0.5950 C.ar  1 <1>  -0.1500 
  9 C       -2.8220    -3.1780     0.7510 C.3   1 <1>  -0.1600 
 10 C        1.2930     2.3460    -1.0260 C.ar  1 <1>  -0.1500 
 11 C       -0.5290     3.3470     0.1470 C.ar  1 <1>  -0.1500 
 12 C       -3.8490    -4.0550     1.4640 C.3   1 <1>   0.2090 
 13 C        0.5810     3.4770    -0.6690 C.ar  1 <1>  -0.1430 
 14 N       -3.5210    -5.4750     1.2210 N.pl3 1 <1>  -0.8690 
 15 C        1.0150     4.8460    -1.1610 C.3   1 <1>  -0.0970 
 16 C       -3.8660    -6.1550     0.0580 C.ar  1 <1>   0.4100 
 17 N       -4.8690    -5.6490    -0.6450 N.ar  1 <1>  -0.6200 
 18 C       -3.1640    -7.3290    -0.3400 C.ar  1 <1>   0.3930 
 19 C       -5.1390    -6.3630    -1.7280 C.ar  1 <1>   0.1600 
 20 O       -2.1330    -7.7470     0.4490 O.3   1 <1>  -0.3630 
 21 N       -3.4430    -8.0310    -1.4290 N.ar  1 <1>  -0.6200 
 22 C       -4.4560    -7.5070    -2.1050 C.ar  1 <1>   0.1600 
 23 C       -1.3920    -8.9050     0.1170 C.3   1 <1>   0.0400 
 24 H       -2.0850    -1.3080    -0.7470 H     1 <1>   0.4200 
 25 H       -4.1870    -1.5600     0.4670 H     1 <1>   0.0800 
 26 H       -3.2390    -1.4070     1.9180 H     1 <1>   0.0800 
 27 H        1.4610     0.2290    -0.8610 H     1 <1>   0.1500 
 28 H       -1.7880     2.0090     1.2290 H     1 <1>   0.1500 
 29 H       -1.8580    -3.3560     1.1920 H     1 <1>   0.0800 
 30 H       -2.7980    -3.4480    -0.2890 H     1 <1>   0.0800 
 31 H        2.1610     2.4300    -1.6560 H     1 <1>   0.1500 
 32 H       -1.0930     4.2170     0.4370 H     1 <1>   0.1500 
 33 H       -4.8420    -3.8430     1.1030 H     1 <1>   0.0800 
 34 H       -3.8310    -3.8650     2.5240 H     1 <1>   0.0800 
 35 H       -2.6400    -5.7960     1.6360 H     1 <1>   0.4000 
 36 H        1.5050     4.7660    -2.1150 H     1 <1>   0.0800 
 37 H        1.6980     5.2860    -0.4560 H     1 <1>   0.0800 
 38 H        0.1640     5.4940    -1.2710 H     1 <1>   0.0800 
 39 H       -5.9480    -6.0180    -2.3460 H     1 <1>   0.1500 
 40 H       -4.7540    -8.0160    -3.0050 H     1 <1>   0.1500 
 41 H       -0.6370    -9.0510     0.8670 H     1 <1>   0.0800 
 42 H       -0.9340    -8.7610    -0.8460 H     1 <1>   0.0800 
 43 H       -2.0590    -9.7490     0.0930 H     1 <1>   0.0800 
@<TRIPOS>BOND
  1   1   2  2   
  2   1   3  2   
  3   1   4  am  
  4   1   5  1   
  5   4   6  1   
  6   4  24  1   
  7   5   7  ar  
  8   5   8  ar  
  9   6   9  1   
 10   6  25  1   
 11   6  26  1   
 12   7  10  ar  
 13   7  27  1   
 14   8  11  ar  
 15   8  28  1   
 16   9  12  1   
 17   9  29  1   
 18   9  30  1   
 19  10  13  ar  
 20  10  31  1   
 21  11  13  ar  
 22  11  32  1   
 23  12  14  1   
 24  12  33  1   
 25  12  34  1   
 26  13  15  1   
 27  14  16  1   
 28  14  35  1   
 29  15  36  1   
 30  15  37  1   
 31  15  38  1   
 32  16  17  ar  
 33  16  18  ar  
 34  17  19  ar  
 35  18  20  1   
 36  18  21  ar  
 37  19  22  ar  
 38  19  39  1   
 39  20  23  1   
 40  21  22  ar  
 41  22  40  1   
 42  23  41  1   
 43  23  42  1   
 44  23  43  1   
@<TRIPOS>SUBSTRUCTURE
  1 ****   9 GROUP 4 **** **** 0

# MOE 2024.06 (io_trps.svl 2023.06)
