@<TRIPOS>MOLECULE
NONAME
40 42 1 0 0 
SMALL
USER_CHARGES


@<TRIPOS>ATOM
  1 O       -0.7710    -0.9810     1.8310 O.co2 1 <1>  -0.9000 
  2 C       -1.1340    -0.9040     0.6420 C.2   1 <1>   0.9790 
  3 O       -1.1490     0.2190     0.1000 O.co2 1 <1>  -0.9000 
  4 C       -1.3930    -2.0970    -0.1210 C.ar  1 <1>  -0.1790 
  5 C       -2.6900    -2.5670    -0.3870 C.ar  1 <1>   0.4100 
  6 C       -0.3160    -2.8300    -0.5960 C.ar  1 <1>  -0.1500 
  7 N       -2.9330    -3.6950    -1.0600 N.ar  1 <1>  -0.6200 
  8 N       -3.8310    -1.9050     0.0320 N.pl3 1 <1>  -0.8380 
  9 C       -0.5720    -3.9830    -1.2990 C.ar  1 <1>  -0.1500 
 10 C       -1.8850    -4.3620    -1.4960 C.ar  1 <1>   0.1600 
 11 C       -4.0300    -0.4630    -0.2850 C.3   1 <1>   0.2090 
 12 C       -4.9830    -2.6750     0.5640 C.3   1 <1>   0.2090 
 13 C       -5.4360    -0.2620    -0.8420 C.3   1 <1>  -0.1600 
 14 C       -6.0140    -1.7290     1.1750 C.3   1 <1>  -0.1600 
 15 C       -6.5300    -0.7100     0.1480 C.3   1 <1>   0.4180 
 16 O       -6.9570     0.3950     0.9100 O.3   1 <1>  -0.5600 
 17 C       -7.7170    -1.3110    -0.6100 C.2   1 <1>  -0.2880 
 18 C       -7.8840     1.2680     0.3290 C.3   1 <1>   0.1200 
 19 C       -8.9380    -0.7720    -0.6540 C.2   1 <1>  -0.2760 
 20 C       -9.2080     0.5430     0.0520 C.3   1 <1>  -0.0220 
 21 C      -10.1260    -1.3880    -1.3710 C.3   1 <1>  -0.1020 
 22 H        0.6870    -2.4910    -0.4030 H     1 <1>   0.1500 
 23 H        0.2340    -4.5790    -1.6840 H     1 <1>   0.1500 
 24 H       -2.0820    -5.2670    -2.0430 H     1 <1>   0.1500 
 25 H       -3.3080    -0.1500    -1.0210 H     1 <1>   0.0800 
 26 H       -3.8820     0.1260     0.6050 H     1 <1>   0.0800 
 27 H       -4.6250    -3.3620     1.3110 H     1 <1>   0.0800 
 28 H       -5.4270    -3.2430    -0.2350 H     1 <1>   0.0800 
 29 H       -5.5000    -0.8500    -1.7380 H     1 <1>   0.0800 
 30 H       -5.5620     0.7640    -1.1220 H     1 <1>   0.0800 
 31 H       -5.5400    -1.2150     1.9920 H     1 <1>   0.0800 
 32 H       -6.8360    -2.2950     1.5700 H     1 <1>   0.0800 
 33 H       -7.4630    -2.2310    -1.1050 H     1 <1>   0.1500 
 34 H       -7.4720     1.6540    -0.5850 H     1 <1>   0.0800 
 35 H       -8.0390     2.0840     1.0120 H     1 <1>   0.0800 
 36 H       -9.8230     1.1770    -0.5600 H     1 <1>   0.0800 
 37 H       -9.7240     0.3610     0.9780 H     1 <1>   0.0800 
 38 H      -10.4830    -0.7240    -2.1380 H     1 <1>   0.0800 
 39 H      -10.9220    -1.5760    -0.6720 H     1 <1>   0.0800 
 40 H       -9.8470    -2.3200    -1.8290 H     1 <1>   0.0800 
@<TRIPOS>BOND
  1   1   2  ar  
  2   2   3  ar  
  3   2   4  1   
  4   4   5  ar  
  5   4   6  ar  
  6   5   7  ar  
  7   5   8  1   
  8   6   9  ar  
  9   6  22  1   
 10   7  10  ar  
 11   8  11  1   
 12   8  12  1   
 13   9  10  ar  
 14   9  23  1   
 15  10  24  1   
 16  11  13  1   
 17  11  25  1   
 18  11  26  1   
 19  12  14  1   
 20  12  27  1   
 21  12  28  1   
 22  13  15  1   
 23  13  29  1   
 24  13  30  1   
 25  14  15  1   
 26  14  31  1   
 27  14  32  1   
 28  15  16  1   
 29  15  17  1   
 30  16  18  1   
 31  17  19  2   
 32  17  33  1   
 33  18  20  1   
 34  18  34  1   
 35  18  35  1   
 36  19  20  1   
 37  19  21  1   
 38  20  36  1   
 39  20  37  1   
 40  21  38  1   
 41  21  39  1   
 42  21  40  1   
@<TRIPOS>SUBSTRUCTURE
  1 ****   8 GROUP 4 **** **** 0

# MOE 2024.06 (io_trps.svl 2023.06)
