@<TRIPOS>MOLECULE
NONAME
45 45 1 0 0 
SMALL
USER_CHARGES


@<TRIPOS>ATOM
  1 I       -0.8380     1.4690     2.9880 I     1 <1>  -0.0810 
  2 C       -0.1870     2.5160     1.2410 C.ar  1 <1>   0.0810 
  3 C       -0.8320     2.3250     0.0230 C.ar  1 <1>   0.0830 
  4 C        0.8830     3.3780     1.3930 C.ar  1 <1>  -0.1500 
  5 O       -1.8790     1.4590    -0.0470 O.3   1 <1>  -0.3630 
  6 C       -0.3630     3.0440    -1.0740 C.ar  1 <1>  -0.1500 
  7 C        1.3310     4.0910     0.2920 C.ar  1 <1>  -0.1430 
  8 C       -2.5620     1.2240    -1.2580 C.3   1 <1>   0.0400 
  9 C        0.7060     3.9170    -0.9350 C.ar  1 <1>  -0.1500 
 10 C        2.4840     5.0730     0.4300 C.3   1 <1>  -0.0160 
 11 C        1.9670     6.4950     0.6810 C.3   1 <1>   0.2810 
 12 N        3.1340     7.4220     0.7410 N.am  1 <1>  -0.7300 
 13 C        1.1110     6.5560     1.9540 C.2   1 <1>   0.6590 
 14 C        3.6110     8.1250    -0.3020 C.2   1 <1>   0.7800 
 15 O        1.6110     6.5650     3.0530 O.2   1 <1>  -0.5700 
 16 O       -0.2060     6.5820     1.7810 O.3   1 <1>  -0.4300 
 17 O        3.1850     7.9690    -1.4270 O.2   1 <1>  -0.5700 
 18 O        4.5770     8.9900    -0.0130 O.3   1 <1>  -0.4300 
 19 C       -1.1030     6.5600     2.8720 C.3   1 <1>   0.0400 
 20 C        5.2470     9.8460    -0.9140 C.3   1 <1>   0.2800 
 21 C        6.2510    10.6200    -0.0580 C.3   1 <1>  -0.2400 
 22 C        6.0050     9.0230    -1.9620 C.3   1 <1>  -0.2400 
 23 C        4.2570    10.8300    -1.5470 C.3   1 <1>  -0.2400 
 24 H        1.3490     3.4930     2.3560 H     1 <1>   0.1500 
 25 H       -0.8140     2.9430    -2.0420 H     1 <1>   0.1500 
 26 H       -3.3390     0.5050    -1.0680 H     1 <1>   0.0800 
 27 H       -1.8690     0.8300    -1.9790 H     1 <1>   0.0800 
 28 H       -2.9950     2.1470    -1.6000 H     1 <1>   0.0800 
 29 H        1.0500     4.4670    -1.7950 H     1 <1>   0.1500 
 30 H        3.0680     5.0630    -0.4740 H     1 <1>   0.0800 
 31 H        3.1210     4.7720     1.2440 H     1 <1>   0.0800 
 32 H        1.3420     6.7820    -0.1460 H     1 <1>   0.0800 
 33 H        3.4980     7.6280     1.6730 H     1 <1>   0.3700 
 34 H       -2.1070     6.5930     2.4880 H     1 <1>   0.0800 
 35 H       -0.9140     7.4160     3.4970 H     1 <1>   0.0800 
 36 H       -0.9490     5.6510     3.4280 H     1 <1>   0.0800 
 37 H        6.8130    11.3040    -0.6680 H     1 <1>   0.0800 
 38 H        6.9390     9.9430     0.4140 H     1 <1>   0.0800 
 39 H        5.7380    11.1840     0.7000 H     1 <1>   0.0800 
 40 H        6.6220     9.6700    -2.5590 H     1 <1>   0.0800 
 41 H        5.3260     8.5210    -2.6270 H     1 <1>   0.0800 
 42 H        6.6350     8.2960    -1.4840 H     1 <1>   0.0800 
 43 H        4.7890    11.5650    -2.1240 H     1 <1>   0.0800 
 44 H        3.6950    11.3380    -0.7840 H     1 <1>   0.0800 
 45 H        3.5780    10.3270    -2.2100 H     1 <1>   0.0800 
@<TRIPOS>BOND
  1   1   2  1   
  2   2   3  ar  
  3   2   4  ar  
  4   3   5  1   
  5   3   6  ar  
  6   4   7  ar  
  7   4  24  1   
  8   5   8  1   
  9   6   9  ar  
 10   6  25  1   
 11   7   9  ar  
 12   7  10  1   
 13   8  26  1   
 14   8  27  1   
 15   8  28  1   
 16   9  29  1   
 17  10  11  1   
 18  10  30  1   
 19  10  31  1   
 20  11  12  1   
 21  11  13  1   
 22  11  32  1   
 23  12  14  am  
 24  12  33  1   
 25  13  15  2   
 26  13  16  1   
 27  14  17  2   
 28  14  18  1   
 29  16  19  1   
 30  18  20  1   
 31  19  34  1   
 32  19  35  1   
 33  19  36  1   
 34  20  21  1   
 35  20  22  1   
 36  20  23  1   
 37  21  37  1   
 38  21  38  1   
 39  21  39  1   
 40  22  40  1   
 41  22  41  1   
 42  22  42  1   
 43  23  43  1   
 44  23  44  1   
 45  23  45  1   
@<TRIPOS>SUBSTRUCTURE
  1 ****  11 GROUP 4 **** **** 0

# MOE 2024.06 (io_trps.svl 2023.06)
