@<TRIPOS>MOLECULE
NONAME
56 58 1 0 0 
SMALL
USER_CHARGES


@<TRIPOS>ATOM
  1 S       -0.8630    -0.1280    -1.0750 S.3   1 <1>  -0.4600 
  2 C       -0.3270     1.4140    -1.8780 C.3   1 <1>   0.2140 
  3 C       -0.6360     0.1980     0.7170 C.3   1 <1>   0.1310 
  4 C        0.8950     1.9650    -1.1610 C.ar  1 <1>  -0.1440 
  5 C       -1.1810    -0.9360     1.5850 C.2   1 <1>   0.5690 
  6 C        2.0810     1.2480    -1.1540 C.ar  1 <1>  -0.1500 
  7 C        0.8320     3.1830    -0.5020 C.ar  1 <1>  -0.1500 
  8 O       -0.3650    -1.5580     2.2290 O.2   1 <1>  -0.5700 
  9 N       -2.5280    -1.2220     1.6790 N.am  1 <1>  -0.6600 
 10 C        3.1940     1.7340    -0.4900 C.ar  1 <1>  -0.1430 
 11 C        1.9410     3.6820     0.1610 C.ar  1 <1>  -0.1430 
 12 C       -3.5830    -0.4580     0.9450 C.3   1 <1>   0.2200 
 13 C       -2.9640    -2.3540     2.5570 C.3   1 <1>   0.0600 
 14 C        3.1180     2.9520     0.1640 C.ar  1 <1>  -0.1500 
 15 C        4.4820     0.9320    -0.4830 C.3   1 <1>  -0.0970 
 16 C        1.8720     5.0150     0.8830 C.3   1 <1>  -0.0970 
 17 C       -4.2370    -1.2720    -0.1670 C.3   1 <1>  -0.1600 
 18 C       -4.7470    -0.0040     1.8220 C.3   1 <1>  -0.1600 
 19 C       -5.5570    -0.5430    -0.4510 C.3   1 <1>  -0.0800 
 20 C       -5.8950     0.2490     0.8350 C.3   1 <1>  -0.0800 
 21 C       -6.6660    -1.4900    -0.9470 C.3   1 <1>   0.1400 
 22 C       -7.2800    -0.0840     1.4190 C.3   1 <1>  -0.0990 
 23 N       -7.9910    -0.8340    -0.8210 N.am  1 <1>  -0.6600 
 24 C       -8.3190    -0.1510     0.3190 C.2   1 <1>   0.5690 
 25 C       -8.9370    -1.0040    -1.9560 C.3   1 <1>   0.0600 
 26 O       -9.3860     0.3880     0.4870 O.2   1 <1>  -0.5700 
 27 H       -0.1030     1.1780    -2.9030 H     1 <1>   0.0800 
 28 H       -1.1550     2.0990    -1.8340 H     1 <1>   0.0800 
 29 H        0.4200     0.3000     0.8860 H     1 <1>   0.0800 
 30 H       -1.1230     1.1250     0.9490 H     1 <1>   0.0800 
 31 H        2.1330     0.3000    -1.6630 H     1 <1>   0.1500 
 32 H       -0.0820     3.7490    -0.5030 H     1 <1>   0.1500 
 33 H       -3.1630     0.4240     0.4960 H     1 <1>   0.0800 
 34 H       -3.8700    -2.8020     2.1940 H     1 <1>   0.0800 
 35 H       -3.1250    -1.9900     3.5560 H     1 <1>   0.0800 
 36 H       -2.2030    -3.1160     2.5880 H     1 <1>   0.0800 
 37 H        3.9810     3.3350     0.6800 H     1 <1>   0.1500 
 38 H        5.1000     1.2130     0.3510 H     1 <1>   0.0800 
 39 H        5.0260     1.1090    -1.3930 H     1 <1>   0.0800 
 40 H        4.2650    -0.1180    -0.4050 H     1 <1>   0.0800 
 41 H        2.8080     5.5360     0.7940 H     1 <1>   0.0800 
 42 H        1.6620     4.8530     1.9250 H     1 <1>   0.0800 
 43 H        1.0990     5.6340     0.4650 H     1 <1>   0.0800 
 44 H       -3.6120    -1.3130    -1.0410 H     1 <1>   0.0800 
 45 H       -4.4360    -2.2720     0.1710 H     1 <1>   0.0800 
 46 H       -5.0330    -0.7770     2.5100 H     1 <1>   0.0800 
 47 H       -4.4980     0.8860     2.3720 H     1 <1>   0.0800 
 48 H       -5.3730     0.1750    -1.2330 H     1 <1>   0.0800 
 49 H       -5.8940     1.2950     0.5730 H     1 <1>   0.0800 
 50 H       -6.6790    -2.3900    -0.3560 H     1 <1>   0.0800 
 51 H       -6.4790    -1.7610    -1.9720 H     1 <1>   0.0800 
 52 H       -7.5670     0.6610     2.1390 H     1 <1>   0.0800 
 53 H       -7.2660    -1.0390     1.9090 H     1 <1>   0.0800 
 54 H       -8.5200    -0.5680    -2.8460 H     1 <1>   0.0800 
 55 H       -9.8740    -0.5190    -1.7420 H     1 <1>   0.0800 
 56 H       -9.1220    -2.0510    -2.1220 H     1 <1>   0.0800 
@<TRIPOS>BOND
  1   1   2  1   
  2   1   3  1   
  3   2   4  1   
  4   2  27  1   
  5   2  28  1   
  6   3   5  1   
  7   3  29  1   
  8   3  30  1   
  9   4   6  ar  
 10   4   7  ar  
 11   5   8  2   
 12   5   9  am  
 13   6  10  ar  
 14   6  31  1   
 15   7  11  ar  
 16   7  32  1   
 17   9  12  1   
 18   9  13  1   
 19  10  14  ar  
 20  10  15  1   
 21  11  14  ar  
 22  11  16  1   
 23  12  17  1   
 24  12  18  1   
 25  12  33  1   
 26  13  34  1   
 27  13  35  1   
 28  13  36  1   
 29  14  37  1   
 30  15  38  1   
 31  15  39  1   
 32  15  40  1   
 33  16  41  1   
 34  16  42  1   
 35  16  43  1   
 36  17  19  1   
 37  17  44  1   
 38  17  45  1   
 39  18  20  1   
 40  18  46  1   
 41  18  47  1   
 42  19  20  1   
 43  19  21  1   
 44  19  48  1   
 45  20  22  1   
 46  20  49  1   
 47  21  23  1   
 48  21  50  1   
 49  21  51  1   
 50  22  24  1   
 51  22  52  1   
 52  22  53  1   
 53  23  24  am  
 54  23  25  1   
 55  24  26  2   
 56  25  54  1   
 57  25  55  1   
 58  25  56  1   
@<TRIPOS>SUBSTRUCTURE
  1 ****  12 GROUP 4 **** **** 0

# MOE 2024.06 (io_trps.svl 2023.06)
