@<TRIPOS>MOLECULE
NONAME
45 47 1 0 0 
SMALL
USER_CHARGES


@<TRIPOS>ATOM
  1 S        1.8520    -1.9670     2.1470 S.3   1 <1>  -0.0800 
  2 C        1.6900    -1.6600     0.4110 C.2   1 <1>  -0.0450 
  3 C        2.7850    -0.5100     2.3950 C.2   1 <1>  -0.1100 
  4 C        2.3440    -0.5030     0.1140 C.2   1 <1>  -0.1810 
  5 C        0.9750    -2.6190    -0.4000 C.2   1 <1>   0.7150 
  6 C        2.9540     0.1420     1.2310 C.2   1 <1>  -0.1500 
  7 C        2.4630     0.1160    -1.2680 C.3   1 <1>  -0.0590 
  8 O        1.4690    -2.9910    -1.4520 O.2   1 <1>  -0.5700 
  9 N       -0.2600    -3.1190    -0.0460 N.am  1 <1>  -0.6600 
 10 C       -0.8470    -4.2840    -0.7930 C.3   1 <1>   0.1400 
 11 C       -1.1560    -2.4550     0.9560 C.3   1 <1>   0.1400 
 12 C       -2.0410    -4.8690    -0.0300 C.3   1 <1>   0.2000 
 13 C       -2.5850    -2.4230     0.4110 C.3   1 <1>  -0.1600 
 14 O       -2.5250    -6.0030    -0.6620 O.3   1 <1>  -0.6800 
 15 C       -3.1850    -3.8480     0.1900 C.3   1 <1>  -0.1060 
 16 C       -3.9000    -4.4030     1.4260 C.2   1 <1>   0.9060 
 17 C       -4.1710    -3.7890    -1.0160 C.3   1 <1>  -0.0170 
 18 O       -3.8200    -3.8200     2.5130 O.co2 1 <1>  -0.9000 
 19 O       -4.4780    -5.4950     1.3160 O.co2 1 <1>  -0.9000 
 20 C       -5.1810    -2.6440    -0.9610 C.ar  1 <1>  -0.1430 
 21 C       -5.0830    -1.5750    -1.8390 C.ar  1 <1>  -0.1500 
 22 C       -6.2130    -2.6640    -0.0350 C.ar  1 <1>  -0.1500 
 23 C       -6.0010    -0.5390    -1.7910 C.ar  1 <1>  -0.1500 
 24 C       -7.1300    -1.6300     0.0170 C.ar  1 <1>  -0.1500 
 25 C       -7.0260    -0.5650    -0.8620 C.ar  1 <1>  -0.1500 
 26 H        3.1150    -0.2920     3.3950 H     1 <1>   0.1500 
 27 H        3.4950     1.0650     1.1150 H     1 <1>   0.1500 
 28 H        2.0780     1.1200    -1.2560 H     1 <1>   0.0800 
 29 H        1.9100    -0.4520    -1.9940 H     1 <1>   0.0800 
 30 H        3.4950     0.1400    -1.5690 H     1 <1>   0.0800 
 31 H       -1.1650    -3.9530    -1.7650 H     1 <1>   0.0800 
 32 H       -0.0940    -5.0440    -0.9110 H     1 <1>   0.0800 
 33 H       -1.1340    -2.9990     1.8860 H     1 <1>   0.0800 
 34 H       -0.8300    -1.4470     1.1430 H     1 <1>   0.0800 
 35 H       -1.6710    -5.1990     0.9270 H     1 <1>   0.0800 
 36 H       -3.2140    -1.8620     1.0810 H     1 <1>   0.0800 
 37 H       -2.5570    -1.8790    -0.5150 H     1 <1>   0.0800 
 38 H       -3.3210    -6.2770    -0.1330 H     1 <1>   0.4000 
 39 H       -3.6000    -3.7050    -1.9230 H     1 <1>   0.0800 
 40 H       -4.7220    -4.7110    -1.0890 H     1 <1>   0.0800 
 41 H       -4.2890    -1.5460    -2.5630 H     1 <1>   0.1500 
 42 H       -6.3010    -3.4890     0.6550 H     1 <1>   0.1500 
 43 H       -5.9160     0.2860    -2.4750 H     1 <1>   0.1500 
 44 H       -7.9210    -1.6590     0.7450 H     1 <1>   0.1500 
 45 H       -7.7390     0.2380    -0.8200 H     1 <1>   0.1500 
@<TRIPOS>BOND
  1   1   2  1   
  2   1   3  1   
  3   2   4  2   
  4   2   5  1   
  5   3   6  2   
  6   3  26  1   
  7   4   6  1   
  8   4   7  1   
  9   5   8  2   
 10   5   9  am  
 11   6  27  1   
 12   7  28  1   
 13   7  29  1   
 14   7  30  1   
 15   9  10  1   
 16   9  11  1   
 17  10  12  1   
 18  10  31  1   
 19  10  32  1   
 20  11  13  1   
 21  11  33  1   
 22  11  34  1   
 23  12  14  1   
 24  12  15  1   
 25  12  35  1   
 26  13  15  1   
 27  13  36  1   
 28  13  37  1   
 29  14  38  1   
 30  15  16  1   
 31  15  17  1   
 32  16  18  ar  
 33  16  19  ar  
 34  17  20  1   
 35  17  39  1   
 36  17  40  1   
 37  20  21  ar  
 38  20  22  ar  
 39  21  23  ar  
 40  21  41  1   
 41  22  24  ar  
 42  22  42  1   
 43  23  25  ar  
 44  23  43  1   
 45  24  25  ar  
 46  24  44  1   
 47  25  45  1   
@<TRIPOS>SUBSTRUCTURE
  1 ****  13 GROUP 4 **** **** 0

# MOE 2024.06 (io_trps.svl 2023.06)
