@<TRIPOS>MOLECULE
NONAME
32 33 1 0 0 
SMALL
USER_CHARGES


@<TRIPOS>ATOM
  1 F       -1.4320     0.3600     0.3160 F     1 <1>  -0.3400 
  2 C       -2.4740     0.2060    -0.5000 C.3   1 <1>   0.2600 
  3 C       -3.5010     1.2690    -0.1310 C.3   1 <1>   0.2000 
  4 C       -3.1550    -1.1210    -0.1360 C.3   1 <1>   0.1100 
  5 O       -4.4380     1.3790    -1.1530 O.3   1 <1>  -0.6800 
  6 C       -4.1940     0.6310     1.0710 C.3   1 <1>   0.1100 
  7 N       -4.3200    -0.8050     0.7380 N.3   1 <1>  -0.8100 
  8 C       -4.3370    -1.6440     1.9760 C.3   1 <1>   0.1710 
  9 C       -4.6750    -3.1170     1.7300 C.2   1 <1>   0.5690 
 10 O       -4.2730    -3.9450     2.5100 O.2   1 <1>  -0.5700 
 11 N       -5.4230    -3.3920     0.6200 N.am  1 <1>  -0.5470 
 12 C       -5.9310    -4.5770     0.0660 C.ar  1 <1>   0.1170 
 13 C       -5.7830    -5.8270     0.6610 C.ar  1 <1>  -0.1500 
 14 C       -6.6190    -4.5010    -1.1400 C.ar  1 <1>  -0.1500 
 15 C       -6.3050    -6.9630     0.0670 C.ar  1 <1>  -0.1500 
 16 C       -7.1420    -5.6340    -1.7370 C.ar  1 <1>  -0.1500 
 17 C       -6.9850    -6.8680    -1.1330 C.ar  1 <1>  -0.1500 
 18 H       -2.0990     0.2700    -1.5060 H     1 <1>   0.0800 
 19 H       -3.0710     2.2370     0.0570 H     1 <1>   0.0800 
 20 H       -2.4530    -1.7860     0.3400 H     1 <1>   0.0800 
 21 H       -3.5200    -1.5910    -1.0320 H     1 <1>   0.0800 
 22 H       -5.0170     0.5900    -1.1100 H     1 <1>   0.4000 
 23 H       -5.1530     1.0790     1.2670 H     1 <1>   0.0800 
 24 H       -3.5640     0.7560     1.9360 H     1 <1>   0.0800 
 25 H       -3.3820    -1.5900     2.4700 H     1 <1>   0.0800 
 26 H       -5.0790    -1.2580     2.6520 H     1 <1>   0.0800 
 27 H       -5.6070    -2.5400     0.0860 H     1 <1>   0.3700 
 28 H       -5.2600    -5.9250     1.5940 H     1 <1>   0.1500 
 29 H       -6.7490    -3.5480    -1.6190 H     1 <1>   0.1500 
 30 H       -6.1800    -7.9210     0.5420 H     1 <1>   0.1500 
 31 H       -7.6720    -5.5570    -2.6710 H     1 <1>   0.1500 
 32 H       -7.3910    -7.7520    -1.5950 H     1 <1>   0.1500 
@<TRIPOS>BOND
  1   1   2  1   
  2   2   3  1   
  3   2   4  1   
  4   2  18  1   
  5   3   5  1   
  6   3   6  1   
  7   3  19  1   
  8   4   7  1   
  9   4  20  1   
 10   4  21  1   
 11   5  22  1   
 12   6   7  1   
 13   6  23  1   
 14   6  24  1   
 15   7   8  1   
 16   8   9  1   
 17   8  25  1   
 18   8  26  1   
 19   9  10  2   
 20   9  11  am  
 21  11  12  1   
 22  11  27  1   
 23  12  13  ar  
 24  12  14  ar  
 25  13  15  ar  
 26  13  28  1   
 27  14  16  ar  
 28  14  29  1   
 29  15  17  ar  
 30  15  30  1   
 31  16  17  ar  
 32  16  31  1   
 33  17  32  1   
@<TRIPOS>SUBSTRUCTURE
  1 ****  11 GROUP 4 **** **** 0

# MOE 2024.06 (io_trps.svl 2023.06)
