@<TRIPOS>MOLECULE
NONAME
43 46 1 0 0 
SMALL
USER_CHARGES


@<TRIPOS>ATOM
  1 CL      -1.4820    -0.9180     1.5370 Cl    1 <1>  -0.1770 
  2 C       -2.2030     0.3520     0.5760 C.ar  1 <1>   0.1770 
  3 C       -3.0950     0.0700    -0.4530 C.ar  1 <1>   0.0860 
  4 C       -1.8510     1.6580     0.8670 C.ar  1 <1>   0.1600 
  5 C       -3.5420    -1.2580    -0.8220 C.2   1 <1>   0.5440 
  6 C       -3.5470     1.1910    -1.1410 C.ar  1 <1>  -0.1500 
  7 N       -2.3070     2.7200     0.2210 N.ar  1 <1>  -0.6200 
  8 O       -3.7520    -1.5250    -1.9880 O.2   1 <1>  -0.5700 
  9 N       -3.8390    -2.2370     0.0960 N.am  1 <1>  -0.6600 
 10 C       -3.1370     2.4600    -0.7760 C.ar  1 <1>   0.1600 
 11 C       -4.7160    -1.9720     1.2720 C.3   1 <1>   0.1400 
 12 C       -3.7850    -3.6740    -0.3020 C.3   1 <1>   0.1400 
 13 C       -6.1470    -2.5120     1.0260 C.3   1 <1>   0.4230 
 14 C       -5.2030    -4.1880    -0.5960 C.3   1 <1>   0.3430 
 15 N       -6.1450    -3.9620     0.5680 N.4   1 <1>  -0.9590 
 16 C       -6.9000    -1.6180     0.0110 C.3   1 <1>   0.1200 
 17 C       -7.5530    -4.3880     0.2700 C.3   1 <1>   0.5180 
 18 O       -8.1970    -2.1020    -0.1960 O.3   1 <1>  -0.5600 
 19 C       -7.5640    -5.8300    -0.2520 C.3   1 <1>  -0.1950 
 20 C       -8.2630    -3.4100    -0.6930 C.3   1 <1>   0.1200 
 21 C       -8.6470    -6.7730     0.1710 C.3   1 <1>  -0.2000 
 22 C       -7.2370    -6.9920     0.6360 C.3   1 <1>  -0.2000 
 23 H       -1.1590     1.8340     1.6730 H     1 <1>   0.1500 
 24 H       -4.2200     1.0720    -1.9720 H     1 <1>   0.1500 
 25 H       -3.5080     3.3080    -1.3300 H     1 <1>   0.1500 
 26 H       -4.2940    -2.4480     2.1400 H     1 <1>   0.0800 
 27 H       -4.7590    -0.9160     1.4740 H     1 <1>   0.0800 
 28 H       -3.1720    -3.7900    -1.1810 H     1 <1>   0.0800 
 29 H       -3.3340    -4.2510     0.4870 H     1 <1>   0.0800 
 30 H       -6.6840    -2.4410     1.9570 H     1 <1>   0.0800 
 31 H       -5.1490    -5.2380    -0.8300 H     1 <1>   0.0800 
 32 H       -5.5680    -3.6730    -1.4700 H     1 <1>   0.0800 
 33 H       -5.8210    -4.5480     1.3430 H     1 <1>   0.4500 
 34 H       -6.3910    -1.5770    -0.9370 H     1 <1>   0.0800 
 35 H       -6.9880    -0.6150     0.3910 H     1 <1>   0.0800 
 36 H       -8.1100    -4.3780     1.1930 H     1 <1>   0.0800 
 37 H       -7.2900    -5.8970    -1.2920 H     1 <1>   0.1000 
 38 H       -9.3030    -3.6730    -0.7820 H     1 <1>   0.0800 
 39 H       -7.8220    -3.4320    -1.6740 H     1 <1>   0.0800 
 40 H       -9.3800    -6.4700     0.9000 H     1 <1>   0.1000 
 41 H       -9.0560    -7.4610    -0.5510 H     1 <1>   0.1000 
 42 H       -6.7000    -7.8340     0.2300 H     1 <1>   0.1000 
 43 H       -7.0390    -6.8530     1.6860 H     1 <1>   0.1000 
@<TRIPOS>BOND
  1   1   2  1   
  2   2   3  ar  
  3   2   4  ar  
  4   3   5  1   
  5   3   6  ar  
  6   4   7  ar  
  7   4  23  1   
  8   5   8  2   
  9   5   9  am  
 10   6  10  ar  
 11   6  24  1   
 12   7  10  ar  
 13   9  11  1   
 14   9  12  1   
 15  10  25  1   
 16  11  13  1   
 17  11  26  1   
 18  11  27  1   
 19  12  14  1   
 20  12  28  1   
 21  12  29  1   
 22  13  15  1   
 23  13  16  1   
 24  13  30  1   
 25  14  15  1   
 26  14  31  1   
 27  14  32  1   
 28  15  17  1   
 29  15  33  1   
 30  16  18  1   
 31  16  34  1   
 32  16  35  1   
 33  17  19  1   
 34  17  20  1   
 35  17  36  1   
 36  18  20  1   
 37  19  21  1   
 38  19  22  1   
 39  19  37  1   
 40  20  38  1   
 41  20  39  1   
 42  21  22  1   
 43  21  40  1   
 44  21  41  1   
 45  22  42  1   
 46  22  43  1   
@<TRIPOS>SUBSTRUCTURE
  1 ****   9 GROUP 4 **** **** 0

# MOE 2024.06 (io_trps.svl 2023.06)
