@<TRIPOS>MOLECULE
NONAME
47 49 1 0 0 
SMALL
USER_CHARGES


@<TRIPOS>ATOM
  1 S        0.7230     0.6770    -1.4340 S.o2  1 <1>   1.3330 
  2 O        0.8840    -0.7090    -1.8110 O.2   1 <1>  -0.6500 
  3 O        0.1000     1.6020    -2.3540 O.2   1 <1>  -0.6500 
  4 N       -0.1800     0.7220     0.0060 N.am  1 <1>  -0.8490 
  5 C        2.3280     1.3130    -0.9470 C.3   1 <1>  -0.0550 
  6 C       -0.7300     2.0490     0.3050 C.3   1 <1>   0.1160 
  7 C       -1.2580    -0.2720     0.0120 C.3   1 <1>   0.1160 
  8 C        3.1390     0.3640    -0.0380 C.3   1 <1>  -0.0800 
  9 C        4.5580     0.8210     0.2630 C.3   1 <1>   0.2200 
 10 C        2.5550     0.1330     1.3610 C.3   1 <1>   0.1200 
 11 N        4.5890     2.2660     0.5940 N.am  1 <1>  -0.7300 
 12 C        4.8370     0.0290     1.5320 C.3   1 <1>   0.1200 
 13 O        3.6390     0.0660     2.2450 O.3   1 <1>  -0.5600 
 14 C        4.9370     3.2700    -0.2620 C.2   1 <1>   0.5440 
 15 O        5.1770     2.9740    -1.4150 O.2   1 <1>  -0.5700 
 16 C        4.9760     4.6530     0.1820 C.ar  1 <1>   0.0860 
 17 C        4.8120     5.6970    -0.7040 C.ar  1 <1>  -0.1500 
 18 C        5.1770     4.9860     1.5400 C.ar  1 <1>  -0.1500 
 19 C        4.8210     7.0460    -0.3060 C.ar  1 <1>   0.0000 
 20 C        5.1920     6.2860     1.9610 C.ar  1 <1>  -0.1500 
 21 C        5.0100     7.3510     1.0580 C.ar  1 <1>   0.0000 
 22 C        4.6450     8.1070    -1.2180 C.ar  1 <1>  -0.1500 
 23 C        5.0140     8.7010     1.4590 C.ar  1 <1>  -0.1500 
 24 C        4.6530     9.4100    -0.8010 C.ar  1 <1>  -0.1500 
 25 C        4.8390     9.7110     0.5530 C.ar  1 <1>  -0.1500 
 26 H        2.9030     1.4860    -1.8370 H     1 <1>   0.0800 
 27 H        2.2010     2.2610    -0.4650 H     1 <1>   0.0800 
 28 H       -1.2130     2.0400     1.2680 H     1 <1>   0.0800 
 29 H       -1.4490     2.3370    -0.4450 H     1 <1>   0.0800 
 30 H        0.0570     2.7830     0.3280 H     1 <1>   0.0800 
 31 H       -1.8040    -0.2270     0.9380 H     1 <1>   0.0800 
 32 H       -0.8470    -1.2630    -0.0890 H     1 <1>   0.0800 
 33 H       -1.9340    -0.0940    -0.8090 H     1 <1>   0.0800 
 34 H        3.2010    -0.5950    -0.5240 H     1 <1>   0.0800 
 35 H        5.2530     0.5930    -0.5290 H     1 <1>   0.0800 
 36 H        1.9980    -0.7870     1.4160 H     1 <1>   0.0800 
 37 H        1.9330     0.9530     1.6760 H     1 <1>   0.0800 
 38 H        4.2590     2.4760     1.5390 H     1 <1>   0.3700 
 39 H        5.6290     0.4500     2.1250 H     1 <1>   0.0800 
 40 H        5.0550    -1.0000     1.3020 H     1 <1>   0.0800 
 41 H        4.6700     5.4810    -1.7480 H     1 <1>   0.1500 
 42 H        5.3310     4.1960     2.2520 H     1 <1>   0.1500 
 43 H        5.3470     6.5220     2.9990 H     1 <1>   0.1500 
 44 H        4.5040     7.8720    -2.2570 H     1 <1>   0.1500 
 45 H        5.1580     8.9280     2.5000 H     1 <1>   0.1500 
 46 H        4.5180    10.2150    -1.5020 H     1 <1>   0.1500 
 47 H        4.8420    10.7410     0.8640 H     1 <1>   0.1500 
@<TRIPOS>BOND
  1   1   2  2   
  2   1   3  2   
  3   1   4  am  
  4   1   5  1   
  5   4   6  1   
  6   4   7  1   
  7   5   8  1   
  8   5  26  1   
  9   5  27  1   
 10   6  28  1   
 11   6  29  1   
 12   6  30  1   
 13   7  31  1   
 14   7  32  1   
 15   7  33  1   
 16   8   9  1   
 17   8  10  1   
 18   8  34  1   
 19   9  11  1   
 20   9  12  1   
 21   9  35  1   
 22  10  13  1   
 23  10  36  1   
 24  10  37  1   
 25  11  14  am  
 26  11  38  1   
 27  12  13  1   
 28  12  39  1   
 29  12  40  1   
 30  14  15  2   
 31  14  16  1   
 32  16  17  ar  
 33  16  18  ar  
 34  17  19  ar  
 35  17  41  1   
 36  18  20  ar  
 37  18  42  1   
 38  19  21  ar  
 39  19  22  ar  
 40  20  21  ar  
 41  20  43  1   
 42  21  23  ar  
 43  22  24  ar  
 44  22  44  1   
 45  23  25  ar  
 46  23  45  1   
 47  24  25  ar  
 48  24  46  1   
 49  25  47  1   
@<TRIPOS>SUBSTRUCTURE
  1 ****  14 GROUP 4 **** **** 0

# MOE 2024.06 (io_trps.svl 2023.06)
