@<TRIPOS>MOLECULE
NONAME
44 46 1 0 0 
SMALL
USER_CHARGES


@<TRIPOS>ATOM
  1 O       -0.1700     0.3870    -1.5630 O.2   1 <1>  -0.5700 
  2 C        0.0260     1.5640    -1.3830 C.2   1 <1>   0.5690 
  3 N       -0.9660     2.4120    -0.9610 N.am  1 <1>  -0.6600 
  4 C        1.4250     2.0910    -1.6570 C.3   1 <1>  -0.0990 
  5 C       -0.7310     3.8310    -0.5680 C.3   1 <1>   0.1400 
  6 C       -2.3470     1.9000    -0.7160 C.3   1 <1>   0.1400 
  7 C        1.7200     3.4510    -1.0050 C.3   1 <1>  -0.1600 
  8 C        0.5350     4.4050    -1.2210 C.3   1 <1>  -0.0190 
  9 C       -2.4400     1.2390     0.6590 C.3   1 <1>   0.1200 
 10 C        0.8320     5.7950    -0.6710 C.2   1 <1>   0.5690 
 11 O       -3.7820     0.9990     0.9450 O.3   1 <1>  -0.5600 
 12 O        0.7530     5.9880     0.5160 O.2   1 <1>  -0.5700 
 13 N        1.1720     6.7760    -1.5520 N.am  1 <1>  -0.4940 
 14 C       -3.9870     0.3240     2.1430 C.3   1 <1>   0.0400 
 15 C        1.4020     8.1420    -1.3450 C.2   1 <1>   0.2500 
 16 N        1.1210     8.9920    -2.2800 N.2   1 <1>  -0.3380 
 17 N        1.9230     8.7480    -0.2530 N.pl3 1 <1>   0.3340 
 18 N        1.4270    10.2050    -1.8270 N.2   1 <1>  -0.3380 
 19 C        1.9030    10.0620    -0.6250 C.2   1 <1>   0.3120 
 20 C        2.5020     8.3990     0.9630 C.2   1 <1>  -0.1810 
 21 N        2.3530    11.0790     0.1880 N.2   1 <1>  -0.5760 
 22 C        2.9610     9.3950     1.7590 C.2   1 <1>  -0.1360 
 23 C        2.8540    10.7470     1.3270 C.2   1 <1>   0.3750 
 24 C        3.3570    11.8350     2.2500 C.3   1 <1>  -0.1790 
 25 H        1.5320     2.1730    -2.7230 H     1 <1>   0.0800 
 26 H        2.1400     1.3650    -1.3130 H     1 <1>   0.0800 
 27 H       -0.6410     3.8730     0.5050 H     1 <1>   0.0800 
 28 H       -1.5780     4.4310    -0.8540 H     1 <1>   0.0800 
 29 H       -2.5990     1.1740    -1.4700 H     1 <1>   0.0800 
 30 H       -3.0520     2.7100    -0.7740 H     1 <1>   0.0800 
 31 H        2.6210     3.8650    -1.4230 H     1 <1>   0.0800 
 32 H        1.8760     3.3120     0.0530 H     1 <1>   0.0800 
 33 H        0.3460     4.4930    -2.2760 H     1 <1>   0.0800 
 34 H       -2.0440     1.8910     1.4180 H     1 <1>   0.0800 
 35 H       -1.9080     0.3030     0.6530 H     1 <1>   0.0800 
 36 H        1.0780     6.5530    -2.5420 H     1 <1>   0.3700 
 37 H       -5.0460     0.1920     2.2770 H     1 <1>   0.0800 
 38 H       -3.5880     0.9090     2.9540 H     1 <1>   0.0800 
 39 H       -3.5060    -0.6380     2.0950 H     1 <1>   0.0800 
 40 H        2.5590     7.3560     1.2140 H     1 <1>   0.1500 
 41 H        3.4110     9.1990     2.7160 H     1 <1>   0.1500 
 42 H        2.8210    11.8030     3.1810 H     1 <1>   0.0800 
 43 H        3.2080    12.8010     1.8010 H     1 <1>   0.0800 
 44 H        4.4060    11.7010     2.4370 H     1 <1>   0.0800 
@<TRIPOS>BOND
  1   1   2  2   
  2   2   3  am  
  3   2   4  1   
  4   3   5  1   
  5   3   6  1   
  6   4   7  1   
  7   4  25  1   
  8   4  26  1   
  9   5   8  1   
 10   5  27  1   
 11   5  28  1   
 12   6   9  1   
 13   6  29  1   
 14   6  30  1   
 15   7   8  1   
 16   7  31  1   
 17   7  32  1   
 18   8  10  1   
 19   8  33  1   
 20   9  11  1   
 21   9  34  1   
 22   9  35  1   
 23  10  12  2   
 24  10  13  am  
 25  11  14  1   
 26  13  15  1   
 27  13  36  1   
 28  14  37  1   
 29  14  38  1   
 30  14  39  1   
 31  15  16  2   
 32  15  17  1   
 33  16  18  1   
 34  17  19  1   
 35  17  20  1   
 36  18  19  2   
 37  19  21  1   
 38  20  22  2   
 39  20  40  1   
 40  21  23  2   
 41  22  23  1   
 42  22  41  1   
 43  23  24  1   
 44  24  42  1   
 45  24  43  1   
 46  24  44  1   
@<TRIPOS>SUBSTRUCTURE
  1 ****  10 GROUP 4 **** **** 0

# MOE 2024.06 (io_trps.svl 2023.06)
