@<TRIPOS>MOLECULE
NONAME
42 44 1 0 0 
SMALL
USER_CHARGES


@<TRIPOS>ATOM
  1 S       -0.2520    -0.0990     0.1690 S.3   1 <1>  -0.0800 
  2 C       -1.4730    -0.8640    -0.7930 C.2   1 <1>   0.4420 
  3 C       -0.6260     1.3810    -0.6520 C.2   1 <1>   0.1980 
  4 N       -2.0290    -0.0440    -1.6100 N.2   1 <1>  -0.3380 
  5 N       -1.6700    -2.2100    -0.5680 N.am  1 <1>  -0.4940 
  6 N       -1.5420     1.2310    -1.5240 N.2   1 <1>  -0.3380 
  7 C        0.1670     2.6340    -0.2720 C.3   1 <1>   0.3800 
  8 C       -2.5800    -3.0780    -1.1220 C.2   1 <1>   0.5440 
  9 O        0.2690     2.7100     1.1240 O.3   1 <1>  -0.5600 
 10 C       -0.4970     3.9210    -0.7740 C.3   1 <1>  -0.2400 
 11 O       -3.4570    -2.6580    -1.8460 O.2   1 <1>  -0.5700 
 12 C       -2.5010    -4.4910    -0.8060 C.ar  1 <1>   0.0860 
 13 C        1.3880     3.3800     1.6170 C.3   1 <1>   0.0400 
 14 C       -1.2880    -5.1320    -0.5350 C.ar  1 <1>  -0.1500 
 15 C       -3.6510    -5.2810    -0.7620 C.ar  1 <1>  -0.1500 
 16 C       -1.2350    -6.4760    -0.2150 C.ar  1 <1>  -0.1500 
 17 C       -3.5980    -6.6230    -0.4420 C.ar  1 <1>  -0.1500 
 18 C       -2.3900    -7.2500    -0.1540 C.ar  1 <1>   0.1170 
 19 N       -2.3400    -8.6120     0.1870 N.am  1 <1>  -0.4770 
 20 C       -3.1010    -9.6260    -0.3260 C.2   1 <1>   0.5690 
 21 C       -1.5020    -9.0990     1.3030 C.3   1 <1>   0.1400 
 22 O       -3.9000    -9.5460    -1.2260 O.2   1 <1>  -0.5700 
 23 C       -2.8390   -10.9270     0.3830 C.3   1 <1>  -0.0990 
 24 C       -1.6130   -10.6280     1.2530 C.3   1 <1>  -0.1600 
 25 H       -1.0780    -2.6060     0.1540 H     1 <1>   0.3700 
 26 H        1.1560     2.5390    -0.6860 H     1 <1>   0.0800 
 27 H       -1.4720     4.0240    -0.3320 H     1 <1>   0.0800 
 28 H       -0.6150     3.8730    -1.8420 H     1 <1>   0.0800 
 29 H        0.0990     4.7820    -0.5410 H     1 <1>   0.0800 
 30 H        1.3490     3.3460     2.6910 H     1 <1>   0.0800 
 31 H        1.3730     4.4050     1.2910 H     1 <1>   0.0800 
 32 H        2.2810     2.8850     1.2750 H     1 <1>   0.0800 
 33 H       -0.3680    -4.5780    -0.5900 H     1 <1>   0.1500 
 34 H       -4.6020    -4.8270    -0.9860 H     1 <1>   0.1500 
 35 H       -0.2820    -6.9330    -0.0260 H     1 <1>   0.1500 
 36 H       -4.5080    -7.1970    -0.4190 H     1 <1>   0.1500 
 37 H       -1.8960    -8.7180     2.2290 H     1 <1>   0.0800 
 38 H       -0.4790    -8.7870     1.1870 H     1 <1>   0.0800 
 39 H       -2.6490   -11.7130    -0.3240 H     1 <1>   0.0800 
 40 H       -3.6940   -11.1720     0.9860 H     1 <1>   0.0800 
 41 H       -1.7010   -11.0510     2.2390 H     1 <1>   0.0800 
 42 H       -0.7300   -11.0270     0.7840 H     1 <1>   0.0800 
@<TRIPOS>BOND
  1   1   2  1   
  2   1   3  1   
  3   2   4  2   
  4   2   5  1   
  5   3   6  2   
  6   3   7  1   
  7   4   6  1   
  8   5   8  am  
  9   5  25  1   
 10   7   9  1   
 11   7  10  1   
 12   7  26  1   
 13   8  11  2   
 14   8  12  1   
 15   9  13  1   
 16  10  27  1   
 17  10  28  1   
 18  10  29  1   
 19  12  14  ar  
 20  12  15  ar  
 21  13  30  1   
 22  13  31  1   
 23  13  32  1   
 24  14  16  ar  
 25  14  33  1   
 26  15  17  ar  
 27  15  34  1   
 28  16  18  ar  
 29  16  35  1   
 30  17  18  ar  
 31  17  36  1   
 32  18  19  1   
 33  19  20  am  
 34  19  21  1   
 35  20  22  2   
 36  20  23  1   
 37  21  24  1   
 38  21  37  1   
 39  21  38  1   
 40  23  24  1   
 41  23  39  1   
 42  23  40  1   
 43  24  41  1   
 44  24  42  1   
@<TRIPOS>SUBSTRUCTURE
  1 ****  12 GROUP 4 **** **** 0

# MOE 2024.06 (io_trps.svl 2023.06)
