@<TRIPOS>MOLECULE
NONAME
43 45 1 0 0 
SMALL
USER_CHARGES


@<TRIPOS>ATOM
  1 S        0.6340     0.0050    -1.4880 S.o2  1 <1>   1.5000 
  2 O        1.7160    -0.9570    -1.4850 O.2   1 <1>  -0.6500 
  3 O        0.1260     0.4660    -2.7590 O.2   1 <1>  -0.6500 
  4 N        1.2910     1.3650    -0.7150 N.am  1 <1>  -0.8490 
  5 C       -0.7180    -0.5390    -0.4170 C.2   1 <1>  -0.0220 
  6 C        1.7920     1.1230     0.6700 C.3   1 <1>   0.2760 
  7 C        2.0840     2.2010    -1.6380 C.3   1 <1>   0.1960 
  8 S       -1.8130     0.6830     0.2240 S.3   1 <1>  -0.0800 
  9 C       -1.1020    -1.7570     0.0220 C.2   1 <1>  -0.1500 
 10 C        1.8060     2.4270     1.4860 C.3   1 <1>   0.1200 
 11 C        3.1570     0.3910     0.7880 C.3   1 <1>   0.3430 
 12 C        3.3680     2.8250    -1.0710 C.3   1 <1>  -0.0800 
 13 C       -2.7540    -0.5210     1.0820 C.2   1 <1>  -0.1100 
 14 C       -2.2520    -1.7510     0.8740 C.2   1 <1>  -0.1810 
 15 O        2.9800     3.1510     1.2880 O.3   1 <1>  -0.5600 
 16 N        3.9860     0.4270    -0.4610 N.4   1 <1>  -0.9590 
 17 C        3.0980     3.8110     0.0740 C.3   1 <1>   0.1200 
 18 C        4.4810     1.8110    -0.7410 C.3   1 <1>   0.3430 
 19 C       -2.8020    -3.0430     1.4470 C.3   1 <1>  -0.0590 
 20 C        5.1840    -0.4890    -0.2570 C.3   1 <1>   0.2370 
 21 C        6.0830    -0.1070     0.9230 C.2   1 <1>   0.9060 
 22 O        5.7660    -0.5150     2.0440 O.co2 1 <1>  -0.9000 
 23 O        6.9950     0.6980     0.7140 O.co2 1 <1>  -0.9000 
 24 H        1.0740     0.5020     1.1740 H     1 <1>   0.0800 
 25 H        2.3640     1.6220    -2.5030 H     1 <1>   0.0800 
 26 H        1.4410     2.9880    -1.9970 H     1 <1>   0.0800 
 27 H       -0.6100    -2.6820    -0.2280 H     1 <1>   0.1500 
 28 H        1.7750     2.1850     2.5340 H     1 <1>   0.0800 
 29 H        0.9540     3.0430     1.2570 H     1 <1>   0.0800 
 30 H        2.9660    -0.6370     1.0440 H     1 <1>   0.0800 
 31 H        3.7180     0.8130     1.6080 H     1 <1>   0.0800 
 32 H        3.7640     3.4340    -1.8640 H     1 <1>   0.0800 
 33 H       -3.5960    -0.1750     1.6560 H     1 <1>   0.1500 
 34 H        3.3960     0.0530    -1.2230 H     1 <1>   0.4500 
 35 H        2.2100     4.3970    -0.1000 H     1 <1>   0.0800 
 36 H        3.9320     4.4850     0.1740 H     1 <1>   0.0800 
 37 H        5.0470     2.1680     0.1070 H     1 <1>   0.0800 
 38 H        5.1620     1.7660    -1.5740 H     1 <1>   0.0800 
 39 H       -2.0560    -3.5260     2.0520 H     1 <1>   0.0800 
 40 H       -3.0880    -3.7060     0.6500 H     1 <1>   0.0800 
 41 H       -3.6650    -2.8450     2.0570 H     1 <1>   0.0800 
 42 H        4.8460    -1.4940    -0.0830 H     1 <1>   0.0800 
 43 H        5.7990    -0.4880    -1.1380 H     1 <1>   0.0800 
@<TRIPOS>BOND
  1   1   2  2   
  2   1   3  2   
  3   1   4  am  
  4   1   5  1   
  5   4   6  1   
  6   4   7  1   
  7   5   8  1   
  8   5   9  2   
  9   6  10  1   
 10   6  11  1   
 11   6  24  1   
 12   7  12  1   
 13   7  25  1   
 14   7  26  1   
 15   8  13  1   
 16   9  14  1   
 17   9  27  1   
 18  10  15  1   
 19  10  28  1   
 20  10  29  1   
 21  11  16  1   
 22  11  30  1   
 23  11  31  1   
 24  12  17  1   
 25  12  18  1   
 26  12  32  1   
 27  13  14  2   
 28  13  33  1   
 29  14  19  1   
 30  15  17  1   
 31  16  18  1   
 32  16  20  1   
 33  16  34  1   
 34  17  35  1   
 35  17  36  1   
 36  18  37  1   
 37  18  38  1   
 38  19  39  1   
 39  19  40  1   
 40  19  41  1   
 41  20  21  1   
 42  20  42  1   
 43  20  43  1   
 44  21  22  ar  
 45  21  23  ar  
@<TRIPOS>SUBSTRUCTURE
  1 ****   6 GROUP 4 **** **** 0

# MOE 2024.06 (io_trps.svl 2023.06)
