@<TRIPOS>MOLECULE
NONAME
51 55 1 0 0 
SMALL
USER_CHARGES


@<TRIPOS>ATOM
  1 O       -2.7680     0.4540     0.4740 O.2   1 <1>  -0.5700 
  2 C       -2.7170     1.0580    -0.5750 C.2   1 <1>   0.5690 
  3 N       -3.2420     0.4860    -1.6970 N.am  1 <1>  -0.6600 
  4 C       -2.1480     2.4660    -0.6380 C.3   1 <1>  -0.0190 
  5 C       -4.6690     0.8040    -2.0100 C.3   1 <1>   0.1400 
  6 C       -2.9250    -0.9590    -1.9540 C.3   1 <1>   0.1400 
  7 C       -0.6800     2.5600    -0.1770 C.3   1 <1>  -0.0160 
  8 C       -2.9210     3.4910     0.2130 C.3   1 <1>  -0.0160 
  9 C       -5.6330    -0.0300    -1.1160 C.3   1 <1>   0.4230 
 10 C       -4.0080    -1.9080    -1.3820 C.3   1 <1>   0.3430 
 11 C       -0.5980     3.9600     0.3770 C.ar  1 <1>  -0.1440 
 12 C       -1.8500     4.4800     0.5950 C.ar  1 <1>  -0.1440 
 13 N       -4.9190    -1.1780    -0.4350 N.4   1 <1>  -0.9590 
 14 C       -6.8550    -0.5350    -1.9170 C.3   1 <1>   0.1200 
 15 C        0.5350     4.6990     0.6600 C.ar  1 <1>  -0.1500 
 16 C       -2.0060     5.7570     1.1030 C.ar  1 <1>  -0.1500 
 17 C       -5.8770    -2.0190     0.3420 C.3   1 <1>   0.5180 
 18 O       -7.6920    -1.3090    -1.1060 O.3   1 <1>  -0.5600 
 19 C        0.3890     5.9800     1.1690 C.ar  1 <1>  -0.1500 
 20 C       -0.8760     6.5070     1.3890 C.ar  1 <1>  -0.1500 
 21 C       -5.1470    -3.2250     0.9440 C.3   1 <1>  -0.1950 
 22 C       -7.0900    -2.4340    -0.5200 C.3   1 <1>   0.1200 
 23 C       -5.4410    -3.6550     2.3490 C.3   1 <1>  -0.2000 
 24 C       -4.1080    -3.0530     2.0110 C.3   1 <1>  -0.2000 
 25 H       -2.1780     2.8070    -1.6570 H     1 <1>   0.0800 
 26 H       -4.8570     1.8530    -1.8550 H     1 <1>   0.0800 
 27 H       -4.8510     0.5980    -3.0510 H     1 <1>   0.0800 
 28 H       -2.8160    -1.1250    -3.0120 H     1 <1>   0.0800 
 29 H       -1.9800    -1.2000    -1.4960 H     1 <1>   0.0800 
 30 H        0.0040     2.4120    -0.9940 H     1 <1>   0.0800 
 31 H       -0.4710     1.8570     0.6110 H     1 <1>   0.0800 
 32 H       -3.3140     3.0410     1.1080 H     1 <1>   0.0800 
 33 H       -3.7120     3.9600    -0.3440 H     1 <1>   0.0800 
 34 H       -6.0110     0.6310    -0.3530 H     1 <1>   0.0800 
 35 H       -3.5150    -2.7210    -0.8750 H     1 <1>   0.0800 
 36 H       -4.5820    -2.3250    -2.1920 H     1 <1>   0.0800 
 37 H       -4.2650    -0.7340     0.2430 H     1 <1>   0.4500 
 38 H       -6.5530    -1.1280    -2.7630 H     1 <1>   0.0800 
 39 H       -7.4340     0.2990    -2.2750 H     1 <1>   0.0800 
 40 H        1.5140     4.2880     0.4900 H     1 <1>   0.1500 
 41 H       -2.9860     6.1640     1.2740 H     1 <1>   0.1500 
 42 H       -6.2550    -1.4280     1.1600 H     1 <1>   0.0800 
 43 H        1.2610     6.5690     1.3940 H     1 <1>   0.1500 
 44 H       -0.9800     7.5020     1.7840 H     1 <1>   0.1500 
 45 H       -5.0130    -4.0270     0.2380 H     1 <1>   0.1000 
 46 H       -7.8280    -2.9160     0.0970 H     1 <1>   0.0800 
 47 H       -6.7990    -3.1170    -1.2990 H     1 <1>   0.0800 
 48 H       -6.1100    -3.0800     2.9680 H     1 <1>   0.1000 
 49 H       -5.4790    -4.7070     2.5800 H     1 <1>   0.1000 
 50 H       -3.2450    -3.6990     2.0190 H     1 <1>   0.1000 
 51 H       -3.8830    -2.0740     2.4010 H     1 <1>   0.1000 
@<TRIPOS>BOND
  1   1   2  2   
  2   2   3  am  
  3   2   4  1   
  4   3   5  1   
  5   3   6  1   
  6   4   7  1   
  7   4   8  1   
  8   4  25  1   
  9   5   9  1   
 10   5  26  1   
 11   5  27  1   
 12   6  10  1   
 13   6  28  1   
 14   6  29  1   
 15   7  11  1   
 16   7  30  1   
 17   7  31  1   
 18   8  12  1   
 19   8  32  1   
 20   8  33  1   
 21   9  13  1   
 22   9  14  1   
 23   9  34  1   
 24  10  13  1   
 25  10  35  1   
 26  10  36  1   
 27  11  12  ar  
 28  11  15  ar  
 29  12  16  ar  
 30  13  17  1   
 31  13  37  1   
 32  14  18  1   
 33  14  38  1   
 34  14  39  1   
 35  15  19  ar  
 36  15  40  1   
 37  16  20  ar  
 38  16  41  1   
 39  17  21  1   
 40  17  22  1   
 41  17  42  1   
 42  18  22  1   
 43  19  20  ar  
 44  19  43  1   
 45  20  44  1   
 46  21  23  1   
 47  21  24  1   
 48  21  45  1   
 49  22  46  1   
 50  22  47  1   
 51  23  24  1   
 52  23  48  1   
 53  23  49  1   
 54  24  50  1   
 55  24  51  1   
@<TRIPOS>SUBSTRUCTURE
  1 ****   2 GROUP 4 **** **** 0

# MOE 2024.06 (io_trps.svl 2023.06)
