@<TRIPOS>MOLECULE
NONAME
47 49 1 0 0 
SMALL
USER_CHARGES


@<TRIPOS>ATOM
  1 O       -0.9530     0.2710     2.0430 O.2   1 <1>  -0.5700 
  2 C       -1.5560     0.8980     1.1910 C.2   1 <1>   0.5440 
  3 N       -2.3700     0.2030     0.3270 N.am  1 <1>  -0.6600 
  4 C       -1.4530     2.3360     1.1630 C.ar  1 <1>   0.0860 
  5 C       -3.3870     0.7920    -0.5800 C.3   1 <1>   0.1400 
  6 C       -2.4560    -1.2790     0.2990 C.3   1 <1>   0.1400 
  7 C       -1.0200     3.0400     0.0320 C.ar  1 <1>   0.3920 
  8 C       -1.7860     3.0800     2.2890 C.ar  1 <1>  -0.1500 
  9 C       -4.4320    -0.3110    -0.7250 C.3   1 <1>   0.2000 
 10 C       -3.5960    -1.5940    -0.6770 C.3   1 <1>  -0.0800 
 11 O       -0.6520     2.3260    -1.0540 O.3   1 <1>  -0.3630 
 12 N       -0.9370     4.3660    -0.0600 N.ar  1 <1>  -0.6200 
 13 C       -1.6940     4.4490     2.2110 C.ar  1 <1>  -0.1500 
 14 O       -5.2640    -0.2580     0.3840 O.3   1 <1>  -0.6800 
 15 C       -4.3700    -2.8800    -0.3340 C.3   1 <1>   0.0210 
 16 C       -0.1290     2.9370    -2.2170 C.3   1 <1>   0.0400 
 17 C       -1.2740     5.0410     1.0310 C.ar  1 <1>   0.3930 
 18 C       -3.4410    -4.0780    -0.3220 C.2   1 <1>   0.1080 
 19 O       -1.2110     6.3850     1.0120 O.3   1 <1>  -0.3630 
 20 N       -2.8100    -4.4890    -1.3780 N.2   1 <1>  -0.7070 
 21 C       -3.1530    -4.8510     0.7970 C.2   1 <1>  -0.1500 
 22 C       -0.7790     7.0860    -0.1380 C.3   1 <1>   0.0400 
 23 N       -2.0950    -5.5490    -0.9550 N.pl3 1 <1>   0.3000 
 24 C       -2.2850    -5.7870     0.3600 C.2   1 <1>  -0.3320 
 25 C       -1.6150    -6.9110     1.1290 C.3   1 <1>  -0.0600 
 26 H       -3.8130     1.6980    -0.1840 H     1 <1>   0.0800 
 27 H       -2.9300     0.9920    -1.5330 H     1 <1>   0.0800 
 28 H       -1.5260    -1.7090    -0.0330 H     1 <1>   0.0800 
 29 H       -2.6790    -1.6390     1.2890 H     1 <1>   0.0800 
 30 H       -2.1030     2.5840     3.1910 H     1 <1>   0.1500 
 31 H       -5.0310    -0.2200    -1.6150 H     1 <1>   0.0800 
 32 H       -3.1510    -1.7280    -1.6470 H     1 <1>   0.0800 
 33 H       -1.9400     5.0720     3.0510 H     1 <1>   0.1500 
 34 H       -4.7020    -0.2130     1.1840 H     1 <1>   0.4000 
 35 H       -5.1360    -3.0450    -1.0690 H     1 <1>   0.0800 
 36 H       -4.8440    -2.7940     0.6270 H     1 <1>   0.0800 
 37 H        0.1060     2.1650    -2.9270 H     1 <1>   0.0800 
 38 H        0.7630     3.4790    -1.9540 H     1 <1>   0.0800 
 39 H       -0.8680     3.6040    -2.6240 H     1 <1>   0.0800 
 40 H       -3.5500    -4.7100     1.7870 H     1 <1>   0.1500 
 41 H       -0.8070     8.1390     0.0770 H     1 <1>   0.0800 
 42 H       -1.4410     6.8570    -0.9540 H     1 <1>   0.0800 
 43 H        0.2260     6.7830    -0.3720 H     1 <1>   0.0800 
 44 H       -1.4880    -6.0840    -1.5860 H     1 <1>   0.2700 
 45 H       -1.9270    -6.8910     2.1580 H     1 <1>   0.0800 
 46 H       -0.5460    -6.7990     1.0940 H     1 <1>   0.0800 
 47 H       -1.8840    -7.8630     0.7070 H     1 <1>   0.0800 
@<TRIPOS>BOND
  1   1   2  2   
  2   2   3  am  
  3   2   4  1   
  4   3   5  1   
  5   3   6  1   
  6   4   7  ar  
  7   4   8  ar  
  8   5   9  1   
  9   5  26  1   
 10   5  27  1   
 11   6  10  1   
 12   6  28  1   
 13   6  29  1   
 14   7  11  1   
 15   7  12  ar  
 16   8  13  ar  
 17   8  30  1   
 18   9  10  1   
 19   9  14  1   
 20   9  31  1   
 21  10  15  1   
 22  10  32  1   
 23  11  16  1   
 24  12  17  ar  
 25  13  17  ar  
 26  13  33  1   
 27  14  34  1   
 28  15  18  1   
 29  15  35  1   
 30  15  36  1   
 31  16  37  1   
 32  16  38  1   
 33  16  39  1   
 34  17  19  1   
 35  18  20  2   
 36  18  21  1   
 37  19  22  1   
 38  20  23  1   
 39  21  24  2   
 40  21  40  1   
 41  22  41  1   
 42  22  42  1   
 43  22  43  1   
 44  23  24  1   
 45  23  44  1   
 46  24  25  1   
 47  25  45  1   
 48  25  46  1   
 49  25  47  1   
@<TRIPOS>SUBSTRUCTURE
  1 ****   3 GROUP 4 **** **** 0

# MOE 2024.06 (io_trps.svl 2023.06)
