@<TRIPOS>MOLECULE
NONAME
53 55 1 0 0 
SMALL
USER_CHARGES


@<TRIPOS>ATOM
  1 O        4.8450    -1.4570    -1.2170 O.2   1 <1>  -0.5700 
  2 C        3.6450    -1.3210    -1.0720 C.2   1 <1>   0.5440 
  3 N        3.0680    -0.2250    -1.6710 N.am  1 <1>  -0.6600 
  4 C        2.8920    -2.2300    -0.2410 C.ar  1 <1>   0.0860 
  5 C        3.5530     0.2630    -3.0070 C.3   1 <1>   0.1400 
  6 C        2.3380     0.7850    -0.8600 C.3   1 <1>   0.1400 
  7 C        3.4750    -2.9290     0.7990 C.ar  1 <1>   0.1600 
  8 C        1.5420    -2.4670    -0.4220 C.ar  1 <1>   0.1600 
  9 C        4.8720     1.0690    -2.9370 C.3   1 <1>   0.3430 
 10 C        3.3270     1.6170    -0.0310 C.3   1 <1>  -0.1600 
 11 N        2.8040    -3.7420     1.5850 N.ar  1 <1>  -0.6200 
 12 N        0.8400    -3.2710     0.3450 N.ar  1 <1>  -0.6200 
 13 N        5.2950     1.3340    -1.5300 N.4   1 <1>  -0.9590 
 14 C        4.4250     2.3280    -0.8310 C.3   1 <1>   0.3430 
 15 C        1.5140    -3.8690     1.3160 C.ar  1 <1>   0.4770 
 16 C        6.7600     1.6250    -1.3890 C.3   1 <1>   0.3430 
 17 C        0.7200    -4.7980     2.2200 C.3   1 <1>  -0.0170 
 18 C        7.3580     1.1090    -0.0600 C.3   1 <1>   0.2000 
 19 C        0.1320    -4.0620     3.4330 C.3   1 <1>  -0.2400 
 20 O        6.4920     1.4640     0.9990 O.3   1 <1>  -0.2170 
 21 C        8.6740     1.7930     0.3170 C.3   1 <1>  -0.0990 
 22 N        6.9880     2.4320     1.7370 N.2   1 <1>  -0.5130 
 23 C        8.1860     2.6580     1.4400 C.2   1 <1>   0.3280 
 24 C        9.1360     3.6700     2.0670 C.3   1 <1>  -0.0990 
 25 C        8.4950     4.5000     3.1890 C.3   1 <1>  -0.2400 
 26 H        2.7910     0.8660    -3.4690 H     1 <1>   0.0800 
 27 H        3.7090    -0.5870    -3.6510 H     1 <1>   0.0800 
 28 H        1.6470     0.2920    -0.1960 H     1 <1>   0.0800 
 29 H        1.7630     1.4270    -1.5060 H     1 <1>   0.0800 
 30 H        4.5280    -2.8090     0.9880 H     1 <1>   0.1500 
 31 H        1.0240    -1.9760    -1.2280 H     1 <1>   0.1500 
 32 H        4.7680     1.9930    -3.4810 H     1 <1>   0.0800 
 33 H        5.6340     0.4860    -3.4290 H     1 <1>   0.0800 
 34 H        3.7800     0.9990     0.7240 H     1 <1>   0.0800 
 35 H        2.7650     2.3690     0.4940 H     1 <1>   0.0800 
 36 H        5.1260     0.4200    -1.0590 H     1 <1>   0.4500 
 37 H        5.0190     2.9070    -0.1410 H     1 <1>   0.0800 
 38 H        3.9870     3.0070    -1.5430 H     1 <1>   0.0800 
 39 H        6.9220     2.6880    -1.4570 H     1 <1>   0.0800 
 40 H        7.3000     1.1600    -2.1960 H     1 <1>   0.0800 
 41 H        1.3650    -5.5890     2.5590 H     1 <1>   0.0800 
 42 H       -0.0740    -5.2450     1.6510 H     1 <1>   0.0800 
 43 H        7.4560     0.0370    -0.0700 H     1 <1>   0.0800 
 44 H        0.9220    -3.6240     4.0170 H     1 <1>   0.0800 
 45 H       -0.4190    -4.7470     4.0520 H     1 <1>   0.0800 
 46 H       -0.5300    -3.2800     3.1040 H     1 <1>   0.0800 
 47 H        9.0920     2.3710    -0.4870 H     1 <1>   0.0800 
 48 H        9.3930     1.0790     0.6770 H     1 <1>   0.0800 
 49 H        9.4900     4.3360     1.3010 H     1 <1>   0.0800 
 50 H        9.9840     3.1430     2.4670 H     1 <1>   0.0800 
 51 H        7.6540     5.0550     2.8120 H     1 <1>   0.0800 
 52 H        9.2100     5.1920     3.5970 H     1 <1>   0.0800 
 53 H        8.1520     3.8550     3.9800 H     1 <1>   0.0800 
@<TRIPOS>BOND
  1   1   2  2   
  2   2   3  am  
  3   2   4  1   
  4   3   5  1   
  5   3   6  1   
  6   4   7  ar  
  7   4   8  ar  
  8   5   9  1   
  9   5  26  1   
 10   5  27  1   
 11   6  10  1   
 12   6  28  1   
 13   6  29  1   
 14   7  11  ar  
 15   7  30  1   
 16   8  12  ar  
 17   8  31  1   
 18   9  13  1   
 19   9  32  1   
 20   9  33  1   
 21  10  14  1   
 22  10  34  1   
 23  10  35  1   
 24  11  15  ar  
 25  12  15  ar  
 26  13  14  1   
 27  13  16  1   
 28  13  36  1   
 29  14  37  1   
 30  14  38  1   
 31  15  17  1   
 32  16  18  1   
 33  16  39  1   
 34  16  40  1   
 35  17  19  1   
 36  17  41  1   
 37  17  42  1   
 38  18  20  1   
 39  18  21  1   
 40  18  43  1   
 41  19  44  1   
 42  19  45  1   
 43  19  46  1   
 44  20  22  1   
 45  21  23  1   
 46  21  47  1   
 47  21  48  1   
 48  22  23  2   
 49  23  24  1   
 50  24  25  1   
 51  24  49  1   
 52  24  50  1   
 53  25  51  1   
 54  25  52  1   
 55  25  53  1   
@<TRIPOS>SUBSTRUCTURE
  1 ****   2 GROUP 4 **** **** 0

# MOE 2024.06 (io_trps.svl 2023.06)
