@<TRIPOS>MOLECULE
NONAME
53 55 1 0 0 
SMALL
USER_CHARGES


@<TRIPOS>ATOM
  1 S       -0.2990     0.6900    -1.5730 S.o2  1 <1>   1.4470 
  2 O       -1.5660     0.0110    -1.7730 O.2   1 <1>  -0.6500 
  3 O        0.3110     1.3790    -2.6880 O.2   1 <1>  -0.6500 
  4 N       -0.5570     1.8410    -0.3520 N.am  1 <1>  -0.8490 
  5 C        0.9110    -0.4460    -0.8330 C.ar  1 <1>  -0.0090 
  6 C       -1.2430     3.0520    -0.8220 C.3   1 <1>   0.1960 
  7 C       -1.0850     1.2740     0.9040 C.3   1 <1>   0.1960 
  8 C        2.1940    -0.0180    -0.5170 C.ar  1 <1>  -0.1500 
  9 C        0.5870    -1.7670    -0.5440 C.ar  1 <1>  -0.1500 
 10 C       -2.7520     2.8150    -0.8970 C.3   1 <1>  -0.1600 
 11 C       -2.2480     2.0830     1.4930 C.3   1 <1>  -0.1600 
 12 C        3.1160    -0.8750     0.0580 C.ar  1 <1>  -0.1500 
 13 C        1.5080    -2.6240     0.0310 C.ar  1 <1>  -0.1500 
 14 C       -3.3560     2.3780     0.4600 C.3   1 <1>   0.2800 
 15 C        2.8010    -2.2030     0.3430 C.ar  1 <1>   0.0860 
 16 O       -4.0120     3.5210     0.9630 O.3   1 <1>  -0.5600 
 17 C       -4.3480     1.1760     0.3430 C.3   1 <1>   0.2000 
 18 C        3.7840    -3.0920     0.9410 C.2   1 <1>   0.5440 
 19 C       -5.4150     3.5620     1.0270 C.3   1 <1>   0.1200 
 20 O       -3.7540    -0.0180    -0.0990 O.3   1 <1>  -0.6800 
 21 C       -5.6480     1.5200    -0.4440 C.3   1 <1>   0.2800 
 22 O        4.6490    -2.6520     1.6710 O.2   1 <1>  -0.5700 
 23 N        3.7610    -4.4360     0.6800 N.am  1 <1>  -0.7300 
 24 C       -6.0230     2.9990    -0.2600 C.3   1 <1>  -0.1600 
 25 O       -6.6580     0.7710     0.1220 O.3   1 <1>  -0.6800 
 26 C       -5.6630     1.1420    -1.9330 C.3   1 <1>  -0.2400 
 27 C        4.7060    -5.4400     1.2370 C.3   1 <1>   0.0600 
 28 H       -1.0400     3.8610    -0.1400 H     1 <1>   0.0800 
 29 H       -0.8650     3.3490    -1.7870 H     1 <1>   0.0800 
 30 H       -1.4140     0.2600     0.7510 H     1 <1>   0.0800 
 31 H       -0.2850     1.2360     1.6240 H     1 <1>   0.0800 
 32 H        2.4730     1.0020    -0.7250 H     1 <1>   0.1500 
 33 H       -0.4020    -2.1290    -0.7720 H     1 <1>   0.1500 
 34 H       -2.9310     2.0790    -1.6510 H     1 <1>   0.0800 
 35 H       -3.2220     3.7200    -1.2360 H     1 <1>   0.0800 
 36 H       -1.8510     3.0070     1.8730 H     1 <1>   0.0800 
 37 H       -2.6580     1.5470     2.3290 H     1 <1>   0.0800 
 38 H        4.1030    -0.5140     0.2950 H     1 <1>   0.1500 
 39 H        1.2140    -3.6360     0.2500 H     1 <1>   0.1500 
 40 H       -4.6540     0.9650     1.3540 H     1 <1>   0.0800 
 41 H       -5.7360     2.9950     1.8850 H     1 <1>   0.0800 
 42 H       -5.7040     4.5890     1.1650 H     1 <1>   0.0800 
 43 H       -3.1610     0.1270    -0.8780 H     1 <1>   0.4000 
 44 H        3.1050    -4.7870    -0.0190 H     1 <1>   0.3700 
 45 H       -5.6530     3.5850    -1.0810 H     1 <1>   0.0800 
 46 H       -7.0930     3.1110    -0.2450 H     1 <1>   0.0800 
 47 H       -6.3990    -0.1710     0.0710 H     1 <1>   0.4000 
 48 H       -4.9430     1.7140    -2.4840 H     1 <1>   0.0800 
 49 H       -6.6320     1.3450    -2.3520 H     1 <1>   0.0800 
 50 H       -5.4400     0.0990    -2.0700 H     1 <1>   0.0800 
 51 H        5.3460    -4.9870     1.9760 H     1 <1>   0.0800 
 52 H        5.3200    -5.8390     0.4480 H     1 <1>   0.0800 
 53 H        4.1570    -6.2400     1.7010 H     1 <1>   0.0800 
@<TRIPOS>BOND
  1   1   2  2   
  2   1   3  2   
  3   1   4  am  
  4   1   5  1   
  5   4   6  1   
  6   4   7  1   
  7   5   8  ar  
  8   5   9  ar  
  9   6  10  1   
 10   6  28  1   
 11   6  29  1   
 12   7  11  1   
 13   7  30  1   
 14   7  31  1   
 15   8  12  ar  
 16   8  32  1   
 17   9  13  ar  
 18   9  33  1   
 19  10  14  1   
 20  10  34  1   
 21  10  35  1   
 22  11  14  1   
 23  11  36  1   
 24  11  37  1   
 25  12  15  ar  
 26  12  38  1   
 27  13  15  ar  
 28  13  39  1   
 29  14  16  1   
 30  14  17  1   
 31  15  18  1   
 32  16  19  1   
 33  17  20  1   
 34  17  21  1   
 35  17  40  1   
 36  18  22  2   
 37  18  23  am  
 38  19  24  1   
 39  19  41  1   
 40  19  42  1   
 41  20  43  1   
 42  21  24  1   
 43  21  25  1   
 44  21  26  1   
 45  23  27  1   
 46  23  44  1   
 47  24  45  1   
 48  24  46  1   
 49  25  47  1   
 50  26  48  1   
 51  26  49  1   
 52  26  50  1   
 53  27  51  1   
 54  27  52  1   
 55  27  53  1   
@<TRIPOS>SUBSTRUCTURE
  1 ****   7 GROUP 4 **** **** 0

# MOE 2024.06 (io_trps.svl 2023.06)
