@<TRIPOS>MOLECULE
NONAME
43 46 1 0 0 
SMALL
USER_CHARGES


@<TRIPOS>ATOM
  1 CL       1.2110    -0.2470     0.6630 Cl    1 <1>  -0.1770 
  2 C        0.6260    -1.8230     0.2030 C.ar  1 <1>   0.1770 
  3 C        0.2300    -2.7290     1.1710 C.ar  1 <1>   0.1600 
  4 C        0.5560    -2.1670    -1.1250 C.ar  1 <1>  -0.1500 
  5 N       -0.2310    -3.9430     0.9110 N.ar  1 <1>  -0.6200 
  6 C        0.0840    -3.4330    -1.4040 C.ar  1 <1>  -0.1500 
  7 C       -0.3040    -4.3120    -0.3850 C.ar  1 <1>   0.3960 
  8 C       -0.7960    -5.6530    -0.7410 C.2   1 <1>   0.5440 
  9 O       -0.9740    -5.9600    -1.9080 O.2   1 <1>  -0.5700 
 10 N       -1.1220    -6.6320     0.1820 N.am  1 <1>  -0.6600 
 11 C       -2.1230    -6.3850     1.2630 C.3   1 <1>   0.1400 
 12 C       -0.9950    -8.0700    -0.1900 C.3   1 <1>   0.1400 
 13 C       -3.5070    -6.9660     0.8850 C.3   1 <1>   0.4230 
 14 C       -2.3640    -8.6190    -0.6240 C.3   1 <1>   0.3430 
 15 N       -3.4220    -8.4170     0.4390 N.4   1 <1>  -0.9590 
 16 C       -4.1870    -6.0950    -0.2000 C.3   1 <1>   0.1200 
 17 C       -4.7820    -8.8830     0.0080 C.3   1 <1>   0.5180 
 18 O       -5.4440    -6.6180    -0.5270 O.3   1 <1>  -0.5600 
 19 C       -4.7020   -10.3260    -0.5050 C.3   1 <1>  -0.1950 
 20 C       -5.4220    -7.9280    -1.0240 C.3   1 <1>   0.1200 
 21 C       -5.7980   -11.2960    -0.1860 C.3   1 <1>  -0.2000 
 22 C       -4.4350   -11.4770     0.4170 C.3   1 <1>  -0.2000 
 23 H        0.2990    -2.4280     2.2030 H     1 <1>   0.1500 
 24 H        0.8580    -1.4810    -1.8970 H     1 <1>   0.1500 
 25 H        0.0150    -3.7510    -2.4300 H     1 <1>   0.1500 
 26 H       -1.7740    -6.8370     2.1750 H     1 <1>   0.0800 
 27 H       -2.2290    -5.3310     1.4500 H     1 <1>   0.0800 
 28 H       -0.2930    -8.1780    -1.0000 H     1 <1>   0.0800 
 29 H       -0.6150    -8.6290     0.6470 H     1 <1>   0.0800 
 30 H       -4.1300    -6.9060     1.7610 H     1 <1>   0.0800 
 31 H       -2.2610    -9.6680    -0.8480 H     1 <1>   0.0800 
 32 H       -2.6530    -8.1140    -1.5310 H     1 <1>   0.0800 
 33 H       -3.1580    -8.9890     1.2480 H     1 <1>   0.4500 
 34 H       -3.5930    -6.0410    -1.0960 H     1 <1>   0.0800 
 35 H       -4.3390    -5.0950     0.1670 H     1 <1>   0.0800 
 36 H       -5.4260    -8.8850     0.8730 H     1 <1>   0.0800 
 37 H       -4.3250   -10.3880    -1.5120 H     1 <1>   0.1000 
 38 H       -6.4400    -8.2220    -1.2140 H     1 <1>   0.0800 
 39 H       -4.8850    -7.9370    -1.9560 H     1 <1>   0.0800 
 40 H       -6.6070   -11.0110     0.4660 H     1 <1>   0.1000 
 41 H       -6.1160   -11.9960    -0.9420 H     1 <1>   0.1000 
 42 H       -3.8400   -12.3060     0.0710 H     1 <1>   0.1000 
 43 H       -4.3440   -11.3290     1.4800 H     1 <1>   0.1000 
@<TRIPOS>BOND
  1   1   2  1   
  2   2   3  ar  
  3   2   4  ar  
  4   3   5  ar  
  5   3  23  1   
  6   4   6  ar  
  7   4  24  1   
  8   5   7  ar  
  9   6   7  ar  
 10   6  25  1   
 11   7   8  1   
 12   8   9  2   
 13   8  10  am  
 14  10  11  1   
 15  10  12  1   
 16  11  13  1   
 17  11  26  1   
 18  11  27  1   
 19  12  14  1   
 20  12  28  1   
 21  12  29  1   
 22  13  15  1   
 23  13  16  1   
 24  13  30  1   
 25  14  15  1   
 26  14  31  1   
 27  14  32  1   
 28  15  17  1   
 29  15  33  1   
 30  16  18  1   
 31  16  34  1   
 32  16  35  1   
 33  17  19  1   
 34  17  20  1   
 35  17  36  1   
 36  18  20  1   
 37  19  21  1   
 38  19  22  1   
 39  19  37  1   
 40  20  38  1   
 41  20  39  1   
 42  21  22  1   
 43  21  40  1   
 44  21  41  1   
 45  22  42  1   
 46  22  43  1   
@<TRIPOS>SUBSTRUCTURE
  1 ****  10 GROUP 4 **** **** 0

# MOE 2024.06 (io_trps.svl 2023.06)
