@<TRIPOS>MOLECULE
NONAME
53 55 1 0 0 
SMALL
USER_CHARGES


@<TRIPOS>ATOM
  1 O       -2.2580    -0.2690    -1.0310 O.2   1 <1>  -0.5700 
  2 C       -1.8750     0.3630    -0.0590 C.2   1 <1>   0.7160 
  3 N       -1.4760    -0.3500     1.0590 N.am  1 <1>  -0.6600 
  4 C       -1.8300     1.7880    -0.0950 C.2   1 <1>  -0.0860 
  5 C       -1.4750    -1.8400     1.0550 C.3   1 <1>   0.1400 
  6 C       -0.9670     0.3030     2.3030 C.3   1 <1>   0.0600 
  7 C       -2.9390     2.6330    -0.1190 C.2   1 <1>   0.3720 
  8 C       -0.7770     2.6430    -0.0460 C.2   1 <1>   0.0870 
  9 C       -2.9240    -2.3730     1.0530 C.3   1 <1>   0.3430 
 10 N       -2.5790     3.8680    -0.0730 N.2   1 <1>  -0.4100 
 11 N       -4.2670     2.1970    -0.1740 N.pl3 1 <1>  -0.8210 
 12 O       -1.2720     3.8540    -0.0320 O.3   1 <1>  -0.0190 
 13 C        0.6440     2.4190     0.0110 C.ar  1 <1>   0.0530 
 14 N       -3.1340    -3.5360     0.1240 N.4   1 <1>  -0.9590 
 15 C       -5.2700     3.0560     0.5410 C.3   1 <1>   0.2090 
 16 C       -4.7300     1.8530    -1.5570 C.3   1 <1>   0.2090 
 17 C        1.4790     3.2910     0.7090 C.ar  1 <1>  -0.1500 
 18 C        1.2360     1.3240    -0.6180 C.ar  1 <1>  -0.1500 
 19 C       -3.0410    -3.0940    -1.3070 C.3   1 <1>   0.2630 
 20 C       -4.4680    -4.1620     0.3730 C.3   1 <1>   0.2630 
 21 C       -5.8100     4.2010    -0.3390 C.3   1 <1>   0.1200 
 22 C       -5.2700     3.0820    -2.3100 C.3   1 <1>   0.1200 
 23 C        2.8420     3.0740     0.7880 C.ar  1 <1>  -0.1500 
 24 C        2.5990     1.1010    -0.5420 C.ar  1 <1>  -0.1500 
 25 O       -6.2710     3.7140    -1.5670 O.3   1 <1>  -0.5600 
 26 C        3.4050     1.9760     0.1640 C.ar  1 <1>  -0.1500 
 27 H       -0.9540    -2.2100     1.9210 H     1 <1>   0.0800 
 28 H       -0.9450    -2.1730     0.1800 H     1 <1>   0.0800 
 29 H       -1.3320     1.3120     2.3870 H     1 <1>   0.0800 
 30 H        0.1100     0.3250     2.2870 H     1 <1>   0.0800 
 31 H       -1.2940    -0.2410     3.1720 H     1 <1>   0.0800 
 32 H       -3.5810    -1.5710     0.7590 H     1 <1>   0.0800 
 33 H       -3.1820    -2.6600     2.0590 H     1 <1>   0.0800 
 34 H       -2.4020    -4.2410     0.2990 H     1 <1>   0.4500 
 35 H       -4.8220     3.4740     1.4270 H     1 <1>   0.0800 
 36 H       -6.0950     2.4420     0.8540 H     1 <1>   0.0800 
 37 H       -5.5070     1.1120    -1.4940 H     1 <1>   0.0800 
 38 H       -3.9170     1.4290    -2.1200 H     1 <1>   0.0800 
 39 H        1.0530     4.1510     1.1970 H     1 <1>   0.1500 
 40 H        0.6280     0.6410    -1.1830 H     1 <1>   0.1500 
 41 H       -3.7700    -2.3260    -1.5090 H     1 <1>   0.0800 
 42 H       -3.2160    -3.9240    -1.9730 H     1 <1>   0.0800 
 43 H       -2.0650    -2.6870    -1.5160 H     1 <1>   0.0800 
 44 H       -5.2560    -3.4480     0.1930 H     1 <1>   0.0800 
 45 H       -4.5380    -4.5030     1.3940 H     1 <1>   0.0800 
 46 H       -4.6140    -5.0070    -0.2810 H     1 <1>   0.0800 
 47 H       -5.0410     4.9310    -0.5240 H     1 <1>   0.0800 
 48 H       -6.6330     4.6880     0.1520 H     1 <1>   0.0800 
 49 H       -5.6990     2.7830    -3.2500 H     1 <1>   0.0800 
 50 H       -4.4800     3.7880    -2.4990 H     1 <1>   0.0800 
 51 H        3.4670     3.7610     1.3340 H     1 <1>   0.1500 
 52 H        3.0370     0.2500    -1.0350 H     1 <1>   0.1500 
 53 H        4.4660     1.8060     0.2240 H     1 <1>   0.1500 
@<TRIPOS>BOND
  1   1   2  2   
  2   2   3  am  
  3   2   4  1   
  4   3   5  1   
  5   3   6  1   
  6   4   7  1   
  7   4   8  2   
  8   5   9  1   
  9   5  27  1   
 10   5  28  1   
 11   6  29  1   
 12   6  30  1   
 13   6  31  1   
 14   7  10  2   
 15   7  11  1   
 16   8  12  1   
 17   8  13  1   
 18   9  14  1   
 19   9  32  1   
 20   9  33  1   
 21  10  12  1   
 22  11  15  1   
 23  11  16  1   
 24  13  17  ar  
 25  13  18  ar  
 26  14  19  1   
 27  14  20  1   
 28  14  34  1   
 29  15  21  1   
 30  15  35  1   
 31  15  36  1   
 32  16  22  1   
 33  16  37  1   
 34  16  38  1   
 35  17  23  ar  
 36  17  39  1   
 37  18  24  ar  
 38  18  40  1   
 39  19  41  1   
 40  19  42  1   
 41  19  43  1   
 42  20  44  1   
 43  20  45  1   
 44  20  46  1   
 45  21  25  1   
 46  21  47  1   
 47  21  48  1   
 48  22  25  1   
 49  22  49  1   
 50  22  50  1   
 51  23  26  ar  
 52  23  51  1   
 53  24  26  ar  
 54  24  52  1   
 55  26  53  1   
@<TRIPOS>SUBSTRUCTURE
  1 ****   4 GROUP 4 **** **** 0

# MOE 2024.06 (io_trps.svl 2023.06)
