@<TRIPOS>MOLECULE
NONAME
47 50 1 0 0 
SMALL
USER_CHARGES


@<TRIPOS>ATOM
  1 S       -0.3110    -0.5810     1.5470 S.3   1 <1>  -0.0800 
  2 C        0.9320    -1.3150     0.5540 C.2   1 <1>  -0.0450 
  3 C        0.4040     0.9860     1.2820 C.2   1 <1>   0.1980 
  4 C        1.7480    -0.3140     0.1450 C.2   1 <1>   0.0460 
  5 C        0.9410    -2.7430     0.3510 C.2   1 <1>   0.7150 
  6 N        1.4400     0.9680     0.5490 N.2   1 <1>  -0.5650 
  7 C       -0.2590     2.1780     1.9300 C.3   1 <1>  -0.0600 
  8 C        2.9830    -0.4500    -0.7230 C.3   1 <1>  -0.0590 
  9 O        2.0000    -3.3430     0.3410 O.2   1 <1>  -0.5700 
 10 N       -0.2120    -3.4660     0.1370 N.am  1 <1>  -0.6600 
 11 C       -1.4730    -2.9010    -0.4070 C.3   1 <1>   0.1400 
 12 C       -0.1940    -4.9410    -0.0230 C.3   1 <1>   0.1400 
 13 C       -2.1360    -4.0600    -1.1490 C.3   1 <1>   0.2000 
 14 C       -1.6020    -5.3250    -0.4800 C.3   1 <1>  -0.0800 
 15 O       -3.5160    -4.0120    -1.0430 O.3   1 <1>  -0.6800 
 16 C       -1.6320    -6.5510    -1.4070 C.3   1 <1>  -0.0170 
 17 C       -1.1060    -7.7900    -0.6910 C.ar  1 <1>  -0.1440 
 18 C       -1.8910    -8.5210     0.2330 C.ar  1 <1>   0.0000 
 19 C        0.1650    -8.2270    -0.9230 C.ar  1 <1>  -0.1500 
 20 C       -1.2920    -9.6390     0.8630 C.ar  1 <1>   0.3100 
 21 C       -3.2300    -8.2110     0.5670 C.ar  1 <1>  -0.1500 
 22 C        0.6580    -9.3520    -0.2510 C.ar  1 <1>   0.1600 
 23 N       -0.0210   -10.0410     0.6100 N.ar  1 <1>  -0.6200 
 24 C       -2.0400   -10.3750     1.7960 C.ar  1 <1>  -0.1500 
 25 C       -3.9330    -8.9510     1.4790 C.ar  1 <1>  -0.1500 
 26 C       -3.3320   -10.0460     2.1040 C.ar  1 <1>  -0.1500 
 27 H        0.2840     3.0720     1.6840 H     1 <1>   0.0800 
 28 H       -0.2650     2.0560     2.9970 H     1 <1>   0.0800 
 29 H       -1.2690     2.2720     1.5760 H     1 <1>   0.0800 
 30 H        3.1360    -1.4670    -1.0290 H     1 <1>   0.0800 
 31 H        3.8450    -0.1220    -0.1710 H     1 <1>   0.0800 
 32 H        2.8780     0.1640    -1.5980 H     1 <1>   0.0800 
 33 H       -2.0910    -2.5700     0.4090 H     1 <1>   0.0800 
 34 H       -1.2690    -2.0830    -1.0770 H     1 <1>   0.0800 
 35 H        0.5380    -5.2030    -0.7690 H     1 <1>   0.0800 
 36 H        0.0630    -5.4220     0.9070 H     1 <1>   0.0800 
 37 H       -1.8720    -4.0250    -2.1920 H     1 <1>   0.0800 
 38 H       -2.1750    -5.5250     0.4080 H     1 <1>   0.0800 
 39 H       -3.7900    -4.0460    -0.1060 H     1 <1>   0.4000 
 40 H       -1.0300    -6.3540    -2.2780 H     1 <1>   0.0800 
 41 H       -2.6340    -6.7260    -1.7590 H     1 <1>   0.0800 
 42 H        0.8190    -7.7270    -1.6150 H     1 <1>   0.1500 
 43 H       -3.7140    -7.3770     0.0950 H     1 <1>   0.1500 
 44 H        1.6670    -9.6620    -0.4630 H     1 <1>   0.1500 
 45 H       -1.5580   -11.2140     2.2620 H     1 <1>   0.1500 
 46 H       -4.9520    -8.7040     1.7240 H     1 <1>   0.1500 
 47 H       -3.8940   -10.6200     2.8210 H     1 <1>   0.1500 
@<TRIPOS>BOND
  1   1   2  1   
  2   1   3  1   
  3   2   4  2   
  4   2   5  1   
  5   3   6  2   
  6   3   7  1   
  7   4   6  1   
  8   4   8  1   
  9   5   9  2   
 10   5  10  am  
 11   7  27  1   
 12   7  28  1   
 13   7  29  1   
 14   8  30  1   
 15   8  31  1   
 16   8  32  1   
 17  10  11  1   
 18  10  12  1   
 19  11  13  1   
 20  11  33  1   
 21  11  34  1   
 22  12  14  1   
 23  12  35  1   
 24  12  36  1   
 25  13  14  1   
 26  13  15  1   
 27  13  37  1   
 28  14  16  1   
 29  14  38  1   
 30  15  39  1   
 31  16  17  1   
 32  16  40  1   
 33  16  41  1   
 34  17  18  ar  
 35  17  19  ar  
 36  18  20  ar  
 37  18  21  ar  
 38  19  22  ar  
 39  19  42  1   
 40  20  23  ar  
 41  20  24  ar  
 42  21  25  ar  
 43  21  43  1   
 44  22  23  ar  
 45  22  44  1   
 46  24  26  ar  
 47  24  45  1   
 48  25  26  ar  
 49  25  46  1   
 50  26  47  1   
@<TRIPOS>SUBSTRUCTURE
  1 ****  12 GROUP 4 **** **** 0

# MOE 2024.06 (io_trps.svl 2023.06)
