@<TRIPOS>MOLECULE
NONAME
49 51 1 0 0 
SMALL
USER_CHARGES


@<TRIPOS>ATOM
  1 S        0.5500    -0.3500     2.2450 S.o2  1 <1>   1.4470 
  2 O        1.3110    -1.4960     2.6970 O.2   1 <1>  -0.6500 
  3 O        0.0700     0.6050     3.2210 O.2   1 <1>  -0.6500 
  4 N        1.5460     0.4920     1.1610 N.am  1 <1>  -0.8490 
  5 C       -0.8330    -0.8860     1.2000 C.ar  1 <1>  -0.0090 
  6 C        2.4700     1.4260     1.8390 C.3   1 <1>   0.1960 
  7 C        2.2180    -0.4010     0.2020 C.3   1 <1>   0.1960 
  8 C       -1.2470    -0.1280     0.1100 C.ar  1 <1>  -0.1500 
  9 C       -1.5120    -2.0690     1.4650 C.ar  1 <1>  -0.1500 
 10 C        3.1600     2.4670     0.9150 C.3   1 <1>   0.2200 
 11 C        2.8070     0.3270    -1.0220 C.3   1 <1>  -0.0190 
 12 C       -2.2920    -0.5320    -0.7040 C.ar  1 <1>  -0.1440 
 13 C       -2.5660    -2.4950     0.6750 C.ar  1 <1>  -0.1440 
 14 N        2.4120     2.7080    -0.3620 N.am  1 <1>  -0.6600 
 15 C        4.6340     2.1150     0.6310 C.3   1 <1>   0.1200 
 16 C        2.1880     1.6940    -1.2550 C.2   1 <1>   0.5690 
 17 C        4.3390     0.4150    -0.9930 C.3   1 <1>   0.1200 
 18 C       -2.9630    -1.7130    -0.4050 C.ar  1 <1>   0.0820 
 19 C       -2.6630     0.3260    -1.9060 C.3   1 <1>  -0.0960 
 20 C       -3.2650    -3.8080     0.9990 C.3   1 <1>  -0.0960 
 21 C        1.7640     4.0410    -0.5020 C.3   1 <1>   0.0600 
 22 O        4.8140     0.7780     0.2670 O.3   1 <1>  -0.5600 
 23 O        1.5190     1.8470    -2.2520 O.2   1 <1>  -0.5700 
 24 O       -3.9990    -2.1140    -1.1740 O.3   1 <1>  -0.3630 
 25 C       -5.2650    -1.6090    -0.8190 C.3   1 <1>   0.0400 
 26 H        1.9120     1.9950     2.5620 H     1 <1>   0.0800 
 27 H        3.2100     0.8690     2.3900 H     1 <1>   0.0800 
 28 H        2.9810    -0.9730     0.7050 H     1 <1>   0.0800 
 29 H        1.4930    -1.1060    -0.1700 H     1 <1>   0.0800 
 30 H       -0.7350     0.7950    -0.1110 H     1 <1>   0.1500 
 31 H       -1.1990    -2.6640     2.3060 H     1 <1>   0.1500 
 32 H        3.1850     3.3950     1.4580 H     1 <1>   0.0800 
 33 H        2.5680    -0.2680    -1.8840 H     1 <1>   0.0800 
 34 H        5.2070     2.2640     1.5280 H     1 <1>   0.0800 
 35 H        5.0410     2.7510    -0.1370 H     1 <1>   0.0800 
 36 H        4.7070     1.1120    -1.7270 H     1 <1>   0.0800 
 37 H        4.7540    -0.5540    -1.2090 H     1 <1>   0.0800 
 38 H       -1.8240     0.9220    -2.2200 H     1 <1>   0.0800 
 39 H       -3.4760     0.9800    -1.6530 H     1 <1>   0.0800 
 40 H       -2.9570    -0.2960    -2.7330 H     1 <1>   0.0800 
 41 H       -2.6720    -4.4060     1.6660 H     1 <1>   0.0800 
 42 H       -3.4280    -4.3710     0.0970 H     1 <1>   0.0800 
 43 H       -4.2150    -3.6130     1.4620 H     1 <1>   0.0800 
 44 H        2.5070     4.8170    -0.4440 H     1 <1>   0.0800 
 45 H        1.0410     4.1750     0.2820 H     1 <1>   0.0800 
 46 H        1.2600     4.1210    -1.4500 H     1 <1>   0.0800 
 47 H       -5.9910    -2.0090    -1.5040 H     1 <1>   0.0800 
 48 H       -5.2450    -0.5360    -0.8860 H     1 <1>   0.0800 
 49 H       -5.4940    -1.9160     0.1850 H     1 <1>   0.0800 
@<TRIPOS>BOND
  1   1   2  2   
  2   1   3  2   
  3   1   4  am  
  4   1   5  1   
  5   4   6  1   
  6   4   7  1   
  7   5   8  ar  
  8   5   9  ar  
  9   6  10  1   
 10   6  26  1   
 11   6  27  1   
 12   7  11  1   
 13   7  28  1   
 14   7  29  1   
 15   8  12  ar  
 16   8  30  1   
 17   9  13  ar  
 18   9  31  1   
 19  10  14  1   
 20  10  15  1   
 21  10  32  1   
 22  11  16  1   
 23  11  17  1   
 24  11  33  1   
 25  12  18  ar  
 26  12  19  1   
 27  13  18  ar  
 28  13  20  1   
 29  14  16  am  
 30  14  21  1   
 31  15  22  1   
 32  15  34  1   
 33  15  35  1   
 34  16  23  2   
 35  17  22  1   
 36  17  36  1   
 37  17  37  1   
 38  18  24  1   
 39  19  38  1   
 40  19  39  1   
 41  19  40  1   
 42  20  41  1   
 43  20  42  1   
 44  20  43  1   
 45  21  44  1   
 46  21  45  1   
 47  21  46  1   
 48  24  25  1   
 49  25  47  1   
 50  25  48  1   
 51  25  49  1   
@<TRIPOS>SUBSTRUCTURE
  1 ****   4 GROUP 4 **** **** 0

# MOE 2024.06 (io_trps.svl 2023.06)
