@<TRIPOS>MOLECULE
NONAME
47 48 1 0 0 
SMALL
USER_CHARGES


@<TRIPOS>ATOM
  1 S        0.3830     0.0440     0.6490 S.o2  1 <1>   1.3330 
  2 O       -0.7400     0.0440     1.5590 O.2   1 <1>  -0.6500 
  3 O        1.7280     0.1180     1.1710 O.2   1 <1>  -0.6500 
  4 N        0.2800    -1.3380    -0.3310 N.am  1 <1>  -0.8490 
  5 C        0.1320     1.3790    -0.5190 C.3   1 <1>  -0.0550 
  6 C       -0.2210    -2.5030     0.4040 C.3   1 <1>   0.1160 
  7 C        1.5420    -1.6750    -0.9980 C.3   1 <1>   0.1160 
  8 C        0.0870     2.7640     0.1480 C.3   1 <1>  -0.0800 
  9 C       -0.2650     3.8730    -0.8380 C.3   1 <1>   0.2000 
 10 C        1.4190     3.2160     0.7510 C.3   1 <1>   0.1400 
 11 O       -1.6370     3.9320    -1.0190 O.3   1 <1>  -0.6800 
 12 C        0.2860     5.1520    -0.2140 C.3   1 <1>   0.1400 
 13 N        1.4180     4.6950     0.6300 N.am  1 <1>  -0.6600 
 14 C        2.5330     5.4540     0.9050 C.2   1 <1>   0.5440 
 15 O        3.5600     4.8840     1.2200 O.2   1 <1>  -0.5700 
 16 C        2.5070     6.9020     0.8030 C.ar  1 <1>   0.0860 
 17 C        3.4960     7.5870     0.1020 C.ar  1 <1>  -0.1500 
 18 C        1.5000     7.6600     1.3950 C.ar  1 <1>  -0.1500 
 19 C        3.4820     8.9660    -0.0300 C.ar  1 <1>  -0.1440 
 20 C        1.4720     9.0360     1.2720 C.ar  1 <1>  -0.1500 
 21 C        2.4570     9.7000     0.5570 C.ar  1 <1>  -0.1440 
 22 C        4.5950     9.6450    -0.8160 C.3   1 <1>  -0.0970 
 23 C        2.3940    11.2160     0.4410 C.3   1 <1>  -0.0970 
 24 H        0.9090     1.3630    -1.2570 H     1 <1>   0.0800 
 25 H       -0.8010     1.2160    -1.0240 H     1 <1>   0.0800 
 26 H       -0.2890    -3.3560    -0.2490 H     1 <1>   0.0800 
 27 H       -1.2050    -2.2990     0.7920 H     1 <1>   0.0800 
 28 H        0.4340    -2.7360     1.2280 H     1 <1>   0.0800 
 29 H        1.3950    -2.5010    -1.6730 H     1 <1>   0.0800 
 30 H        2.2920    -1.9440    -0.2720 H     1 <1>   0.0800 
 31 H        1.8990    -0.8330    -1.5660 H     1 <1>   0.0800 
 32 H       -0.6380     2.7540     0.9450 H     1 <1>   0.0800 
 33 H        0.1980     3.7090    -1.7970 H     1 <1>   0.0800 
 34 H        2.2550     2.8190     0.1970 H     1 <1>   0.0800 
 35 H        1.5120     2.9210     1.7840 H     1 <1>   0.0800 
 36 H       -2.0940     4.0150    -0.1590 H     1 <1>   0.4000 
 37 H       -0.4540     5.6210     0.4110 H     1 <1>   0.0800 
 38 H        0.6240     5.8360    -0.9730 H     1 <1>   0.0800 
 39 H        4.2880     7.0100    -0.3420 H     1 <1>   0.1500 
 40 H        0.7350     7.1610     1.9630 H     1 <1>   0.1500 
 41 H        0.6780     9.5900     1.7400 H     1 <1>   0.1500 
 42 H        5.3010     8.9230    -1.1860 H     1 <1>   0.0800 
 43 H        5.1230    10.3370    -0.1840 H     1 <1>   0.0800 
 44 H        4.1840    10.1760    -1.6540 H     1 <1>   0.0800 
 45 H        1.5300    11.6070     0.9480 H     1 <1>   0.0800 
 46 H        2.3380    11.5050    -0.5930 H     1 <1>   0.0800 
 47 H        3.2710    11.6550     0.8820 H     1 <1>   0.0800 
@<TRIPOS>BOND
  1   1   2  2   
  2   1   3  2   
  3   1   4  am  
  4   1   5  1   
  5   4   6  1   
  6   4   7  1   
  7   5   8  1   
  8   5  24  1   
  9   5  25  1   
 10   6  26  1   
 11   6  27  1   
 12   6  28  1   
 13   7  29  1   
 14   7  30  1   
 15   7  31  1   
 16   8   9  1   
 17   8  10  1   
 18   8  32  1   
 19   9  11  1   
 20   9  12  1   
 21   9  33  1   
 22  10  13  1   
 23  10  34  1   
 24  10  35  1   
 25  11  36  1   
 26  12  13  1   
 27  12  37  1   
 28  12  38  1   
 29  13  14  am  
 30  14  15  2   
 31  14  16  1   
 32  16  17  ar  
 33  16  18  ar  
 34  17  19  ar  
 35  17  39  1   
 36  18  20  ar  
 37  18  40  1   
 38  19  21  ar  
 39  19  22  1   
 40  20  21  ar  
 41  20  41  1   
 42  21  23  1   
 43  22  42  1   
 44  22  43  1   
 45  22  44  1   
 46  23  45  1   
 47  23  46  1   
 48  23  47  1   
@<TRIPOS>SUBSTRUCTURE
  1 ****  13 GROUP 4 **** **** 0

# MOE 2024.06 (io_trps.svl 2023.06)
