@<TRIPOS>MOLECULE
NONAME
49 51 1 0 0 
SMALL
USER_CHARGES


@<TRIPOS>ATOM
  1 O       -2.2080    -2.2830    -1.1470 O.3   1 <1>  -0.5600 
  2 C       -1.4880    -1.6900    -0.1130 C.3   1 <1>   0.1200 
  3 C       -2.4440    -1.5200    -2.2830 C.3   1 <1>   0.1200 
  4 C       -2.2290    -0.5160     0.5660 C.3   1 <1>   0.4230 
  5 C       -3.5200    -0.4530    -2.0250 C.3   1 <1>  -0.0800 
  6 N       -2.1070     0.7670    -0.2350 N.4   1 <1>  -0.9590 
  7 C       -3.6760    -0.8930     1.0000 C.3   1 <1>   0.1100 
  8 C       -4.7260    -0.9650    -1.2110 C.3   1 <1>   0.1100 
  9 C       -2.9650     0.8640    -1.4690 C.3   1 <1>   0.3430 
 10 C       -2.4200     1.9340     0.6400 C.3   1 <1>   0.2630 
 11 N       -4.7740    -0.3780     0.1420 N.3   1 <1>  -0.8100 
 12 C       -6.1020    -0.5730     0.7740 C.3   1 <1>   0.2530 
 13 C       -6.4010    -2.0320     1.1110 C.ar  1 <1>  -0.1440 
 14 C       -6.9430    -2.8790     0.1580 C.ar  1 <1>  -0.1500 
 15 C       -6.1470    -2.5260     2.3830 C.ar  1 <1>  -0.1500 
 16 C       -7.2080    -4.2070     0.4500 C.ar  1 <1>   0.0820 
 17 C       -6.4120    -3.8500     2.6880 C.ar  1 <1>  -0.1500 
 18 O       -7.7220    -4.9590    -0.5540 O.3   1 <1>  -0.3630 
 19 C       -6.9390    -4.6940     1.7260 C.ar  1 <1>  -0.1500 
 20 C       -7.9720    -6.3370    -0.3810 C.3   1 <1>   0.1200 
 21 C       -8.5220    -6.8950    -1.6920 C.3   1 <1>   0.1200 
 22 O       -8.6850    -8.2690    -1.5740 O.3   1 <1>  -0.6800 
 23 H       -1.3280    -2.4630     0.6180 H     1 <1>   0.0800 
 24 H       -0.5270    -1.3860    -0.4860 H     1 <1>   0.0800 
 25 H       -1.5180    -1.0930    -2.6280 H     1 <1>   0.0800 
 26 H       -2.7990    -2.2040    -3.0360 H     1 <1>   0.0800 
 27 H       -1.6860    -0.3590     1.4820 H     1 <1>   0.0800 
 28 H       -3.9100    -0.2090    -2.9970 H     1 <1>   0.0800 
 29 H       -1.1290     0.8340    -0.5400 H     1 <1>   0.4500 
 30 H       -3.8200    -0.5110     1.9950 H     1 <1>   0.0800 
 31 H       -3.7470    -1.9670     1.0700 H     1 <1>   0.0800 
 32 H       -4.7140    -2.0420    -1.1530 H     1 <1>   0.0800 
 33 H       -5.6240    -0.6840    -1.7360 H     1 <1>   0.0800 
 34 H       -3.8160     1.4900    -1.2500 H     1 <1>   0.0800 
 35 H       -2.4020     1.3560    -2.2440 H     1 <1>   0.0800 
 36 H       -3.4490     1.8850     0.9600 H     1 <1>   0.0800 
 37 H       -2.2690     2.8570     0.1040 H     1 <1>   0.0800 
 38 H       -1.7860     1.9340     1.5120 H     1 <1>   0.0800 
 39 H       -6.1500     0.0130     1.6750 H     1 <1>   0.0800 
 40 H       -6.8690    -0.1970     0.1170 H     1 <1>   0.0800 
 41 H       -7.1680    -2.5210    -0.8300 H     1 <1>   0.1500 
 42 H       -5.7430    -1.8840     3.1450 H     1 <1>   0.1500 
 43 H       -6.2110    -4.2250     3.6760 H     1 <1>   0.1500 
 44 H       -7.1340    -5.7150     1.9890 H     1 <1>   0.1500 
 45 H       -7.0430    -6.8140    -0.1240 H     1 <1>   0.0800 
 46 H       -8.6960    -6.4540     0.4060 H     1 <1>   0.0800 
 47 H       -7.8460    -6.7030    -2.5070 H     1 <1>   0.0800 
 48 H       -9.4850    -6.4650    -1.9050 H     1 <1>   0.0800 
 49 H       -7.8200    -8.7220    -1.5520 H     1 <1>   0.4000 
@<TRIPOS>BOND
  1   1   2  1   
  2   1   3  1   
  3   2   4  1   
  4   2  23  1   
  5   2  24  1   
  6   3   5  1   
  7   3  25  1   
  8   3  26  1   
  9   4   6  1   
 10   4   7  1   
 11   4  27  1   
 12   5   8  1   
 13   5   9  1   
 14   5  28  1   
 15   6   9  1   
 16   6  10  1   
 17   6  29  1   
 18   7  11  1   
 19   7  30  1   
 20   7  31  1   
 21   8  11  1   
 22   8  32  1   
 23   8  33  1   
 24   9  34  1   
 25   9  35  1   
 26  10  36  1   
 27  10  37  1   
 28  10  38  1   
 29  11  12  1   
 30  12  13  1   
 31  12  39  1   
 32  12  40  1   
 33  13  14  ar  
 34  13  15  ar  
 35  14  16  ar  
 36  14  41  1   
 37  15  17  ar  
 38  15  42  1   
 39  16  18  1   
 40  16  19  ar  
 41  17  19  ar  
 42  17  43  1   
 43  18  20  1   
 44  19  44  1   
 45  20  21  1   
 46  20  45  1   
 47  20  46  1   
 48  21  22  1   
 49  21  47  1   
 50  21  48  1   
 51  22  49  1   
@<TRIPOS>SUBSTRUCTURE
  1 ****  13 GROUP 4 **** **** 0

# MOE 2024.06 (io_trps.svl 2023.06)
