@<TRIPOS>MOLECULE
NONAME
50 52 1 0 0 
SMALL
USER_CHARGES


@<TRIPOS>ATOM
  1 F       -2.0730    -0.7540    -2.4100 F     1 <1>  -0.1900 
  2 C       -2.2790    -1.8270    -1.6950 C.ar  1 <1>   0.1900 
  3 C       -3.2120    -1.7780    -0.6770 C.ar  1 <1>  -0.1500 
  4 C       -1.5600    -2.9700    -1.9860 C.ar  1 <1>  -0.1500 
  5 C       -3.4430    -2.9160     0.0840 C.ar  1 <1>  -0.1440 
  6 C       -1.7850    -4.1010    -1.2220 C.ar  1 <1>  -0.1500 
  7 C       -2.7170    -4.0720    -0.1950 C.ar  1 <1>  -0.1500 
  8 C       -4.4830    -2.8770     1.2040 C.3   1 <1>   0.4040 
  9 O       -3.8110    -2.5900     2.3900 O.3   1 <1>  -0.6800 
 10 C       -5.3020    -4.1870     1.3240 C.2   1 <1>   0.5690 
 11 O       -4.9490    -4.9930     2.1620 O.2   1 <1>  -0.5700 
 12 N       -6.3910    -4.4390     0.5150 N.am  1 <1>  -0.6600 
 13 C       -7.2310    -5.6600     0.7120 C.3   1 <1>   0.1400 
 14 C       -6.8180    -3.5600    -0.6070 C.3   1 <1>   0.1400 
 15 C       -8.6820    -5.3150     1.0790 C.3   1 <1>   0.1400 
 16 C       -7.9920    -2.6920    -0.1470 C.3   1 <1>  -0.1600 
 17 N       -9.4510    -4.7940    -0.0960 N.am  1 <1>  -0.6600 
 18 C       -9.3700    -3.3280    -0.3800 C.3   1 <1>   0.1400 
 19 C      -10.4410    -5.5410    -0.7060 C.2   1 <1>   0.7150 
 20 O      -11.2760    -4.9650    -1.3800 O.2   1 <1>  -0.5700 
 21 C      -10.5370    -6.9640    -0.5440 C.2   1 <1>  -0.2370 
 22 N      -11.6990    -7.6060    -0.2580 N.pl3 1 <1>   0.3140 
 23 C       -9.6010    -7.9500    -0.6320 C.2   1 <1>  -0.1500 
 24 N      -11.5300    -8.9310    -0.1320 N.2   1 <1>  -0.7070 
 25 C      -13.0310    -7.0050    -0.0850 C.3   1 <1>   0.0160 
 26 C      -10.2720    -9.1280    -0.3640 C.2   1 <1>   0.1080 
 27 C       -9.6590   -10.5080    -0.3380 C.3   1 <1>  -0.0590 
 28 H       -3.7360    -0.8590    -0.4870 H     1 <1>   0.1500 
 29 H       -0.8420    -2.9680    -2.7870 H     1 <1>   0.1500 
 30 H       -1.2350    -5.0050    -1.4220 H     1 <1>   0.1500 
 31 H       -2.8690    -4.9640     0.3900 H     1 <1>   0.1500 
 32 H       -5.1610    -2.0610     1.0380 H     1 <1>   0.0800 
 33 H       -3.5650    -3.4490     2.7940 H     1 <1>   0.4000 
 34 H       -6.8230    -6.2650     1.5020 H     1 <1>   0.0800 
 35 H       -7.2110    -6.2510    -0.1860 H     1 <1>   0.0800 
 36 H       -7.1030    -4.1590    -1.4560 H     1 <1>   0.0800 
 37 H       -6.0030    -2.9330    -0.9200 H     1 <1>   0.0800 
 38 H       -8.6890    -4.5910     1.8750 H     1 <1>   0.0800 
 39 H       -9.1580    -6.2010     1.4600 H     1 <1>   0.0800 
 40 H       -7.9710    -1.7720    -0.7020 H     1 <1>   0.0800 
 41 H       -7.8780    -2.4300     0.8900 H     1 <1>   0.0800 
 42 H       -9.6330    -3.1690    -1.4130 H     1 <1>   0.0800 
 43 H      -10.1060    -2.8170     0.2170 H     1 <1>   0.0800 
 44 H       -8.5580    -7.8640    -0.8690 H     1 <1>   0.1500 
 45 H      -12.9730    -6.2090     0.6320 H     1 <1>   0.0800 
 46 H      -13.7160    -7.7560     0.2630 H     1 <1>   0.0800 
 47 H      -13.3670    -6.6210    -1.0300 H     1 <1>   0.0800 
 48 H       -8.6110   -10.4610    -0.5660 H     1 <1>   0.0800 
 49 H      -10.1510   -11.1300    -1.0630 H     1 <1>   0.0800 
 50 H       -9.7910   -10.9400     0.6370 H     1 <1>   0.0800 
@<TRIPOS>BOND
  1   1   2  1   
  2   2   3  ar  
  3   2   4  ar  
  4   3   5  ar  
  5   3  28  1   
  6   4   6  ar  
  7   4  29  1   
  8   5   7  ar  
  9   5   8  1   
 10   6   7  ar  
 11   6  30  1   
 12   7  31  1   
 13   8   9  1   
 14   8  10  1   
 15   8  32  1   
 16   9  33  1   
 17  10  11  2   
 18  10  12  am  
 19  12  13  1   
 20  12  14  1   
 21  13  15  1   
 22  13  34  1   
 23  13  35  1   
 24  14  16  1   
 25  14  36  1   
 26  14  37  1   
 27  15  17  1   
 28  15  38  1   
 29  15  39  1   
 30  16  18  1   
 31  16  40  1   
 32  16  41  1   
 33  17  18  1   
 34  17  19  am  
 35  18  42  1   
 36  18  43  1   
 37  19  20  2   
 38  19  21  1   
 39  21  22  1   
 40  21  23  2   
 41  22  24  1   
 42  22  25  1   
 43  23  26  1   
 44  23  44  1   
 45  24  26  2   
 46  25  45  1   
 47  25  46  1   
 48  25  47  1   
 49  26  27  1   
 50  27  48  1   
 51  27  49  1   
 52  27  50  1   
@<TRIPOS>SUBSTRUCTURE
  1 ****  12 GROUP 4 **** **** 0

# MOE 2024.06 (io_trps.svl 2023.06)
