@<TRIPOS>MOLECULE
NONAME
47 49 1 0 0 
SMALL
USER_CHARGES


@<TRIPOS>ATOM
  1 CL       1.4990     0.0490     1.6940 Cl    1 <1>  -0.1770 
  2 C        1.7260    -1.4500     0.8090 C.ar  1 <1>   0.1770 
  3 C        0.7050    -2.3870     0.6800 C.ar  1 <1>   0.4100 
  4 C        2.9310    -1.7270     0.2280 C.ar  1 <1>   0.1600 
  5 N        0.8960    -3.5140     0.0110 N.ar  1 <1>  -0.6200 
  6 N       -0.5620    -2.2160     1.2040 N.pl3 1 <1>  -0.8380 
  7 N        3.1350    -2.8490    -0.4410 N.ar  1 <1>  -0.6200 
  8 C        2.1050    -3.6750    -0.5060 C.ar  1 <1>   0.4770 
  9 C       -1.1360    -3.2360     2.1380 C.3   1 <1>   0.2090 
 10 C       -1.4860    -1.2170     0.6130 C.3   1 <1>   0.2090 
 11 C        2.3410    -4.9590    -1.2660 C.3   1 <1>  -0.0960 
 12 C       -2.2380    -4.0850     1.4720 C.3   1 <1>   0.3430 
 13 C       -2.0050    -1.7280    -0.7350 C.3   1 <1>  -0.1600 
 14 N       -2.0590    -4.1180    -0.0170 N.4   1 <1>  -0.9590 
 15 C       -2.8200    -3.0240    -0.6770 C.3   1 <1>   0.3430 
 16 C       -2.2690    -5.4380    -0.6650 C.3   1 <1>   0.4230 
 17 C       -3.6870    -5.9800    -0.4200 C.3   1 <1>  -0.1600 
 18 C       -1.2070    -6.4420    -0.1960 C.3   1 <1>  -0.1600 
 19 C       -3.8780    -7.3360    -1.1160 C.3   1 <1>  -0.1600 
 20 C       -1.3900    -7.7960    -0.8970 C.3   1 <1>  -0.1600 
 21 C       -2.8070    -8.3440    -0.6770 C.3   1 <1>  -0.1600 
 22 H        3.7430    -1.0260     0.3100 H     1 <1>   0.1500 
 23 H       -1.5280    -2.7490     3.0140 H     1 <1>   0.0800 
 24 H       -0.3470    -3.8930     2.4660 H     1 <1>   0.0800 
 25 H       -0.9600    -0.2890     0.4630 H     1 <1>   0.0800 
 26 H       -2.3030    -1.0240     1.2890 H     1 <1>   0.0800 
 27 H        1.5750    -5.0920    -2.0060 H     1 <1>   0.0800 
 28 H        2.3300    -5.7870    -0.5840 H     1 <1>   0.0800 
 29 H        3.2950    -4.9330    -1.7610 H     1 <1>   0.0800 
 30 H       -3.2020    -3.6710     1.7130 H     1 <1>   0.0800 
 31 H       -2.2000    -5.0790     1.8830 H     1 <1>   0.0800 
 32 H       -1.1770    -1.8570    -1.4100 H     1 <1>   0.0800 
 33 H       -2.6310    -0.9640    -1.1610 H     1 <1>   0.0800 
 34 H       -1.0530    -3.8580    -0.1320 H     1 <1>   0.4500 
 35 H       -3.0640    -3.3140    -1.6870 H     1 <1>   0.0800 
 36 H       -3.7460    -2.8540    -0.1510 H     1 <1>   0.0800 
 37 H       -2.1420    -5.3170    -1.7290 H     1 <1>   0.0800 
 38 H       -4.4200    -5.2950    -0.8050 H     1 <1>   0.0800 
 39 H       -3.8610    -6.1160     0.6320 H     1 <1>   0.0800 
 40 H       -1.2740    -6.6030     0.8640 H     1 <1>   0.0800 
 41 H       -0.2280    -6.0650    -0.4220 H     1 <1>   0.0800 
 42 H       -3.8260    -7.2060    -2.1840 H     1 <1>   0.0800 
 43 H       -4.8540    -7.7290    -0.8840 H     1 <1>   0.0800 
 44 H       -0.6700    -8.5020    -0.5180 H     1 <1>   0.0800 
 45 H       -1.2110    -7.6850    -1.9540 H     1 <1>   0.0800 
 46 H       -2.9270    -9.2590    -1.2330 H     1 <1>   0.0800 
 47 H       -2.9420    -8.5800     0.3650 H     1 <1>   0.0800 
@<TRIPOS>BOND
  1   1   2  1   
  2   2   3  ar  
  3   2   4  ar  
  4   3   5  ar  
  5   3   6  1   
  6   4   7  ar  
  7   4  22  1   
  8   5   8  ar  
  9   6   9  1   
 10   6  10  1   
 11   7   8  ar  
 12   8  11  1   
 13   9  12  1   
 14   9  23  1   
 15   9  24  1   
 16  10  13  1   
 17  10  25  1   
 18  10  26  1   
 19  11  27  1   
 20  11  28  1   
 21  11  29  1   
 22  12  14  1   
 23  12  30  1   
 24  12  31  1   
 25  13  15  1   
 26  13  32  1   
 27  13  33  1   
 28  14  15  1   
 29  14  16  1   
 30  14  34  1   
 31  15  35  1   
 32  15  36  1   
 33  16  17  1   
 34  16  18  1   
 35  16  37  1   
 36  17  19  1   
 37  17  38  1   
 38  17  39  1   
 39  18  20  1   
 40  18  40  1   
 41  18  41  1   
 42  19  21  1   
 43  19  42  1   
 44  19  43  1   
 45  20  21  1   
 46  20  44  1   
 47  20  45  1   
 48  21  46  1   
 49  21  47  1   
@<TRIPOS>SUBSTRUCTURE
  1 ****  14 GROUP 4 **** **** 0

# MOE 2024.06 (io_trps.svl 2023.06)
