@<TRIPOS>MOLECULE
NONAME
49 51 1 0 0 
SMALL
USER_CHARGES


@<TRIPOS>ATOM
  1 S       -2.0570    -1.2350     0.9640 S.o2  1 <1>   1.3330 
  2 O       -2.9780    -1.6970     1.9730 O.2   1 <1>  -0.6500 
  3 O       -1.0120    -0.2890     1.2620 O.2   1 <1>  -0.6500 
  4 N       -1.2860    -2.5820     0.3250 N.am  1 <1>  -0.9140 
  5 C       -2.9980    -0.5910    -0.4050 C.3   1 <1>  -0.1350 
  6 C       -2.1450    -3.6580    -0.1380 C.3   1 <1>   0.1960 
  7 C       -1.2870    -4.8750    -0.4580 C.3   1 <1>  -0.0990 
  8 C       -2.1780    -6.0010    -0.9170 C.2   1 <1>   0.5690 
  9 O       -2.7650    -5.8850    -1.9650 O.2   1 <1>  -0.5700 
 10 N       -2.3240    -7.0920    -0.1300 N.am  1 <1>  -0.7300 
 11 C       -3.2170    -8.2270    -0.4450 C.3   1 <1>   0.2200 
 12 C       -4.5940    -7.9430     0.1280 C.3   1 <1>  -0.0800 
 13 C       -2.7990    -9.4580     0.3500 C.3   1 <1>   0.1200 
 14 C       -4.4650    -8.4420     1.5720 C.3   1 <1>   0.1200 
 15 C       -5.6950    -8.6870    -0.6530 C.3   1 <1>  -0.0170 
 16 O       -3.3600    -9.3000     1.6170 O.3   1 <1>  -0.5600 
 17 C       -7.0840    -8.2670    -0.1840 C.ar  1 <1>  -0.1440 
 18 C       -7.6540    -7.0210    -0.5380 C.ar  1 <1>   0.0000 
 19 C       -7.8250    -9.0990     0.6030 C.ar  1 <1>  -0.1500 
 20 C       -8.9400    -6.7180    -0.0280 C.ar  1 <1>   0.3100 
 21 C       -7.0290    -6.0600    -1.3680 C.ar  1 <1>  -0.1500 
 22 C       -9.0940    -8.7060     1.0460 C.ar  1 <1>   0.1600 
 23 N       -9.6450    -7.5700     0.7590 N.ar  1 <1>  -0.6200 
 24 C       -9.5250    -5.4830    -0.3490 C.ar  1 <1>  -0.1500 
 25 C       -7.6290    -4.8670    -1.6650 C.ar  1 <1>  -0.1500 
 26 C       -8.8920    -4.5710    -1.1480 C.ar  1 <1>  -0.1500 
 27 H       -0.6290    -2.2600    -0.3820 H     1 <1>   0.4200 
 28 H       -3.7480    -1.2930    -0.7110 H     1 <1>   0.0800 
 29 H       -2.3540    -0.3760    -1.2350 H     1 <1>   0.0800 
 30 H       -3.4870     0.3170    -0.1100 H     1 <1>   0.0800 
 31 H       -2.8510    -3.9150     0.6370 H     1 <1>   0.0800 
 32 H       -2.6920    -3.3540    -1.0150 H     1 <1>   0.0800 
 33 H       -0.7370    -5.1740     0.4160 H     1 <1>   0.0800 
 34 H       -0.5960    -4.6450    -1.2470 H     1 <1>   0.0800 
 35 H       -1.9020    -7.1340     0.8010 H     1 <1>   0.3700 
 36 H       -3.2250    -8.4070    -1.5080 H     1 <1>   0.0800 
 37 H       -4.8070    -6.8890     0.1150 H     1 <1>   0.0800 
 38 H       -1.7310    -9.5590     0.4340 H     1 <1>   0.0800 
 39 H       -3.2160   -10.3500    -0.0830 H     1 <1>   0.0800 
 40 H       -5.3350    -8.9760     1.9110 H     1 <1>   0.0800 
 41 H       -4.2660    -7.6230     2.2420 H     1 <1>   0.0800 
 42 H       -5.5750    -9.7490    -0.5290 H     1 <1>   0.0800 
 43 H       -5.6050    -8.4830    -1.7060 H     1 <1>   0.0800 
 44 H       -7.4610   -10.0640     0.9060 H     1 <1>   0.1500 
 45 H       -6.0580    -6.2640    -1.7810 H     1 <1>   0.1500 
 46 H       -9.6440    -9.3930     1.6660 H     1 <1>   0.1500 
 47 H      -10.4980    -5.2780     0.0580 H     1 <1>   0.1500 
 48 H       -7.1410    -4.1460    -2.2980 H     1 <1>   0.1500 
 49 H       -9.3550    -3.6280    -1.3870 H     1 <1>   0.1500 
@<TRIPOS>BOND
  1   1   2  2   
  2   1   3  2   
  3   1   4  am  
  4   1   5  1   
  5   4   6  1   
  6   4  27  1   
  7   5  28  1   
  8   5  29  1   
  9   5  30  1   
 10   6   7  1   
 11   6  31  1   
 12   6  32  1   
 13   7   8  1   
 14   7  33  1   
 15   7  34  1   
 16   8   9  2   
 17   8  10  am  
 18  10  11  1   
 19  10  35  1   
 20  11  12  1   
 21  11  13  1   
 22  11  36  1   
 23  12  14  1   
 24  12  15  1   
 25  12  37  1   
 26  13  16  1   
 27  13  38  1   
 28  13  39  1   
 29  14  16  1   
 30  14  40  1   
 31  14  41  1   
 32  15  17  1   
 33  15  42  1   
 34  15  43  1   
 35  17  18  ar  
 36  17  19  ar  
 37  18  20  ar  
 38  18  21  ar  
 39  19  22  ar  
 40  19  44  1   
 41  20  23  ar  
 42  20  24  ar  
 43  21  25  ar  
 44  21  45  1   
 45  22  23  ar  
 46  22  46  1   
 47  24  26  ar  
 48  24  47  1   
 49  25  26  ar  
 50  25  48  1   
 51  26  49  1   
@<TRIPOS>SUBSTRUCTURE
  1 ****  12 GROUP 4 **** **** 0

# MOE 2024.06 (io_trps.svl 2023.06)
