@<TRIPOS>MOLECULE
NONAME
51 53 1 0 0 
SMALL
USER_CHARGES


@<TRIPOS>ATOM
  1 S        0.6700    -0.4150     2.4220 S.o2  1 <1>   1.4470 
  2 O        1.6770    -1.3220     2.9270 O.2   1 <1>  -0.6500 
  3 O        0.1250     0.5830     3.3120 O.2   1 <1>  -0.6500 
  4 N       -0.6250    -1.3840     1.9870 N.am  1 <1>  -0.9140 
  5 C        1.2510     0.3330     0.8790 C.ar  1 <1>  -0.0090 
  6 C       -0.2660    -2.6310     1.3300 C.3   1 <1>   0.2760 
  7 C        0.3910     1.0140     0.0250 C.ar  1 <1>   0.0830 
  8 C        2.5900     0.2470     0.5150 C.ar  1 <1>  -0.1500 
  9 C       -1.4420    -3.1300     0.5020 C.3   1 <1>  -0.0800 
 10 C       -0.1620    -3.7560     2.3580 C.3   1 <1>   0.1200 
 11 O       -0.9210     1.1300     0.3200 O.3   1 <1>  -0.3630 
 12 C        0.8460     1.5700    -1.1600 C.ar  1 <1>  -0.1500 
 13 C        3.0620     0.8100    -0.6680 C.ar  1 <1>   0.0830 
 14 C       -2.3030    -3.8580     1.5400 C.3   1 <1>   0.1200 
 15 C       -2.1950    -2.0560    -0.3070 C.3   1 <1>  -0.0160 
 16 O       -1.4810    -4.1100     2.6440 O.3   1 <1>  -0.5600 
 17 C       -1.3270     2.3590     0.8780 C.3   1 <1>   0.0400 
 18 C        2.1800     1.4740    -1.5140 C.ar  1 <1>  -0.1430 
 19 O        4.3670     0.7420    -1.0470 O.3   1 <1>  -0.3630 
 20 C       -3.2990    -2.6840    -1.1410 C.ar  1 <1>  -0.1430 
 21 C        2.6670     2.0930    -2.8160 C.3   1 <1>  -0.0970 
 22 C        5.3550     0.1760    -0.2130 C.3   1 <1>   0.0400 
 23 C       -4.6170    -2.6790    -0.7300 C.ar  1 <1>  -0.1500 
 24 C       -3.0390    -3.2950    -2.3500 C.ar  1 <1>  -0.1500 
 25 C       -5.5830    -3.2740    -1.5240 C.ar  1 <1>   0.1600 
 26 C       -4.0790    -3.8610    -3.0680 C.ar  1 <1>   0.1600 
 27 N       -5.3440    -3.8680    -2.6820 N.ar  1 <1>  -0.6200 
 28 H       -1.0770    -1.6390     2.8650 H     1 <1>   0.4200 
 29 H        0.6260    -2.5220     0.7340 H     1 <1>   0.0800 
 30 H        3.2590    -0.2710     1.1760 H     1 <1>   0.1500 
 31 H       -1.0720    -3.8700    -0.1850 H     1 <1>   0.0800 
 32 H        0.3400    -3.4650     3.2640 H     1 <1>   0.0800 
 33 H        0.3250    -4.6160     1.9330 H     1 <1>   0.0800 
 34 H        0.1460     2.0750    -1.8010 H     1 <1>   0.1500 
 35 H       -2.6830    -4.7920     1.1620 H     1 <1>   0.0800 
 36 H       -3.1190    -3.2430     1.8780 H     1 <1>   0.0800 
 37 H       -1.5060    -1.5430    -0.9540 H     1 <1>   0.0800 
 38 H       -2.6230    -1.3170     0.3490 H     1 <1>   0.0800 
 39 H       -2.3760     2.2950     1.1030 H     1 <1>   0.0800 
 40 H       -1.1480     3.1460     0.1670 H     1 <1>   0.0800 
 41 H       -0.7700     2.5360     1.7820 H     1 <1>   0.0800 
 42 H        1.8620     2.5600    -3.3520 H     1 <1>   0.0800 
 43 H        3.1020     1.3330    -3.4410 H     1 <1>   0.0800 
 44 H        3.4170     2.8350    -2.6070 H     1 <1>   0.0800 
 45 H        6.3050     0.2770    -0.7060 H     1 <1>   0.0800 
 46 H        5.1320    -0.8650    -0.0610 H     1 <1>   0.0800 
 47 H        5.3710     0.7090     0.7210 H     1 <1>   0.0800 
 48 H       -4.9020    -2.2180     0.1980 H     1 <1>   0.1500 
 49 H       -2.0390    -3.3350    -2.7410 H     1 <1>   0.1500 
 50 H       -6.6060    -3.2620    -1.1890 H     1 <1>   0.1500 
 51 H       -3.8590    -4.3340    -4.0100 H     1 <1>   0.1500 
@<TRIPOS>BOND
  1   1   2  2   
  2   1   3  2   
  3   1   4  am  
  4   1   5  1   
  5   4   6  1   
  6   4  28  1   
  7   5   7  ar  
  8   5   8  ar  
  9   6   9  1   
 10   6  10  1   
 11   6  29  1   
 12   7  11  1   
 13   7  12  ar  
 14   8  13  ar  
 15   8  30  1   
 16   9  14  1   
 17   9  15  1   
 18   9  31  1   
 19  10  16  1   
 20  10  32  1   
 21  10  33  1   
 22  11  17  1   
 23  12  18  ar  
 24  12  34  1   
 25  13  18  ar  
 26  13  19  1   
 27  14  16  1   
 28  14  35  1   
 29  14  36  1   
 30  15  20  1   
 31  15  37  1   
 32  15  38  1   
 33  17  39  1   
 34  17  40  1   
 35  17  41  1   
 36  18  21  1   
 37  19  22  1   
 38  20  23  ar  
 39  20  24  ar  
 40  21  42  1   
 41  21  43  1   
 42  21  44  1   
 43  22  45  1   
 44  22  46  1   
 45  22  47  1   
 46  23  25  ar  
 47  23  48  1   
 48  24  26  ar  
 49  24  49  1   
 50  25  27  ar  
 51  25  50  1   
 52  26  27  ar  
 53  26  51  1   
@<TRIPOS>SUBSTRUCTURE
  1 ****   4 GROUP 4 **** **** 0

# MOE 2024.06 (io_trps.svl 2023.06)
