@<TRIPOS>MOLECULE
NONAME
47 49 1 0 0 
SMALL
USER_CHARGES


@<TRIPOS>ATOM
  1 O        0.6710     0.3480     1.1630 O.2   1 <1>  -0.5700 
  2 C        1.7810     0.1500     0.7390 C.2   1 <1>   0.5950 
  3 C        2.3340    -1.1690     0.5810 C.2   1 <1>  -0.0860 
  4 C        2.6170     1.3490     0.3520 C.3   1 <1>  -0.1790 
  5 C        3.5360    -1.5790     0.0590 C.2   1 <1>  -0.3020 
  6 C        1.6870    -2.3570     0.9660 C.2   1 <1>  -0.1500 
  7 N        3.6480    -2.9240     0.1010 N.pl3 1 <1>   0.0480 
  8 C        2.4950    -3.4030     0.6540 C.2   1 <1>  -0.3320 
  9 C        4.8430    -3.6790    -0.3270 C.3   1 <1>   0.0160 
 10 C        2.2050    -4.8660     0.8780 C.3   1 <1>   0.5230 
 11 N        1.6110    -5.3640    -0.3830 N.4   1 <1>  -0.9590 
 12 C        0.2060    -4.8620    -0.5650 C.3   1 <1>   0.3430 
 13 C        1.5570    -6.8510    -0.4430 C.3   1 <1>   0.3430 
 14 C       -0.7170    -6.0850    -0.4640 C.3   1 <1>   0.2000 
 15 C        0.1600    -7.2290     0.0380 C.3   1 <1>  -0.0800 
 16 O       -1.7650    -5.8690     0.4160 O.3   1 <1>  -0.6800 
 17 C       -0.2930    -8.6130    -0.4530 C.3   1 <1>  -0.0170 
 18 C        0.7600    -9.6530    -0.1100 C.ar  1 <1>  -0.1430 
 19 C        1.5890   -10.2010    -1.0690 C.ar  1 <1>  -0.1500 
 20 C        0.9480   -10.0960     1.1850 C.ar  1 <1>  -0.1500 
 21 C        2.5560   -11.1200    -0.6930 C.ar  1 <1>   0.1600 
 22 C        1.9450   -11.0180     1.4550 C.ar  1 <1>   0.1600 
 23 N        2.7610   -11.5270     0.5480 N.ar  1 <1>  -0.6200 
 24 H        3.5480     1.3310     0.8870 H     1 <1>   0.0800 
 25 H        2.0930     2.2550     0.5970 H     1 <1>   0.0800 
 26 H        2.8080     1.3310    -0.7040 H     1 <1>   0.0800 
 27 H        4.3170    -0.9510    -0.3350 H     1 <1>   0.1500 
 28 H        0.7120    -2.3600     1.4280 H     1 <1>   0.1500 
 29 H        5.6020    -2.9920    -0.6560 H     1 <1>   0.0800 
 30 H        4.5900    -4.3350    -1.1380 H     1 <1>   0.0800 
 31 H        5.2260    -4.2480     0.5010 H     1 <1>   0.0800 
 32 H        1.5130    -4.9900     1.6950 H     1 <1>   0.0800 
 33 H        3.1180    -5.3910     1.1090 H     1 <1>   0.0800 
 34 H        2.1930    -4.9760    -1.1350 H     1 <1>   0.4500 
 35 H       -0.0480    -4.1390     0.1920 H     1 <1>   0.0800 
 36 H        0.0960    -4.4060    -1.5350 H     1 <1>   0.0800 
 37 H        1.6780    -7.1750    -1.4640 H     1 <1>   0.0800 
 38 H        2.3220    -7.3130     0.1610 H     1 <1>   0.0800 
 39 H       -1.1380    -6.2960    -1.4330 H     1 <1>   0.0800 
 40 H        0.1820    -7.2300     1.1140 H     1 <1>   0.0800 
 41 H       -1.4880    -5.8400     1.3530 H     1 <1>   0.4000 
 42 H       -0.4550    -8.6020    -1.5170 H     1 <1>   0.0800 
 43 H       -1.2280    -8.8780     0.0130 H     1 <1>   0.0800 
 44 H        1.4970    -9.9350    -2.1060 H     1 <1>   0.1500 
 45 H        0.3290    -9.7400     1.9890 H     1 <1>   0.1500 
 46 H        3.1950   -11.5420    -1.4510 H     1 <1>   0.1500 
 47 H        2.0790   -11.3570     2.4690 H     1 <1>   0.1500 
@<TRIPOS>BOND
  1   1   2  2   
  2   2   3  1   
  3   2   4  1   
  4   3   5  2   
  5   3   6  1   
  6   4  24  1   
  7   4  25  1   
  8   4  26  1   
  9   5   7  1   
 10   5  27  1   
 11   6   8  2   
 12   6  28  1   
 13   7   8  1   
 14   7   9  1   
 15   8  10  1   
 16   9  29  1   
 17   9  30  1   
 18   9  31  1   
 19  10  11  1   
 20  10  32  1   
 21  10  33  1   
 22  11  12  1   
 23  11  13  1   
 24  11  34  1   
 25  12  14  1   
 26  12  35  1   
 27  12  36  1   
 28  13  15  1   
 29  13  37  1   
 30  13  38  1   
 31  14  15  1   
 32  14  16  1   
 33  14  39  1   
 34  15  17  1   
 35  15  40  1   
 36  16  41  1   
 37  17  18  1   
 38  17  42  1   
 39  17  43  1   
 40  18  19  ar  
 41  18  20  ar  
 42  19  21  ar  
 43  19  44  1   
 44  20  22  ar  
 45  20  45  1   
 46  21  23  ar  
 47  21  46  1   
 48  22  23  ar  
 49  22  47  1   
@<TRIPOS>SUBSTRUCTURE
  1 ****  11 GROUP 4 **** **** 0

# MOE 2024.06 (io_trps.svl 2023.06)
