@<TRIPOS>MOLECULE
NONAME
51 53 1 0 0 
SMALL
USER_CHARGES


@<TRIPOS>ATOM
  1 F       -0.8150    -0.3510     0.4130 F     1 <1>  -0.1900 
  2 C       -2.0260     0.1410     0.4670 C.ar  1 <1>   0.1900 
  3 C       -2.2660     1.4980     0.7080 C.ar  1 <1>   0.0830 
  4 C       -3.0610    -0.7520     0.2770 C.ar  1 <1>  -0.1500 
  5 O       -1.3350     2.4740     0.9100 O.3   1 <1>  -0.3630 
  6 C       -3.5860     1.9190     0.7490 C.ar  1 <1>  -0.1500 
  7 C       -4.3660    -0.2980     0.3260 C.ar  1 <1>  -0.1500 
  8 C        0.0540     2.2350     0.8560 C.3   1 <1>   0.0400 
  9 C       -4.6620     1.0470     0.5610 C.ar  1 <1>   0.0530 
 10 C       -6.0210     1.5340     0.6170 C.2   1 <1>   0.0870 
 11 O       -6.2950     2.6420     1.2590 O.3   1 <1>  -0.0190 
 12 C       -7.2010     1.0680     0.1260 C.2   1 <1>  -0.0860 
 13 N       -7.5640     2.9520     1.2300 N.2   1 <1>  -0.4100 
 14 C       -8.1330     2.0250     0.5420 C.2   1 <1>   0.3720 
 15 C       -7.4770    -0.1040    -0.6400 C.2   1 <1>   0.7160 
 16 N       -9.5070     2.0050     0.2510 N.pl3 1 <1>  -0.8210 
 17 O       -6.9420    -0.2590    -1.7230 O.2   1 <1>  -0.5700 
 18 N       -8.2980    -1.1020    -0.1730 N.am  1 <1>  -0.6600 
 19 C       -9.8310     2.1980    -1.1900 C.3   1 <1>   0.1290 
 20 C      -10.3650     2.8490     1.1300 C.3   1 <1>   0.1290 
 21 C       -8.6090    -2.3330    -0.9370 C.3   1 <1>   0.1400 
 22 C       -9.0040    -1.0960     1.1240 C.3   1 <1>   0.1400 
 23 C       -9.5250    -3.1570    -0.0290 C.3   1 <1>   0.2200 
 24 C       -9.3640    -2.5570     1.3650 C.3   1 <1>  -0.1600 
 25 N       -9.1520    -4.5880    -0.0190 N.am  1 <1>  -0.7300 
 26 C       -9.8140    -5.5490    -0.7020 C.2   1 <1>   0.5690 
 27 O      -10.7720    -5.3070    -1.3910 O.2   1 <1>  -0.5700 
 28 C       -9.3210    -6.9680    -0.5950 C.3   1 <1>  -0.1790 
 29 H       -2.8450    -1.7890     0.0920 H     1 <1>   0.1500 
 30 H       -3.7760     2.9620     0.9310 H     1 <1>   0.1500 
 31 H       -5.1600    -1.0070     0.1800 H     1 <1>   0.1500 
 32 H        0.5610     3.1690     1.0230 H     1 <1>   0.0800 
 33 H        0.3070     1.8530    -0.1170 H     1 <1>   0.0800 
 34 H        0.3200     1.5340     1.6270 H     1 <1>   0.0800 
 35 H      -10.8630     1.9500    -1.3690 H     1 <1>   0.0800 
 36 H       -9.2170     1.5650    -1.8060 H     1 <1>   0.0800 
 37 H       -9.6600     3.2240    -1.4700 H     1 <1>   0.0800 
 38 H      -11.4020     2.6120     0.9710 H     1 <1>   0.0800 
 39 H      -10.2000     3.8920     0.9180 H     1 <1>   0.0800 
 40 H      -10.1230     2.6640     2.1630 H     1 <1>   0.0800 
 41 H       -9.1080    -2.0830    -1.8570 H     1 <1>   0.0800 
 42 H       -7.6950    -2.8600    -1.1510 H     1 <1>   0.0800 
 43 H       -8.3830    -0.7010     1.9100 H     1 <1>   0.0800 
 44 H       -9.8970    -0.5010     1.0350 H     1 <1>   0.0800 
 45 H      -10.5430    -3.0390    -0.3640 H     1 <1>   0.0800 
 46 H      -10.2650    -2.6460     1.9440 H     1 <1>   0.0800 
 47 H       -8.5510    -3.0260     1.8900 H     1 <1>   0.0800 
 48 H       -8.3240    -4.8290     0.5250 H     1 <1>   0.3700 
 49 H       -9.3140    -7.2740     0.4330 H     1 <1>   0.0800 
 50 H       -8.3300    -7.0390    -1.0020 H     1 <1>   0.0800 
 51 H       -9.9720    -7.6200    -1.1490 H     1 <1>   0.0800 
@<TRIPOS>BOND
  1   1   2  1   
  2   2   3  ar  
  3   2   4  ar  
  4   3   5  1   
  5   3   6  ar  
  6   4   7  ar  
  7   4  29  1   
  8   5   8  1   
  9   6   9  ar  
 10   6  30  1   
 11   7   9  ar  
 12   7  31  1   
 13   8  32  1   
 14   8  33  1   
 15   8  34  1   
 16   9  10  1   
 17  10  11  1   
 18  10  12  2   
 19  11  13  1   
 20  12  14  1   
 21  12  15  1   
 22  13  14  2   
 23  14  16  1   
 24  15  17  2   
 25  15  18  am  
 26  16  19  1   
 27  16  20  1   
 28  18  21  1   
 29  18  22  1   
 30  19  35  1   
 31  19  36  1   
 32  19  37  1   
 33  20  38  1   
 34  20  39  1   
 35  20  40  1   
 36  21  23  1   
 37  21  41  1   
 38  21  42  1   
 39  22  24  1   
 40  22  43  1   
 41  22  44  1   
 42  23  24  1   
 43  23  25  1   
 44  23  45  1   
 45  24  46  1   
 46  24  47  1   
 47  25  26  am  
 48  25  48  1   
 49  26  27  2   
 50  26  28  1   
 51  28  49  1   
 52  28  50  1   
 53  28  51  1   
@<TRIPOS>SUBSTRUCTURE
  1 ****  15 GROUP 4 **** **** 0

# MOE 2024.06 (io_trps.svl 2023.06)
