@<TRIPOS>MOLECULE
NONAME
49 52 1 0 0 
SMALL
USER_CHARGES


@<TRIPOS>ATOM
  1 F       -1.0440    -0.2560    -0.6500 F     1 <1>  -0.1900 
  2 C       -1.8420     0.7730    -0.5700 C.ar  1 <1>   0.1900 
  3 C       -1.3580     1.9630    -0.0980 C.ar  1 <1>  -0.1500 
  4 C       -3.1640     0.6090    -0.9650 C.ar  1 <1>  -0.1500 
  5 C       -2.1850     3.1050    -0.0320 C.ar  1 <1>   0.0000 
  6 C       -4.0140     1.6780    -0.8370 C.ar  1 <1>  -0.1500 
  7 C       -3.5540     2.9090    -0.3370 C.ar  1 <1>   0.3610 
  8 C       -1.7400     4.4080     0.3830 C.ar  1 <1>   0.1000 
  9 N       -4.4470     3.9250    -0.0900 N.ar  1 <1>  -0.1790 
 10 N       -0.4280     4.7720     0.4900 N.pl3 1 <1>  -0.8380 
 11 C       -2.7370     5.3490     0.6610 C.ar  1 <1>  -0.1500 
 12 C       -4.0670     5.1050     0.4260 C.ar  1 <1>   0.2180 
 13 C        0.0860     5.6200     1.6510 C.3   1 <1>   0.2090 
 14 C        0.6750     4.2460    -0.4120 C.3   1 <1>   0.2090 
 15 C       -5.1390     6.1430     0.7200 C.3   1 <1>  -0.0970 
 16 C        0.7530     6.9440     1.1920 C.3   1 <1>   0.4230 
 17 C        1.6920     5.2690    -0.9910 C.3   1 <1>  -0.0800 
 18 N        0.2850     7.2130    -0.2220 N.4   1 <1>  -0.9590 
 19 C        2.2890     6.8970     1.4050 C.3   1 <1>   0.1200 
 20 C        3.0150     5.3300    -0.2100 C.3   1 <1>   0.1200 
 21 C        1.1890     6.6900    -1.2770 C.3   1 <1>   0.3430 
 22 C        0.0560     8.7050    -0.4360 C.3   1 <1>   0.2370 
 23 O        2.8090     5.6250     1.1280 O.3   1 <1>  -0.5600 
 24 C        1.2720     9.5660    -0.0910 C.2   1 <1>   0.9060 
 25 O        1.3960     9.9170     1.0860 O.co2 1 <1>  -0.9000 
 26 O        2.1520     9.6890    -0.9440 O.co2 1 <1>  -0.9000 
 27 H       -0.3400     1.9980     0.2370 H     1 <1>   0.1500 
 28 H       -3.4870    -0.3470    -1.3440 H     1 <1>   0.1500 
 29 H       -5.0470     1.5580    -1.1170 H     1 <1>   0.1500 
 30 H       -5.4360     3.7400    -0.2770 H     1 <1>   0.4570 
 31 H       -2.4530     6.3100     1.0480 H     1 <1>   0.1500 
 32 H       -0.7220     5.8630     2.3160 H     1 <1>   0.0800 
 33 H        0.7730     5.0360     2.2400 H     1 <1>   0.0800 
 34 H        1.2300     3.4960     0.1280 H     1 <1>   0.0800 
 35 H        0.2130     3.7570    -1.2520 H     1 <1>   0.0800 
 36 H       -4.7040     7.0340     1.1380 H     1 <1>   0.0800 
 37 H       -5.8510     5.7580     1.4290 H     1 <1>   0.0800 
 38 H       -5.6570     6.4170    -0.1820 H     1 <1>   0.0800 
 39 H        0.3890     7.7390     1.8230 H     1 <1>   0.0800 
 40 H        1.9840     4.8790    -1.9490 H     1 <1>   0.0800 
 41 H       -0.5700     6.6450    -0.2980 H     1 <1>   0.4500 
 42 H        2.4930     7.0890     2.4430 H     1 <1>   0.0800 
 43 H        2.8110     7.6440     0.8320 H     1 <1>   0.0800 
 44 H        3.6860     6.0660    -0.6230 H     1 <1>   0.0800 
 45 H        3.5080     4.3730    -0.2450 H     1 <1>   0.0800 
 46 H        0.6600     6.6930    -2.2150 H     1 <1>   0.0800 
 47 H        2.0370     7.3500    -1.3850 H     1 <1>   0.0800 
 48 H       -0.1970     8.8990    -1.4620 H     1 <1>   0.0800 
 49 H       -0.7510     9.0450     0.1870 H     1 <1>   0.0800 
@<TRIPOS>BOND
  1   1   2  1   
  2   2   3  ar  
  3   2   4  ar  
  4   3   5  ar  
  5   3  27  1   
  6   4   6  ar  
  7   4  28  1   
  8   5   7  ar  
  9   5   8  ar  
 10   6   7  ar  
 11   6  29  1   
 12   7   9  ar  
 13   8  10  1   
 14   8  11  ar  
 15   9  12  ar  
 16   9  30  1   
 17  10  13  1   
 18  10  14  1   
 19  11  12  ar  
 20  11  31  1   
 21  12  15  1   
 22  13  16  1   
 23  13  32  1   
 24  13  33  1   
 25  14  17  1   
 26  14  34  1   
 27  14  35  1   
 28  15  36  1   
 29  15  37  1   
 30  15  38  1   
 31  16  18  1   
 32  16  19  1   
 33  16  39  1   
 34  17  20  1   
 35  17  21  1   
 36  17  40  1   
 37  18  21  1   
 38  18  22  1   
 39  18  41  1   
 40  19  23  1   
 41  19  42  1   
 42  19  43  1   
 43  20  23  1   
 44  20  44  1   
 45  20  45  1   
 46  21  46  1   
 47  21  47  1   
 48  22  24  1   
 49  22  48  1   
 50  22  49  1   
 51  24  25  ar  
 52  24  26  ar  
@<TRIPOS>SUBSTRUCTURE
  1 ****  10 GROUP 4 **** **** 0

# MOE 2024.06 (io_trps.svl 2023.06)
