@<TRIPOS>MOLECULE
NONAME
54 56 1 0 0 
SMALL
USER_CHARGES


@<TRIPOS>ATOM
  1 O       -0.2540    -1.2110    -0.1020 O.2   1 <1>  -0.5700 
  2 C        0.7220    -1.9200    -0.0700 C.2   1 <1>   0.5690 
  3 N        1.0720    -2.7670    -1.0870 N.am  1 <1>  -0.6600 
  4 C        1.6170    -1.8850     1.1520 C.3   1 <1>  -0.0990 
  5 C        2.2830    -3.6180    -0.9720 C.3   1 <1>   0.1400 
  6 C        0.2540    -2.9230    -2.3190 C.3   1 <1>   0.0600 
  7 C        3.0950    -1.8180     0.7310 C.3   1 <1>  -0.0800 
  8 C        3.4610    -2.7980    -0.4100 C.3   1 <1>  -0.0800 
  9 C        4.0650    -2.1030     1.8840 C.3   1 <1>  -0.1600 
 10 C        4.5920    -3.6780     0.1380 C.3   1 <1>  -0.1600 
 11 C        5.2360    -2.8140     1.2190 C.3   1 <1>   0.2200 
 12 N        6.0900    -3.5550     2.1960 N.am  1 <1>  -0.6600 
 13 C        7.3400    -3.1150     2.5780 C.2   1 <1>   0.5690 
 14 C        5.5670    -4.8460     2.7390 C.3   1 <1>   0.0600 
 15 O        8.0540    -3.7910     3.2850 O.2   1 <1>  -0.5700 
 16 C        7.8870    -1.7540     2.1610 C.3   1 <1>   0.0440 
 17 C        8.3900    -1.7270     0.7140 C.ar  1 <1>  -0.1440 
 18 C        7.9200    -0.8040    -0.2200 C.ar  1 <1>   0.0820 
 19 C        9.3470    -2.6550     0.3310 C.ar  1 <1>  -0.1500 
 20 O        6.9790     0.0930     0.1830 O.3   1 <1>  -0.3630 
 21 C        8.4140    -0.8310    -1.5210 C.ar  1 <1>  -0.1500 
 22 C        9.8340    -2.6790    -0.9630 C.ar  1 <1>  -0.1500 
 23 C        6.4600     1.0680    -0.6940 C.3   1 <1>   0.0400 
 24 C        9.3650    -1.7620    -1.8980 C.ar  1 <1>   0.0820 
 25 O        9.7870    -1.7160    -3.1870 O.3   1 <1>  -0.3620 
 26 C       10.7740    -2.6030    -3.6640 C.3   1 <1>   0.0400 
 27 H        1.3660    -1.0330     1.7580 H     1 <1>   0.0800 
 28 H        1.4250    -2.7740     1.7230 H     1 <1>   0.0800 
 29 H        2.0540    -4.4390    -0.3150 H     1 <1>   0.0800 
 30 H        2.5490    -4.0200    -1.9350 H     1 <1>   0.0800 
 31 H        0.8410    -2.6590    -3.1810 H     1 <1>   0.0800 
 32 H       -0.6100    -2.2810    -2.2820 H     1 <1>   0.0800 
 33 H       -0.0780    -3.9420    -2.4090 H     1 <1>   0.0800 
 34 H        3.2860    -0.8210     0.3660 H     1 <1>   0.0800 
 35 H        3.8640    -2.2130    -1.2210 H     1 <1>   0.0800 
 36 H        3.6050    -2.7510     2.6080 H     1 <1>   0.0800 
 37 H        4.3820    -1.1950     2.3650 H     1 <1>   0.0800 
 38 H        5.3020    -3.9360    -0.6270 H     1 <1>   0.0800 
 39 H        4.1730    -4.5710     0.5620 H     1 <1>   0.0800 
 40 H        5.8160    -2.0720     0.7070 H     1 <1>   0.0800 
 41 H        4.5110    -4.7780     2.9270 H     1 <1>   0.0800 
 42 H        6.0560    -5.0940     3.6650 H     1 <1>   0.0800 
 43 H        5.7540    -5.6360     2.0330 H     1 <1>   0.0800 
 44 H        7.1320    -1.0150     2.3410 H     1 <1>   0.0800 
 45 H        8.7120    -1.5110     2.8050 H     1 <1>   0.0800 
 46 H        9.7170    -3.3710     1.0470 H     1 <1>   0.1500 
 47 H        8.0780    -0.1410    -2.2690 H     1 <1>   0.1500 
 48 H       10.5730    -3.4140    -1.2190 H     1 <1>   0.1500 
 49 H        5.7450     1.6600    -0.1520 H     1 <1>   0.0800 
 50 H        5.9760     0.5750    -1.5180 H     1 <1>   0.0800 
 51 H        7.2660     1.6930    -1.0380 H     1 <1>   0.0800 
 52 H       10.9530    -2.3770    -4.7000 H     1 <1>   0.0800 
 53 H       10.4140    -3.6120    -3.5670 H     1 <1>   0.0800 
 54 H       11.6770    -2.4590    -3.0970 H     1 <1>   0.0800 
@<TRIPOS>BOND
  1   1   2  2   
  2   2   3  am  
  3   2   4  1   
  4   3   5  1   
  5   3   6  1   
  6   4   7  1   
  7   4  27  1   
  8   4  28  1   
  9   5   8  1   
 10   5  29  1   
 11   5  30  1   
 12   6  31  1   
 13   6  32  1   
 14   6  33  1   
 15   7   8  1   
 16   7   9  1   
 17   7  34  1   
 18   8  10  1   
 19   8  35  1   
 20   9  11  1   
 21   9  36  1   
 22   9  37  1   
 23  10  11  1   
 24  10  38  1   
 25  10  39  1   
 26  11  12  1   
 27  11  40  1   
 28  12  13  am  
 29  12  14  1   
 30  13  15  2   
 31  13  16  1   
 32  14  41  1   
 33  14  42  1   
 34  14  43  1   
 35  16  17  1   
 36  16  44  1   
 37  16  45  1   
 38  17  18  ar  
 39  17  19  ar  
 40  18  20  1   
 41  18  21  ar  
 42  19  22  ar  
 43  19  46  1   
 44  20  23  1   
 45  21  24  ar  
 46  21  47  1   
 47  22  24  ar  
 48  22  48  1   
 49  23  49  1   
 50  23  50  1   
 51  23  51  1   
 52  24  25  1   
 53  25  26  1   
 54  26  52  1   
 55  26  53  1   
 56  26  54  1   
@<TRIPOS>SUBSTRUCTURE
  1 ****  11 GROUP 4 **** **** 0

# MOE 2024.06 (io_trps.svl 2023.06)
