@<TRIPOS>MOLECULE
NONAME
49 51 1 0 0 
SMALL
USER_CHARGES


@<TRIPOS>ATOM
  1 O        1.0340    -0.2760     1.4100 O.2   1 <1>  -0.5700 
  2 C        1.3110    -1.2370     0.7400 C.2   1 <1>   0.5690 
  3 N        2.3600    -1.1480    -0.1090 N.am  1 <1>  -0.7300 
  4 C        0.4380    -2.4690     0.8870 C.3   1 <1>  -0.0990 
  5 C        2.9150    -2.1730    -1.0310 C.3   1 <1>   0.1400 
  6 C        0.8450    -3.7040     0.0830 C.3   1 <1>   0.1200 
  7 C        3.2170    -3.5490    -0.3690 C.3   1 <1>   0.2800 
  8 O        2.1560    -4.0460     0.4050 O.3   1 <1>  -0.5600 
  9 C        4.3970    -3.4310     0.6210 C.3   1 <1>  -0.1600 
 10 C        3.4940    -4.5970    -1.4670 C.3   1 <1>  -0.1600 
 11 C        5.7490    -3.7330    -0.0260 C.3   1 <1>   0.1400 
 12 C        4.4310    -5.6980    -0.9760 C.3   1 <1>   0.1400 
 13 N        5.7540    -5.1020    -0.6240 N.am  1 <1>  -0.6600 
 14 C        6.9020    -5.8630    -0.6990 C.2   1 <1>   0.5440 
 15 O        6.8150    -7.0450    -0.9720 O.2   1 <1>  -0.5700 
 16 C        8.2060    -5.2810    -0.4570 C.ar  1 <1>   0.0860 
 17 C        8.9910    -5.6970     0.6130 C.ar  1 <1>  -0.1500 
 18 C        8.7170    -4.2790    -1.2800 C.ar  1 <1>  -0.1500 
 19 C       10.2270    -5.1370     0.8750 C.ar  1 <1>   0.0830 
 20 C        9.9470    -3.7000    -1.0330 C.ar  1 <1>  -0.1500 
 21 O       10.8810    -5.6420     1.9560 O.3   1 <1>  -0.3630 
 22 C       10.7190    -4.1100     0.0530 C.ar  1 <1>   0.0830 
 23 C       12.2660    -5.8990     1.8850 C.3   1 <1>   0.0400 
 24 O       11.9150    -3.5290     0.3380 O.3   1 <1>  -0.3630 
 25 C       12.4450    -2.4630    -0.4200 C.3   1 <1>   0.0400 
 26 H        2.8290    -0.2400    -0.1010 H     1 <1>   0.3700 
 27 H       -0.5630    -2.1950     0.6130 H     1 <1>   0.0800 
 28 H        0.4200    -2.7340     1.9280 H     1 <1>   0.0800 
 29 H        3.8300    -1.7910    -1.4480 H     1 <1>   0.0800 
 30 H        2.2360    -2.3020    -1.8560 H     1 <1>   0.0800 
 31 H        0.7380    -3.5610    -0.9770 H     1 <1>   0.0800 
 32 H        0.2220    -4.5330     0.3720 H     1 <1>   0.0800 
 33 H        4.2650    -4.1300     1.4290 H     1 <1>   0.0800 
 34 H        4.4230    -2.4490     1.0560 H     1 <1>   0.0800 
 35 H        3.9640    -4.1340    -2.3160 H     1 <1>   0.0800 
 36 H        2.5720    -5.0310    -1.8080 H     1 <1>   0.0800 
 37 H        6.5190    -3.6590     0.7240 H     1 <1>   0.0800 
 38 H        5.9560    -3.0120    -0.7980 H     1 <1>   0.0800 
 39 H        4.5570    -6.4390    -1.7480 H     1 <1>   0.0800 
 40 H        4.0150    -6.1820    -0.1070 H     1 <1>   0.0800 
 41 H        8.6250    -6.4800     1.2530 H     1 <1>   0.1500 
 42 H        8.1330    -3.9570    -2.1240 H     1 <1>   0.1500 
 43 H       10.2860    -2.9290    -1.6980 H     1 <1>   0.1500 
 44 H       12.5060    -6.6500     2.6150 H     1 <1>   0.0800 
 45 H       12.7990    -4.9930     2.1080 H     1 <1>   0.0800 
 46 H       12.5100    -6.2510     0.8980 H     1 <1>   0.0800 
 47 H       13.3850    -2.1780     0.0180 H     1 <1>   0.0800 
 48 H       11.7600    -1.6340    -0.3840 H     1 <1>   0.0800 
 49 H       12.5990    -2.7960    -1.4310 H     1 <1>   0.0800 
@<TRIPOS>BOND
  1   1   2  2   
  2   2   3  am  
  3   2   4  1   
  4   3   5  1   
  5   3  26  1   
  6   4   6  1   
  7   4  27  1   
  8   4  28  1   
  9   5   7  1   
 10   5  29  1   
 11   5  30  1   
 12   6   8  1   
 13   6  31  1   
 14   6  32  1   
 15   7   8  1   
 16   7   9  1   
 17   7  10  1   
 18   9  11  1   
 19   9  33  1   
 20   9  34  1   
 21  10  12  1   
 22  10  35  1   
 23  10  36  1   
 24  11  13  1   
 25  11  37  1   
 26  11  38  1   
 27  12  13  1   
 28  12  39  1   
 29  12  40  1   
 30  13  14  am  
 31  14  15  2   
 32  14  16  1   
 33  16  17  ar  
 34  16  18  ar  
 35  17  19  ar  
 36  17  41  1   
 37  18  20  ar  
 38  18  42  1   
 39  19  21  1   
 40  19  22  ar  
 41  20  22  ar  
 42  20  43  1   
 43  21  23  1   
 44  22  24  1   
 45  23  44  1   
 46  23  45  1   
 47  23  46  1   
 48  24  25  1   
 49  25  47  1   
 50  25  48  1   
 51  25  49  1   
@<TRIPOS>SUBSTRUCTURE
  1 ****  11 GROUP 4 **** **** 0

# MOE 2024.06 (io_trps.svl 2023.06)
