@<TRIPOS>MOLECULE
NONAME
57 60 1 0 0 
SMALL
USER_CHARGES


@<TRIPOS>ATOM
  1 O       -0.6100     0.5890     0.9050 O.2   1 <1>  -0.5700 
  2 C       -0.4940     1.7850     0.7730 C.2   1 <1>   0.5690 
  3 N       -1.5670     2.6210     0.5870 N.am  1 <1>  -0.5090 
  4 C        0.9250     2.3600     0.7780 C.3   1 <1>   0.1810 
  5 C       -1.3730     4.0770     0.2940 C.3   1 <1>   0.3640 
  6 C       -2.9700     2.1560     0.7230 C.3   1 <1>   0.0490 
  7 O        0.9660     3.7620     0.8920 O.3   1 <1>  -0.5600 
  8 C       -2.2280     4.5120    -0.8950 C.ar  1 <1>  -0.1440 
  9 C        0.1010     4.4350     0.0010 C.3   1 <1>   0.2610 
 10 C       -3.8670     2.8350     1.7130 C.3   1 <1>  -0.2000 
 11 C       -3.3890     1.4430     1.9700 C.3   1 <1>  -0.2000 
 12 C       -2.2900     3.7520    -2.0560 C.ar  1 <1>   0.1600 
 13 C       -2.9400     5.6950    -0.8430 C.ar  1 <1>  -0.1500 
 14 C        0.3030     5.9600     0.0640 C.2   1 <1>   0.5690 
 15 N       -2.9760     4.0740    -3.1400 N.ar  1 <1>  -0.6200 
 16 C       -3.6690     6.0410    -1.9600 C.ar  1 <1>  -0.1500 
 17 O       -0.2570     6.5590     0.9570 O.2   1 <1>  -0.5700 
 18 N        1.0680     6.6360    -0.8680 N.am  1 <1>  -0.6600 
 19 C       -3.6520     5.2080    -3.0650 C.ar  1 <1>   0.1600 
 20 C        1.1950     8.1270    -0.7980 C.3   1 <1>   0.1400 
 21 C        1.7120     6.0080    -2.0560 C.3   1 <1>   0.1400 
 22 C        2.5640     8.5680    -0.2540 C.3   1 <1>  -0.0800 
 23 C        2.9850     5.2650    -1.6500 C.3   1 <1>  -0.2400 
 24 C        2.8280     8.0330     1.1650 C.3   1 <1>  -0.1600 
 25 C        2.6660    10.1010    -0.2320 C.3   1 <1>  -0.1600 
 26 C        4.1200     8.6180     1.7460 C.3   1 <1>   0.1200 
 27 C        3.9780    10.5530     0.4200 C.3   1 <1>   0.1200 
 28 O        4.0680    10.0110     1.7000 O.3   1 <1>  -0.5600 
 29 H        1.4270     2.0780    -0.1290 H     1 <1>   0.0800 
 30 H        1.4670     1.9510     1.6110 H     1 <1>   0.0800 
 31 H       -1.6900     4.6200     1.1670 H     1 <1>   0.0800 
 32 H       -3.3920     1.8240    -0.2120 H     1 <1>   0.1000 
 33 H        0.3350     4.0900    -0.9860 H     1 <1>   0.0800 
 34 H       -3.4840     3.6170     2.3440 H     1 <1>   0.1000 
 35 H       -4.9020     2.9770     1.4580 H     1 <1>   0.1000 
 36 H       -4.0900     0.6320     1.8830 H     1 <1>   0.1000 
 37 H       -2.6510     1.2700     2.7330 H     1 <1>   0.1000 
 38 H       -1.7450     2.8230    -2.1000 H     1 <1>   0.1500 
 39 H       -2.9260     6.3290     0.0290 H     1 <1>   0.1500 
 40 H       -4.2440     6.9490    -1.9770 H     1 <1>   0.1500 
 41 H       -4.2250     5.4900    -3.9330 H     1 <1>   0.1500 
 42 H        1.0450     8.5400    -1.7800 H     1 <1>   0.0800 
 43 H        0.4230     8.5340    -0.1670 H     1 <1>   0.0800 
 44 H        1.0220     5.3370    -2.5370 H     1 <1>   0.0800 
 45 H        1.9650     6.7690    -2.7750 H     1 <1>   0.0800 
 46 H        3.3320     8.2030    -0.9120 H     1 <1>   0.0800 
 47 H        2.7710     4.4780    -0.9510 H     1 <1>   0.0800 
 48 H        3.6930     5.9390    -1.2070 H     1 <1>   0.0800 
 49 H        3.4380     4.8270    -2.5210 H     1 <1>   0.0800 
 50 H        2.9040     6.9610     1.1500 H     1 <1>   0.0800 
 51 H        2.0100     8.2910     1.8150 H     1 <1>   0.0800 
 52 H        1.8470    10.5190     0.3290 H     1 <1>   0.0800 
 53 H        2.6160    10.4890    -1.2330 H     1 <1>   0.0800 
 54 H        4.9820     8.2880     1.1920 H     1 <1>   0.0800 
 55 H        4.2340     8.3280     2.7760 H     1 <1>   0.0800 
 56 H        4.0020    11.6240     0.5160 H     1 <1>   0.0800 
 57 H        4.8320    10.2320    -0.1510 H     1 <1>   0.0800 
@<TRIPOS>BOND
  1   1   2  2   
  2   2   3  am  
  3   2   4  1   
  4   3   5  1   
  5   3   6  1   
  6   4   7  1   
  7   4  29  1   
  8   4  30  1   
  9   5   8  1   
 10   5   9  1   
 11   5  31  1   
 12   6  10  1   
 13   6  11  1   
 14   6  32  1   
 15   7   9  1   
 16   8  12  ar  
 17   8  13  ar  
 18   9  14  1   
 19   9  33  1   
 20  10  11  1   
 21  10  34  1   
 22  10  35  1   
 23  11  36  1   
 24  11  37  1   
 25  12  15  ar  
 26  12  38  1   
 27  13  16  ar  
 28  13  39  1   
 29  14  17  2   
 30  14  18  am  
 31  15  19  ar  
 32  16  19  ar  
 33  16  40  1   
 34  18  20  1   
 35  18  21  1   
 36  19  41  1   
 37  20  22  1   
 38  20  42  1   
 39  20  43  1   
 40  21  23  1   
 41  21  44  1   
 42  21  45  1   
 43  22  24  1   
 44  22  25  1   
 45  22  46  1   
 46  23  47  1   
 47  23  48  1   
 48  23  49  1   
 49  24  26  1   
 50  24  50  1   
 51  24  51  1   
 52  25  27  1   
 53  25  52  1   
 54  25  53  1   
 55  26  28  1   
 56  26  54  1   
 57  26  55  1   
 58  27  28  1   
 59  27  56  1   
 60  27  57  1   
@<TRIPOS>SUBSTRUCTURE
  1 ****  14 GROUP 4 **** **** 0

# MOE 2024.06 (io_trps.svl 2023.06)
