@<TRIPOS>MOLECULE
NONAME
56 59 1 0 0 
SMALL
USER_CHARGES


@<TRIPOS>ATOM
  1 O       -0.3600     3.0900    -2.0890 O.2   1 <1>  -0.5700 
  2 C       -1.3870     2.7730    -1.5170 C.2   1 <1>   0.5440 
  3 N       -2.5460     3.4660    -1.8040 N.am  1 <1>  -0.6600 
  4 C       -1.3740     1.7080    -0.5280 C.ar  1 <1>   0.0860 
  5 C       -3.6140     3.6760    -0.7990 C.3   1 <1>   0.1400 
  6 C       -2.6080     4.4450    -2.9150 C.3   1 <1>   0.1400 
  7 C       -0.5760     1.7450     0.6240 C.ar  1 <1>  -0.1440 
  8 C       -2.1980     0.5980    -0.7140 C.ar  1 <1>  -0.1500 
  9 C       -3.3480     5.0210    -0.1200 C.3   1 <1>  -0.1600 
 10 C       -2.3020     5.8270    -2.3400 C.3   1 <1>  -0.1600 
 11 C       -0.6230     0.7070     1.5410 C.ar  1 <1>  -0.1500 
 12 C        0.3580     2.9180     0.8920 C.3   1 <1>  -0.0970 
 13 C       -2.2430    -0.4350     0.2030 C.ar  1 <1>  -0.1500 
 14 C       -3.2010     6.1870    -1.1300 C.3   1 <1>  -0.0190 
 15 C       -1.4540    -0.3790     1.3350 C.ar  1 <1>  -0.1500 
 16 C       -2.6790     7.4340    -0.4230 C.2   1 <1>   0.5690 
 17 O       -3.4000     8.3950    -0.3110 O.2   1 <1>  -0.5700 
 18 N       -1.4000     7.3750     0.0570 N.am  1 <1>  -0.4940 
 19 C       -0.6240     8.3370     0.7440 C.2   1 <1>  -0.0880 
 20 N        0.6350     8.1200     1.2160 N.pl3 1 <1>   0.3140 
 21 C       -0.9410     9.6120     1.0650 C.2   1 <1>  -0.1500 
 22 N        1.1190     9.2270     1.8350 N.2   1 <1>  -0.7070 
 23 C        1.3760     6.8200     1.1480 C.3   1 <1>   0.1760 
 24 C        0.1710    10.1060     1.7320 C.2   1 <1>   0.1390 
 25 C        2.7390     6.8190     1.8450 C.3   1 <1>  -0.1600 
 26 C        1.6820     6.3760    -0.2920 C.3   1 <1>  -0.1600 
 27 C        3.4740     5.6410     1.2150 C.3   1 <1>  -0.1600 
 28 C        3.0300     5.6430    -0.2480 C.3   1 <1>  -0.1600 
 29 H       -3.6190     2.8880    -0.0660 H     1 <1>   0.0800 
 30 H       -4.5720     3.6860    -1.2900 H     1 <1>   0.0800 
 31 H       -3.5890     4.4280    -3.3570 H     1 <1>   0.0800 
 32 H       -1.8910     4.1910    -3.6790 H     1 <1>   0.0800 
 33 H       -2.8110     0.5490    -1.5980 H     1 <1>   0.1500 
 34 H       -2.4540     4.9200     0.4680 H     1 <1>   0.0800 
 35 H       -4.1530     5.2400     0.5600 H     1 <1>   0.0800 
 36 H       -2.4260     6.5670    -3.1110 H     1 <1>   0.0800 
 37 H       -1.2630     5.8290    -2.0640 H     1 <1>   0.0800 
 38 H       -0.0100     0.7340     2.4250 H     1 <1>   0.1500 
 39 H       -0.1830     3.8430     0.8340 H     1 <1>   0.0800 
 40 H        1.1450     2.9280     0.1590 H     1 <1>   0.0800 
 41 H        0.8050     2.8460     1.8680 H     1 <1>   0.0800 
 42 H       -2.8870    -1.2810     0.0360 H     1 <1>   0.1500 
 43 H       -4.1820     6.4110    -1.5120 H     1 <1>   0.0800 
 44 H       -1.4820    -1.1810     2.0540 H     1 <1>   0.1500 
 45 H       -0.9290     6.4970    -0.1550 H     1 <1>   0.3700 
 46 H       -1.8520    10.1430     0.8560 H     1 <1>   0.1500 
 47 H        0.7650     6.0730     1.6190 H     1 <1>   0.0800 
 48 H        0.2450    11.1060     2.1270 H     1 <1>   0.1500 
 49 H        2.6450     6.7170     2.9120 H     1 <1>   0.0800 
 50 H        3.2740     7.7260     1.6150 H     1 <1>   0.0800 
 51 H        1.7680     7.2350    -0.9370 H     1 <1>   0.0800 
 52 H        0.9160     5.7220    -0.6690 H     1 <1>   0.0800 
 53 H        3.1580     4.7250     1.6870 H     1 <1>   0.0800 
 54 H        4.5420     5.7350     1.3120 H     1 <1>   0.0800 
 55 H        3.7480     6.1820    -0.8430 H     1 <1>   0.0800 
 56 H        2.9500     4.6400    -0.6330 H     1 <1>   0.0800 
@<TRIPOS>BOND
  1   1   2  2   
  2   2   3  am  
  3   2   4  1   
  4   3   5  1   
  5   3   6  1   
  6   4   7  ar  
  7   4   8  ar  
  8   5   9  1   
  9   5  29  1   
 10   5  30  1   
 11   6  10  1   
 12   6  31  1   
 13   6  32  1   
 14   7  11  ar  
 15   7  12  1   
 16   8  13  ar  
 17   8  33  1   
 18   9  14  1   
 19   9  34  1   
 20   9  35  1   
 21  10  14  1   
 22  10  36  1   
 23  10  37  1   
 24  11  15  ar  
 25  11  38  1   
 26  12  39  1   
 27  12  40  1   
 28  12  41  1   
 29  13  15  ar  
 30  13  42  1   
 31  14  16  1   
 32  14  43  1   
 33  15  44  1   
 34  16  17  2   
 35  16  18  am  
 36  18  19  1   
 37  18  45  1   
 38  19  20  1   
 39  19  21  2   
 40  20  22  1   
 41  20  23  1   
 42  21  24  1   
 43  21  46  1   
 44  22  24  2   
 45  23  25  1   
 46  23  26  1   
 47  23  47  1   
 48  24  48  1   
 49  25  27  1   
 50  25  49  1   
 51  25  50  1   
 52  26  28  1   
 53  26  51  1   
 54  26  52  1   
 55  27  28  1   
 56  27  53  1   
 57  27  54  1   
 58  28  55  1   
 59  28  56  1   
@<TRIPOS>SUBSTRUCTURE
  1 ****  18 GROUP 4 **** **** 0

# MOE 2024.06 (io_trps.svl 2023.06)
