@<TRIPOS>MOLECULE
NONAME
34 35 1 0 0 
SMALL
USER_CHARGES


@<TRIPOS>ATOM
  1 S        0.8550    -0.6450     1.4980 S.3   1 <1>  -0.0800 
  2 C        0.5750    -1.2430    -0.1250 C.2   1 <1>   0.1980 
  3 C        0.7600     0.9800     0.8850 C.2   1 <1>  -0.1100 
  4 N        0.4280    -0.3330    -1.0020 N.2   1 <1>  -0.5650 
  5 C        0.5280    -2.7420    -0.3240 C.3   1 <1>   0.0200 
  6 C        0.5330     0.9280    -0.4360 C.2   1 <1>   0.0770 
  7 C       -0.8330    -3.2860     0.1070 C.3   1 <1>   0.1400 
  8 N       -0.9120    -4.7410    -0.1690 N.am  1 <1>  -0.7300 
  9 C       -0.5490    -5.7060     0.7110 C.2   1 <1>   0.5690 
 10 O       -0.0760    -5.4480     1.7890 O.2   1 <1>  -0.5700 
 11 C       -0.7420    -7.1570     0.3200 C.3   1 <1>  -0.0990 
 12 C       -2.2280    -7.5490     0.2860 C.3   1 <1>  -0.1600 
 13 C       -2.4130    -9.0310    -0.0710 C.3   1 <1>   0.0960 
 14 N       -3.8450    -9.3480    -0.2260 N.pl3 1 <1>   0.3140 
 15 N       -4.4990    -9.1140    -1.3790 N.2   1 <1>  -0.7070 
 16 C       -4.6670    -9.8700     0.7060 C.2   1 <1>  -0.3020 
 17 C       -5.7180    -9.4970    -1.1520 C.2   1 <1>   0.1390 
 18 C       -5.8860    -9.9810     0.1390 C.2   1 <1>  -0.1500 
 19 H        0.8840     1.7920     1.5770 H     1 <1>   0.1500 
 20 H        1.3080    -3.2040     0.2540 H     1 <1>   0.0800 
 21 H        0.6900    -2.9540    -1.3650 H     1 <1>   0.0800 
 22 H        0.4270     1.7790    -1.0880 H     1 <1>   0.1500 
 23 H       -1.6170    -2.7770    -0.4270 H     1 <1>   0.0800 
 24 H       -0.9730    -3.1120     1.1610 H     1 <1>   0.0800 
 25 H       -1.3130    -5.0040    -1.0710 H     1 <1>   0.3700 
 26 H       -0.2210    -7.7720     1.0330 H     1 <1>   0.0800 
 27 H       -0.2940    -7.3160    -0.6440 H     1 <1>   0.0800 
 28 H       -2.7390    -6.9460    -0.4460 H     1 <1>   0.0800 
 29 H       -2.6680    -7.3570     1.2500 H     1 <1>   0.0800 
 30 H       -2.0000    -9.6600     0.6950 H     1 <1>   0.0800 
 31 H       -1.9260    -9.2530    -1.0030 H     1 <1>   0.0800 
 32 H       -4.3460   -10.1280     1.6980 H     1 <1>   0.1500 
 33 H       -6.5030    -9.4400    -1.8890 H     1 <1>   0.1500 
 34 H       -6.8010   -10.3540     0.5640 H     1 <1>   0.1500 
@<TRIPOS>BOND
  1   1   2  1   
  2   1   3  1   
  3   2   4  2   
  4   2   5  1   
  5   3   6  2   
  6   3  19  1   
  7   4   6  1   
  8   5   7  1   
  9   5  20  1   
 10   5  21  1   
 11   6  22  1   
 12   7   8  1   
 13   7  23  1   
 14   7  24  1   
 15   8   9  am  
 16   8  25  1   
 17   9  10  2   
 18   9  11  1   
 19  11  12  1   
 20  11  26  1   
 21  11  27  1   
 22  12  13  1   
 23  12  28  1   
 24  12  29  1   
 25  13  14  1   
 26  13  30  1   
 27  13  31  1   
 28  14  15  1   
 29  14  16  1   
 30  15  17  2   
 31  16  18  2   
 32  16  32  1   
 33  17  18  1   
 34  17  33  1   
 35  18  34  1   
@<TRIPOS>SUBSTRUCTURE
  1 ****   8 GROUP 4 **** **** 0

# MOE 2024.06 (io_trps.svl 2023.06)
