@<TRIPOS>MOLECULE
NONAME
39 42 1 0 0 
SMALL
USER_CHARGES


@<TRIPOS>ATOM
  1 S       -0.6760    -0.3630    -1.5280 S.3   1 <1>  -0.0800 
  2 C       -1.4190     0.8060    -0.4460 C.2   1 <1>  -0.1400 
  3 C       -2.1040    -1.3870    -1.4540 C.2   1 <1>  -0.1100 
  4 C       -2.6510     0.4110    -0.0980 C.2   1 <1>  -0.1810 
  5 C       -0.7140     2.0810     0.0040 C.3   1 <1>   0.4600 
  6 C       -3.0470    -0.8420    -0.6630 C.2   1 <1>  -0.1500 
  7 C       -3.4810     1.2800     0.8200 C.3   1 <1>   0.0210 
  8 O       -1.5100     2.7030     0.9960 O.3   1 <1>  -0.5600 
  9 C       -0.5100     3.0540    -1.1640 C.3   1 <1>  -0.1600 
 10 C        0.6260     1.7580     0.6730 C.3   1 <1>  -0.1600 
 11 C       -2.9070     2.7100     0.8170 C.3   1 <1>   0.1200 
 12 C        0.2430     4.3060    -0.7190 C.3   1 <1>   0.2090 
 13 C        1.3560     3.0330     1.0900 C.3   1 <1>   0.2090 
 14 N        1.5340     3.8990    -0.1020 N.pl3 1 <1>  -0.8380 
 15 C        2.5740     4.8060    -0.0770 C.ar  1 <1>   0.4100 
 16 N        2.2600     6.0910     0.0060 N.ar  1 <1>  -0.6200 
 17 C        3.8850     4.3420    -0.1310 C.ar  1 <1>  -0.1500 
 18 C        3.2710     6.9570     0.0440 C.ar  1 <1>   0.3830 
 19 C        4.9330     5.2280    -0.0920 C.ar  1 <1>  -0.1500 
 20 C        2.9670     8.3620     0.1350 C.1   1 <1>   0.4840 
 21 C        4.6040     6.5640    -0.0010 C.ar  1 <1>  -0.1500 
 22 N        2.7790     9.4870     0.2050 N.1   1 <1>  -0.5570 
 23 H       -2.0840    -2.3020    -2.0190 H     1 <1>   0.1500 
 24 H       -4.0120    -1.2700    -0.4510 H     1 <1>   0.1500 
 25 H       -3.4590     0.8790     1.8180 H     1 <1>   0.0800 
 26 H       -4.5010     1.3050     0.4840 H     1 <1>   0.0800 
 27 H       -1.4530     3.3230    -1.5970 H     1 <1>   0.0800 
 28 H        0.0670     2.5690    -1.9300 H     1 <1>   0.0800 
 29 H        1.2530     1.2170    -0.0110 H     1 <1>   0.0800 
 30 H        0.4540     1.1340     1.5290 H     1 <1>   0.0800 
 31 H       -3.3360     3.2840     1.6200 H     1 <1>   0.0800 
 32 H       -3.1300     3.2010    -0.1130 H     1 <1>   0.0800 
 33 H       -0.3380     4.8590     0.0000 H     1 <1>   0.0800 
 34 H        0.4290     4.9410    -1.5680 H     1 <1>   0.0800 
 35 H        2.3120     2.7840     1.5170 H     1 <1>   0.0800 
 36 H        0.7830     3.5640     1.8330 H     1 <1>   0.0800 
 37 H        4.0550     3.2850    -0.2100 H     1 <1>   0.1500 
 38 H        5.9570     4.8960    -0.1320 H     1 <1>   0.1500 
 39 H        5.3830     7.3050     0.0330 H     1 <1>   0.1500 
@<TRIPOS>BOND
  1   1   2  1   
  2   1   3  1   
  3   2   4  2   
  4   2   5  1   
  5   3   6  2   
  6   3  23  1   
  7   4   6  1   
  8   4   7  1   
  9   5   8  1   
 10   5   9  1   
 11   5  10  1   
 12   6  24  1   
 13   7  11  1   
 14   7  25  1   
 15   7  26  1   
 16   8  11  1   
 17   9  12  1   
 18   9  27  1   
 19   9  28  1   
 20  10  13  1   
 21  10  29  1   
 22  10  30  1   
 23  11  31  1   
 24  11  32  1   
 25  12  14  1   
 26  12  33  1   
 27  12  34  1   
 28  13  14  1   
 29  13  35  1   
 30  13  36  1   
 31  14  15  1   
 32  15  16  ar  
 33  15  17  ar  
 34  16  18  ar  
 35  17  19  ar  
 36  17  37  1   
 37  18  20  1   
 38  18  21  ar  
 39  19  21  ar  
 40  19  38  1   
 41  20  22  3   
 42  21  39  1   
@<TRIPOS>SUBSTRUCTURE
  1 ****  14 GROUP 4 **** **** 0

# MOE 2024.06 (io_trps.svl 2023.06)
