@<TRIPOS>MOLECULE
NONAME
48 50 1 0 0 
SMALL
USER_CHARGES


@<TRIPOS>ATOM
  1 O        1.9150    -0.5220     0.9430 O.co2 1 <1>  -0.9000 
  2 C        2.4420    -1.4690     0.3300 C.2   1 <1>   0.9790 
  3 O        3.5680    -1.3190    -0.1710 O.co2 1 <1>  -0.9000 
  4 C        1.7210    -2.7250     0.1880 C.ar  1 <1>  -0.1790 
  5 C        0.5180    -2.9320     0.8590 C.ar  1 <1>  -0.1500 
  6 C        2.1820    -3.7600    -0.6270 C.ar  1 <1>  -0.1500 
  7 C       -0.2120    -4.0940     0.7010 C.ar  1 <1>  -0.1430 
  8 C        1.4670    -4.9320    -0.7890 C.ar  1 <1>  -0.1500 
  9 C        0.2510    -5.1040    -0.1330 C.ar  1 <1>   0.0830 
 10 C       -1.5350    -4.2360     1.4080 C.3   1 <1>   0.4870 
 11 O       -0.5300    -6.2060    -0.2770 O.3   1 <1>  -0.3620 
 12 N       -2.5830    -4.1620     0.3670 N.4   1 <1>  -0.9590 
 13 C       -0.0640    -7.3390    -0.9810 C.3   1 <1>   0.0400 
 14 C       -3.9090    -4.6240     0.8670 C.3   1 <1>   0.3430 
 15 C       -2.6420    -2.8120    -0.2640 C.3   1 <1>   0.3430 
 16 C       -4.9390    -4.7020    -0.2810 C.3   1 <1>   0.0000 
 17 C       -3.6380    -2.8330    -1.4270 C.3   1 <1>  -0.1600 
 18 C       -6.3060    -5.1470     0.2700 C.3   1 <1>   0.2000 
 19 C       -5.0250    -3.3350    -0.9930 C.3   1 <1>  -0.1600 
 20 C       -4.5890    -5.8480    -1.2460 C.3   1 <1>  -0.1600 
 21 O       -6.5180    -4.6470     1.5440 O.3   1 <1>  -0.6800 
 22 C       -6.2890    -6.6770     0.3030 C.3   1 <1>  -0.1600 
 23 C       -5.0950    -7.1160    -0.5560 C.3   1 <1>  -0.1600 
 24 H        0.1660    -2.1420     1.5050 H     1 <1>   0.1500 
 25 H        3.1210    -3.6210    -1.1400 H     1 <1>   0.1500 
 26 H        1.8740    -5.6870    -1.4340 H     1 <1>   0.1500 
 27 H       -1.6620    -3.4510     2.1350 H     1 <1>   0.0800 
 28 H       -1.5680    -5.1910     1.9060 H     1 <1>   0.0800 
 29 H       -2.2530    -4.8230    -0.3510 H     1 <1>   0.4500 
 30 H       -0.8110    -8.1100    -0.9160 H     1 <1>   0.0800 
 31 H        0.8510    -7.6790    -0.5290 H     1 <1>   0.0800 
 32 H        0.0950    -7.0710    -2.0110 H     1 <1>   0.0800 
 33 H       -3.8160    -5.5950     1.3240 H     1 <1>   0.0800 
 34 H       -4.2700    -3.9360     1.6140 H     1 <1>   0.0800 
 35 H       -2.9530    -2.0820     0.4650 H     1 <1>   0.0800 
 36 H       -1.6670    -2.5280    -0.6310 H     1 <1>   0.0800 
 37 H       -3.7280    -1.8350    -1.8220 H     1 <1>   0.0800 
 38 H       -3.2460    -3.4520    -2.2150 H     1 <1>   0.0800 
 39 H       -7.1000    -4.8010    -0.3720 H     1 <1>   0.0800 
 40 H       -5.6730    -3.4000    -1.8520 H     1 <1>   0.0800 
 41 H       -5.4600    -2.6170    -0.3170 H     1 <1>   0.0800 
 42 H       -5.1340    -5.7230    -2.1670 H     1 <1>   0.0800 
 43 H       -3.5410    -5.9160    -1.4820 H     1 <1>   0.0800 
 44 H       -7.4080    -4.9040     1.8600 H     1 <1>   0.4000 
 45 H       -6.1780    -7.0560     1.3060 H     1 <1>   0.0800 
 46 H       -7.2040    -7.0570    -0.1180 H     1 <1>   0.0800 
 47 H       -4.3250    -7.5230     0.0780 H     1 <1>   0.0800 
 48 H       -5.3790    -7.8670    -1.2740 H     1 <1>   0.0800 
@<TRIPOS>BOND
  1   1   2  ar  
  2   2   3  ar  
  3   2   4  1   
  4   4   5  ar  
  5   4   6  ar  
  6   5   7  ar  
  7   5  24  1   
  8   6   8  ar  
  9   6  25  1   
 10   7   9  ar  
 11   7  10  1   
 12   8   9  ar  
 13   8  26  1   
 14   9  11  1   
 15  10  12  1   
 16  10  27  1   
 17  10  28  1   
 18  11  13  1   
 19  12  14  1   
 20  12  15  1   
 21  12  29  1   
 22  13  30  1   
 23  13  31  1   
 24  13  32  1   
 25  14  16  1   
 26  14  33  1   
 27  14  34  1   
 28  15  17  1   
 29  15  35  1   
 30  15  36  1   
 31  16  18  1   
 32  16  19  1   
 33  16  20  1   
 34  17  19  1   
 35  17  37  1   
 36  17  38  1   
 37  18  21  1   
 38  18  22  1   
 39  18  39  1   
 40  19  40  1   
 41  19  41  1   
 42  20  23  1   
 43  20  42  1   
 44  20  43  1   
 45  21  44  1   
 46  22  23  1   
 47  22  45  1   
 48  22  46  1   
 49  23  47  1   
 50  23  48  1   
@<TRIPOS>SUBSTRUCTURE
  1 ****  12 GROUP 4 **** **** 0

# MOE 2024.06 (io_trps.svl 2023.06)
