@<TRIPOS>MOLECULE
NONAME
58 60 1 0 0 
SMALL
USER_CHARGES


@<TRIPOS>ATOM
  1 CL       1.2050    -0.8170    -1.1760 Cl    1 <1>  -0.1770 
  2 C        1.1870     0.9230    -1.0160 C.ar  1 <1>   0.1770 
  3 C        0.1500     1.6560    -1.5610 C.ar  1 <1>   0.1600 
  4 C        2.2100     1.5510    -0.3430 C.ar  1 <1>  -0.1500 
  5 N        0.0480     2.9770    -1.4810 N.ar  1 <1>  -0.6200 
  6 C        2.1500     2.9310    -0.2540 C.ar  1 <1>   0.1000 
  7 C        1.0390     3.5840    -0.8290 C.ar  1 <1>   0.3920 
  8 N        3.1510     3.6570     0.4190 N.pl3 1 <1>  -0.6000 
  9 O        0.9830     4.9360    -0.6970 O.3   1 <1>  -0.3620 
 10 C        4.4840     3.3980     0.6650 C.ar  1 <1>   0.4100 
 11 C       -0.0900     5.6740    -1.2510 C.3   1 <1>   0.0400 
 12 N        4.9650     4.0240     1.7250 N.ar  1 <1>  -0.6200 
 13 C        5.2510     2.5750    -0.1570 C.ar  1 <1>  -0.1500 
 14 C        6.2450     3.8020     1.9870 C.ar  1 <1>   0.1600 
 15 C        6.5770     2.3550     0.1340 C.ar  1 <1>  -0.1500 
 16 C        7.1010     2.9870     1.2500 C.ar  1 <1>   0.1000 
 17 N        8.4400     2.8130     1.6270 N.pl3 1 <1>  -0.8380 
 18 C        9.4740     3.2490     0.6300 C.3   1 <1>   0.2890 
 19 C        8.7380     1.5310     2.3430 C.3   1 <1>   0.2090 
 20 C       10.6610     2.2670     0.5040 C.3   1 <1>   0.1400 
 21 C        9.9540     4.6340     1.0530 C.3   1 <1>  -0.2400 
 22 C        9.1800     0.4070     1.3860 C.3   1 <1>   0.1400 
 23 N       10.2000     0.8500     0.3860 N.am  1 <1>  -0.6600 
 24 C       10.5790     0.0490    -0.6560 C.2   1 <1>   0.7800 
 25 O       11.3400     0.4330    -1.5210 O.2   1 <1>  -0.5700 
 26 O       10.0670    -1.1840    -0.6810 O.3   1 <1>  -0.4300 
 27 C       10.3000    -2.1880    -1.6440 C.3   1 <1>   0.2800 
 28 C       11.7820    -2.5820    -1.6510 C.3   1 <1>  -0.2400 
 29 C        9.4630    -3.3820    -1.1840 C.3   1 <1>  -0.2400 
 30 C        9.8100    -1.7280    -3.0220 C.3   1 <1>  -0.2400 
 31 H       -0.6310     1.1300    -2.0820 H     1 <1>   0.1500 
 32 H        3.0070     0.9860     0.1000 H     1 <1>   0.1500 
 33 H        2.8570     4.5510     0.8210 H     1 <1>   0.4000 
 34 H        0.0680     6.7150    -1.0340 H     1 <1>   0.0800 
 35 H       -1.0100     5.3390    -0.8070 H     1 <1>   0.0800 
 36 H       -0.1070     5.5170    -2.3160 H     1 <1>   0.0800 
 37 H        4.8050     2.1240    -1.0220 H     1 <1>   0.1500 
 38 H        6.6620     4.2960     2.8460 H     1 <1>   0.1500 
 39 H        7.1930     1.7230    -0.4790 H     1 <1>   0.1500 
 40 H        9.0170     3.3350    -0.3410 H     1 <1>   0.0800 
 41 H        9.5170     1.7100     3.0630 H     1 <1>   0.0800 
 42 H        7.8660     1.2110     2.8870 H     1 <1>   0.0800 
 43 H       11.2890     2.3540     1.3730 H     1 <1>   0.0800 
 44 H       11.2530     2.5440    -0.3510 H     1 <1>   0.0800 
 45 H       10.4010     4.5920     2.0290 H     1 <1>   0.0800 
 46 H        9.1210     5.3140     1.0760 H     1 <1>   0.0800 
 47 H       10.6780     5.0060     0.3520 H     1 <1>   0.0800 
 48 H        8.3140     0.0420     0.8620 H     1 <1>   0.0800 
 49 H        9.5820    -0.4100     1.9600 H     1 <1>   0.0800 
 50 H       11.9310    -3.4390    -2.2830 H     1 <1>   0.0800 
 51 H       12.1080    -2.8310    -0.6570 H     1 <1>   0.0800 
 52 H       12.3940    -1.7870    -2.0340 H     1 <1>   0.0800 
 53 H        9.5780    -4.2040    -1.8670 H     1 <1>   0.0800 
 54 H        8.4220    -3.1160    -1.1470 H     1 <1>   0.0800 
 55 H        9.7780    -3.7060    -0.2090 H     1 <1>   0.0800 
 56 H        9.8580    -2.5450    -3.7190 H     1 <1>   0.0800 
 57 H       10.4250    -0.9370    -3.4090 H     1 <1>   0.0800 
 58 H        8.7910    -1.3890    -2.9630 H     1 <1>   0.0800 
@<TRIPOS>BOND
  1   1   2  1   
  2   2   3  ar  
  3   2   4  ar  
  4   3   5  ar  
  5   3  31  1   
  6   4   6  ar  
  7   4  32  1   
  8   5   7  ar  
  9   6   7  ar  
 10   6   8  1   
 11   7   9  1   
 12   8  10  1   
 13   8  33  1   
 14   9  11  1   
 15  10  12  ar  
 16  10  13  ar  
 17  11  34  1   
 18  11  35  1   
 19  11  36  1   
 20  12  14  ar  
 21  13  15  ar  
 22  13  37  1   
 23  14  16  ar  
 24  14  38  1   
 25  15  16  ar  
 26  15  39  1   
 27  16  17  1   
 28  17  18  1   
 29  17  19  1   
 30  18  20  1   
 31  18  21  1   
 32  18  40  1   
 33  19  22  1   
 34  19  41  1   
 35  19  42  1   
 36  20  23  1   
 37  20  43  1   
 38  20  44  1   
 39  21  45  1   
 40  21  46  1   
 41  21  47  1   
 42  22  23  1   
 43  22  48  1   
 44  22  49  1   
 45  23  24  am  
 46  24  25  2   
 47  24  26  1   
 48  26  27  1   
 49  27  28  1   
 50  27  29  1   
 51  27  30  1   
 52  28  50  1   
 53  28  51  1   
 54  28  52  1   
 55  29  53  1   
 56  29  54  1   
 57  29  55  1   
 58  30  56  1   
 59  30  57  1   
 60  30  58  1   
@<TRIPOS>SUBSTRUCTURE
  1 ****  15 GROUP 4 **** **** 0

# MOE 2024.06 (io_trps.svl 2023.06)
