@<TRIPOS>MOLECULE
NONAME
47 49 1 0 0 
SMALL
USER_CHARGES


@<TRIPOS>ATOM
  1 S        0.1870    -0.3280     2.0540 S.o2  1 <1>   1.4470 
  2 O       -0.4430    -1.4930     2.6410 O.2   1 <1>  -0.6500 
  3 O        0.7730     0.6440     2.9550 O.2   1 <1>  -0.6500 
  4 N       -1.0280     0.5090     1.2160 N.am  1 <1>  -0.8490 
  5 C        1.4120    -0.8620     0.8110 C.ar  1 <1>  -0.0090 
  6 C       -0.6080     1.8230     0.7350 C.3   1 <1>   0.1960 
  7 C       -2.2790     0.5690     1.9820 C.3   1 <1>   0.1960 
  8 C        2.6360    -1.4230     1.1840 C.ar  1 <1>  -0.1440 
  9 C        1.1550    -0.7220    -0.5490 C.ar  1 <1>  -0.1500 
 10 C       -1.5920     2.2990    -0.3390 C.3   1 <1>  -0.1600 
 11 C       -3.2370     1.6580     1.4800 C.3   1 <1>  -0.1600 
 12 C        3.5540    -1.7970     0.2150 C.ar  1 <1>  -0.1500 
 13 C        2.9960    -1.6420     2.6480 C.3   1 <1>  -0.0970 
 14 C        2.0690    -1.0670    -1.5440 C.ar  1 <1>  -0.1790 
 15 C       -3.0600     1.9660    -0.0080 C.3   1 <1>   0.4180 
 16 C        3.2760    -1.6180    -1.1250 C.ar  1 <1>  -0.1500 
 17 C        1.7750    -0.8470    -2.9550 C.2   1 <1>   0.9790 
 18 O       -3.8480     3.1070    -0.2430 O.3   1 <1>  -0.5600 
 19 C       -3.5730     0.7950    -0.8480 C.2   1 <1>  -0.2880 
 20 O        2.5190    -1.3080    -3.8390 O.co2 1 <1>  -0.9000 
 21 O        0.7820    -0.1780    -3.2930 O.co2 1 <1>  -0.9000 
 22 C       -4.1890     3.3670    -1.5760 C.3   1 <1>   0.1200 
 23 C       -4.5090     0.9020    -1.7940 C.2   1 <1>  -0.2760 
 24 C       -5.1040     2.2590    -2.1160 C.3   1 <1>  -0.0220 
 25 C       -5.0370    -0.2630    -2.6120 C.3   1 <1>  -0.1020 
 26 H        0.3800     1.7740     0.3070 H     1 <1>   0.0800 
 27 H       -0.5790     2.5190     1.5580 H     1 <1>   0.0800 
 28 H       -2.0650     0.7490     3.0240 H     1 <1>   0.0800 
 29 H       -2.7610    -0.3920     1.9090 H     1 <1>   0.0800 
 30 H        0.2090    -0.3270    -0.8780 H     1 <1>   0.1500 
 31 H       -1.3250     1.8350    -1.2720 H     1 <1>   0.0800 
 32 H       -1.4680     3.3600    -0.4560 H     1 <1>   0.0800 
 33 H       -3.0520     2.5560     2.0410 H     1 <1>   0.0800 
 34 H       -4.2500     1.3560     1.6690 H     1 <1>   0.0800 
 35 H        4.4990    -2.2290     0.4930 H     1 <1>   0.1500 
 36 H        2.2310    -2.2160     3.1400 H     1 <1>   0.0800 
 37 H        3.1010    -0.6950     3.1490 H     1 <1>   0.0800 
 38 H        3.9240    -2.1760     2.7420 H     1 <1>   0.0800 
 39 H        3.9970    -1.9040    -1.8740 H     1 <1>   0.1500 
 40 H       -3.0900    -0.1350    -0.6020 H     1 <1>   0.1500 
 41 H       -3.2850     3.4230    -2.1580 H     1 <1>   0.0800 
 42 H       -4.6890     4.3180    -1.6120 H     1 <1>   0.0800 
 43 H       -5.1960     2.3810    -3.1810 H     1 <1>   0.0800 
 44 H       -6.0830     2.3450    -1.6790 H     1 <1>   0.0800 
 45 H       -6.0980    -0.3640    -2.4730 H     1 <1>   0.0800 
 46 H       -4.5600    -1.1780    -2.3090 H     1 <1>   0.0800 
 47 H       -4.8300    -0.1050    -3.6560 H     1 <1>   0.0800 
@<TRIPOS>BOND
  1   1   2  2   
  2   1   3  2   
  3   1   4  am  
  4   1   5  1   
  5   4   6  1   
  6   4   7  1   
  7   5   8  ar  
  8   5   9  ar  
  9   6  10  1   
 10   6  26  1   
 11   6  27  1   
 12   7  11  1   
 13   7  28  1   
 14   7  29  1   
 15   8  12  ar  
 16   8  13  1   
 17   9  14  ar  
 18   9  30  1   
 19  10  15  1   
 20  10  31  1   
 21  10  32  1   
 22  11  15  1   
 23  11  33  1   
 24  11  34  1   
 25  12  16  ar  
 26  12  35  1   
 27  13  36  1   
 28  13  37  1   
 29  13  38  1   
 30  14  16  ar  
 31  14  17  1   
 32  15  18  1   
 33  15  19  1   
 34  16  39  1   
 35  17  20  ar  
 36  17  21  ar  
 37  18  22  1   
 38  19  23  2   
 39  19  40  1   
 40  22  24  1   
 41  22  41  1   
 42  22  42  1   
 43  23  24  1   
 44  23  25  1   
 45  24  43  1   
 46  24  44  1   
 47  25  45  1   
 48  25  46  1   
 49  25  47  1   
@<TRIPOS>SUBSTRUCTURE
  1 ****   4 GROUP 4 **** **** 0

# MOE 2024.06 (io_trps.svl 2023.06)
