@<TRIPOS>MOLECULE
NONAME
45 47 1 0 0 
SMALL
USER_CHARGES


@<TRIPOS>ATOM
  1 F       -2.5240    -1.4960     2.3290 F     1 <1>  -0.1900 
  2 C       -2.7910    -0.3390     1.7830 C.ar  1 <1>   0.1900 
  3 C       -3.2320    -0.2910     0.4640 C.ar  1 <1>  -0.1440 
  4 C       -2.6240     0.7930     2.5570 C.ar  1 <1>  -0.1500 
  5 C       -3.5190     0.9510    -0.0910 C.ar  1 <1>  -0.1500 
  6 C       -3.4070    -1.5560    -0.3680 C.3   1 <1>  -0.0160 
  7 C       -2.9170     2.0050     1.9670 C.ar  1 <1>   0.1900 
  8 C       -3.3620     2.1060     0.6600 C.ar  1 <1>  -0.1500 
  9 C       -4.7680    -2.2020    -0.0900 C.3   1 <1>  -0.0990 
 10 F       -2.7710     3.0970     2.6680 F     1 <1>  -0.1900 
 11 C       -4.9420    -3.4630    -0.9030 C.2   1 <1>   0.5690 
 12 O       -5.3660    -3.3840    -2.0280 O.2   1 <1>  -0.5700 
 13 N       -4.6130    -4.6510    -0.3430 N.am  1 <1>  -0.7300 
 14 C       -4.6850    -5.9610    -1.0310 C.3   1 <1>   0.2200 
 15 C       -5.8730    -6.7790    -0.5420 C.3   1 <1>  -0.0800 
 16 C       -3.5320    -6.8310    -0.5510 C.3   1 <1>   0.1200 
 17 C       -5.3310    -7.4560     0.7220 C.3   1 <1>   0.1200 
 18 C       -7.1860    -6.0030    -0.3340 C.3   1 <1>  -0.0170 
 19 O       -3.9390    -7.3170     0.6910 O.3   1 <1>  -0.5600 
 20 C       -8.3160    -6.9440     0.0550 C.ar  1 <1>  -0.1430 
 21 C       -8.7070    -7.1190     1.3670 C.ar  1 <1>  -0.1500 
 22 C       -9.0090    -7.6740    -0.8900 C.ar  1 <1>  -0.1500 
 23 C       -9.7390    -7.9950     1.6620 C.ar  1 <1>   0.1600 
 24 C      -10.0260    -8.5230    -0.4880 C.ar  1 <1>   0.1600 
 25 N      -10.4060    -8.7040     0.7660 N.ar  1 <1>  -0.6200 
 26 H       -2.2810     0.7330     3.5720 H     1 <1>   0.1500 
 27 H       -3.8660     1.0230    -1.1090 H     1 <1>   0.1500 
 28 H       -3.3340    -1.3180    -1.4160 H     1 <1>   0.0800 
 29 H       -2.6190    -2.2530    -0.1420 H     1 <1>   0.0800 
 30 H       -3.5800     3.0730     0.2420 H     1 <1>   0.1500 
 31 H       -5.5530    -1.5150    -0.3500 H     1 <1>   0.0800 
 32 H       -4.8600    -2.4330     0.9560 H     1 <1>   0.0800 
 33 H       -4.2650    -4.7060     0.6180 H     1 <1>   0.3700 
 34 H       -4.6820    -5.8300    -2.1000 H     1 <1>   0.0800 
 35 H       -6.0550    -7.5540    -1.2660 H     1 <1>   0.0800 
 36 H       -2.6110    -6.2860    -0.4470 H     1 <1>   0.0800 
 37 H       -3.3900    -7.6740    -1.2060 H     1 <1>   0.0800 
 38 H       -5.5790    -8.5030     0.7510 H     1 <1>   0.0800 
 39 H       -5.6850    -6.9740     1.6170 H     1 <1>   0.0800 
 40 H       -7.4460    -5.4910    -1.2450 H     1 <1>   0.0800 
 41 H       -7.0660    -5.2560     0.4300 H     1 <1>   0.0800 
 42 H       -8.2230    -6.5840     2.1620 H     1 <1>   0.1500 
 43 H       -8.7680    -7.5890    -1.9340 H     1 <1>   0.1500 
 44 H      -10.0300    -8.1200     2.6910 H     1 <1>   0.1500 
 45 H      -10.5550    -9.0850    -1.2390 H     1 <1>   0.1500 
@<TRIPOS>BOND
  1   1   2  1   
  2   2   3  ar  
  3   2   4  ar  
  4   3   5  ar  
  5   3   6  1   
  6   4   7  ar  
  7   4  26  1   
  8   5   8  ar  
  9   5  27  1   
 10   6   9  1   
 11   6  28  1   
 12   6  29  1   
 13   7   8  ar  
 14   7  10  1   
 15   8  30  1   
 16   9  11  1   
 17   9  31  1   
 18   9  32  1   
 19  11  12  2   
 20  11  13  am  
 21  13  14  1   
 22  13  33  1   
 23  14  15  1   
 24  14  16  1   
 25  14  34  1   
 26  15  17  1   
 27  15  18  1   
 28  15  35  1   
 29  16  19  1   
 30  16  36  1   
 31  16  37  1   
 32  17  19  1   
 33  17  38  1   
 34  17  39  1   
 35  18  20  1   
 36  18  40  1   
 37  18  41  1   
 38  20  21  ar  
 39  20  22  ar  
 40  21  23  ar  
 41  21  42  1   
 42  22  24  ar  
 43  22  43  1   
 44  23  25  ar  
 45  23  44  1   
 46  24  25  ar  
 47  24  45  1   
@<TRIPOS>SUBSTRUCTURE
  1 ****  13 GROUP 4 **** **** 0

# MOE 2024.06 (io_trps.svl 2023.06)
