@<TRIPOS>MOLECULE
NONAME
55 58 1 0 0 
SMALL
USER_CHARGES


@<TRIPOS>ATOM
  1 O        0.7670    -0.2310    -0.3760 O.3   1 <1>  -0.2800 
  2 C        1.6070    -1.2000    -0.0330 C.2   1 <1>   0.0870 
  3 C        1.2320     0.9130     0.0790 C.2   1 <1>  -0.0100 
  4 C        1.3270    -2.5690    -0.4110 C.ar  1 <1>   0.0530 
  5 C        2.6390    -0.6510     0.6630 C.2   1 <1>  -0.1500 
  6 C        2.3940     0.7220     0.7350 C.2   1 <1>  -0.1500 
  7 C        2.0540    -3.6330     0.1200 C.ar  1 <1>  -0.1500 
  8 C        0.3210    -2.8770    -1.3240 C.ar  1 <1>  -0.1500 
  9 C        1.7840    -4.9420    -0.2330 C.ar  1 <1>  -0.1500 
 10 C        0.0440    -4.1820    -1.6850 C.ar  1 <1>  -0.1500 
 11 C        0.7670    -5.2280    -1.1330 C.ar  1 <1>  -0.1430 
 12 C        0.4430    -6.6620    -1.5010 C.3   1 <1>   0.4860 
 13 N       -0.3380    -7.2630    -0.3750 N.4   1 <1>  -0.9590 
 14 C       -0.4870    -8.7560    -0.5110 C.3   1 <1>   0.3430 
 15 C       -1.6470    -6.5470    -0.1900 C.3   1 <1>   0.3430 
 16 C       -1.5300    -9.2710     0.5170 C.3   1 <1>   0.4230 
 17 C       -2.6060    -7.3290     0.7340 C.3   1 <1>  -0.1600 
 18 N       -1.4030   -10.6930     1.0330 N.4   1 <1>  -0.9590 
 19 C       -2.9900    -8.7650     0.0930 C.3   1 <1>   0.0000 
 20 C       -1.4570   -11.7340    -0.0100 C.3   1 <1>   0.3430 
 21 C       -0.2530   -10.9240     1.9670 C.3   1 <1>   0.2630 
 22 C       -3.3860   -10.1590    -0.6260 C.3   1 <1>  -0.1600 
 23 C       -4.4640    -8.2190    -0.2370 C.3   1 <1>   0.1200 
 24 C       -2.3700   -11.2270    -1.1040 C.3   1 <1>  -0.1600 
 25 O       -5.1820    -8.2620     0.9520 O.3   1 <1>  -0.6800 
 26 H        0.6740     1.8150    -0.1080 H     1 <1>   0.1500 
 27 H        3.4950    -1.1440     1.0860 H     1 <1>   0.1500 
 28 H        3.0210     1.4500     1.2200 H     1 <1>   0.1500 
 29 H        2.8440    -3.4280     0.8200 H     1 <1>   0.1500 
 30 H       -0.2480    -2.0740    -1.7610 H     1 <1>   0.1500 
 31 H        2.3840    -5.7240     0.2010 H     1 <1>   0.1500 
 32 H       -0.7390    -4.3600    -2.4030 H     1 <1>   0.1500 
 33 H        1.3630    -7.2020    -1.6550 H     1 <1>   0.0800 
 34 H       -0.1270    -6.6870    -2.4160 H     1 <1>   0.0800 
 35 H        0.2210    -7.0380     0.4620 H     1 <1>   0.4500 
 36 H       -0.8260    -8.9950    -1.5050 H     1 <1>   0.0800 
 37 H        0.4630    -9.2320    -0.3400 H     1 <1>   0.0800 
 38 H       -1.4680    -5.5640     0.2220 H     1 <1>   0.0800 
 39 H       -2.1240    -6.4130    -1.1480 H     1 <1>   0.0800 
 40 H       -1.2260    -8.7510     1.4030 H     1 <1>   0.0800 
 41 H       -2.2230    -7.3660     1.7420 H     1 <1>   0.0800 
 42 H       -3.4010    -6.6190     0.9110 H     1 <1>   0.0800 
 43 H       -2.2660   -10.8360     1.5880 H     1 <1>   0.4500 
 44 H       -0.4770   -11.9380    -0.4130 H     1 <1>   0.0800 
 45 H       -1.8520   -12.6480     0.4070 H     1 <1>   0.0800 
 46 H        0.6870   -10.8140     1.4520 H     1 <1>   0.0800 
 47 H       -0.3010   -11.9220     2.3760 H     1 <1>   0.0800 
 48 H       -0.2860   -10.2250     2.7870 H     1 <1>   0.0800 
 49 H       -4.1100   -10.6680    -0.0050 H     1 <1>   0.0800 
 50 H       -3.8540    -9.9860    -1.5830 H     1 <1>   0.0800 
 51 H       -5.1010    -8.7370    -0.9350 H     1 <1>   0.0800 
 52 H       -4.4860    -7.2120    -0.6250 H     1 <1>   0.0800 
 53 H       -1.7760   -10.8420    -1.9130 H     1 <1>   0.0800 
 54 H       -2.9040   -12.0710    -1.5090 H     1 <1>   0.0800 
 55 H       -6.1160    -7.9880     0.8220 H     1 <1>   0.4000 
@<TRIPOS>BOND
  1   1   2  1   
  2   1   3  1   
  3   2   4  1   
  4   2   5  2   
  5   3   6  2   
  6   3  26  1   
  7   4   7  ar  
  8   4   8  ar  
  9   5   6  1   
 10   5  27  1   
 11   6  28  1   
 12   7   9  ar  
 13   7  29  1   
 14   8  10  ar  
 15   8  30  1   
 16   9  11  ar  
 17   9  31  1   
 18  10  11  ar  
 19  10  32  1   
 20  11  12  1   
 21  12  13  1   
 22  12  33  1   
 23  12  34  1   
 24  13  14  1   
 25  13  15  1   
 26  13  35  1   
 27  14  16  1   
 28  14  36  1   
 29  14  37  1   
 30  15  17  1   
 31  15  38  1   
 32  15  39  1   
 33  16  18  1   
 34  16  19  1   
 35  16  40  1   
 36  17  19  1   
 37  17  41  1   
 38  17  42  1   
 39  18  20  1   
 40  18  21  1   
 41  18  43  1   
 42  19  22  1   
 43  19  23  1   
 44  20  24  1   
 45  20  44  1   
 46  20  45  1   
 47  21  46  1   
 48  21  47  1   
 49  21  48  1   
 50  22  24  1   
 51  22  49  1   
 52  22  50  1   
 53  23  25  1   
 54  23  51  1   
 55  23  52  1   
 56  24  53  1   
 57  24  54  1   
 58  25  55  1   
@<TRIPOS>SUBSTRUCTURE
  1 ****  15 GROUP 4 **** **** 0

# MOE 2024.06 (io_trps.svl 2023.06)
