@<TRIPOS>MOLECULE
NONAME
47 48 1 0 0 
SMALL
USER_CHARGES


@<TRIPOS>ATOM
  1 S        0.0010    -0.4110     0.4580 S.o2  1 <1>   1.3330 
  2 O        0.3550    -1.2790     1.5580 O.2   1 <1>  -0.6500 
  3 O       -0.7810     0.7780     0.7110 O.2   1 <1>  -0.6500 
  4 N       -0.8130    -1.3490    -0.7000 N.am  1 <1>  -0.8490 
  5 C        1.4810     0.0930    -0.4200 C.3   1 <1>  -0.0550 
  6 C       -2.2690    -1.2970    -0.5340 C.3   1 <1>   0.1160 
  7 C       -0.3640    -2.7450    -0.7390 C.3   1 <1>   0.1160 
  8 C        2.3800     1.0520     0.3890 C.3   1 <1>  -0.0800 
  9 C        3.4800     1.6380    -0.4790 C.3   1 <1>   0.2200 
 10 C        3.1840     0.3140     1.4650 C.3   1 <1>   0.1200 
 11 N        3.9490     2.9060     0.1220 N.am  1 <1>  -0.7300 
 12 C        4.5700     0.5780    -0.3640 C.3   1 <1>   0.1200 
 13 O        4.4210    -0.0040     0.8970 O.3   1 <1>  -0.5600 
 14 C        3.7980     4.1290    -0.4390 C.2   1 <1>   0.5690 
 15 O        3.2800     4.2800    -1.5170 O.2   1 <1>  -0.5700 
 16 C        4.2970     5.3430     0.3030 C.3   1 <1>  -0.0990 
 17 C        5.3670     6.0610    -0.5220 C.3   1 <1>   0.0960 
 18 N        5.8510     7.2480     0.2040 N.pl3 1 <1>   0.3140 
 19 N        6.7720     7.1310     1.1780 N.2   1 <1>  -0.7070 
 20 C        5.4580     8.5340     0.0500 C.2   1 <1>  -0.3320 
 21 C        6.9500     8.3400     1.6140 C.2   1 <1>   0.1390 
 22 C        6.1540     9.2620     0.9470 C.2   1 <1>  -0.1500 
 23 C        4.4230     9.0170    -0.9540 C.3   1 <1>  -0.0600 
 24 H        2.0430    -0.7750    -0.7050 H     1 <1>   0.0800 
 25 H        1.1730     0.5930    -1.3180 H     1 <1>   0.0800 
 26 H       -2.7530    -1.8880    -1.2930 H     1 <1>   0.0800 
 27 H       -2.6150    -0.2810    -0.6300 H     1 <1>   0.0800 
 28 H       -2.5480    -1.6670     0.4380 H     1 <1>   0.0800 
 29 H       -0.8440    -3.2650    -1.5500 H     1 <1>   0.0800 
 30 H       -0.6030    -3.2430     0.1870 H     1 <1>   0.0800 
 31 H        0.7000    -2.7900    -0.8900 H     1 <1>   0.0800 
 32 H        1.7670     1.8280     0.8150 H     1 <1>   0.0800 
 33 H        3.1770     1.7970    -1.5010 H     1 <1>   0.0800 
 34 H        2.7190    -0.5920     1.8100 H     1 <1>   0.0800 
 35 H        3.3710     0.9580     2.3070 H     1 <1>   0.0800 
 36 H        4.4220     2.8000     1.0230 H     1 <1>   0.3700 
 37 H        5.5600     0.9900    -0.4580 H     1 <1>   0.0800 
 38 H        4.4270    -0.1950    -1.0980 H     1 <1>   0.0800 
 39 H        3.4650     6.0010     0.4720 H     1 <1>   0.0800 
 40 H        4.7080     5.0500     1.2520 H     1 <1>   0.0800 
 41 H        4.9700     6.3650    -1.4730 H     1 <1>   0.0800 
 42 H        6.2040     5.4080    -0.6930 H     1 <1>   0.0800 
 43 H        7.6380     8.5900     2.4040 H     1 <1>   0.1500 
 44 H        6.1240    10.3210     1.1320 H     1 <1>   0.1500 
 45 H        4.2730    10.0770    -0.8500 H     1 <1>   0.0800 
 46 H        3.4830     8.5210    -0.7890 H     1 <1>   0.0800 
 47 H        4.7550     8.8160    -1.9570 H     1 <1>   0.0800 
@<TRIPOS>BOND
  1   1   2  2   
  2   1   3  2   
  3   1   4  am  
  4   1   5  1   
  5   4   6  1   
  6   4   7  1   
  7   5   8  1   
  8   5  24  1   
  9   5  25  1   
 10   6  26  1   
 11   6  27  1   
 12   6  28  1   
 13   7  29  1   
 14   7  30  1   
 15   7  31  1   
 16   8   9  1   
 17   8  10  1   
 18   8  32  1   
 19   9  11  1   
 20   9  12  1   
 21   9  33  1   
 22  10  13  1   
 23  10  34  1   
 24  10  35  1   
 25  11  14  am  
 26  11  36  1   
 27  12  13  1   
 28  12  37  1   
 29  12  38  1   
 30  14  15  2   
 31  14  16  1   
 32  16  17  1   
 33  16  39  1   
 34  16  40  1   
 35  17  18  1   
 36  17  41  1   
 37  17  42  1   
 38  18  19  1   
 39  18  20  1   
 40  19  21  2   
 41  20  22  2   
 42  20  23  1   
 43  21  22  1   
 44  21  43  1   
 45  22  44  1   
 46  23  45  1   
 47  23  46  1   
 48  23  47  1   
@<TRIPOS>SUBSTRUCTURE
  1 ****  11 GROUP 4 **** **** 0

# MOE 2024.06 (io_trps.svl 2023.06)
