@<TRIPOS>MOLECULE
NONAME
41 42 1 0 0 
SMALL
USER_CHARGES


@<TRIPOS>ATOM
  1 O       -1.0570    -1.3510    -1.3660 O.2   1 <1>  -0.5700 
  2 C       -1.5190    -2.2830    -0.7600 C.2   1 <1>   0.5690 
  3 N       -2.7940    -2.6780    -0.8070 N.am  1 <1>  -0.7300 
  4 C       -0.7430    -3.1310     0.2090 C.3   1 <1>  -0.0990 
  5 C       -3.1460    -3.7210     0.1560 C.3   1 <1>   0.2200 
  6 C       -1.7750    -4.1680     0.7010 C.3   1 <1>  -0.1600 
  7 C       -4.0750    -3.1410     1.2400 C.3   1 <1>   0.1100 
  8 N       -5.2920    -2.5350     0.6390 N.3   1 <1>  -0.8100 
  9 C       -6.5020    -3.3670     0.8230 C.3   1 <1>   0.3100 
 10 C       -5.4930    -1.1550     1.1120 C.3   1 <1>   0.2530 
 11 C       -6.3200    -4.7250     0.2310 C.1   1 <1>  -0.2000 
 12 C       -6.6120    -0.4610     0.3480 C.ar  1 <1>  -0.1430 
 13 C       -6.1590    -5.8040    -0.2410 C.1   1 <1>  -0.2000 
 14 C       -6.6440    -0.4370    -1.0320 C.ar  1 <1>  -0.1500 
 15 C       -7.6530     0.1790     0.9910 C.ar  1 <1>  -0.1500 
 16 C       -5.9350    -7.1450    -0.8500 C.3   1 <1>   0.0400 
 17 C       -7.6830     0.2050    -1.6840 C.ar  1 <1>   0.1600 
 18 C       -8.6450     0.7920     0.2440 C.ar  1 <1>   0.1600 
 19 C       -4.4580    -7.3330    -1.1990 C.3   1 <1>  -0.2400 
 20 N       -8.6860     0.8210    -1.0790 N.ar  1 <1>  -0.6200 
 21 H       -3.5420    -2.1320    -1.2380 H     1 <1>   0.3700 
 22 H        0.0880    -3.5970    -0.2880 H     1 <1>   0.0800 
 23 H       -0.3930    -2.5130     1.0140 H     1 <1>   0.0800 
 24 H       -3.6320    -4.5360    -0.3510 H     1 <1>   0.0800 
 25 H       -1.7750    -4.2520     1.7730 H     1 <1>   0.0800 
 26 H       -1.5400    -5.1330     0.2880 H     1 <1>   0.0800 
 27 H       -3.5200    -2.4010     1.7910 H     1 <1>   0.0800 
 28 H       -4.3440    -3.9200     1.9340 H     1 <1>   0.0800 
 29 H       -6.7270    -3.4600     1.8710 H     1 <1>   0.0800 
 30 H       -7.3430    -2.9050     0.3360 H     1 <1>   0.0800 
 31 H       -5.7090    -1.1600     2.1660 H     1 <1>   0.0800 
 32 H       -4.5860    -0.5940     0.9570 H     1 <1>   0.0800 
 33 H       -5.8680    -0.9190    -1.5990 H     1 <1>   0.1500 
 34 H       -7.7050     0.2080     2.0640 H     1 <1>   0.1500 
 35 H       -6.2470    -7.9050    -0.1560 H     1 <1>   0.0800 
 36 H       -6.5340    -7.2320    -1.7390 H     1 <1>   0.0800 
 37 H       -7.6880     0.2100    -2.7610 H     1 <1>   0.1500 
 38 H       -9.4500     1.2870     0.7610 H     1 <1>   0.1500 
 39 H       -3.8530    -7.2600    -0.3120 H     1 <1>   0.0800 
 40 H       -4.1430    -6.5780    -1.8980 H     1 <1>   0.0800 
 41 H       -4.3040    -8.3000    -1.6430 H     1 <1>   0.0800 
@<TRIPOS>BOND
  1   1   2  2   
  2   2   3  am  
  3   2   4  1   
  4   3   5  1   
  5   3  21  1   
  6   4   6  1   
  7   4  22  1   
  8   4  23  1   
  9   5   6  1   
 10   5   7  1   
 11   5  24  1   
 12   6  25  1   
 13   6  26  1   
 14   7   8  1   
 15   7  27  1   
 16   7  28  1   
 17   8   9  1   
 18   8  10  1   
 19   9  11  1   
 20   9  29  1   
 21   9  30  1   
 22  10  12  1   
 23  10  31  1   
 24  10  32  1   
 25  11  13  3   
 26  12  14  ar  
 27  12  15  ar  
 28  13  16  1   
 29  14  17  ar  
 30  14  33  1   
 31  15  18  ar  
 32  15  34  1   
 33  16  19  1   
 34  16  35  1   
 35  16  36  1   
 36  17  20  ar  
 37  17  37  1   
 38  18  20  ar  
 39  18  38  1   
 40  19  39  1   
 41  19  40  1   
 42  19  41  1   
@<TRIPOS>SUBSTRUCTURE
  1 ****   8 GROUP 4 **** **** 0

# MOE 2024.06 (io_trps.svl 2023.06)
