@<TRIPOS>MOLECULE
NONAME
56 59 1 0 0 
SMALL
USER_CHARGES


@<TRIPOS>ATOM
  1 O       -0.2260     0.3790     0.3340 O.2   1 <1>  -0.5700 
  2 C       -0.6970     1.3280    -0.2780 C.2   1 <1>   0.7160 
  3 N       -1.9920     1.1790    -0.7580 N.am  1 <1>  -0.6600 
  4 C        0.0970     2.5480    -0.4610 C.2   1 <1>   0.2030 
  5 C       -2.5960    -0.1810    -0.8810 C.3   1 <1>   0.1400 
  6 C       -2.8260     2.3440    -1.1700 C.3   1 <1>   0.1400 
  7 N       -0.0120     3.4110    -1.4640 N.2   1 <1>  -0.7070 
  8 C        1.1090     2.9840     0.4150 C.2   1 <1>  -0.1810 
  9 C       -3.3460    -0.5750     0.4000 C.3   1 <1>   0.1400 
 10 C       -4.3050     2.2240    -0.7760 C.3   1 <1>  -0.1600 
 11 N        0.9020     4.3630    -1.2310 N.pl3 1 <1>   0.3000 
 12 C        1.5810     4.1320    -0.0960 C.2   1 <1>  -0.3320 
 13 C        1.6320     2.3710     1.7050 C.3   1 <1>   0.0210 
 14 N       -4.6490     0.1540     0.5390 N.am  1 <1>  -0.6600 
 15 C       -4.5330     1.6390     0.6220 C.3   1 <1>   0.1400 
 16 C        2.6810     4.9880     0.5040 C.3   1 <1>   0.0200 
 17 C        2.9600     3.0340     2.1220 C.3   1 <1>  -0.1600 
 18 C       -5.8840    -0.4460     0.5760 C.2   1 <1>   0.5690 
 19 C        2.9200     4.5670     1.9640 C.3   1 <1>  -0.1600 
 20 O       -6.9040     0.2030     0.6160 O.2   1 <1>  -0.5700 
 21 C       -6.0100    -1.9590     0.5480 C.3   1 <1>  -0.0990 
 22 C       -7.4550    -2.4380     0.7510 C.3   1 <1>   0.0960 
 23 N       -7.5380    -3.9040     0.6250 N.pl3 1 <1>   0.3140 
 24 N       -6.8710    -4.7340     1.4500 N.2   1 <1>  -0.7070 
 25 C       -8.2430    -4.5930    -0.2940 C.2   1 <1>  -0.3020 
 26 C       -7.1740    -5.9270     1.0380 C.2   1 <1>   0.1390 
 27 C       -8.0320    -5.9030    -0.0560 C.2   1 <1>  -0.1810 
 28 C       -8.5910    -7.1000    -0.7970 C.3   1 <1>  -0.0590 
 29 H       -1.8100    -0.8970    -1.0510 H     1 <1>   0.0800 
 30 H       -3.2570    -0.2230    -1.7280 H     1 <1>   0.0800 
 31 H       -2.7400     2.4800    -2.2350 H     1 <1>   0.0800 
 32 H       -2.4390     3.2320    -0.6990 H     1 <1>   0.0800 
 33 H       -2.7240    -0.3680     1.2540 H     1 <1>   0.0800 
 34 H       -3.5060    -1.6360     0.3740 H     1 <1>   0.0800 
 35 H       -4.8430     1.6480    -1.5070 H     1 <1>   0.0800 
 36 H       -4.7220     3.2140    -0.7980 H     1 <1>   0.0800 
 37 H        1.0420     5.1610    -1.8620 H     1 <1>   0.2700 
 38 H        1.7920     1.3150     1.5780 H     1 <1>   0.0800 
 39 H        0.8960     2.5100     2.4760 H     1 <1>   0.0800 
 40 H       -5.4410     2.0500     1.0310 H     1 <1>   0.0800 
 41 H       -3.7290     1.9100     1.2860 H     1 <1>   0.0800 
 42 H        2.4100     6.0290     0.4690 H     1 <1>   0.0800 
 43 H        3.5830     4.8490    -0.0670 H     1 <1>   0.0800 
 44 H        3.7490     2.6420     1.5040 H     1 <1>   0.0800 
 45 H        3.1810     2.7750     3.1420 H     1 <1>   0.0800 
 46 H        2.1230     4.9560     2.5740 H     1 <1>   0.0800 
 47 H        3.8430     4.9950     2.3140 H     1 <1>   0.0800 
 48 H       -5.4030    -2.3690     1.3350 H     1 <1>   0.0800 
 49 H       -5.6500    -2.3120    -0.4000 H     1 <1>   0.0800 
 50 H       -8.1010    -1.9930     0.0160 H     1 <1>   0.0800 
 51 H       -7.8020    -2.1600     1.7290 H     1 <1>   0.0800 
 52 H       -8.8440    -4.1200    -1.0480 H     1 <1>   0.1500 
 53 H       -6.7980    -6.8250     1.4980 H     1 <1>   0.1500 
 54 H       -9.2250    -6.7750    -1.6020 H     1 <1>   0.0800 
 55 H       -9.1670    -7.7100    -0.1250 H     1 <1>   0.0800 
 56 H       -7.7870    -7.6880    -1.2040 H     1 <1>   0.0800 
@<TRIPOS>BOND
  1   1   2  2   
  2   2   3  am  
  3   2   4  1   
  4   3   5  1   
  5   3   6  1   
  6   4   7  2   
  7   4   8  1   
  8   5   9  1   
  9   5  29  1   
 10   5  30  1   
 11   6  10  1   
 12   6  31  1   
 13   6  32  1   
 14   7  11  1   
 15   8  12  2   
 16   8  13  1   
 17   9  14  1   
 18   9  33  1   
 19   9  34  1   
 20  10  15  1   
 21  10  35  1   
 22  10  36  1   
 23  11  12  1   
 24  11  37  1   
 25  12  16  1   
 26  13  17  1   
 27  13  38  1   
 28  13  39  1   
 29  14  15  1   
 30  14  18  am  
 31  15  40  1   
 32  15  41  1   
 33  16  19  1   
 34  16  42  1   
 35  16  43  1   
 36  17  19  1   
 37  17  44  1   
 38  17  45  1   
 39  18  20  2   
 40  18  21  1   
 41  19  46  1   
 42  19  47  1   
 43  21  22  1   
 44  21  48  1   
 45  21  49  1   
 46  22  23  1   
 47  22  50  1   
 48  22  51  1   
 49  23  24  1   
 50  23  25  1   
 51  24  26  2   
 52  25  27  2   
 53  25  52  1   
 54  26  27  1   
 55  26  53  1   
 56  27  28  1   
 57  28  54  1   
 58  28  55  1   
 59  28  56  1   
@<TRIPOS>SUBSTRUCTURE
  1 ****   9 GROUP 4 **** **** 0

# MOE 2024.06 (io_trps.svl 2023.06)
