@<TRIPOS>MOLECULE
NONAME
54 55 1 0 0 
SMALL
USER_CHARGES


@<TRIPOS>ATOM
  1 S        2.9140     2.3050    -0.5890 S.o2  1 <1>   1.3330 
  2 O        3.9870     1.3570    -0.3950 O.2   1 <1>  -0.6500 
  3 O        2.6960     2.8500    -1.9100 O.2   1 <1>  -0.6500 
  4 N        3.2220     3.6030     0.4590 N.am  1 <1>  -0.8490 
  5 C        1.3880     1.5130    -0.0390 C.3   1 <1>  -0.0550 
  6 C        4.2780     4.4730    -0.0790 C.3   1 <1>   0.1160 
  7 C        3.6050     3.1910     1.8130 C.3   1 <1>   0.1160 
  8 C        0.0490     2.2950    -0.0080 C.3   1 <1>  -0.0800 
  9 C       -0.2520     3.1340    -1.2560 C.3   1 <1>   0.2000 
 10 C       -0.0700     3.2790     1.1630 C.3   1 <1>   0.1400 
 11 O       -1.6280     3.1420    -1.4270 O.3   1 <1>  -0.6800 
 12 C        0.1810     4.5550    -0.8960 C.3   1 <1>   0.1400 
 13 N        0.0260     4.6330     0.5790 N.am  1 <1>  -0.6600 
 14 C        0.1650     5.7380     1.3720 C.2   1 <1>   0.5690 
 15 O        0.0190     5.6740     2.5690 O.2   1 <1>  -0.5700 
 16 C        0.5410     7.0830     0.7730 C.3   1 <1>  -0.0990 
 17 C        2.0520     7.1410     0.5160 C.3   1 <1>  -0.1600 
 18 C        2.5290     8.4730    -0.0650 C.3   1 <1>  -0.0160 
 19 C        4.0150     8.3610    -0.3650 C.ar  1 <1>  -0.1440 
 20 C        4.9540     8.7310     0.5850 C.ar  1 <1>  -0.1500 
 21 C        4.4430     7.8610    -1.5850 C.ar  1 <1>  -0.1500 
 22 C        6.3070     8.6000     0.3240 C.ar  1 <1>  -0.1500 
 23 C        5.7940     7.7280    -1.8480 C.ar  1 <1>  -0.1500 
 24 C        6.7340     8.0930    -0.9000 C.ar  1 <1>   0.0820 
 25 O        8.0380     7.9270    -1.2350 O.3   1 <1>  -0.3620 
 26 C        9.0740     8.3150    -0.3610 C.3   1 <1>   0.0400 
 27 H        1.2330     0.6740    -0.6900 H     1 <1>   0.0800 
 28 H        1.5540     1.1000     0.9360 H     1 <1>   0.0800 
 29 H        4.4490     5.3100     0.5770 H     1 <1>   0.0800 
 30 H        3.9890     4.8580    -1.0430 H     1 <1>   0.0800 
 31 H        5.1980     3.9230    -0.1940 H     1 <1>   0.0800 
 32 H        3.7100     4.0580     2.4430 H     1 <1>   0.0800 
 33 H        4.5400     2.6550     1.7940 H     1 <1>   0.0800 
 34 H        2.8520     2.5550     2.2420 H     1 <1>   0.0800 
 35 H       -0.7170     1.5470     0.1100 H     1 <1>   0.0800 
 36 H        0.1940     2.7630    -2.1630 H     1 <1>   0.0800 
 37 H        0.7000     3.1360     1.9000 H     1 <1>   0.0800 
 38 H       -1.0290     3.1780     1.6420 H     1 <1>   0.0800 
 39 H       -2.0360     3.6230    -0.6790 H     1 <1>   0.4000 
 40 H       -0.4180     5.2910    -1.4030 H     1 <1>   0.0800 
 41 H        1.2140     4.7010    -1.1530 H     1 <1>   0.0800 
 42 H       -0.0070     7.2440    -0.1360 H     1 <1>   0.0800 
 43 H        0.2630     7.8550     1.4680 H     1 <1>   0.0800 
 44 H        2.5740     6.9490     1.4380 H     1 <1>   0.0800 
 45 H        2.3120     6.3610    -0.1730 H     1 <1>   0.0800 
 46 H        2.3510     9.2690     0.6370 H     1 <1>   0.0800 
 47 H        1.9920     8.6990    -0.9690 H     1 <1>   0.0800 
 48 H        4.6330     9.1190     1.5360 H     1 <1>   0.1500 
 49 H        3.7270     7.5690    -2.3340 H     1 <1>   0.1500 
 50 H        7.0070     8.8950     1.0810 H     1 <1>   0.1500 
 51 H        6.1290     7.3390    -2.7930 H     1 <1>   0.1500 
 52 H       10.0120     8.1090    -0.8440 H     1 <1>   0.0800 
 53 H        8.9970     7.7440     0.5470 H     1 <1>   0.0800 
 54 H        8.9880     9.3690    -0.1640 H     1 <1>   0.0800 
@<TRIPOS>BOND
  1   1   2  2   
  2   1   3  2   
  3   1   4  am  
  4   1   5  1   
  5   4   6  1   
  6   4   7  1   
  7   5   8  1   
  8   5  27  1   
  9   5  28  1   
 10   6  29  1   
 11   6  30  1   
 12   6  31  1   
 13   7  32  1   
 14   7  33  1   
 15   7  34  1   
 16   8   9  1   
 17   8  10  1   
 18   8  35  1   
 19   9  11  1   
 20   9  12  1   
 21   9  36  1   
 22  10  13  1   
 23  10  37  1   
 24  10  38  1   
 25  11  39  1   
 26  12  13  1   
 27  12  40  1   
 28  12  41  1   
 29  13  14  am  
 30  14  15  2   
 31  14  16  1   
 32  16  17  1   
 33  16  42  1   
 34  16  43  1   
 35  17  18  1   
 36  17  44  1   
 37  17  45  1   
 38  18  19  1   
 39  18  46  1   
 40  18  47  1   
 41  19  20  ar  
 42  19  21  ar  
 43  20  22  ar  
 44  20  48  1   
 45  21  23  ar  
 46  21  49  1   
 47  22  24  ar  
 48  22  50  1   
 49  23  24  ar  
 50  23  51  1   
 51  24  25  1   
 52  25  26  1   
 53  26  52  1   
 54  26  53  1   
 55  26  54  1   
@<TRIPOS>SUBSTRUCTURE
  1 ****   6 GROUP 4 **** **** 0

# MOE 2024.06 (io_trps.svl 2023.06)
