@<TRIPOS>MOLECULE
NONAME
40 43 1 0 0 
SMALL
USER_CHARGES


@<TRIPOS>ATOM
  1 CL      -0.3540     0.6790    -0.2670 Cl    1 <1>  -0.1770 
  2 C       -1.6880    -0.4560    -0.3110 C.ar  1 <1>   0.1770 
  3 C       -2.9710    -0.1010     0.1050 C.ar  1 <1>   0.1310 
  4 C       -1.4110    -1.7220    -0.7800 C.ar  1 <1>  -0.1500 
  5 N       -3.9910    -0.9920     0.0610 N.ar  1 <1>  -0.6200 
  6 C       -3.1670     1.2650     0.5850 C.2   1 <1>   0.9790 
  7 C       -2.4600    -2.6080    -0.8170 C.ar  1 <1>  -0.1500 
  8 C       -3.7200    -2.2050    -0.3930 C.ar  1 <1>   0.4100 
  9 O       -3.5120     2.1760    -0.1950 O.co2 1 <1>  -0.9000 
 10 O       -2.9530     1.5610     1.7790 O.co2 1 <1>  -0.9000 
 11 N       -4.7620    -3.1080    -0.4320 N.pl3 1 <1>  -0.8380 
 12 C       -5.0750    -3.7310     0.8760 C.3   1 <1>   0.2090 
 13 C       -5.9920    -2.6170    -1.1040 C.3   1 <1>   0.2090 
 14 C       -5.9510    -4.9590     0.6350 C.3   1 <1>  -0.1600 
 15 C       -6.8940    -3.8110    -1.4030 C.3   1 <1>  -0.1600 
 16 C       -7.2310    -4.5890    -0.1230 C.3   1 <1>   0.4610 
 17 O       -7.9700    -3.7570     0.7540 O.3   1 <1>  -0.5600 
 18 C       -8.0460    -5.8450    -0.4450 C.2   1 <1>  -0.1810 
 19 C       -9.3440    -3.5690     0.5110 C.3   1 <1>   0.1200 
 20 C       -9.3290    -5.9470    -0.0760 C.2   1 <1>  -0.1400 
 21 C       -7.5720    -7.0050    -1.1450 C.2   1 <1>  -0.1500 
 22 C      -10.1160    -4.8910     0.6520 C.3   1 <1>   0.0200 
 23 S      -10.0250    -7.4840    -0.5460 S.3   1 <1>  -0.0800 
 24 C       -8.5040    -7.9690    -1.2810 C.2   1 <1>  -0.1100 
 25 H       -0.4210    -1.9880    -1.0980 H     1 <1>   0.1500 
 26 H       -2.3340    -3.6130    -1.1690 H     1 <1>   0.1500 
 27 H       -5.5860    -3.0160     1.5010 H     1 <1>   0.0800 
 28 H       -4.1620    -4.0170     1.3690 H     1 <1>   0.0800 
 29 H       -5.7260    -2.1110    -2.0160 H     1 <1>   0.0800 
 30 H       -6.4970    -1.9120    -0.4630 H     1 <1>   0.0800 
 31 H       -6.2120    -5.4140     1.5720 H     1 <1>   0.0800 
 32 H       -5.3820    -5.6710     0.0690 H     1 <1>   0.0800 
 33 H       -6.3750    -4.4590    -2.0840 H     1 <1>   0.0800 
 34 H       -7.7900    -3.4850    -1.8930 H     1 <1>   0.0800 
 35 H       -9.4640    -3.1660    -0.4780 H     1 <1>   0.0800 
 36 H       -9.7060    -2.8480     1.2220 H     1 <1>   0.0800 
 37 H       -6.5630    -7.0630    -1.5130 H     1 <1>   0.1500 
 38 H      -11.0960    -4.7880     0.2250 H     1 <1>   0.0800 
 39 H      -10.2130    -5.1560     1.6890 H     1 <1>   0.0800 
 40 H       -8.4690    -8.9390    -1.7430 H     1 <1>   0.1500 
@<TRIPOS>BOND
  1   1   2  1   
  2   2   3  ar  
  3   2   4  ar  
  4   3   5  ar  
  5   3   6  1   
  6   4   7  ar  
  7   4  25  1   
  8   5   8  ar  
  9   6   9  ar  
 10   6  10  ar  
 11   7   8  ar  
 12   7  26  1   
 13   8  11  1   
 14  11  12  1   
 15  11  13  1   
 16  12  14  1   
 17  12  27  1   
 18  12  28  1   
 19  13  15  1   
 20  13  29  1   
 21  13  30  1   
 22  14  16  1   
 23  14  31  1   
 24  14  32  1   
 25  15  16  1   
 26  15  33  1   
 27  15  34  1   
 28  16  17  1   
 29  16  18  1   
 30  17  19  1   
 31  18  20  2   
 32  18  21  1   
 33  19  22  1   
 34  19  35  1   
 35  19  36  1   
 36  20  22  1   
 37  20  23  1   
 38  21  24  2   
 39  21  37  1   
 40  22  38  1   
 41  22  39  1   
 42  23  24  1   
 43  24  40  1   
@<TRIPOS>SUBSTRUCTURE
  1 ****  11 GROUP 4 **** **** 0

# MOE 2024.06 (io_trps.svl 2023.06)
