@<TRIPOS>MOLECULE
NONAME
45 46 1 0 0 
SMALL
USER_CHARGES


@<TRIPOS>ATOM
  1 S       -0.0260     0.1330     0.2720 S.o2  1 <1>   1.3330 
  2 O       -0.7530     1.3710     0.1110 O.2   1 <1>  -0.6500 
  3 O        0.0740    -0.4670     1.5840 O.2   1 <1>  -0.6500 
  4 N       -0.7030    -1.0220    -0.7730 N.am  1 <1>  -0.8490 
  5 C        1.6120     0.3700    -0.4180 C.3   1 <1>  -0.0550 
  6 C       -2.1590    -0.8920    -0.8760 C.3   1 <1>   0.1160 
  7 C       -0.3480    -2.4020    -0.4230 C.3   1 <1>   0.1160 
  8 C        2.4360     1.4530     0.3060 C.3   1 <1>  -0.0800 
  9 C        3.7080     1.7740    -0.4600 C.3   1 <1>   0.2200 
 10 C        2.9950     0.9540     1.6410 C.3   1 <1>   0.1200 
 11 N        4.1740     3.1280    -0.0820 N.am  1 <1>  -0.7300 
 12 C        4.6770     0.7240     0.0750 C.3   1 <1>   0.1200 
 13 O        4.2510     0.4080     1.3690 O.3   1 <1>  -0.5600 
 14 C        4.3090     4.1840    -0.9360 C.2   1 <1>   0.5440 
 15 O        4.0480     4.0140    -2.1110 O.2   1 <1>  -0.5700 
 16 C        4.7500     5.4700    -0.4290 C.ar  1 <1>   0.0860 
 17 C        5.8320     6.1800    -0.9730 C.ar  1 <1>  -0.1440 
 18 C        4.0800     6.0350     0.6600 C.ar  1 <1>  -0.1500 
 19 C        6.2120     7.4010    -0.4370 C.ar  1 <1>  -0.1500 
 20 C        6.6130     5.6290    -2.1600 C.3   1 <1>  -0.0970 
 21 C        4.4610     7.2500     1.1950 C.ar  1 <1>  -0.1500 
 22 C        5.5290     7.9320     0.6440 C.ar  1 <1>   0.0820 
 23 O        5.8920     9.1090     1.1650 O.3   1 <1>  -0.5330 
 24 H        2.1460    -0.5600    -0.4020 H     1 <1>   0.0800 
 25 H        1.4940     0.6610    -1.4440 H     1 <1>   0.0800 
 26 H       -2.5530    -1.6280    -1.5570 H     1 <1>   0.0800 
 27 H       -2.4180     0.0840    -1.2510 H     1 <1>   0.0800 
 28 H       -2.6160    -1.0230     0.0910 H     1 <1>   0.0800 
 29 H       -0.7240    -3.0800    -1.1700 H     1 <1>   0.0800 
 30 H       -0.7660    -2.6670     0.5340 H     1 <1>   0.0800 
 31 H        0.7220    -2.5100    -0.3740 H     1 <1>   0.0800 
 32 H        1.8260     2.3320     0.4330 H     1 <1>   0.0800 
 33 H        3.5890     1.7010    -1.5280 H     1 <1>   0.0800 
 34 H        2.3860     0.2060     2.1170 H     1 <1>   0.0800 
 35 H        3.1400     1.7750     2.3220 H     1 <1>   0.0800 
 36 H        4.4860     3.2230     0.8860 H     1 <1>   0.3700 
 37 H        5.6930     1.0770     0.1050 H     1 <1>   0.0800 
 38 H        4.6230    -0.1750    -0.5120 H     1 <1>   0.0800 
 39 H        3.2410     5.5150     1.0870 H     1 <1>   0.1500 
 40 H        7.0380     7.9410    -0.8590 H     1 <1>   0.1500 
 41 H        7.4950     6.2110    -2.3530 H     1 <1>   0.0800 
 42 H        5.9960     5.6450    -3.0410 H     1 <1>   0.0800 
 43 H        6.9140     4.6140    -1.9710 H     1 <1>   0.0800 
 44 H        3.9380     7.6770     2.0320 H     1 <1>   0.1500 
 45 H        6.6400     9.5290     0.7040 H     1 <1>   0.4500 
@<TRIPOS>BOND
  1   1   2  2   
  2   1   3  2   
  3   1   4  am  
  4   1   5  1   
  5   4   6  1   
  6   4   7  1   
  7   5   8  1   
  8   5  24  1   
  9   5  25  1   
 10   6  26  1   
 11   6  27  1   
 12   6  28  1   
 13   7  29  1   
 14   7  30  1   
 15   7  31  1   
 16   8   9  1   
 17   8  10  1   
 18   8  32  1   
 19   9  11  1   
 20   9  12  1   
 21   9  33  1   
 22  10  13  1   
 23  10  34  1   
 24  10  35  1   
 25  11  14  am  
 26  11  36  1   
 27  12  13  1   
 28  12  37  1   
 29  12  38  1   
 30  14  15  2   
 31  14  16  1   
 32  16  17  ar  
 33  16  18  ar  
 34  17  19  ar  
 35  17  20  1   
 36  18  21  ar  
 37  18  39  1   
 38  19  22  ar  
 39  19  40  1   
 40  20  41  1   
 41  20  42  1   
 42  20  43  1   
 43  21  22  ar  
 44  21  44  1   
 45  22  23  1   
 46  23  45  1   
@<TRIPOS>SUBSTRUCTURE
  1 ****  11 GROUP 4 **** **** 0

# MOE 2024.06 (io_trps.svl 2023.06)
