@<TRIPOS>MOLECULE
NONAME
43 45 1 0 0 
SMALL
USER_CHARGES


@<TRIPOS>ATOM
  1 S       -1.7070    -0.6030    -0.6200 S.3   1 <1>  -0.4600 
  2 C       -3.0620    -1.8100    -0.8610 C.3   1 <1>   0.1310 
  3 C       -1.0430    -0.3810    -2.2910 C.3   1 <1>  -0.0100 
  4 C       -3.6190    -2.3210     0.4650 C.2   1 <1>   0.5690 
  5 O       -3.3790    -3.4710     0.7580 O.2   1 <1>  -0.5700 
  6 N       -4.4050    -1.5330     1.2720 N.am  1 <1>  -0.6600 
  7 C       -5.0310    -2.1080     2.4950 C.3   1 <1>   0.1400 
  8 C       -4.7990    -0.1320     0.9780 C.3   1 <1>   0.1400 
  9 C       -6.3090    -2.8910     2.1530 C.3   1 <1>   0.1400 
 10 C       -6.2090    -0.0670     0.3810 C.3   1 <1>  -0.1600 
 11 N       -7.2300    -2.1990     1.1870 N.am  1 <1>  -0.6600 
 12 C       -7.3030    -0.7110     1.2450 C.3   1 <1>   0.1400 
 13 C       -7.9120    -2.8930     0.2020 C.2   1 <1>   0.7150 
 14 O       -8.3010    -2.2750    -0.7760 O.2   1 <1>  -0.5700 
 15 C       -8.1910    -4.3080     0.2700 C.2   1 <1>   0.0550 
 16 O       -8.2280    -4.9720     1.4040 O.3   1 <1>  -0.0190 
 17 C       -8.4860    -5.2080    -0.6940 C.2   1 <1>  -0.1500 
 18 N       -8.5110    -6.2300     1.2520 N.2   1 <1>  -0.4100 
 19 C       -8.6740    -6.4020    -0.0130 C.2   1 <1>   0.2030 
 20 C       -9.0280    -7.7430    -0.6380 C.3   1 <1>  -0.0140 
 21 C       -8.4980    -8.1300    -1.9870 C.3   1 <1>  -0.2000 
 22 C       -9.9530    -7.8190    -1.8160 C.3   1 <1>  -0.2000 
 23 H       -2.6530    -2.6310    -1.4210 H     1 <1>   0.0800 
 24 H       -3.8300    -1.3290    -1.4350 H     1 <1>   0.0800 
 25 H       -0.2380     0.3300    -2.2300 H     1 <1>   0.0800 
 26 H       -1.8330    -0.0110    -2.9190 H     1 <1>   0.0800 
 27 H       -0.6840    -1.3340    -2.6370 H     1 <1>   0.0800 
 28 H       -5.2580    -1.3260     3.1970 H     1 <1>   0.0800 
 29 H       -4.3330    -2.7730     2.9760 H     1 <1>   0.0800 
 30 H       -4.1040     0.3220     0.2960 H     1 <1>   0.0800 
 31 H       -4.7630     0.4410     1.8890 H     1 <1>   0.0800 
 32 H       -6.8450    -3.1030     3.0610 H     1 <1>   0.0800 
 33 H       -5.9960    -3.8320     1.7340 H     1 <1>   0.0800 
 34 H       -6.2130    -0.5140    -0.5970 H     1 <1>   0.0800 
 35 H       -6.4580     0.9700     0.2500 H     1 <1>   0.0800 
 36 H       -8.2650    -0.3980     0.8740 H     1 <1>   0.0800 
 37 H       -7.2290    -0.3760     2.2650 H     1 <1>   0.0800 
 38 H       -8.5640    -5.0460    -1.7530 H     1 <1>   0.1500 
 39 H       -9.1070    -8.5220     0.1010 H     1 <1>   0.1000 
 40 H       -8.2000    -9.1520    -2.1430 H     1 <1>   0.1000 
 41 H       -7.8760    -7.4350    -2.5220 H     1 <1>   0.1000 
 42 H      -10.3430    -6.9050    -2.2310 H     1 <1>   0.1000 
 43 H      -10.6670    -8.6230    -1.8530 H     1 <1>   0.1000 
@<TRIPOS>BOND
  1   1   2  1   
  2   1   3  1   
  3   2   4  1   
  4   2  23  1   
  5   2  24  1   
  6   3  25  1   
  7   3  26  1   
  8   3  27  1   
  9   4   5  2   
 10   4   6  am  
 11   6   7  1   
 12   6   8  1   
 13   7   9  1   
 14   7  28  1   
 15   7  29  1   
 16   8  10  1   
 17   8  30  1   
 18   8  31  1   
 19   9  11  1   
 20   9  32  1   
 21   9  33  1   
 22  10  12  1   
 23  10  34  1   
 24  10  35  1   
 25  11  12  1   
 26  11  13  am  
 27  12  36  1   
 28  12  37  1   
 29  13  14  2   
 30  13  15  1   
 31  15  16  1   
 32  15  17  2   
 33  16  18  1   
 34  17  19  1   
 35  17  38  1   
 36  18  19  2   
 37  19  20  1   
 38  20  21  1   
 39  20  22  1   
 40  20  39  1   
 41  21  22  1   
 42  21  40  1   
 43  21  41  1   
 44  22  42  1   
 45  22  43  1   
@<TRIPOS>SUBSTRUCTURE
  1 ****  13 GROUP 4 **** **** 0

# MOE 2024.06 (io_trps.svl 2023.06)
