@<TRIPOS>MOLECULE
NONAME
54 56 1 0 0 
SMALL
USER_CHARGES


@<TRIPOS>ATOM
  1 O       -0.6790    -0.9510     1.5670 O.2   1 <1>  -0.5700 
  2 C       -0.5970    -1.6800     0.6070 C.2   1 <1>   0.5690 
  3 N       -1.7220    -2.0560    -0.0920 N.am  1 <1>  -0.6600 
  4 C        0.7800    -2.1950     0.1940 C.3   1 <1>  -0.0990 
  5 C       -1.7650    -3.0930    -1.1510 C.3   1 <1>   0.1400 
  6 C       -3.0430    -1.4600     0.2280 C.3   1 <1>   0.1400 
  7 C        1.9570    -1.5610     0.9580 C.3   1 <1>  -0.1600 
  8 C       -2.6650    -4.2340    -0.6700 C.3   1 <1>  -0.1600 
  9 C       -3.9520    -2.5680     0.7530 C.3   1 <1>  -0.1600 
 10 C        3.3030    -2.1140     0.4770 C.3   1 <1>  -0.2400 
 11 C       -4.0500    -3.7180    -0.2520 C.3   1 <1>   0.4230 
 12 N       -4.8530    -4.7890     0.3800 N.4   1 <1>  -0.9060 
 13 C       -5.2900    -5.9190    -0.4880 C.3   1 <1>   0.4230 
 14 C       -6.5910    -6.4800     0.0830 C.3   1 <1>  -0.0800 
 15 C       -4.3590    -7.1060    -0.2590 C.3   1 <1>   0.1200 
 16 C       -6.1000    -7.4810     1.1460 C.3   1 <1>   0.1200 
 17 C       -7.4450    -7.1630    -1.0040 C.3   1 <1>  -0.0170 
 18 O       -4.7100    -7.5310     1.0130 O.3   1 <1>  -0.5600 
 19 C       -8.7460    -7.6890    -0.4200 C.ar  1 <1>  -0.1440 
 20 C       -9.8080    -6.8530    -0.1380 C.ar  1 <1>  -0.1500 
 21 C       -8.9370    -9.0290    -0.1440 C.ar  1 <1>  -0.1500 
 22 C      -10.9700    -7.3790     0.4030 C.ar  1 <1>   0.1600 
 23 C      -10.1390    -9.4530     0.3980 C.ar  1 <1>   0.1600 
 24 N      -11.1560    -8.6580     0.6820 N.ar  1 <1>  -0.6200 
 25 H        0.8020    -3.2570     0.3500 H     1 <1>   0.0800 
 26 H        0.9110    -1.9990    -0.8540 H     1 <1>   0.0800 
 27 H       -2.1570    -2.6560    -2.0550 H     1 <1>   0.0800 
 28 H       -0.7830    -3.4750    -1.3700 H     1 <1>   0.0800 
 29 H       -2.9480    -0.6830     0.9690 H     1 <1>   0.0800 
 30 H       -3.4560    -1.0120    -0.6610 H     1 <1>   0.0800 
 31 H        1.9390    -0.4920     0.8190 H     1 <1>   0.0800 
 32 H        1.8480    -1.7550     2.0120 H     1 <1>   0.0800 
 33 H       -2.1790    -4.7130     0.1630 H     1 <1>   0.0800 
 34 H       -2.7570    -4.9410    -1.4740 H     1 <1>   0.0800 
 35 H       -4.9250    -2.1490     0.9370 H     1 <1>   0.0800 
 36 H       -3.5430    -2.9130     1.6880 H     1 <1>   0.0800 
 37 H        3.4450    -1.9060    -0.5690 H     1 <1>   0.0800 
 38 H        3.3510    -3.1770     0.6320 H     1 <1>   0.0800 
 39 H        4.1050    -1.6530     1.0270 H     1 <1>   0.0800 
 40 H       -4.5610    -3.3530    -1.1300 H     1 <1>   0.0800 
 41 H       -5.6770    -4.3650     0.8150 H     1 <1>   0.4500 
 42 H       -4.3230    -5.2160     1.1550 H     1 <1>   0.4500 
 43 H       -5.3740    -5.6260    -1.5220 H     1 <1>   0.0800 
 44 H       -7.1910    -5.7130     0.5400 H     1 <1>   0.0800 
 45 H       -3.3130    -6.8630    -0.2800 H     1 <1>   0.0800 
 46 H       -4.5570    -7.9080    -0.9500 H     1 <1>   0.0800 
 47 H       -6.4870    -8.4750     0.9940 H     1 <1>   0.0800 
 48 H       -6.3340    -7.1600     2.1470 H     1 <1>   0.0800 
 49 H       -6.9050    -7.9770    -1.4600 H     1 <1>   0.0800 
 50 H       -7.6830    -6.4580    -1.7820 H     1 <1>   0.0800 
 51 H       -9.7540    -5.7980    -0.3330 H     1 <1>   0.1500 
 52 H       -8.1690    -9.7550    -0.3430 H     1 <1>   0.1500 
 53 H      -11.7900    -6.7150     0.6180 H     1 <1>   0.1500 
 54 H      -10.2710   -10.5010     0.6080 H     1 <1>   0.1500 
@<TRIPOS>BOND
  1   1   2  2   
  2   2   3  am  
  3   2   4  1   
  4   3   5  1   
  5   3   6  1   
  6   4   7  1   
  7   4  25  1   
  8   4  26  1   
  9   5   8  1   
 10   5  27  1   
 11   5  28  1   
 12   6   9  1   
 13   6  29  1   
 14   6  30  1   
 15   7  10  1   
 16   7  31  1   
 17   7  32  1   
 18   8  11  1   
 19   8  33  1   
 20   8  34  1   
 21   9  11  1   
 22   9  35  1   
 23   9  36  1   
 24  10  37  1   
 25  10  38  1   
 26  10  39  1   
 27  11  12  1   
 28  11  40  1   
 29  12  13  1   
 30  12  41  1   
 31  12  42  1   
 32  13  14  1   
 33  13  15  1   
 34  13  43  1   
 35  14  16  1   
 36  14  17  1   
 37  14  44  1   
 38  15  18  1   
 39  15  45  1   
 40  15  46  1   
 41  16  18  1   
 42  16  47  1   
 43  16  48  1   
 44  17  19  1   
 45  17  49  1   
 46  17  50  1   
 47  19  20  ar  
 48  19  21  ar  
 49  20  22  ar  
 50  20  51  1   
 51  21  23  ar  
 52  21  52  1   
 53  22  24  ar  
 54  22  53  1   
 55  23  24  ar  
 56  23  54  1   
@<TRIPOS>SUBSTRUCTURE
  1 ****  12 GROUP 4 **** **** 0

# MOE 2024.06 (io_trps.svl 2023.06)
