@<TRIPOS>MOLECULE
NONAME
42 45 1 0 0 
SMALL
USER_CHARGES


@<TRIPOS>ATOM
  1 S        0.4430     1.5250    -2.4180 S.3   1 <1>  -0.0800 
  2 C       -0.8580     1.7920    -1.2690 C.2   1 <1>  -0.1400 
  3 C       -0.5580     0.4120    -3.3420 C.2   1 <1>  -0.1100 
  4 C       -1.9430     1.0840    -1.6100 C.2   1 <1>  -0.1810 
  5 C       -0.7200     2.7160    -0.0640 C.3   1 <1>   0.4600 
  6 C       -1.7790     0.2880    -2.7870 C.2   1 <1>  -0.1500 
  7 C       -3.1920     1.1790    -0.7630 C.3   1 <1>   0.0210 
  8 O       -1.8800     2.5830     0.7380 O.3   1 <1>  -0.5600 
  9 C        0.4600     2.2940     0.8190 C.3   1 <1>  -0.1600 
 10 C       -0.5760     4.1840    -0.4930 C.3   1 <1>  -0.1600 
 11 C       -3.1240     2.4610     0.0900 C.3   1 <1>   0.1200 
 12 C        0.6520     3.2430     2.0060 C.3   1 <1>   0.1400 
 13 C       -0.3890     5.0980     0.7180 C.3   1 <1>   0.1400 
 14 N        0.7930     4.6330     1.4920 N.am  1 <1>  -0.6600 
 15 C        1.9490     5.3770     1.6800 C.2   1 <1>   0.5440 
 16 O        2.7250     5.0080     2.5480 O.2   1 <1>  -0.5700 
 17 C        2.2710     6.5860     0.9150 C.ar  1 <1>   0.3960 
 18 N        2.0650     6.6230    -0.4150 N.ar  1 <1>  -0.6200 
 19 C        2.8030     7.6800     1.6000 C.ar  1 <1>  -0.1500 
 20 C        2.3740     7.7400    -1.0320 C.ar  1 <1>   0.4100 
 21 C        3.1250     8.8480     0.9410 C.ar  1 <1>  -0.1500 
 22 N        2.1480     7.7150    -2.3670 N.pl3 1 <1>  -0.9000 
 23 C        2.8970     8.8680    -0.4120 C.ar  1 <1>  -0.1500 
 24 H       -0.1180    -0.0380    -4.2140 H     1 <1>   0.1500 
 25 H       -2.5760    -0.3320    -3.1580 H     1 <1>   0.1500 
 26 H       -3.2660     0.3180    -0.1240 H     1 <1>   0.0800 
 27 H       -4.0640     1.2150    -1.3910 H     1 <1>   0.0800 
 28 H        1.3650     2.2960     0.2390 H     1 <1>   0.0800 
 29 H        0.3010     1.2920     1.1710 H     1 <1>   0.0800 
 30 H       -1.4300     4.4930    -1.0640 H     1 <1>   0.0800 
 31 H        0.2850     4.2850    -1.1290 H     1 <1>   0.0800 
 32 H       -3.8870     2.4430     0.8480 H     1 <1>   0.0800 
 33 H       -3.2740     3.3290    -0.5260 H     1 <1>   0.0800 
 34 H        1.5230     2.9480     2.5650 H     1 <1>   0.0800 
 35 H       -0.2000     3.1930     2.6620 H     1 <1>   0.0800 
 36 H       -1.2600     5.0500     1.3500 H     1 <1>   0.0800 
 37 H       -0.2730     6.1190     0.4000 H     1 <1>   0.0800 
 38 H        2.9630     7.6010     2.6610 H     1 <1>   0.1500 
 39 H        3.5320     9.6970     1.4630 H     1 <1>   0.1500 
 40 H        2.8330     8.1830    -2.9600 H     1 <1>   0.4000 
 41 H        1.9140     6.7780    -2.7000 H     1 <1>   0.4000 
 42 H        3.1150     9.7400    -0.9980 H     1 <1>   0.1500 
@<TRIPOS>BOND
  1   1   2  1   
  2   1   3  1   
  3   2   4  2   
  4   2   5  1   
  5   3   6  2   
  6   3  24  1   
  7   4   6  1   
  8   4   7  1   
  9   5   8  1   
 10   5   9  1   
 11   5  10  1   
 12   6  25  1   
 13   7  11  1   
 14   7  26  1   
 15   7  27  1   
 16   8  11  1   
 17   9  12  1   
 18   9  28  1   
 19   9  29  1   
 20  10  13  1   
 21  10  30  1   
 22  10  31  1   
 23  11  32  1   
 24  11  33  1   
 25  12  14  1   
 26  12  34  1   
 27  12  35  1   
 28  13  14  1   
 29  13  36  1   
 30  13  37  1   
 31  14  15  am  
 32  15  16  2   
 33  15  17  1   
 34  17  18  ar  
 35  17  19  ar  
 36  18  20  ar  
 37  19  21  ar  
 38  19  38  1   
 39  20  22  1   
 40  20  23  ar  
 41  21  23  ar  
 42  21  39  1   
 43  22  40  1   
 44  22  41  1   
 45  23  42  1   
@<TRIPOS>SUBSTRUCTURE
  1 ****  10 GROUP 4 **** **** 0

# MOE 2024.06 (io_trps.svl 2023.06)
