@<TRIPOS>MOLECULE
NONAME
47 48 1 0 0 
SMALL
USER_CHARGES


@<TRIPOS>ATOM
  1 S        1.2400     1.1630     0.6910 S.o2  1 <1>   1.5000 
  2 O        2.6510     0.8680     0.8010 O.2   1 <1>  -0.6500 
  3 O        0.7250     2.3880     1.2560 O.2   1 <1>  -0.6500 
  4 N        0.8910     1.2750    -0.9460 N.am  1 <1>  -0.9140 
  5 C        0.2400    -0.2370     1.2460 C.2   1 <1>  -0.0220 
  6 C        1.9040     2.0390    -1.6970 C.3   1 <1>   0.2570 
  7 S        0.7420    -1.8580     0.7690 S.3   1 <1>  -0.0800 
  8 C       -0.8930    -0.3190     1.9780 C.2   1 <1>  -0.1500 
  9 C        1.9670     3.5220    -1.2890 C.2   1 <1>   0.5690 
 10 C       -0.6170    -2.5930     1.5970 C.2   1 <1>  -0.1100 
 11 C       -1.3780    -1.6500     2.1800 C.2   1 <1>  -0.1500 
 12 O        1.0280     4.2150    -1.6180 O.2   1 <1>  -0.5700 
 13 N        2.9980     4.0430    -0.5440 N.am  1 <1>  -0.6600 
 14 C        2.8040     5.3470     0.1280 C.3   1 <1>   0.1400 
 15 C        4.3370     3.3820    -0.3830 C.3   1 <1>   0.1400 
 16 C        3.3850     6.4550    -0.7590 C.3   1 <1>  -0.0800 
 17 C        5.5150     4.3380    -0.1110 C.3   1 <1>   0.1200 
 18 C        4.9070     6.5840    -0.6070 C.3   1 <1>   0.1200 
 19 C        2.6350     7.7750    -0.5490 C.3   1 <1>   0.3430 
 20 O        5.5400     5.4120    -1.0110 O.3   1 <1>  -0.5600 
 21 N        2.7090     8.2820     0.8610 N.4   1 <1>  -0.9590 
 22 C        1.3950     8.8770     1.2580 C.3   1 <1>   0.2630 
 23 C        3.8020     9.2910     1.0380 C.3   1 <1>   0.2630 
 24 H        0.0480     1.8510    -0.9700 H     1 <1>   0.4200 
 25 H        1.6470     2.0050    -2.7400 H     1 <1>   0.0800 
 26 H        2.8630     1.5660    -1.5930 H     1 <1>   0.0800 
 27 H       -1.4180     0.5250     2.3930 H     1 <1>   0.1500 
 28 H       -0.7010    -3.6650     1.5590 H     1 <1>   0.1500 
 29 H       -2.2720    -1.8330     2.7510 H     1 <1>   0.1500 
 30 H        3.2640     5.3300     1.1000 H     1 <1>   0.0800 
 31 H        1.7480     5.5050     0.2770 H     1 <1>   0.0800 
 32 H        4.5710     2.8310    -1.2760 H     1 <1>   0.0800 
 33 H        4.2850     2.6780     0.4290 H     1 <1>   0.0800 
 34 H        3.1930     6.1910    -1.7860 H     1 <1>   0.0800 
 35 H        6.4350     3.7960    -0.2410 H     1 <1>   0.0800 
 36 H        5.4940     4.7030     0.9010 H     1 <1>   0.0800 
 37 H        5.2010     6.8060     0.4040 H     1 <1>   0.0800 
 38 H        5.2720     7.3660    -1.2520 H     1 <1>   0.0800 
 39 H        1.6030     7.6010    -0.8090 H     1 <1>   0.0800 
 40 H        3.0150     8.5190    -1.2300 H     1 <1>   0.0800 
 41 H        2.8870     7.4810     1.4860 H     1 <1>   0.4500 
 42 H        1.1590     9.7210     0.6300 H     1 <1>   0.0800 
 43 H        1.4280     9.2100     2.2830 H     1 <1>   0.0800 
 44 H        0.6080     8.1460     1.1630 H     1 <1>   0.0800 
 45 H        3.6280    10.1460     0.4050 H     1 <1>   0.0800 
 46 H        4.7590     8.8650     0.7830 H     1 <1>   0.0800 
 47 H        3.8400     9.6250     2.0620 H     1 <1>   0.0800 
@<TRIPOS>BOND
  1   1   2  2   
  2   1   3  2   
  3   1   4  am  
  4   1   5  1   
  5   4   6  1   
  6   4  24  1   
  7   5   7  1   
  8   5   8  2   
  9   6   9  1   
 10   6  25  1   
 11   6  26  1   
 12   7  10  1   
 13   8  11  1   
 14   8  27  1   
 15   9  12  2   
 16   9  13  am  
 17  10  11  2   
 18  10  28  1   
 19  11  29  1   
 20  13  14  1   
 21  13  15  1   
 22  14  16  1   
 23  14  30  1   
 24  14  31  1   
 25  15  17  1   
 26  15  32  1   
 27  15  33  1   
 28  16  18  1   
 29  16  19  1   
 30  16  34  1   
 31  17  20  1   
 32  17  35  1   
 33  17  36  1   
 34  18  20  1   
 35  18  37  1   
 36  18  38  1   
 37  19  21  1   
 38  19  39  1   
 39  19  40  1   
 40  21  22  1   
 41  21  23  1   
 42  21  41  1   
 43  22  42  1   
 44  22  43  1   
 45  22  44  1   
 46  23  45  1   
 47  23  46  1   
 48  23  47  1   
@<TRIPOS>SUBSTRUCTURE
  1 ****  13 GROUP 4 **** **** 0

# MOE 2024.06 (io_trps.svl 2023.06)
