@<TRIPOS>MOLECULE
NONAME
50 53 1 0 0 
SMALL
USER_CHARGES


@<TRIPOS>ATOM
  1 S       -0.0660     0.3990     0.5860 S.o2  1 <1>   1.3330 
  2 O        0.4270    -0.7890     1.2500 O.2   1 <1>  -0.6500 
  3 O       -0.4380     1.5440     1.3880 O.2   1 <1>  -0.6500 
  4 N        1.0820     0.8910    -0.5670 N.am  1 <1>  -0.8490 
  5 C       -1.4520    -0.0730    -0.4250 C.3   1 <1>  -0.0550 
  6 C        2.3430     0.1200    -0.6170 C.3   1 <1>   0.1960 
  7 C        1.3270     2.3380    -0.6300 C.3   1 <1>   0.1960 
  8 C       -2.6300    -0.4880     0.4480 C.3   1 <1>   0.1400 
  9 C        3.4770     0.6890     0.2750 C.3   1 <1>   0.0580 
 10 C        2.3150     2.8400     0.4580 C.3   1 <1>  -0.0800 
 11 N       -3.6980    -1.0810    -0.4050 N.am  1 <1>  -0.4690 
 12 C        4.5330     1.3530    -0.6190 C.2   1 <1>  -0.0290 
 13 C        2.9460     1.7090     1.2860 C.3   1 <1>  -0.1600 
 14 C        3.4590     3.6150    -0.2120 C.3   1 <1>   0.1400 
 15 C       -4.5850    -0.2130    -1.0670 C.2   1 <1>   0.6160 
 16 C       -3.8530    -2.4630    -0.5750 C.2   1 <1>  -0.0290 
 17 N        4.4360     2.7160    -0.9090 N.am  1 <1>  -0.4690 
 18 C        5.5500     0.6110    -1.1410 C.2   1 <1>  -0.1500 
 19 O       -4.4090     1.0170    -0.9460 O.2   1 <1>  -0.5700 
 20 C       -5.6140    -0.7350    -1.8440 C.2   1 <1>  -0.1360 
 21 C       -4.8590    -2.9530    -1.3450 C.2   1 <1>  -0.1500 
 22 C       -2.8850    -3.4180     0.1050 C.3   1 <1>  -0.1020 
 23 C        5.3600     3.3150    -1.7540 C.2   1 <1>   0.6160 
 24 C        6.5130     1.1980    -1.9940 C.2   1 <1>  -0.1500 
 25 C       -5.7840    -2.1000    -2.0040 C.2   1 <1>  -0.1500 
 26 O        5.2770     4.5080    -2.0230 O.2   1 <1>  -0.5700 
 27 C        6.4070     2.5190    -2.2910 C.2   1 <1>  -0.1360 
 28 O       -6.6980    -2.5820    -2.6920 O.3   1 <1>  -0.8500 
 29 H       -1.7490     0.7520    -1.0430 H     1 <1>   0.0800 
 30 H       -1.1710    -0.8930    -1.0550 H     1 <1>   0.0800 
 31 H        2.1630    -0.9090    -0.3580 H     1 <1>   0.0800 
 32 H        2.6850     0.1150    -1.6390 H     1 <1>   0.0800 
 33 H        1.7280     2.5560    -1.6060 H     1 <1>   0.0800 
 34 H        0.3950     2.8730    -0.5530 H     1 <1>   0.0800 
 35 H       -3.0180     0.3710     0.9690 H     1 <1>   0.0800 
 36 H       -2.3110    -1.1920     1.1930 H     1 <1>   0.0800 
 37 H        3.9350    -0.1280     0.8030 H     1 <1>   0.0800 
 38 H        1.7870     3.5110     1.1130 H     1 <1>   0.0800 
 39 H        2.2280     1.2560     1.9450 H     1 <1>   0.0800 
 40 H        3.7510     2.0850     1.8930 H     1 <1>   0.0800 
 41 H        3.9970     4.1700     0.5370 H     1 <1>   0.0800 
 42 H        3.0550     4.3250    -0.9140 H     1 <1>   0.0800 
 43 H        5.6490    -0.4390    -0.9270 H     1 <1>   0.1500 
 44 H       -6.2920    -0.0730    -2.3380 H     1 <1>   0.1500 
 45 H       -5.0210    -4.0010    -1.5040 H     1 <1>   0.1500 
 46 H       -1.8740    -3.1940    -0.1810 H     1 <1>   0.0800 
 47 H       -3.0990    -4.4310    -0.1830 H     1 <1>   0.0800 
 48 H       -2.9840    -3.3460     1.1730 H     1 <1>   0.0800 
 49 H        7.3040     0.5840    -2.3900 H     1 <1>   0.1500 
 50 H        7.1030     3.0220    -2.9340 H     1 <1>   0.1500 
@<TRIPOS>BOND
  1   1   2  2   
  2   1   3  2   
  3   1   4  am  
  4   1   5  1   
  5   4   6  1   
  6   4   7  1   
  7   5   8  1   
  8   5  29  1   
  9   5  30  1   
 10   6   9  1   
 11   6  31  1   
 12   6  32  1   
 13   7  10  1   
 14   7  33  1   
 15   7  34  1   
 16   8  11  1   
 17   8  35  1   
 18   8  36  1   
 19   9  12  1   
 20   9  13  1   
 21   9  37  1   
 22  10  13  1   
 23  10  14  1   
 24  10  38  1   
 25  11  15  am  
 26  11  16  1   
 27  12  17  1   
 28  12  18  2   
 29  13  39  1   
 30  13  40  1   
 31  14  17  1   
 32  14  41  1   
 33  14  42  1   
 34  15  19  2   
 35  15  20  1   
 36  16  21  2   
 37  16  22  1   
 38  17  23  am  
 39  18  24  1   
 40  18  43  1   
 41  20  25  2   
 42  20  44  1   
 43  21  25  1   
 44  21  45  1   
 45  22  46  1   
 46  22  47  1   
 47  22  48  1   
 48  23  26  2   
 49  23  27  1   
 50  24  27  2   
 51  24  49  1   
 52  25  28  1   
 53  27  50  1   
@<TRIPOS>SUBSTRUCTURE
  1 ****   4 GROUP 4 **** **** 0

# MOE 2024.06 (io_trps.svl 2023.06)
