@<TRIPOS>MOLECULE
NONAME
54 56 1 0 0 
SMALL
USER_CHARGES


@<TRIPOS>ATOM
  1 O        3.0050    -0.9280    -1.9280 O.2   1 <1>  -0.5700 
  2 C        2.9110    -1.2340    -0.7610 C.2   1 <1>   0.5690 
  3 N        2.7230    -0.3250     0.2380 N.am  1 <1>  -0.4930 
  4 C        3.0010    -2.7190    -0.3810 C.3   1 <1>   0.1710 
  5 C        2.3900     1.0450     0.1180 C.2   1 <1>   0.0630 
  6 N        1.7000    -3.4460    -0.2990 N.3   1 <1>  -0.8100 
  7 C        3.0430     2.1230     0.7180 C.2   1 <1>   0.1080 
  8 C        1.3600     1.5990    -0.5590 C.2   1 <1>  -0.3320 
  9 C        0.8180    -2.9140     0.7460 C.3   1 <1>   0.1100 
 10 C        1.0500    -3.4910    -1.6160 C.3   1 <1>   0.1100 
 11 N        2.4730     3.2540     0.4500 N.2   1 <1>  -0.7070 
 12 C        4.2770     2.0330     1.5870 C.3   1 <1>  -0.0590 
 13 N        1.4360     2.9370    -0.3470 N.pl3 1 <1>   0.3140 
 14 C        0.2890     0.9250    -1.4070 C.3   1 <1>  -0.0600 
 15 C       -0.4200    -3.8060     0.8720 C.3   1 <1>  -0.1600 
 16 C       -0.1730    -4.4070    -1.5380 C.3   1 <1>  -0.1600 
 17 C        0.5430     3.9840    -0.8880 C.3   1 <1>   0.0960 
 18 C       -1.1820    -3.9430    -0.4630 C.3   1 <1>   0.3430 
 19 C       -0.6620     4.2160     0.0330 C.3   1 <1>  -0.2400 
 20 C       -1.7340    -2.6020    -0.8710 C.1   1 <1>   0.3570 
 21 C       -2.3620    -4.9230    -0.2640 C.ar  1 <1>  -0.1430 
 22 N       -2.1210    -1.5690    -1.1560 N.1   1 <1>  -0.5570 
 23 C       -2.4430    -6.1630    -0.8940 C.ar  1 <1>  -0.1500 
 24 C       -3.4040    -4.5610     0.5880 C.ar  1 <1>  -0.1500 
 25 C       -3.5190    -7.0070    -0.6760 C.ar  1 <1>  -0.1500 
 26 C       -4.4800    -5.4020     0.8060 C.ar  1 <1>  -0.1500 
 27 C       -4.5390    -6.6280     0.1740 C.ar  1 <1>  -0.1500 
 28 H        2.7350    -0.6720     1.1930 H     1 <1>   0.3700 
 29 H        3.5070    -2.8040     0.5630 H     1 <1>   0.0800 
 30 H        3.6210    -3.2070    -1.1120 H     1 <1>   0.0800 
 31 H        0.5240    -1.9040     0.5100 H     1 <1>   0.0800 
 32 H        1.3400    -2.9070     1.6880 H     1 <1>   0.0800 
 33 H        1.7400    -3.8860    -2.3440 H     1 <1>   0.0800 
 34 H        0.7670    -2.5000    -1.9320 H     1 <1>   0.0800 
 35 H        4.9150     1.2400     1.2430 H     1 <1>   0.0800 
 36 H        3.9900     1.8510     2.6050 H     1 <1>   0.0800 
 37 H        4.8190     2.9590     1.5370 H     1 <1>   0.0800 
 38 H        0.4050    -0.1420    -1.3890 H     1 <1>   0.0800 
 39 H        0.3660     1.2500    -2.4290 H     1 <1>   0.0800 
 40 H       -0.6920     1.1590    -1.0350 H     1 <1>   0.0800 
 41 H       -1.0660    -3.3960     1.6270 H     1 <1>   0.0800 
 42 H       -0.1100    -4.7800     1.2060 H     1 <1>   0.0800 
 43 H        0.1870    -5.3920    -1.3030 H     1 <1>   0.0800 
 44 H       -0.6510    -4.4420    -2.5010 H     1 <1>   0.0800 
 45 H        0.2180     3.6890    -1.8670 H     1 <1>   0.0800 
 46 H        1.1140     4.8910    -0.9780 H     1 <1>   0.0800 
 47 H       -1.2440     3.3170     0.1240 H     1 <1>   0.0800 
 48 H       -1.2860     4.9920    -0.3720 H     1 <1>   0.0800 
 49 H       -0.3230     4.5210     1.0080 H     1 <1>   0.0800 
 50 H       -1.6810    -6.5100    -1.5670 H     1 <1>   0.1500 
 51 H       -3.3950    -3.6110     1.0950 H     1 <1>   0.1500 
 52 H       -3.5630    -7.9610    -1.1720 H     1 <1>   0.1500 
 53 H       -5.2740    -5.1010     1.4680 H     1 <1>   0.1500 
 54 H       -5.3750    -7.2840     0.3430 H     1 <1>   0.1500 
@<TRIPOS>BOND
  1   1   2  2   
  2   2   3  am  
  3   2   4  1   
  4   3   5  1   
  5   3  28  1   
  6   4   6  1   
  7   4  29  1   
  8   4  30  1   
  9   5   7  1   
 10   5   8  2   
 11   6   9  1   
 12   6  10  1   
 13   7  11  2   
 14   7  12  1   
 15   8  13  1   
 16   8  14  1   
 17   9  15  1   
 18   9  31  1   
 19   9  32  1   
 20  10  16  1   
 21  10  33  1   
 22  10  34  1   
 23  11  13  1   
 24  12  35  1   
 25  12  36  1   
 26  12  37  1   
 27  13  17  1   
 28  14  38  1   
 29  14  39  1   
 30  14  40  1   
 31  15  18  1   
 32  15  41  1   
 33  15  42  1   
 34  16  18  1   
 35  16  43  1   
 36  16  44  1   
 37  17  19  1   
 38  17  45  1   
 39  17  46  1   
 40  18  20  1   
 41  18  21  1   
 42  19  47  1   
 43  19  48  1   
 44  19  49  1   
 45  20  22  3   
 46  21  23  ar  
 47  21  24  ar  
 48  23  25  ar  
 49  23  50  1   
 50  24  26  ar  
 51  24  51  1   
 52  25  27  ar  
 53  25  52  1   
 54  26  27  ar  
 55  26  53  1   
 56  27  54  1   
@<TRIPOS>SUBSTRUCTURE
  1 ****   9 GROUP 4 **** **** 0

# MOE 2024.06 (io_trps.svl 2023.06)
