@<TRIPOS>MOLECULE
NONAME
44 45 1 0 0 
SMALL
USER_CHARGES


@<TRIPOS>ATOM
  1 F       -0.6400     0.3100     0.3460 F     1 <1>  -0.1900 
  2 C       -1.9100     0.6120     0.2610 C.ar  1 <1>   0.1900 
  3 C       -2.4050     1.4700    -0.7280 C.ar  1 <1>   0.0830 
  4 C       -2.7420     0.0390     1.2040 C.ar  1 <1>  -0.1500 
  5 O       -1.6900     2.0930    -1.7080 O.3   1 <1>  -0.3630 
  6 C       -3.7660     1.7280    -0.7310 C.ar  1 <1>  -0.1500 
  7 C       -4.0960     0.3200     1.1720 C.ar  1 <1>  -0.1500 
  8 C       -0.3020     1.9130    -1.8800 C.3   1 <1>   0.0400 
  9 C       -4.6380     1.1650     0.2020 C.ar  1 <1>   0.0530 
 10 C       -6.0460     1.4720     0.1630 C.2   1 <1>   0.0870 
 11 O       -6.4210     2.7060    -0.0600 O.3   1 <1>  -0.0190 
 12 C       -7.1820     0.7340     0.3180 C.2   1 <1>  -0.0860 
 13 N       -7.7170     2.8580    -0.0540 N.2   1 <1>  -0.4100 
 14 C       -8.1990     1.6880     0.1740 C.2   1 <1>   0.3720 
 15 C       -7.3660    -0.6690     0.5480 C.2   1 <1>   0.7160 
 16 N       -9.5790     1.4450     0.2520 N.pl3 1 <1>  -0.8210 
 17 O       -6.4340    -1.4500     0.5200 O.2   1 <1>  -0.5700 
 18 N       -8.6080    -1.1660     0.7930 N.am  1 <1>  -0.7300 
 19 C      -10.2460     2.2350     1.3250 C.3   1 <1>   0.1290 
 20 C      -10.2660     1.6330    -1.0560 C.3   1 <1>   0.1290 
 21 C       -8.9650    -2.5810     1.0600 C.3   1 <1>   0.1400 
 22 C       -9.0270    -3.3710    -0.2460 C.3   1 <1>   0.1200 
 23 O       -9.5350    -4.6390     0.0270 O.3   1 <1>  -0.5600 
 24 C       -9.5600    -5.4840    -1.0770 C.3   1 <1>   0.0400 
 25 H       -2.3350    -0.6180     1.9510 H     1 <1>   0.1500 
 26 H       -4.1600     2.3860    -1.4850 H     1 <1>   0.1500 
 27 H       -4.7430    -0.1240     1.9080 H     1 <1>   0.1500 
 28 H        0.0080     2.4950    -2.7290 H     1 <1>   0.0800 
 29 H       -0.1030     0.8720    -2.0590 H     1 <1>   0.0800 
 30 H        0.2080     2.2580    -0.9980 H     1 <1>   0.0800 
 31 H       -9.3730    -0.4770     0.7250 H     1 <1>   0.3700 
 32 H       -9.7030     2.1280     2.2490 H     1 <1>   0.0800 
 33 H      -11.2520     1.8820     1.4720 H     1 <1>   0.0800 
 34 H      -10.2710     3.2790     1.0590 H     1 <1>   0.0800 
 35 H       -9.7580     1.0690    -1.8190 H     1 <1>   0.0800 
 36 H      -10.2580     2.6740    -1.3330 H     1 <1>   0.0800 
 37 H      -11.2840     1.2900    -0.9910 H     1 <1>   0.0800 
 38 H       -9.9230    -2.6160     1.5500 H     1 <1>   0.0800 
 39 H       -8.2240    -3.0210     1.7050 H     1 <1>   0.0800 
 40 H       -8.0380    -3.4720    -0.6610 H     1 <1>   0.0800 
 41 H       -9.6830    -2.8870    -0.9480 H     1 <1>   0.0800 
 42 H       -9.9700    -6.4280    -0.7670 H     1 <1>   0.0800 
 43 H       -8.5560    -5.6260    -1.4380 H     1 <1>   0.0800 
 44 H      -10.1810    -5.0510    -1.8420 H     1 <1>   0.0800 
@<TRIPOS>BOND
  1   1   2  1   
  2   2   3  ar  
  3   2   4  ar  
  4   3   5  1   
  5   3   6  ar  
  6   4   7  ar  
  7   4  25  1   
  8   5   8  1   
  9   6   9  ar  
 10   6  26  1   
 11   7   9  ar  
 12   7  27  1   
 13   8  28  1   
 14   8  29  1   
 15   8  30  1   
 16   9  10  1   
 17  10  11  1   
 18  10  12  2   
 19  11  13  1   
 20  12  14  1   
 21  12  15  1   
 22  13  14  2   
 23  14  16  1   
 24  15  17  2   
 25  15  18  am  
 26  16  19  1   
 27  16  20  1   
 28  18  21  1   
 29  18  31  1   
 30  19  32  1   
 31  19  33  1   
 32  19  34  1   
 33  20  35  1   
 34  20  36  1   
 35  20  37  1   
 36  21  22  1   
 37  21  38  1   
 38  21  39  1   
 39  22  23  1   
 40  22  40  1   
 41  22  41  1   
 42  23  24  1   
 43  24  42  1   
 44  24  43  1   
 45  24  44  1   
@<TRIPOS>SUBSTRUCTURE
  1 ****  12 GROUP 4 **** **** 0

# MOE 2024.06 (io_trps.svl 2023.06)
