@<TRIPOS>MOLECULE
NONAME
46 47 1 0 0 
SMALL
USER_CHARGES


@<TRIPOS>ATOM
  1 O       -1.7050    -1.3540    -0.0430 O.3   1 <1>  -0.3630 
  2 C       -2.0320    -0.0800    -0.4150 C.ar  1 <1>   0.0830 
  3 C       -0.3620    -1.6380     0.3090 C.3   1 <1>   0.0400 
  4 C       -1.6080     1.0640     0.2780 C.ar  1 <1>   0.0830 
  5 C       -2.8430     0.0500    -1.5380 C.ar  1 <1>  -0.1440 
  6 O       -0.8810     0.9180     1.4220 O.3   1 <1>  -0.3620 
  7 C       -1.9650     2.3190    -0.2080 C.ar  1 <1>  -0.1500 
  8 C       -3.1900     1.3080    -2.0050 C.ar  1 <1>  -0.1500 
  9 C       -3.3580    -1.1910    -2.2360 C.3   1 <1>   0.4860 
 10 C       -0.4020     2.0270     2.1540 C.3   1 <1>   0.0400 
 11 C       -2.7470     2.4370    -1.3430 C.ar  1 <1>  -0.1500 
 12 N       -4.2370    -1.8930    -1.2710 N.4   1 <1>  -0.9590 
 13 C       -4.4210    -3.3180    -1.6100 C.3   1 <1>   0.5230 
 14 C       -5.5260    -1.1540    -1.0570 C.3   1 <1>   0.3430 
 15 C       -5.0340    -3.9970    -0.4130 C.2   1 <1>  -0.3320 
 16 C       -5.8500    -0.9520     0.4290 C.3   1 <1>   0.1200 
 17 N       -4.3980    -4.3070     0.7400 N.pl3 1 <1>   0.0480 
 18 C       -6.3120    -4.4150    -0.2720 C.2   1 <1>   0.0770 
 19 O       -6.9680    -0.1390     0.5050 O.3   1 <1>  -0.6800 
 20 C       -5.3520    -4.8800     1.5060 C.2   1 <1>   0.0360 
 21 C       -2.9870    -4.1140     1.1290 C.3   1 <1>   0.0160 
 22 N       -6.5090    -4.9560     0.9380 N.2   1 <1>  -0.5650 
 23 H       -0.1630    -2.6740     0.1030 H     1 <1>   0.0800 
 24 H       -0.2270    -1.4480     1.3590 H     1 <1>   0.0800 
 25 H        0.3000    -1.0170    -0.2700 H     1 <1>   0.0800 
 26 H       -1.6510     3.2220     0.2810 H     1 <1>   0.1500 
 27 H       -3.8070     1.4290    -2.8800 H     1 <1>   0.1500 
 28 H       -2.5180    -1.8140    -2.5000 H     1 <1>   0.0800 
 29 H       -3.9000    -0.9320    -3.1300 H     1 <1>   0.0800 
 30 H        0.1510     1.6580     2.9990 H     1 <1>   0.0800 
 31 H       -1.2380     2.6120     2.4950 H     1 <1>   0.0800 
 32 H        0.2460     2.6100     1.5230 H     1 <1>   0.0800 
 33 H       -3.0130     3.4160    -1.7090 H     1 <1>   0.1500 
 34 H       -3.7030    -1.8530    -0.3910 H     1 <1>   0.4500 
 35 H       -3.4740    -3.7800    -1.8410 H     1 <1>   0.0800 
 36 H       -5.0720    -3.4160    -2.4640 H     1 <1>   0.0800 
 37 H       -6.3400    -1.6840    -1.5240 H     1 <1>   0.0800 
 38 H       -5.4590    -0.1760    -1.5050 H     1 <1>   0.0800 
 39 H       -5.0420    -0.4520     0.9360 H     1 <1>   0.0800 
 40 H       -6.0830    -1.8840     0.9140 H     1 <1>   0.0800 
 41 H       -7.1260    -4.3540    -0.9790 H     1 <1>   0.1500 
 42 H       -7.2650    -0.0280     1.4330 H     1 <1>   0.4000 
 43 H       -5.1490    -5.2400     2.5020 H     1 <1>   0.1500 
 44 H       -2.3550    -4.1680     0.2630 H     1 <1>   0.0800 
 45 H       -2.6990    -4.8860     1.8200 H     1 <1>   0.0800 
 46 H       -2.8740    -3.1570     1.6060 H     1 <1>   0.0800 
@<TRIPOS>BOND
  1   1   2  1   
  2   1   3  1   
  3   2   4  ar  
  4   2   5  ar  
  5   3  23  1   
  6   3  24  1   
  7   3  25  1   
  8   4   6  1   
  9   4   7  ar  
 10   5   8  ar  
 11   5   9  1   
 12   6  10  1   
 13   7  11  ar  
 14   7  26  1   
 15   8  11  ar  
 16   8  27  1   
 17   9  12  1   
 18   9  28  1   
 19   9  29  1   
 20  10  30  1   
 21  10  31  1   
 22  10  32  1   
 23  11  33  1   
 24  12  13  1   
 25  12  14  1   
 26  12  34  1   
 27  13  15  1   
 28  13  35  1   
 29  13  36  1   
 30  14  16  1   
 31  14  37  1   
 32  14  38  1   
 33  15  17  1   
 34  15  18  2   
 35  16  19  1   
 36  16  39  1   
 37  16  40  1   
 38  17  20  1   
 39  17  21  1   
 40  18  22  1   
 41  18  41  1   
 42  19  42  1   
 43  20  22  2   
 44  20  43  1   
 45  21  44  1   
 46  21  45  1   
 47  21  46  1   
@<TRIPOS>SUBSTRUCTURE
  1 ****  12 GROUP 4 **** **** 0

# MOE 2024.06 (io_trps.svl 2023.06)
