@<TRIPOS>MOLECULE
NONAME
55 58 1 0 0 
SMALL
USER_CHARGES


@<TRIPOS>ATOM
  1 O        1.7420    -0.3880     2.7530 O.2   1 <1>  -0.5700 
  2 C        1.8720    -0.9830     1.7070 C.2   1 <1>   0.5690 
  3 N        2.5130    -0.4200     0.6160 N.am  1 <1>  -0.4770 
  4 C        1.2980    -2.4100     1.6210 C.3   1 <1>   0.1710 
  5 C        2.3540     0.9340     0.2220 C.ar  1 <1>   0.1170 
  6 C        3.4900    -1.2380    -0.1500 C.3   1 <1>   0.1400 
  7 N       -0.0300    -2.5160     0.9540 N.3   1 <1>  -0.8100 
  8 C        3.2890     1.5650    -0.6070 C.ar  1 <1>  -0.1430 
  9 C        1.2430     1.6720     0.6270 C.ar  1 <1>  -0.1500 
 10 C        4.7850    -0.4490    -0.3360 C.3   1 <1>  -0.1600 
 11 C       -0.0890    -1.9800    -0.4110 C.3   1 <1>   0.1100 
 12 C       -0.5560    -3.8900     0.8990 C.3   1 <1>   0.1100 
 13 C        3.1070     2.8830    -0.9930 C.ar  1 <1>  -0.1500 
 14 C        4.5170     0.8320    -1.1260 C.3   1 <1>  -0.0170 
 15 C        1.0670     2.9860     0.2390 C.ar  1 <1>  -0.1500 
 16 C       -1.3550    -2.5980    -0.9920 C.3   1 <1>   0.2000 
 17 C       -1.3310    -4.0170    -0.4260 C.3   1 <1>  -0.0800 
 18 C        2.0020     3.6030    -0.5730 C.ar  1 <1>  -0.1430 
 19 O       -2.4300    -1.9340    -0.4360 O.3   1 <1>  -0.6800 
 20 C       -0.6460    -4.9890    -1.4070 C.3   1 <1>   0.0210 
 21 C        1.8150     5.0460    -1.0030 C.3   1 <1>  -0.0970 
 22 C       -0.5040    -6.3880    -0.8350 C.2   1 <1>   0.1080 
 23 N       -1.4940    -7.0450    -0.3170 N.2   1 <1>  -0.7070 
 24 C        0.6820    -7.1150    -0.8010 C.2   1 <1>  -0.1500 
 25 N       -0.9630    -8.2230     0.0610 N.pl3 1 <1>   0.3000 
 26 C        0.3550    -8.2880    -0.2200 C.2   1 <1>  -0.3320 
 27 C        1.2320    -9.4900     0.0840 C.3   1 <1>  -0.0600 
 28 H        1.1920    -2.7690     2.6290 H     1 <1>   0.0800 
 29 H        1.9940    -3.0580     1.1260 H     1 <1>   0.0800 
 30 H        3.7210    -2.1440     0.3790 H     1 <1>   0.0800 
 31 H        3.0670    -1.4880    -1.1070 H     1 <1>   0.0800 
 32 H        0.4980     1.2190     1.2560 H     1 <1>   0.1500 
 33 H        5.1850    -0.2000     0.6320 H     1 <1>   0.0800 
 34 H        5.5110    -1.0490    -0.8540 H     1 <1>   0.0800 
 35 H       -0.1320    -0.9040    -0.4170 H     1 <1>   0.0800 
 36 H        0.7650    -2.3090    -0.9760 H     1 <1>   0.0800 
 37 H        0.2420    -4.6110     0.9520 H     1 <1>   0.0800 
 38 H       -1.2170    -4.0510     1.7340 H     1 <1>   0.0800 
 39 H        3.8320     3.3570    -1.6300 H     1 <1>   0.1500 
 40 H        4.3530     0.5870    -2.1610 H     1 <1>   0.0800 
 41 H        5.3790     1.4740    -1.0670 H     1 <1>   0.0800 
 42 H        0.1990     3.5240     0.5740 H     1 <1>   0.1500 
 43 H       -1.4260    -2.5410    -2.0640 H     1 <1>   0.0800 
 44 H       -2.3300    -4.3760    -0.2440 H     1 <1>   0.0800 
 45 H       -2.2260    -1.8370     0.5200 H     1 <1>   0.4000 
 46 H        0.3280    -4.6210    -1.6730 H     1 <1>   0.0800 
 47 H       -1.2340    -5.0550    -2.3050 H     1 <1>   0.0800 
 48 H        1.2290     5.5820    -0.2770 H     1 <1>   0.0800 
 49 H        1.3100     5.0800    -1.9510 H     1 <1>   0.0800 
 50 H        2.7680     5.5350    -1.0960 H     1 <1>   0.0800 
 51 H        1.6380    -6.7900    -1.1690 H     1 <1>   0.1500 
 52 H       -1.5270    -8.9600     0.5020 H     1 <1>   0.2700 
 53 H        2.2420    -9.3020    -0.2330 H     1 <1>   0.0800 
 54 H        0.8660   -10.3570    -0.4360 H     1 <1>   0.0800 
 55 H        1.2360    -9.6900     1.1410 H     1 <1>   0.0800 
@<TRIPOS>BOND
  1   1   2  2   
  2   2   3  am  
  3   2   4  1   
  4   3   5  1   
  5   3   6  1   
  6   4   7  1   
  7   4  28  1   
  8   4  29  1   
  9   5   8  ar  
 10   5   9  ar  
 11   6  10  1   
 12   6  30  1   
 13   6  31  1   
 14   7  11  1   
 15   7  12  1   
 16   8  13  ar  
 17   8  14  1   
 18   9  15  ar  
 19   9  32  1   
 20  10  14  1   
 21  10  33  1   
 22  10  34  1   
 23  11  16  1   
 24  11  35  1   
 25  11  36  1   
 26  12  17  1   
 27  12  37  1   
 28  12  38  1   
 29  13  18  ar  
 30  13  39  1   
 31  14  40  1   
 32  14  41  1   
 33  15  18  ar  
 34  15  42  1   
 35  16  17  1   
 36  16  19  1   
 37  16  43  1   
 38  17  20  1   
 39  17  44  1   
 40  18  21  1   
 41  19  45  1   
 42  20  22  1   
 43  20  46  1   
 44  20  47  1   
 45  21  48  1   
 46  21  49  1   
 47  21  50  1   
 48  22  23  2   
 49  22  24  1   
 50  23  25  1   
 51  24  26  2   
 52  24  51  1   
 53  25  26  1   
 54  25  52  1   
 55  26  27  1   
 56  27  53  1   
 57  27  54  1   
 58  27  55  1   
@<TRIPOS>SUBSTRUCTURE
  1 ****  11 GROUP 4 **** **** 0

# MOE 2024.06 (io_trps.svl 2023.06)
