@<TRIPOS>MOLECULE
NONAME
48 50 1 0 0 
SMALL
USER_CHARGES


@<TRIPOS>ATOM
  1 O        1.9640     0.0780    -1.1690 O.2   1 <1>  -0.5700 
  2 C        2.1310    -0.6590    -0.2170 C.2   1 <1>   0.7160 
  3 N        2.7610    -0.1360     0.8890 N.am  1 <1>  -0.6600 
  4 C        1.7750    -2.0540    -0.2900 C.2   1 <1>  -0.0860 
  5 C        4.0870    -0.6750     1.2950 C.3   1 <1>   0.1400 
  6 C        2.4100     1.2300     1.3610 C.3   1 <1>   0.1400 
  7 C        1.4930    -2.7920    -1.3960 C.2   1 <1>  -0.0100 
  8 C        1.6290    -2.9690     0.7760 C.2   1 <1>  -0.1500 
  9 C        5.1540    -0.3600     0.2260 C.3   1 <1>   0.3430 
 10 C        3.5370     2.2410     1.1180 C.3   1 <1>  -0.1600 
 11 O        1.2210    -4.0360    -1.0870 O.3   1 <1>  -0.2800 
 12 C        1.2950    -4.1510     0.2210 C.2   1 <1>  -0.0100 
 13 N        5.4870     1.1000     0.0720 N.4   1 <1>  -0.9590 
 14 C        4.3150     1.9990    -0.1780 C.3   1 <1>   0.3430 
 15 C        6.4850     1.2920    -1.0010 C.3   1 <1>   0.5230 
 16 C        7.2140     2.5680    -0.6610 C.2   1 <1>  -0.3320 
 17 N        8.2900     2.6410     0.1770 N.pl3 1 <1>   0.0480 
 18 C        6.9320     3.8130    -1.1250 C.2   1 <1>  -0.1500 
 19 C        8.6540     3.9400     0.2400 C.2   1 <1>  -0.3020 
 20 C        9.0000     1.5390     0.8580 C.3   1 <1>   0.0160 
 21 C        7.8410     4.7170    -0.5480 C.2   1 <1>  -0.0860 
 22 C        7.8480     6.1360    -0.7870 C.2   1 <1>   0.5950 
 23 O        7.0150     6.6930    -1.4560 O.2   1 <1>  -0.5700 
 24 C        8.9390     6.9810    -0.1680 C.3   1 <1>  -0.1790 
 25 H        4.0120    -1.7440     1.4010 H     1 <1>   0.0800 
 26 H        4.3780    -0.2760     2.2510 H     1 <1>   0.0800 
 27 H        2.1670     1.1950     2.4100 H     1 <1>   0.0800 
 28 H        1.5250     1.5610     0.8400 H     1 <1>   0.0800 
 29 H        1.4680    -2.4920    -2.4310 H     1 <1>   0.1500 
 30 H        1.7530    -2.7370     1.8190 H     1 <1>   0.1500 
 31 H        4.8050    -0.7470    -0.7180 H     1 <1>   0.0800 
 32 H        6.0530    -0.8970     0.4810 H     1 <1>   0.0800 
 33 H        4.2020     2.2740     1.9610 H     1 <1>   0.0800 
 34 H        3.0780     3.2120     1.0530 H     1 <1>   0.0800 
 35 H        1.0890    -5.1090     0.6700 H     1 <1>   0.1500 
 36 H        5.9440     1.4570     0.9180 H     1 <1>   0.4500 
 37 H        4.6700     2.9540    -0.5280 H     1 <1>   0.0800 
 38 H        3.6690     1.5910    -0.9380 H     1 <1>   0.0800 
 39 H        5.9960     1.3770    -1.9590 H     1 <1>   0.0800 
 40 H        7.1830     0.4720    -1.0370 H     1 <1>   0.0800 
 41 H        6.1640     4.1250    -1.8160 H     1 <1>   0.1500 
 42 H        9.4860     4.2730     0.8370 H     1 <1>   0.1500 
 43 H        8.3390     1.0500     1.5480 H     1 <1>   0.0800 
 44 H        9.8410     1.9350     1.3990 H     1 <1>   0.0800 
 45 H        9.3570     0.8360     0.1270 H     1 <1>   0.0800 
 46 H        9.9000     6.5990    -0.4540 H     1 <1>   0.0800 
 47 H        8.8480     6.9620     0.9010 H     1 <1>   0.0800 
 48 H        8.8520     7.9960    -0.5090 H     1 <1>   0.0800 
@<TRIPOS>BOND
  1   1   2  2   
  2   2   3  am  
  3   2   4  1   
  4   3   5  1   
  5   3   6  1   
  6   4   7  2   
  7   4   8  1   
  8   5   9  1   
  9   5  25  1   
 10   5  26  1   
 11   6  10  1   
 12   6  27  1   
 13   6  28  1   
 14   7  11  1   
 15   7  29  1   
 16   8  12  2   
 17   8  30  1   
 18   9  13  1   
 19   9  31  1   
 20   9  32  1   
 21  10  14  1   
 22  10  33  1   
 23  10  34  1   
 24  11  12  1   
 25  12  35  1   
 26  13  14  1   
 27  13  15  1   
 28  13  36  1   
 29  14  37  1   
 30  14  38  1   
 31  15  16  1   
 32  15  39  1   
 33  15  40  1   
 34  16  17  1   
 35  16  18  2   
 36  17  19  1   
 37  17  20  1   
 38  18  21  1   
 39  18  41  1   
 40  19  21  2   
 41  19  42  1   
 42  20  43  1   
 43  20  44  1   
 44  20  45  1   
 45  21  22  1   
 46  22  23  2   
 47  22  24  1   
 48  24  46  1   
 49  24  47  1   
 50  24  48  1   
@<TRIPOS>SUBSTRUCTURE
  1 ****  13 GROUP 4 **** **** 0

# MOE 2024.06 (io_trps.svl 2023.06)
