@<TRIPOS>MOLECULE
NONAME
50 51 1 0 0 
SMALL
USER_CHARGES


@<TRIPOS>ATOM
  1 O        0.6860    -0.8060     1.2440 O.2   1 <1>  -0.5700 
  2 C        1.4580    -1.4390     0.5580 C.2   1 <1>   0.5440 
  3 N        2.5650    -0.7750     0.1510 N.am  1 <1>  -0.8000 
  4 C        1.1950    -2.8180     0.1860 C.ar  1 <1>   0.0860 
  5 C       -0.0990    -3.3390     0.2320 C.ar  1 <1>  -0.1500 
  6 C        2.2060    -3.6890    -0.2290 C.ar  1 <1>  -0.1500 
  7 C       -0.3730    -4.6460    -0.1210 C.ar  1 <1>  -0.1500 
  8 C        1.9360    -4.9980    -0.5820 C.ar  1 <1>  -0.1500 
  9 C        0.6420    -5.5050    -0.5320 C.ar  1 <1>   0.1170 
 10 N        0.4270    -6.8380    -0.9040 N.am  1 <1>  -0.5470 
 11 C       -0.5970    -7.6930    -0.5750 C.2   1 <1>   0.5690 
 12 O       -1.5280    -7.3870     0.1330 O.2   1 <1>  -0.5700 
 13 C       -0.5820    -9.1430    -1.0890 C.3   1 <1>   0.4040 
 14 N       -1.5250   -10.0310    -0.3060 N.4   1 <1>  -0.9590 
 15 C       -0.8230   -10.8830     0.7220 C.3   1 <1>   0.4230 
 16 C       -2.3900   -10.8010    -1.2570 C.3   1 <1>   0.2630 
 17 C       -1.7700   -11.8270     1.4940 C.3   1 <1>  -0.0170 
 18 C       -0.1070    -9.9680     1.7220 C.3   1 <1>  -0.2400 
 19 C       -2.1990   -13.0410     0.6870 C.ar  1 <1>   0.1670 
 20 N       -1.3090   -13.5230    -0.1670 N.ar  1 <1>  -0.6200 
 21 C       -3.4660   -13.5720     0.8730 C.ar  1 <1>  -0.1500 
 22 C       -1.6940   -14.5910    -0.8500 C.ar  1 <1>   0.1600 
 23 C       -3.8630   -14.6730     0.1430 C.ar  1 <1>  -0.1430 
 24 C       -2.9370   -15.1900    -0.7370 C.ar  1 <1>  -0.1500 
 25 C       -5.2370   -15.2950     0.3100 C.3   1 <1>  -0.0970 
 26 H        2.6640     0.2030     0.4230 H     1 <1>   0.3700 
 27 H        3.2200    -1.1250    -0.5460 H     1 <1>   0.3700 
 28 H       -0.9030    -2.6970     0.5520 H     1 <1>   0.1500 
 29 H        3.2210    -3.3370    -0.2660 H     1 <1>   0.1500 
 30 H       -1.3910    -4.9860    -0.0740 H     1 <1>   0.1500 
 31 H        2.7470    -5.6310    -0.8920 H     1 <1>   0.1500 
 32 H        1.1860    -7.2170    -1.4720 H     1 <1>   0.3700 
 33 H        0.4190    -9.5330    -1.0350 H     1 <1>   0.0800 
 34 H       -0.8790    -9.1230    -2.1230 H     1 <1>   0.0800 
 35 H       -2.1210    -9.3570     0.2130 H     1 <1>   0.4500 
 36 H       -0.0820   -11.4940     0.2300 H     1 <1>   0.0800 
 37 H       -1.8120   -11.5620    -1.7560 H     1 <1>   0.0800 
 38 H       -2.8180   -10.1430    -1.9960 H     1 <1>   0.0800 
 39 H       -3.1970   -11.2810    -0.7280 H     1 <1>   0.0800 
 40 H       -2.6230   -11.2820     1.8550 H     1 <1>   0.0800 
 41 H       -1.2490   -12.2140     2.3510 H     1 <1>   0.0800 
 42 H       -0.7990    -9.2880     2.1870 H     1 <1>   0.0800 
 43 H        0.6870    -9.4130     1.2590 H     1 <1>   0.0800 
 44 H        0.3480   -10.5600     2.4970 H     1 <1>   0.0800 
 45 H       -4.1420   -13.1360     1.5870 H     1 <1>   0.1500 
 46 H       -0.9830   -15.0170    -1.5380 H     1 <1>   0.1500 
 47 H       -3.1690   -16.0560    -1.3310 H     1 <1>   0.1500 
 48 H       -5.9530   -14.5570     0.6250 H     1 <1>   0.0800 
 49 H       -5.1970   -16.0750     1.0510 H     1 <1>   0.0800 
 50 H       -5.5730   -15.7200    -0.6190 H     1 <1>   0.0800 
@<TRIPOS>BOND
  1   1   2  2   
  2   2   3  am  
  3   2   4  1   
  4   3  26  1   
  5   3  27  1   
  6   4   5  ar  
  7   4   6  ar  
  8   5   7  ar  
  9   5  28  1   
 10   6   8  ar  
 11   6  29  1   
 12   7   9  ar  
 13   7  30  1   
 14   8   9  ar  
 15   8  31  1   
 16   9  10  1   
 17  10  11  am  
 18  10  32  1   
 19  11  12  2   
 20  11  13  1   
 21  13  14  1   
 22  13  33  1   
 23  13  34  1   
 24  14  15  1   
 25  14  16  1   
 26  14  35  1   
 27  15  17  1   
 28  15  18  1   
 29  15  36  1   
 30  16  37  1   
 31  16  38  1   
 32  16  39  1   
 33  17  19  1   
 34  17  40  1   
 35  17  41  1   
 36  18  42  1   
 37  18  43  1   
 38  18  44  1   
 39  19  20  ar  
 40  19  21  ar  
 41  20  22  ar  
 42  21  23  ar  
 43  21  45  1   
 44  22  24  ar  
 45  22  46  1   
 46  23  24  ar  
 47  23  25  1   
 48  24  47  1   
 49  25  48  1   
 50  25  49  1   
 51  25  50  1   
@<TRIPOS>SUBSTRUCTURE
  1 ****  11 GROUP 4 **** **** 0

# MOE 2024.06 (io_trps.svl 2023.06)
