@<TRIPOS>MOLECULE
NONAME
57 61 1 0 0 
SMALL
USER_CHARGES


@<TRIPOS>ATOM
  1 O        0.2490     2.1020    -1.4930 O.2   1 <1>  -0.5700 
  2 C       -0.6860     2.4320    -0.8030 C.2   1 <1>   0.5690 
  3 N       -1.9720     2.4080    -1.2750 N.am  1 <1>  -0.6600 
  4 C       -0.3670     2.8940     0.6250 C.3   1 <1>  -0.0190 
  5 C       -3.1420     3.0240    -0.5650 C.3   1 <1>   0.1400 
  6 C       -2.2670     1.7290    -2.5760 C.3   1 <1>   0.1400 
  7 C        0.1070     4.3590     0.6230 C.3   1 <1>  -0.1600 
  8 C        0.6950     1.9920     1.2910 C.3   1 <1>  -0.1600 
  9 C       -4.2520     3.4700    -1.5320 C.3   1 <1>   0.1440 
 10 C       -3.7030     1.1860    -2.6040 C.3   1 <1>  -0.1600 
 11 C        0.5310     4.8280     2.0140 C.3   1 <1>   0.3430 
 12 C        1.0980     2.5050     2.6710 C.3   1 <1>   0.3430 
 13 C       -5.3720     4.1350    -0.7540 C.ar  1 <1>   0.1660 
 14 C       -4.7820     2.2570    -2.3320 C.3   1 <1>  -0.1600 
 15 C       -3.7960     4.6170    -2.4770 C.3   1 <1>  -0.1600 
 16 N        1.5700     3.9100     2.5490 N.4   1 <1>  -0.9060 
 17 N       -5.9000     3.6700     0.3520 N.ar  1 <1>  -0.6200 
 18 C       -5.7620     5.3050    -1.3270 C.ar  1 <1>  -0.1440 
 19 C       -4.9700     5.6080    -2.5730 C.3   1 <1>  -0.0170 
 20 C       -6.8750     4.4150     0.8920 C.ar  1 <1>   0.6200 
 21 C       -6.7660     6.0100    -0.7160 C.ar  1 <1>   0.1600 
 22 N       -7.3240     5.5750     0.3910 N.ar  1 <1>  -0.6200 
 23 C       -7.4850     3.9290     2.1220 C.ar  1 <1>   0.0000 
 24 C       -7.5610     2.5640     2.4140 C.ar  1 <1>  -0.1500 
 25 C       -8.0220     4.8050     3.0700 C.ar  1 <1>  -0.1500 
 26 C       -8.1350     2.0990     3.5840 C.ar  1 <1>  -0.1500 
 27 C       -8.5980     4.3490     4.2420 C.ar  1 <1>  -0.1500 
 28 C       -8.6550     2.9920     4.5020 C.ar  1 <1>  -0.1500 
 29 H       -1.2560     2.8170     1.2230 H     1 <1>   0.0800 
 30 H       -2.8260     3.8790     0.0050 H     1 <1>   0.0800 
 31 H       -3.5510     2.2990     0.1180 H     1 <1>   0.0800 
 32 H       -1.5780     0.9140    -2.7220 H     1 <1>   0.0800 
 33 H       -2.1190     2.4280    -3.3810 H     1 <1>   0.0800 
 34 H       -0.6870     4.9930     0.2660 H     1 <1>   0.0800 
 35 H        0.9330     4.4730    -0.0600 H     1 <1>   0.0800 
 36 H        1.5750     1.9290     0.6720 H     1 <1>   0.0800 
 37 H        0.3030     0.9940     1.3840 H     1 <1>   0.0800 
 38 H       -3.7760     0.4150    -1.8560 H     1 <1>   0.0800 
 39 H       -3.8900     0.7210    -3.5550 H     1 <1>   0.0800 
 40 H       -0.3250     4.8340     2.6710 H     1 <1>   0.0800 
 41 H        0.9190     5.8340     1.9540 H     1 <1>   0.0800 
 42 H        1.8810     1.8820     3.0740 H     1 <1>   0.0800 
 43 H        0.2500     2.4590     3.3360 H     1 <1>   0.0800 
 44 H       -5.2070     2.5940    -3.2610 H     1 <1>   0.0800 
 45 H       -5.5780     1.7880    -1.7780 H     1 <1>   0.0800 
 46 H       -3.5030     4.2640    -3.4500 H     1 <1>   0.0800 
 47 H       -2.9570     5.1280    -2.0400 H     1 <1>   0.0800 
 48 H        1.9030     4.2480     3.4610 H     1 <1>   0.4500 
 49 H        2.3760     3.9240     1.9100 H     1 <1>   0.4500 
 50 H       -5.5710     5.4050    -3.4420 H     1 <1>   0.0800 
 51 H       -4.6280     6.6280    -2.5940 H     1 <1>   0.0800 
 52 H       -7.1140     6.9400    -1.1330 H     1 <1>   0.1500 
 53 H       -7.1650     1.8530     1.7100 H     1 <1>   0.1500 
 54 H       -7.9890     5.8650     2.8850 H     1 <1>   0.1500 
 55 H       -8.1780     1.0420     3.7790 H     1 <1>   0.1500 
 56 H       -9.0030     5.0490     4.9510 H     1 <1>   0.1500 
 57 H       -9.1030     2.6340     5.4130 H     1 <1>   0.1500 
@<TRIPOS>BOND
  1   1   2  2   
  2   2   3  am  
  3   2   4  1   
  4   3   5  1   
  5   3   6  1   
  6   4   7  1   
  7   4   8  1   
  8   4  29  1   
  9   5   9  1   
 10   5  30  1   
 11   5  31  1   
 12   6  10  1   
 13   6  32  1   
 14   6  33  1   
 15   7  11  1   
 16   7  34  1   
 17   7  35  1   
 18   8  12  1   
 19   8  36  1   
 20   8  37  1   
 21   9  13  1   
 22   9  14  1   
 23   9  15  1   
 24  10  14  1   
 25  10  38  1   
 26  10  39  1   
 27  11  16  1   
 28  11  40  1   
 29  11  41  1   
 30  12  16  1   
 31  12  42  1   
 32  12  43  1   
 33  13  17  ar  
 34  13  18  ar  
 35  14  44  1   
 36  14  45  1   
 37  15  19  1   
 38  15  46  1   
 39  15  47  1   
 40  16  48  1   
 41  16  49  1   
 42  17  20  ar  
 43  18  19  1   
 44  18  21  ar  
 45  19  50  1   
 46  19  51  1   
 47  20  22  ar  
 48  20  23  1   
 49  21  22  ar  
 50  21  52  1   
 51  23  24  ar  
 52  23  25  ar  
 53  24  26  ar  
 54  24  53  1   
 55  25  27  ar  
 56  25  54  1   
 57  26  28  ar  
 58  26  55  1   
 59  27  28  ar  
 60  27  56  1   
 61  28  57  1   
@<TRIPOS>SUBSTRUCTURE
  1 ****   5 GROUP 4 **** **** 0

# MOE 2024.06 (io_trps.svl 2023.06)
