@<TRIPOS>MOLECULE
NONAME
50 54 1 0 0 
SMALL
USER_CHARGES


@<TRIPOS>ATOM
  1 S        0.2500    -0.7740     1.4280 S.3   1 <1>  -0.0800 
  2 C        0.1740    -2.1410     0.3170 C.ar  1 <1>   0.0400 
  3 C       -1.4670    -0.8910     1.7570 C.2   1 <1>  -0.1100 
  4 C       -1.1220    -2.6340     0.2400 C.ar  1 <1>   0.0000 
  5 C        1.2410    -2.6640    -0.3880 C.ar  1 <1>  -0.1500 
  6 C       -2.0600    -1.8950     1.0670 C.2   1 <1>  -0.0860 
  7 C       -1.3310    -3.7280    -0.6010 C.ar  1 <1>  -0.1500 
  8 C        1.0030    -3.7440    -1.2180 C.ar  1 <1>  -0.1500 
  9 C       -3.4740    -2.1960     1.1230 C.2   1 <1>   0.7160 
 10 C       -0.2800    -4.2710    -1.3200 C.ar  1 <1>  -0.1500 
 11 O       -3.9080    -3.3260     0.9870 O.2   1 <1>  -0.5700 
 12 N       -4.4070    -1.1950     1.2510 N.am  1 <1>  -0.6600 
 13 C       -5.7120    -1.4490     1.9560 C.3   1 <1>   0.1400 
 14 C       -4.3590     0.0100     0.3750 C.3   1 <1>   0.1400 
 15 C       -6.8580    -1.8520     0.9940 C.3   1 <1>   0.4230 
 16 C       -5.3790    -0.0450    -0.7890 C.3   1 <1>  -0.0800 
 17 N       -6.2790    -2.4180    -0.2820 N.4   1 <1>  -0.9590 
 18 C       -7.8660    -0.7050     0.7710 C.3   1 <1>   0.1200 
 19 C       -6.6210     0.8290    -0.5490 C.3   1 <1>   0.1200 
 20 C       -5.7730    -1.4450    -1.3020 C.3   1 <1>   0.3430 
 21 C       -7.1120    -3.4950    -0.8920 C.3   1 <1>   0.5240 
 22 O       -7.2320     0.5350     0.6590 O.3   1 <1>  -0.5600 
 23 C       -7.3690    -4.6200     0.1030 C.2   1 <1>   0.0460 
 24 N       -8.4090    -4.5630     0.9600 N.2   1 <1>  -0.5650 
 25 C       -6.6620    -5.7590     0.2820 C.2   1 <1>  -0.3020 
 26 C       -8.3170    -5.6650     1.6330 C.2   1 <1>   0.0360 
 27 N       -7.2720    -6.4380     1.2710 N.pl3 1 <1>   0.0330 
 28 H       -1.8740    -0.1770     2.4520 H     1 <1>   0.1500 
 29 H        2.2230    -2.2380    -0.2880 H     1 <1>   0.1500 
 30 H       -2.3080    -4.1630    -0.6950 H     1 <1>   0.1500 
 31 H        1.8090    -4.1790    -1.7830 H     1 <1>   0.1500 
 32 H       -0.4510    -5.1170    -1.9650 H     1 <1>   0.1500 
 33 H       -5.5730    -2.2520     2.6600 H     1 <1>   0.0800 
 34 H       -5.9880    -0.5820     2.5320 H     1 <1>   0.0800 
 35 H       -4.5280     0.8900     0.9750 H     1 <1>   0.0800 
 36 H       -3.3710     0.1010    -0.0440 H     1 <1>   0.0800 
 37 H       -7.4040    -2.6250     1.5000 H     1 <1>   0.0800 
 38 H       -4.8880     0.4280    -1.6200 H     1 <1>   0.0800 
 39 H       -5.4380    -2.9080     0.0850 H     1 <1>   0.4500 
 40 H       -8.5010    -0.6400     1.6370 H     1 <1>   0.0800 
 41 H       -8.4920    -0.8780    -0.0870 H     1 <1>   0.0800 
 42 H       -7.3450     0.7280    -1.3410 H     1 <1>   0.0800 
 43 H       -6.3270     1.8650    -0.5000 H     1 <1>   0.0800 
 44 H       -4.9120    -1.8800    -1.7840 H     1 <1>   0.0800 
 45 H       -6.5270    -1.3120    -2.0610 H     1 <1>   0.0800 
 46 H       -8.0570    -3.0980    -1.2210 H     1 <1>   0.0800 
 47 H       -6.6000    -3.9070    -1.7450 H     1 <1>   0.0800 
 48 H       -5.7800    -6.1230    -0.2170 H     1 <1>   0.1500 
 49 H       -8.9990    -5.9600     2.4140 H     1 <1>   0.1500 
 50 H       -7.0100    -7.3480     1.6670 H     1 <1>   0.2700 
@<TRIPOS>BOND
  1   1   2  1   
  2   1   3  1   
  3   2   4  ar  
  4   2   5  ar  
  5   3   6  2   
  6   3  28  1   
  7   4   6  1   
  8   4   7  ar  
  9   5   8  ar  
 10   5  29  1   
 11   6   9  1   
 12   7  10  ar  
 13   7  30  1   
 14   8  10  ar  
 15   8  31  1   
 16   9  11  2   
 17   9  12  am  
 18  10  32  1   
 19  12  13  1   
 20  12  14  1   
 21  13  15  1   
 22  13  33  1   
 23  13  34  1   
 24  14  16  1   
 25  14  35  1   
 26  14  36  1   
 27  15  17  1   
 28  15  18  1   
 29  15  37  1   
 30  16  19  1   
 31  16  20  1   
 32  16  38  1   
 33  17  20  1   
 34  17  21  1   
 35  17  39  1   
 36  18  22  1   
 37  18  40  1   
 38  18  41  1   
 39  19  22  1   
 40  19  42  1   
 41  19  43  1   
 42  20  44  1   
 43  20  45  1   
 44  21  23  1   
 45  21  46  1   
 46  21  47  1   
 47  23  24  1   
 48  23  25  2   
 49  24  26  2   
 50  25  27  1   
 51  25  48  1   
 52  26  27  1   
 53  26  49  1   
 54  27  50  1   
@<TRIPOS>SUBSTRUCTURE
  1 ****  11 GROUP 4 **** **** 0

# MOE 2024.06 (io_trps.svl 2023.06)
