@<TRIPOS>MOLECULE
NONAME
42 43 1 0 0 
SMALL
USER_CHARGES


@<TRIPOS>ATOM
  1 N       -0.2950     0.0960    -1.1780 N.ar  1 <1>  -0.6200 
  2 C        0.4120     1.0170    -1.7860 C.ar  1 <1>   0.7710 
  3 C       -1.1150     0.4940    -0.2260 C.ar  1 <1>   0.4100 
  4 N        0.3280     2.3230    -1.4920 N.ar  1 <1>  -0.1790 
  5 N        1.2400     0.5950    -2.7380 N.pl3 1 <1>  -0.9000 
  6 N       -1.8560    -0.4540     0.3810 N.pl3 1 <1>  -0.8690 
  7 C       -1.2390     1.8550     0.1580 C.ar  1 <1>  -0.1430 
  8 C       -0.5010     2.7800    -0.5220 C.ar  1 <1>   0.2170 
  9 C       -1.9900    -1.8690     0.0070 C.3   1 <1>   0.4330 
 10 C       -2.1880     2.2050     1.3120 C.3   1 <1>  -0.0970 
 11 C       -0.5120     4.2920    -0.2990 C.3   1 <1>  -0.0170 
 12 C       -3.4770    -2.1780    -0.0590 C.ar  1 <1>  -0.1430 
 13 C       -1.2360    -2.7090     1.0340 C.3   1 <1>  -0.2400 
 14 C        0.6490     4.7350     0.6000 C.3   1 <1>  -0.2400 
 15 C       -4.0940    -2.2060    -1.3010 C.ar  1 <1>   0.1600 
 16 C       -4.2530    -2.4130     1.0620 C.ar  1 <1>  -0.1500 
 17 N       -5.3780    -2.4460    -1.5100 N.ar  1 <1>  -0.6200 
 18 C       -5.5930    -2.6670     0.8590 C.ar  1 <1>  -0.1500 
 19 C       -6.1020    -2.6730    -0.4300 C.ar  1 <1>   0.1670 
 20 C       -7.5700    -2.9510    -0.6680 C.3   1 <1>  -0.0970 
 21 H        0.9180     2.9530    -2.0220 H     1 <1>   0.4570 
 22 H        1.8720     1.1360    -3.3290 H     1 <1>   0.4000 
 23 H        1.2660    -0.4130    -2.9210 H     1 <1>   0.4000 
 24 H       -2.5510    -0.1890     1.0800 H     1 <1>   0.4000 
 25 H       -1.5520    -2.0440    -0.9620 H     1 <1>   0.0800 
 26 H       -2.0030     1.5570     2.1510 H     1 <1>   0.0800 
 27 H       -3.2100     2.0770     0.9990 H     1 <1>   0.0800 
 28 H       -2.0660     3.2100     1.6670 H     1 <1>   0.0800 
 29 H       -1.4410     4.6060     0.1420 H     1 <1>   0.0800 
 30 H       -0.4450     4.8020    -1.2450 H     1 <1>   0.0800 
 31 H       -1.5640    -2.4940     2.0330 H     1 <1>   0.0800 
 32 H       -0.1840    -2.5050     0.9600 H     1 <1>   0.0800 
 33 H       -1.3940    -3.7530     0.8320 H     1 <1>   0.0800 
 34 H        0.5830     4.2570     1.5630 H     1 <1>   0.0800 
 35 H        0.6090     5.8000     0.7530 H     1 <1>   0.0800 
 36 H        1.6000     4.4940     0.1610 H     1 <1>   0.0800 
 37 H       -3.5010    -2.0150    -2.1790 H     1 <1>   0.1500 
 38 H       -3.8470    -2.4010     2.0580 H     1 <1>   0.1500 
 39 H       -6.2370    -2.8590     1.6980 H     1 <1>   0.1500 
 40 H       -8.0170    -2.1100    -1.1660 H     1 <1>   0.0800 
 41 H       -8.0890    -3.1260     0.2550 H     1 <1>   0.0800 
 42 H       -7.6720    -3.8180    -1.2960 H     1 <1>   0.0800 
@<TRIPOS>BOND
  1   1   2  ar  
  2   1   3  ar  
  3   2   4  ar  
  4   2   5  1   
  5   3   6  1   
  6   3   7  ar  
  7   4   8  ar  
  8   4  21  1   
  9   5  22  1   
 10   5  23  1   
 11   6   9  1   
 12   6  24  1   
 13   7   8  ar  
 14   7  10  1   
 15   8  11  1   
 16   9  12  1   
 17   9  13  1   
 18   9  25  1   
 19  10  26  1   
 20  10  27  1   
 21  10  28  1   
 22  11  14  1   
 23  11  29  1   
 24  11  30  1   
 25  12  15  ar  
 26  12  16  ar  
 27  13  31  1   
 28  13  32  1   
 29  13  33  1   
 30  14  34  1   
 31  14  35  1   
 32  14  36  1   
 33  15  17  ar  
 34  15  37  1   
 35  16  18  ar  
 36  16  38  1   
 37  17  19  ar  
 38  18  19  ar  
 39  18  39  1   
 40  19  20  1   
 41  20  40  1   
 42  20  41  1   
 43  20  42  1   
@<TRIPOS>SUBSTRUCTURE
  1 ****   6 GROUP 4 **** **** 0

# MOE 2024.06 (io_trps.svl 2023.06)
