@<TRIPOS>MOLECULE
NONAME
54 57 1 0 0 
SMALL
USER_CHARGES


@<TRIPOS>ATOM
  1 O       -1.2410     2.2290    -2.5290 O.2   1 <1>  -0.5700 
  2 C       -1.5380     2.3410    -1.3610 C.2   1 <1>   0.5690 
  3 N       -2.4000     1.4520    -0.7640 N.am  1 <1>  -0.6600 
  4 C       -0.9440     3.5170    -0.6050 C.3   1 <1>   0.0820 
  5 C       -2.9160     0.2640    -1.5120 C.3   1 <1>   0.1400 
  6 C       -2.9170     1.5650     0.6300 C.3   1 <1>   0.1400 
  7 C        0.0550     3.0820     0.4490 C.2   1 <1>   0.1080 
  8 C       -4.3550     0.4740    -2.0080 C.3   1 <1>   0.1400 
  9 C       -4.1810     2.4340     0.6990 C.3   1 <1>  -0.1600 
 10 N       -0.0300     3.4490     1.6850 N.2   1 <1>  -0.7070 
 11 C        1.1660     2.2530     0.2000 C.ar  1 <1>   0.0000 
 12 N       -5.2840     0.8630    -0.8980 N.am  1 <1>  -0.6600 
 13 C       -5.1540     2.2850    -0.4790 C.3   1 <1>   0.1400 
 14 N        1.0300     2.8690     2.2930 N.pl3 1 <1>   0.3000 
 15 C        1.7800     2.1320     1.4280 C.ar  1 <1>  -0.1520 
 16 C        1.7180     1.6000    -0.9120 C.ar  1 <1>  -0.1500 
 17 C       -6.1520     0.0230    -0.2500 C.2   1 <1>   0.5690 
 18 C        2.9410     1.3690     1.5930 C.ar  1 <1>  -0.1500 
 19 C        2.8570     0.8470    -0.7580 C.ar  1 <1>  -0.1500 
 20 O       -6.8450     0.4130     0.6600 O.2   1 <1>  -0.5700 
 21 C       -6.2410    -1.4440    -0.6560 C.3   1 <1>  -0.0990 
 22 C        3.4710     0.7300     0.4970 C.ar  1 <1>  -0.1500 
 23 C       -7.1770    -2.2880     0.2320 C.3   1 <1>  -0.1600 
 24 C       -7.1670    -3.7650    -0.1890 C.3   1 <1>   0.0960 
 25 N       -8.1280    -4.5570     0.6020 N.pl3 1 <1>   0.3140 
 26 N       -9.1130    -5.2450     0.0420 N.2   1 <1>  -0.7070 
 27 C       -8.1750    -4.7470     1.9240 C.2   1 <1>   0.0360 
 28 C       -9.6840    -5.7940     1.0630 C.2   1 <1>   0.3660 
 29 N       -9.1430    -5.5220     2.2580 N.2   1 <1>  -0.5650 
 30 H       -1.7330     4.0810    -0.1470 H     1 <1>   0.0800 
 31 H       -0.4440     4.1640    -1.3010 H     1 <1>   0.0800 
 32 H       -2.8770    -0.6030    -0.8770 H     1 <1>   0.0800 
 33 H       -2.2830     0.0620    -2.3600 H     1 <1>   0.0800 
 34 H       -2.1650     1.9630     1.2870 H     1 <1>   0.0800 
 35 H       -3.1560     0.5800     0.9930 H     1 <1>   0.0800 
 36 H       -4.6950    -0.4240    -2.4890 H     1 <1>   0.0800 
 37 H       -4.3520     1.2470    -2.7570 H     1 <1>   0.0800 
 38 H       -3.8970     3.4660     0.7790 H     1 <1>   0.0800 
 39 H       -4.7050     2.1900     1.6060 H     1 <1>   0.0800 
 40 H       -4.7990     2.8720    -1.3090 H     1 <1>   0.0800 
 41 H       -6.1200     2.6710    -0.1980 H     1 <1>   0.0800 
 42 H        1.2320     2.9910     3.2920 H     1 <1>   0.2700 
 43 H        1.2420     1.6950    -1.8730 H     1 <1>   0.1500 
 44 H        3.4040     1.2870     2.5610 H     1 <1>   0.1500 
 45 H        3.2910     0.3390    -1.6020 H     1 <1>   0.1500 
 46 H       -5.2520    -1.8610    -0.6150 H     1 <1>   0.0800 
 47 H       -6.5900    -1.4880    -1.6710 H     1 <1>   0.0800 
 48 H        4.3630     0.1350     0.5890 H     1 <1>   0.1500 
 49 H       -8.1790    -1.8990     0.1510 H     1 <1>   0.0800 
 50 H       -6.8610    -2.2000     1.2570 H     1 <1>   0.0800 
 51 H       -6.1890    -4.1890    -0.0560 H     1 <1>   0.0800 
 52 H       -7.4400    -3.8520    -1.2250 H     1 <1>   0.0800 
 53 H       -7.4780    -4.2970     2.6070 H     1 <1>   0.1500 
 54 H      -10.5450    -6.4380     0.9830 H     1 <1>   0.1500 
@<TRIPOS>BOND
  1   1   2  2   
  2   2   3  am  
  3   2   4  1   
  4   3   5  1   
  5   3   6  1   
  6   4   7  1   
  7   4  30  1   
  8   4  31  1   
  9   5   8  1   
 10   5  32  1   
 11   5  33  1   
 12   6   9  1   
 13   6  34  1   
 14   6  35  1   
 15   7  10  2   
 16   7  11  1   
 17   8  12  1   
 18   8  36  1   
 19   8  37  1   
 20   9  13  1   
 21   9  38  1   
 22   9  39  1   
 23  10  14  1   
 24  11  15  ar  
 25  11  16  ar  
 26  12  13  1   
 27  12  17  am  
 28  13  40  1   
 29  13  41  1   
 30  14  15  1   
 31  14  42  1   
 32  15  18  ar  
 33  16  19  ar  
 34  16  43  1   
 35  17  20  2   
 36  17  21  1   
 37  18  22  ar  
 38  18  44  1   
 39  19  22  ar  
 40  19  45  1   
 41  21  23  1   
 42  21  46  1   
 43  21  47  1   
 44  22  48  1   
 45  23  24  1   
 46  23  49  1   
 47  23  50  1   
 48  24  25  1   
 49  24  51  1   
 50  24  52  1   
 51  25  26  1   
 52  25  27  1   
 53  26  28  2   
 54  27  29  2   
 55  27  53  1   
 56  28  29  1   
 57  28  54  1   
@<TRIPOS>SUBSTRUCTURE
  1 ****   6 GROUP 4 **** **** 0

# MOE 2024.06 (io_trps.svl 2023.06)
