@<TRIPOS>MOLECULE
NONAME
54 57 1 0 0 
SMALL
USER_CHARGES


@<TRIPOS>ATOM
  1 O        1.0400    -0.5620     1.7110 O.2   1 <1>  -0.5700 
  2 C        0.5060    -1.5850     1.3560 C.2   1 <1>   0.9370 
  3 N        1.2210    -2.5310     0.6160 N.pl3 1 <1>  -0.5760 
  4 C       -0.8540    -1.8360     1.6690 C.2   1 <1>  -0.1360 
  5 C        0.6080    -3.6710     0.2120 C.cat 1 <1>   0.7390 
  6 C        2.5460    -2.3260     0.3000 C.2   1 <1>   0.1910 
  7 C       -1.4620    -2.9640     1.2540 C.2   1 <1>   0.2030 
  8 N       -0.7020    -3.8680     0.5230 N.pl3 1 <1>  -0.6450 
  9 C        1.3280    -4.6260    -0.5190 C.2   1 <1>  -0.1800 
 10 C        3.2650    -3.2460    -0.4140 C.2   1 <1>  -0.1380 
 11 C       -2.9410    -3.2660     1.5710 C.3   1 <1>   0.4810 
 12 C        2.6440    -4.4270    -0.8360 C.2   1 <1>  -0.1500 
 13 C        4.7280    -3.0250    -0.7660 C.3   1 <1>  -0.1020 
 14 N       -3.8330    -3.1860     0.3660 N.4   1 <1>  -0.9590 
 15 C       -5.2140    -3.6440     0.7450 C.3   1 <1>   0.3430 
 16 C       -3.9010    -1.8120    -0.2270 C.3   1 <1>   0.3430 
 17 C       -6.1630    -3.7060    -0.4720 C.3   1 <1>   0.0000 
 18 C       -4.7760    -1.8270    -1.4820 C.3   1 <1>  -0.1600 
 19 C       -7.5610    -4.1270     0.0110 C.3   1 <1>   0.2000 
 20 C       -6.1930    -2.3360    -1.1780 C.3   1 <1>  -0.1600 
 21 C       -5.7720    -4.8520    -1.4200 C.3   1 <1>  -0.1600 
 22 O       -7.7800    -3.6210     1.2930 O.3   1 <1>  -0.5600 
 23 C       -7.5670    -5.6610     0.0200 C.3   1 <1>  -0.1600 
 24 C       -6.3280    -6.1140    -0.7620 C.3   1 <1>  -0.1600 
 25 C       -9.1160    -3.6220     1.6980 C.3   1 <1>   0.0400 
 26 H       -1.3410    -1.0710     2.2470 H     1 <1>   0.1500 
 27 H        3.0220    -1.4120     0.6300 H     1 <1>   0.1500 
 28 H       -1.0800    -4.7790     0.2380 H     1 <1>   0.4500 
 29 H        0.8400    -5.5290    -0.8360 H     1 <1>   0.1500 
 30 H       -3.2910    -2.5640     2.3110 H     1 <1>   0.0800 
 31 H       -3.0100    -4.2500     2.0060 H     1 <1>   0.0800 
 32 H        3.2080    -5.1560    -1.3990 H     1 <1>   0.1500 
 33 H        5.3330    -3.8100    -0.3460 H     1 <1>   0.0800 
 34 H        5.0840    -2.0840    -0.3860 H     1 <1>   0.0800 
 35 H        4.8570    -3.0280    -1.8350 H     1 <1>   0.0800 
 36 H       -3.5200    -3.8240    -0.3740 H     1 <1>   0.4500 
 37 H       -5.1790    -4.6190     1.2020 H     1 <1>   0.0800 
 38 H       -5.6310    -2.9600     1.4680 H     1 <1>   0.0800 
 39 H       -4.3240    -1.1240     0.4880 H     1 <1>   0.0800 
 40 H       -2.9150    -1.4650    -0.4910 H     1 <1>   0.0800 
 41 H       -4.8420    -0.8250    -1.8720 H     1 <1>   0.0800 
 42 H       -4.3160    -2.4330    -2.2430 H     1 <1>   0.0800 
 43 H       -8.3160    -3.7510    -0.6610 H     1 <1>   0.0800 
 44 H       -6.7630    -2.3960    -2.0910 H     1 <1>   0.0800 
 45 H       -6.6910    -1.6250    -0.5390 H     1 <1>   0.0800 
 46 H       -6.2720    -4.7190    -2.3670 H     1 <1>   0.0800 
 47 H       -4.7170    -4.9300    -1.6080 H     1 <1>   0.0800 
 48 H       -7.5380    -6.0520     1.0230 H     1 <1>   0.0800 
 49 H       -8.4590    -6.0170    -0.4670 H     1 <1>   0.0800 
 50 H       -5.6060    -6.5340    -0.0830 H     1 <1>   0.0800 
 51 H       -6.5790    -6.8620    -1.4970 H     1 <1>   0.0800 
 52 H       -9.1670    -3.2160     2.6940 H     1 <1>   0.0800 
 53 H       -9.4930    -4.6310     1.7030 H     1 <1>   0.0800 
 54 H       -9.6940    -3.0080     1.0290 H     1 <1>   0.0800 
@<TRIPOS>BOND
  1   1   2  2   
  2   2   3  1   
  3   2   4  1   
  4   3   5  ar  
  5   3   6  1   
  6   4   7  2   
  7   4  26  1   
  8   5   8  ar  
  9   5   9  1   
 10   6  10  2   
 11   6  27  1   
 12   7   8  1   
 13   7  11  1   
 14   8  28  1   
 15   9  12  2   
 16   9  29  1   
 17  10  12  1   
 18  10  13  1   
 19  11  14  1   
 20  11  30  1   
 21  11  31  1   
 22  12  32  1   
 23  13  33  1   
 24  13  34  1   
 25  13  35  1   
 26  14  15  1   
 27  14  16  1   
 28  14  36  1   
 29  15  17  1   
 30  15  37  1   
 31  15  38  1   
 32  16  18  1   
 33  16  39  1   
 34  16  40  1   
 35  17  19  1   
 36  17  20  1   
 37  17  21  1   
 38  18  20  1   
 39  18  41  1   
 40  18  42  1   
 41  19  22  1   
 42  19  23  1   
 43  19  43  1   
 44  20  44  1   
 45  20  45  1   
 46  21  24  1   
 47  21  46  1   
 48  21  47  1   
 49  22  25  1   
 50  23  24  1   
 51  23  48  1   
 52  23  49  1   
 53  24  50  1   
 54  24  51  1   
 55  25  52  1   
 56  25  53  1   
 57  25  54  1   
@<TRIPOS>SUBSTRUCTURE
  1 ****  14 GROUP 4 **** **** 0

# MOE 2024.06 (io_trps.svl 2023.06)
