@<TRIPOS>MOLECULE
NONAME
61 65 1 0 0 
SMALL
USER_CHARGES


@<TRIPOS>ATOM
  1 O       -1.9850     1.0320    -1.9820 O.2   1 <1>  -0.5700 
  2 C       -2.0190     1.0940    -0.7660 C.2   1 <1>   0.7160 
  3 N       -2.2280    -0.0620    -0.0530 N.am  1 <1>  -0.6600 
  4 C       -1.8260     2.3340    -0.0870 C.2   1 <1>  -0.0860 
  5 C       -2.5890    -1.3530    -0.6810 C.3   1 <1>   0.1400 
  6 C       -2.3430    -0.1480     1.4180 C.3   1 <1>   0.1400 
  7 C       -2.7120     3.4140    -0.0590 C.2   1 <1>   0.3720 
  8 C       -0.7980     2.7400     0.7020 C.2   1 <1>   0.0870 
  9 C       -3.3820    -2.1160     0.3950 C.3   1 <1>   0.0000 
 10 C       -2.7440    -1.5950     1.6940 C.3   1 <1>  -0.1600 
 11 N       -2.2530     4.3630     0.6820 N.2   1 <1>  -0.4100 
 12 N       -3.9440     3.4800    -0.7250 N.pl3 1 <1>  -0.8210 
 13 O       -1.1010     3.9390     1.1300 O.3   1 <1>  -0.0190 
 14 C        0.4310     2.1020     1.1010 C.ar  1 <1>   0.0530 
 15 C       -3.1630    -3.6420     0.2800 C.3   1 <1>  -0.1600 
 16 C       -4.8730    -1.6860     0.3250 C.3   1 <1>  -0.1600 
 17 C       -4.9810     2.4940    -0.2990 C.3   1 <1>   0.2090 
 18 C       -4.5340     4.8450    -0.8820 C.3   1 <1>   0.2090 
 19 C        1.0300     2.4050     2.3250 C.ar  1 <1>  -0.1500 
 20 C        1.0640     1.1560     0.2940 C.ar  1 <1>  -0.1500 
 21 C       -4.0230    -4.3510    -0.7780 C.3   1 <1>  -0.1600 
 22 C       -5.8680    -2.6200     1.0330 C.3   1 <1>  -0.1600 
 23 C       -6.2160     2.5670    -1.2140 C.3   1 <1>   0.1200 
 24 C       -5.7950     4.8030    -1.7630 C.3   1 <1>   0.1200 
 25 C        2.1970     1.7850     2.7310 C.ar  1 <1>  -0.1500 
 26 C        2.2310     0.5320     0.6950 C.ar  1 <1>  -0.1500 
 27 C       -5.3620    -4.8410    -0.2050 C.3   1 <1>  -0.1600 
 28 C       -6.3800    -3.7350     0.1070 C.3   1 <1>  -0.1600 
 29 O       -6.7210     3.8730    -1.2710 O.3   1 <1>  -0.5600 
 30 C        2.7990     0.8440     1.9160 C.ar  1 <1>  -0.1500 
 31 H       -1.6800    -1.8710    -0.9300 H     1 <1>   0.0800 
 32 H       -3.1590    -1.2040    -1.5820 H     1 <1>   0.0800 
 33 H       -3.1060     0.5310     1.7610 H     1 <1>   0.0800 
 34 H       -1.4050     0.0900     1.8920 H     1 <1>   0.0800 
 35 H       -3.4020    -1.6700     2.5410 H     1 <1>   0.0800 
 36 H       -1.8480    -2.1490     1.9150 H     1 <1>   0.0800 
 37 H       -3.3420    -4.1020     1.2370 H     1 <1>   0.0800 
 38 H       -2.1270    -3.8260     0.0550 H     1 <1>   0.0800 
 39 H       -5.1730    -1.5910    -0.7040 H     1 <1>   0.0800 
 40 H       -4.9740    -0.7050     0.7520 H     1 <1>   0.0800 
 41 H       -5.2760     2.6980     0.7160 H     1 <1>   0.0800 
 42 H       -4.5820     1.4980    -0.3400 H     1 <1>   0.0800 
 43 H       -3.8050     5.4970    -1.3320 H     1 <1>   0.0800 
 44 H       -4.7880     5.2440     0.0850 H     1 <1>   0.0800 
 45 H        0.5720     3.1360     2.9680 H     1 <1>   0.1500 
 46 H        0.6460     0.9070    -0.6650 H     1 <1>   0.1500 
 47 H       -3.4820    -5.2180    -1.1180 H     1 <1>   0.0800 
 48 H       -4.1820    -3.7200    -1.6360 H     1 <1>   0.0800 
 49 H       -6.7200    -2.0320     1.3270 H     1 <1>   0.0800 
 50 H       -5.4440    -3.0340     1.9310 H     1 <1>   0.0800 
 51 H       -6.9950     1.9300    -0.8380 H     1 <1>   0.0800 
 52 H       -5.9590     2.2520    -2.2110 H     1 <1>   0.0800 
 53 H       -5.5350     4.5320    -2.7720 H     1 <1>   0.0800 
 54 H       -6.2710     5.7670    -1.7740 H     1 <1>   0.0800 
 55 H        2.6390     2.0350     3.6800 H     1 <1>   0.1500 
 56 H        2.6990    -0.1960     0.0540 H     1 <1>   0.1500 
 57 H       -5.1800    -5.4150     0.6870 H     1 <1>   0.0800 
 58 H       -5.8100    -5.5110    -0.9190 H     1 <1>   0.0800 
 59 H       -6.7270    -3.3040    -0.8160 H     1 <1>   0.0800 
 60 H       -7.2340    -4.1960     0.5740 H     1 <1>   0.0800 
 61 H        3.7080     0.3590     2.2290 H     1 <1>   0.1500 
@<TRIPOS>BOND
  1   1   2  2   
  2   2   3  am  
  3   2   4  1   
  4   3   5  1   
  5   3   6  1   
  6   4   7  1   
  7   4   8  2   
  8   5   9  1   
  9   5  31  1   
 10   5  32  1   
 11   6  10  1   
 12   6  33  1   
 13   6  34  1   
 14   7  11  2   
 15   7  12  1   
 16   8  13  1   
 17   8  14  1   
 18   9  10  1   
 19   9  15  1   
 20   9  16  1   
 21  10  35  1   
 22  10  36  1   
 23  11  13  1   
 24  12  17  1   
 25  12  18  1   
 26  14  19  ar  
 27  14  20  ar  
 28  15  21  1   
 29  15  37  1   
 30  15  38  1   
 31  16  22  1   
 32  16  39  1   
 33  16  40  1   
 34  17  23  1   
 35  17  41  1   
 36  17  42  1   
 37  18  24  1   
 38  18  43  1   
 39  18  44  1   
 40  19  25  ar  
 41  19  45  1   
 42  20  26  ar  
 43  20  46  1   
 44  21  27  1   
 45  21  47  1   
 46  21  48  1   
 47  22  28  1   
 48  22  49  1   
 49  22  50  1   
 50  23  29  1   
 51  23  51  1   
 52  23  52  1   
 53  24  29  1   
 54  24  53  1   
 55  24  54  1   
 56  25  30  ar  
 57  25  55  1   
 58  26  30  ar  
 59  26  56  1   
 60  27  28  1   
 61  27  57  1   
 62  27  58  1   
 63  28  59  1   
 64  28  60  1   
 65  30  61  1   
@<TRIPOS>SUBSTRUCTURE
  1 ****   3 GROUP 4 **** **** 0

# MOE 2024.06 (io_trps.svl 2023.06)
