@<TRIPOS>MOLECULE
NONAME
49 52 1 0 0 
SMALL
USER_CHARGES


@<TRIPOS>ATOM
  1 F       -2.1090    -0.7410     1.7450 F     1 <1>  -0.1900 
  2 C       -2.4870    -1.8890     1.2430 C.ar  1 <1>   0.1900 
  3 C       -3.3530    -1.8930     0.1670 C.ar  1 <1>  -0.1500 
  4 C       -2.0030    -3.0540     1.8070 C.ar  1 <1>  -0.1500 
  5 C       -3.7490    -3.1110    -0.3580 C.ar  1 <1>  -0.1500 
  6 C       -2.4080    -4.2640     1.2720 C.ar  1 <1>  -0.1500 
  7 C       -3.2850    -4.3060     0.1910 C.ar  1 <1>   0.1000 
  8 N       -3.6770    -5.5370    -0.3260 N.pl3 1 <1>  -0.8380 
  9 C       -5.1580    -5.8130    -0.3410 C.3   1 <1>   0.2090 
 10 C       -2.9760    -5.9600    -1.5710 C.3   1 <1>   0.2090 
 11 C       -5.4590    -7.2410     0.1610 C.3   1 <1>   0.3430 
 12 C       -2.5390    -7.4240    -1.4520 C.3   1 <1>  -0.1600 
 13 N       -4.1970    -8.0490     0.2560 N.4   1 <1>  -0.9590 
 14 C       -3.6610    -8.4020    -1.0860 C.3   1 <1>   0.3430 
 15 C       -4.2960    -9.1970     1.2250 C.3   1 <1>   0.3430 
 16 C       -5.0850   -10.4250     0.7190 C.3   1 <1>   0.2000 
 17 O       -6.3070   -10.0080     0.1270 O.3   1 <1>  -0.3630 
 18 C       -5.3700   -11.4220     1.8540 C.3   1 <1>   0.1200 
 19 C       -7.2400   -10.9690    -0.0950 C.ar  1 <1>   0.0830 
 20 O       -6.1170   -12.5110     1.3560 O.3   1 <1>  -0.3620 
 21 C       -7.1370   -12.2240     0.5080 C.ar  1 <1>   0.0830 
 22 C       -8.3030   -10.6920    -0.9390 C.ar  1 <1>  -0.1500 
 23 C       -8.0860   -13.1970     0.2480 C.ar  1 <1>  -0.1500 
 24 C       -9.2540   -11.6680    -1.1910 C.ar  1 <1>  -0.1500 
 25 C       -9.1440   -12.9180    -0.6020 C.ar  1 <1>  -0.1500 
 26 H       -3.7030    -0.9630    -0.2440 H     1 <1>   0.1500 
 27 H       -1.3270    -3.0070     2.6420 H     1 <1>   0.1500 
 28 H       -4.4170    -3.1340    -1.1990 H     1 <1>   0.1500 
 29 H       -2.0430    -5.1830     1.6900 H     1 <1>   0.1500 
 30 H       -5.5480    -5.6920    -1.3370 H     1 <1>   0.0800 
 31 H       -5.6710    -5.1070     0.2900 H     1 <1>   0.0800 
 32 H       -2.1060    -5.3400    -1.7250 H     1 <1>   0.0800 
 33 H       -3.6220    -5.8290    -2.4230 H     1 <1>   0.0800 
 34 H       -6.1730    -7.7210    -0.4870 H     1 <1>   0.0800 
 35 H       -5.9070    -7.1630     1.1380 H     1 <1>   0.0800 
 36 H       -1.7460    -7.4970    -0.7300 H     1 <1>   0.0800 
 37 H       -2.1250    -7.7230    -2.3980 H     1 <1>   0.0800 
 38 H       -3.5340    -7.3250     0.6020 H     1 <1>   0.4500 
 39 H       -3.2580    -9.4010    -1.0710 H     1 <1>   0.0800 
 40 H       -4.4460    -8.3660    -1.8240 H     1 <1>   0.0800 
 41 H       -4.7570    -8.8480     2.1340 H     1 <1>   0.0800 
 42 H       -3.3020    -9.5240     1.4830 H     1 <1>   0.0800 
 43 H       -4.5140   -10.9290    -0.0400 H     1 <1>   0.0800 
 44 H       -5.9440   -10.9590     2.6390 H     1 <1>   0.0800 
 45 H       -4.4590   -11.8160     2.2660 H     1 <1>   0.0800 
 46 H       -8.3890    -9.7250    -1.3980 H     1 <1>   0.1500 
 47 H       -7.9970   -14.1630     0.7110 H     1 <1>   0.1500 
 48 H      -10.0810   -11.4570    -1.8480 H     1 <1>   0.1500 
 49 H       -9.8840   -13.6740    -0.8030 H     1 <1>   0.1500 
@<TRIPOS>BOND
  1   1   2  1   
  2   2   3  ar  
  3   2   4  ar  
  4   3   5  ar  
  5   3  26  1   
  6   4   6  ar  
  7   4  27  1   
  8   5   7  ar  
  9   5  28  1   
 10   6   7  ar  
 11   6  29  1   
 12   7   8  1   
 13   8   9  1   
 14   8  10  1   
 15   9  11  1   
 16   9  30  1   
 17   9  31  1   
 18  10  12  1   
 19  10  32  1   
 20  10  33  1   
 21  11  13  1   
 22  11  34  1   
 23  11  35  1   
 24  12  14  1   
 25  12  36  1   
 26  12  37  1   
 27  13  14  1   
 28  13  15  1   
 29  13  38  1   
 30  14  39  1   
 31  14  40  1   
 32  15  16  1   
 33  15  41  1   
 34  15  42  1   
 35  16  17  1   
 36  16  18  1   
 37  16  43  1   
 38  17  19  1   
 39  18  20  1   
 40  18  44  1   
 41  18  45  1   
 42  19  21  ar  
 43  19  22  ar  
 44  20  21  1   
 45  21  23  ar  
 46  22  24  ar  
 47  22  46  1   
 48  23  25  ar  
 49  23  47  1   
 50  24  25  ar  
 51  24  48  1   
 52  25  49  1   
@<TRIPOS>SUBSTRUCTURE
  1 ****  11 GROUP 4 **** **** 0

# MOE 2024.06 (io_trps.svl 2023.06)
