@<TRIPOS>MOLECULE
NONAME
41 43 1 0 0 
SMALL
USER_CHARGES


@<TRIPOS>ATOM
  1 S        0.6430    -0.0940     1.0230 S.o2  1 <1>   1.5000 
  2 O        1.8610    -0.4420     1.7180 O.2   1 <1>  -0.6500 
  3 O       -0.4430     0.5150     1.7530 O.2   1 <1>  -0.6500 
  4 N        1.0570     1.0740    -0.1000 N.am  1 <1>  -0.9140 
  5 C        0.0320    -1.4700     0.0220 C.2   1 <1>  -0.0220 
  6 C        1.9200     2.1080     0.4890 C.3   1 <1>   0.2570 
  7 S        1.2040    -2.4120    -0.8980 S.3   1 <1>  -0.0800 
  8 C       -1.2070    -1.9550    -0.2070 C.2   1 <1>  -0.1500 
  9 C        1.8840     3.4320    -0.2830 C.2   1 <1>   0.5690 
 10 C       -0.0490    -3.4460    -1.5590 C.2   1 <1>  -0.1100 
 11 C       -1.2560    -3.0750    -1.0980 C.2   1 <1>  -0.1500 
 12 O        0.8120     3.8450    -0.6650 O.2   1 <1>  -0.5700 
 13 N        3.0380     4.1200    -0.5050 N.am  1 <1>  -0.5100 
 14 C        4.2980     4.1910     0.3000 C.3   1 <1>   0.2250 
 15 C        3.2040     5.5480    -0.9200 C.3   1 <1>   0.2250 
 16 C        4.1130     5.7280     0.3130 C.3   1 <1>   0.0850 
 17 N        5.3400     6.4890     0.0050 N.pl3 1 <1>   0.4850 
 18 N        6.5710     5.9420     0.0860 N.2   1 <1>  -0.7070 
 19 C        5.4150     7.8000    -0.3380 C.2   1 <1>  -0.3320 
 20 C        7.3880     6.9000    -0.2160 C.2   1 <1>   0.1080 
 21 C        6.7250     8.0890    -0.4910 C.2   1 <1>  -0.1500 
 22 C        4.2300     8.7400    -0.5000 C.3   1 <1>  -0.0600 
 23 C        8.8860     6.7080    -0.2490 C.3   1 <1>  -0.0590 
 24 H        0.1780     1.5530    -0.3100 H     1 <1>   0.4200 
 25 H        2.9290     1.7370     0.5310 H     1 <1>   0.0800 
 26 H        1.6000     2.3210     1.4950 H     1 <1>   0.0800 
 27 H       -2.1100    -1.5600     0.2270 H     1 <1>   0.1500 
 28 H        0.2560    -4.2300    -2.2290 H     1 <1>   0.1500 
 29 H       -2.1930    -3.5430    -1.3490 H     1 <1>   0.1500 
 30 H        5.1280     3.8240    -0.2770 H     1 <1>   0.0000 
 31 H        4.1840     3.7320     1.2650 H     1 <1>   0.0000 
 32 H        2.2800     6.0960    -0.8650 H     1 <1>   0.0000 
 33 H        3.7140     5.6160    -1.8650 H     1 <1>   0.0000 
 34 H        3.5990     6.0980     1.1820 H     1 <1>   0.0000 
 35 H        7.1850     9.0230    -0.7600 H     1 <1>   0.1500 
 36 H        3.6410     8.7600     0.4000 H     1 <1>   0.0800 
 37 H        3.6100     8.4270    -1.3210 H     1 <1>   0.0800 
 38 H        4.5770     9.7380    -0.7000 H     1 <1>   0.0800 
 39 H        9.1330     5.9430    -0.9620 H     1 <1>   0.0800 
 40 H        9.2300     6.4040     0.7220 H     1 <1>   0.0800 
 41 H        9.3770     7.6210    -0.5280 H     1 <1>   0.0800 
@<TRIPOS>BOND
  1   1   2  2   
  2   1   3  2   
  3   1   4  am  
  4   1   5  1   
  5   4   6  1   
  6   4  24  1   
  7   5   7  1   
  8   5   8  2   
  9   6   9  1   
 10   6  25  1   
 11   6  26  1   
 12   7  10  1   
 13   8  11  1   
 14   8  27  1   
 15   9  12  2   
 16   9  13  am  
 17  10  11  2   
 18  10  28  1   
 19  11  29  1   
 20  13  14  1   
 21  13  15  1   
 22  14  16  1   
 23  14  30  1   
 24  14  31  1   
 25  15  16  1   
 26  15  32  1   
 27  15  33  1   
 28  16  17  1   
 29  16  34  1   
 30  17  18  1   
 31  17  19  1   
 32  18  20  2   
 33  19  21  2   
 34  19  22  1   
 35  20  21  1   
 36  20  23  1   
 37  21  35  1   
 38  22  36  1   
 39  22  37  1   
 40  22  38  1   
 41  23  39  1   
 42  23  40  1   
 43  23  41  1   
@<TRIPOS>SUBSTRUCTURE
  1 ****   9 GROUP 4 **** **** 0

# MOE 2024.06 (io_trps.svl 2023.06)
