@<TRIPOS>MOLECULE
NONAME
47 51 1 0 0 
SMALL
USER_CHARGES


@<TRIPOS>ATOM
  1 O        1.0090    -0.5860     0.9810 O.3   1 <1>  -0.5600 
  2 C        1.9580    -1.2180     0.1470 C.3   1 <1>   0.4600 
  3 C       -0.3540    -0.7180     0.6560 C.3   1 <1>   0.1200 
  4 C        1.4320    -2.5890    -0.2600 C.2   1 <1>  -0.3320 
  5 C        3.2310    -1.3660     0.9860 C.3   1 <1>  -0.1600 
  6 C        2.2180    -0.3400    -1.0830 C.3   1 <1>  -0.1600 
  7 C       -0.8070    -2.1850     0.7540 C.3   1 <1>   0.0210 
  8 N        2.1180    -3.5510    -0.9480 N.pl3 1 <1>   0.0330 
  9 C        0.1910    -3.0390     0.0120 C.2   1 <1>  -0.1810 
 10 C        3.8140    -0.0030     1.3480 C.3   1 <1>   0.2090 
 11 C        2.8300     1.0030    -0.6920 C.3   1 <1>   0.2090 
 12 C        1.2880    -4.6350    -1.1050 C.ar  1 <1>  -0.1520 
 13 C        0.0650    -4.3440    -0.5070 C.ar  1 <1>   0.0000 
 14 N        4.0670     0.7550     0.0970 N.pl3 1 <1>  -0.8380 
 15 C        1.5050    -5.8670    -1.7280 C.ar  1 <1>  -0.1500 
 16 C       -0.9600    -5.2950    -0.5270 C.ar  1 <1>  -0.1500 
 17 C        5.1130     1.6520     0.0410 C.ar  1 <1>   0.4100 
 18 C        0.4870    -6.7940    -1.7410 C.ar  1 <1>  -0.1500 
 19 C       -0.7450    -6.5080    -1.1410 C.ar  1 <1>  -0.1500 
 20 N        4.8480     2.9020    -0.2880 N.ar  1 <1>  -0.6200 
 21 C        6.4060     1.2570     0.3220 C.ar  1 <1>  -0.1500 
 22 C        5.8760     3.7260    -0.3140 C.ar  1 <1>   0.4770 
 23 C        7.3940     2.2000     0.2600 C.ar  1 <1>   0.1600 
 24 N        7.1440     3.4540    -0.0580 N.ar  1 <1>  -0.6200 
 25 C        5.5750     5.1570    -0.6860 C.3   1 <1>  -0.0970 
 26 H       -0.5060    -0.3460    -0.3410 H     1 <1>   0.0800 
 27 H       -0.9150    -0.1090     1.3420 H     1 <1>   0.0800 
 28 H        3.9700    -1.9170     0.4350 H     1 <1>   0.0800 
 29 H        3.0020    -1.9190     1.8780 H     1 <1>   0.0800 
 30 H        1.3090    -0.1870    -1.6320 H     1 <1>   0.0800 
 31 H        2.9050    -0.8410    -1.7380 H     1 <1>   0.0800 
 32 H       -1.7840    -2.2920     0.3190 H     1 <1>   0.0800 
 33 H       -0.8510    -2.4880     1.7840 H     1 <1>   0.0800 
 34 H        3.0810    -3.4910    -1.2900 H     1 <1>   0.2700 
 35 H        4.7240    -0.1280     1.9080 H     1 <1>   0.0800 
 36 H        3.1170     0.5460     1.9600 H     1 <1>   0.0800 
 37 H        2.1360     1.5750    -0.0990 H     1 <1>   0.0800 
 38 H        3.0650     1.5660    -1.5800 H     1 <1>   0.0800 
 39 H        2.4540    -6.0800    -2.1860 H     1 <1>   0.1500 
 40 H       -1.8990    -5.0620    -0.0610 H     1 <1>   0.1500 
 41 H        0.6290    -7.7490    -2.2140 H     1 <1>   0.1500 
 42 H       -1.5240    -7.2500    -1.1640 H     1 <1>   0.1500 
 43 H        6.6160     0.2380     0.5720 H     1 <1>   0.1500 
 44 H        8.4150     1.9320     0.4720 H     1 <1>   0.1500 
 45 H        4.5180     5.3440    -0.6320 H     1 <1>   0.0800 
 46 H        5.9160     5.3420    -1.6870 H     1 <1>   0.0800 
 47 H        6.0820     5.8200    -0.0110 H     1 <1>   0.0800 
@<TRIPOS>BOND
  1   1   2  1   
  2   1   3  1   
  3   2   4  1   
  4   2   5  1   
  5   2   6  1   
  6   3   7  1   
  7   3  26  1   
  8   3  27  1   
  9   4   8  1   
 10   4   9  2   
 11   5  10  1   
 12   5  28  1   
 13   5  29  1   
 14   6  11  1   
 15   6  30  1   
 16   6  31  1   
 17   7   9  1   
 18   7  32  1   
 19   7  33  1   
 20   8  12  1   
 21   8  34  1   
 22   9  13  1   
 23  10  14  1   
 24  10  35  1   
 25  10  36  1   
 26  11  14  1   
 27  11  37  1   
 28  11  38  1   
 29  12  13  ar  
 30  12  15  ar  
 31  13  16  ar  
 32  14  17  1   
 33  15  18  ar  
 34  15  39  1   
 35  16  19  ar  
 36  16  40  1   
 37  17  20  ar  
 38  17  21  ar  
 39  18  19  ar  
 40  18  41  1   
 41  19  42  1   
 42  20  22  ar  
 43  21  23  ar  
 44  21  43  1   
 45  22  24  ar  
 46  22  25  1   
 47  23  24  ar  
 48  23  44  1   
 49  25  45  1   
 50  25  46  1   
 51  25  47  1   
@<TRIPOS>SUBSTRUCTURE
  1 ****   2 GROUP 4 **** **** 0

# MOE 2024.06 (io_trps.svl 2023.06)
