@<TRIPOS>MOLECULE
NONAME
46 48 1 0 0 
SMALL
USER_CHARGES


@<TRIPOS>ATOM
  1 S       -0.7910    -0.2710    -2.1910 S.3   1 <1>  -0.0800 
  2 C        0.7740     0.1500    -1.4920 C.2   1 <1>  -0.0450 
  3 C       -1.0550    -1.5510    -1.0340 C.2   1 <1>  -0.1100 
  4 C        1.5180     1.2340    -2.0760 C.2   1 <1>   0.5940 
  5 C        1.0120    -0.6870    -0.4450 C.2   1 <1>  -0.1500 
  6 C       -0.0110    -1.6500    -0.1840 C.2   1 <1>  -0.1810 
  7 O        1.1560     1.8640    -3.0350 O.2   1 <1>  -0.5700 
  8 C        2.8450     1.6160    -1.4570 C.3   1 <1>  -0.1790 
  9 C        0.1390    -2.6380     0.9630 C.3   1 <1>   0.5240 
 10 N       -0.6070    -3.8870     0.6670 N.4   1 <1>  -0.9590 
 11 C       -0.7910    -4.7730     1.8440 C.3   1 <1>   0.3430 
 12 C       -0.0920    -4.6170    -0.5320 C.3   1 <1>   0.3430 
 13 C       -1.8620    -5.8310     1.5480 C.3   1 <1>  -0.1600 
 14 C       -0.8590    -5.9270    -0.7600 C.3   1 <1>  -0.1600 
 15 C       -2.1600    -6.0160     0.0510 C.3   1 <1>   0.4240 
 16 O       -2.9410    -4.9360    -0.3350 O.3   1 <1>  -0.6800 
 17 C       -2.9770    -7.2990    -0.2270 C.ar  1 <1>   0.1670 
 18 N       -4.2460    -7.1370    -0.6030 N.ar  1 <1>  -0.6200 
 19 C       -2.3870    -8.5480    -0.0760 C.ar  1 <1>  -0.1500 
 20 C       -4.9330    -8.2450    -0.8350 C.ar  1 <1>   0.1600 
 21 C       -3.1180    -9.6900    -0.3230 C.ar  1 <1>  -0.1500 
 22 C       -4.4290    -9.5300    -0.7140 C.ar  1 <1>  -0.1430 
 23 C       -5.2890   -10.7500    -1.0010 C.3   1 <1>  -0.0970 
 24 H       -1.9830    -2.0910    -1.1260 H     1 <1>   0.1500 
 25 H        1.9030    -0.6420     0.1590 H     1 <1>   0.1500 
 26 H        2.7050     1.8730    -0.4240 H     1 <1>   0.0800 
 27 H        3.2560     2.4660    -1.9710 H     1 <1>   0.0800 
 28 H        3.5330     0.7970    -1.5370 H     1 <1>   0.0800 
 29 H       -0.2390    -2.1850     1.8650 H     1 <1>   0.0800 
 30 H        1.1820    -2.8670     1.1090 H     1 <1>   0.0800 
 31 H       -1.5700    -3.6130     0.3910 H     1 <1>   0.4500 
 32 H       -1.0930    -4.1960     2.7040 H     1 <1>   0.0800 
 33 H        0.1440    -5.2590     2.0750 H     1 <1>   0.0800 
 34 H        0.9590    -4.8300    -0.4180 H     1 <1>   0.0800 
 35 H       -0.2100    -3.9910    -1.4030 H     1 <1>   0.0800 
 36 H       -2.7740    -5.5860     2.0630 H     1 <1>   0.0800 
 37 H       -1.5210    -6.7620     1.9630 H     1 <1>   0.0800 
 38 H       -0.2140    -6.7430    -0.4920 H     1 <1>   0.0800 
 39 H       -1.0780    -6.0390    -1.8080 H     1 <1>   0.0800 
 40 H       -3.8020    -5.3540    -0.6020 H     1 <1>   0.4000 
 41 H       -1.3640    -8.6470     0.2330 H     1 <1>   0.1500 
 42 H       -5.9590    -8.1210    -1.1400 H     1 <1>   0.1500 
 43 H       -2.6820   -10.6690    -0.2130 H     1 <1>   0.1500 
 44 H       -6.2750   -10.4610    -1.3200 H     1 <1>   0.0800 
 45 H       -5.3800   -11.3510    -0.1140 H     1 <1>   0.0800 
 46 H       -4.8390   -11.3420    -1.7770 H     1 <1>   0.0800 
@<TRIPOS>BOND
  1   1   2  1   
  2   1   3  1   
  3   2   4  1   
  4   2   5  2   
  5   3   6  2   
  6   3  24  1   
  7   4   7  2   
  8   4   8  1   
  9   5   6  1   
 10   5  25  1   
 11   6   9  1   
 12   8  26  1   
 13   8  27  1   
 14   8  28  1   
 15   9  10  1   
 16   9  29  1   
 17   9  30  1   
 18  10  11  1   
 19  10  12  1   
 20  10  31  1   
 21  11  13  1   
 22  11  32  1   
 23  11  33  1   
 24  12  14  1   
 25  12  34  1   
 26  12  35  1   
 27  13  15  1   
 28  13  36  1   
 29  13  37  1   
 30  14  15  1   
 31  14  38  1   
 32  14  39  1   
 33  15  16  1   
 34  15  17  1   
 35  16  40  1   
 36  17  18  ar  
 37  17  19  ar  
 38  18  20  ar  
 39  19  21  ar  
 40  19  41  1   
 41  20  22  ar  
 42  20  42  1   
 43  21  22  ar  
 44  21  43  1   
 45  22  23  1   
 46  23  44  1   
 47  23  45  1   
 48  23  46  1   
@<TRIPOS>SUBSTRUCTURE
  1 ****  12 GROUP 4 **** **** 0

# MOE 2024.06 (io_trps.svl 2023.06)
