@<TRIPOS>MOLECULE
NONAME
47 50 1 0 0 
SMALL
USER_CHARGES


@<TRIPOS>ATOM
  1 O       -0.5830     0.0590     0.2590 O.2   1 <1>  -0.5700 
  2 C       -1.7990     0.1310     0.2100 C.2   1 <1>   0.7150 
  3 N       -2.5110    -0.9860    -0.1940 N.am  1 <1>  -0.6600 
  4 C       -2.4700     1.3660     0.5660 C.2   1 <1>   0.0550 
  5 C       -3.9300    -1.1780     0.2640 C.3   1 <1>   0.1400 
  6 C       -1.8040    -2.1090    -0.8820 C.3   1 <1>   0.1400 
  7 O       -2.0320     2.1210     1.5710 O.3   1 <1>  -0.2800 
  8 C       -3.5660     1.9740     0.0270 C.2   1 <1>  -0.1500 
  9 C       -4.3920    -2.6310     0.4290 C.3   1 <1>   0.2090 
 10 C       -2.6010    -2.6850    -2.0560 C.3   1 <1>  -0.1600 
 11 C       -2.8070     3.1740     1.6860 C.2   1 <1>  -0.0100 
 12 C       -3.7840     3.1440     0.7560 C.2   1 <1>  -0.1500 
 13 N       -4.7250    -3.2360    -0.8960 N.pl3 1 <1>  -0.8380 
 14 C       -3.5730    -3.7890    -1.6390 C.3   1 <1>   0.2090 
 15 C       -5.9060    -3.9370    -1.0040 C.ar  1 <1>   0.4100 
 16 N       -6.2840    -4.6670     0.0070 N.ar  1 <1>  -0.6200 
 17 C       -6.6390    -3.8500    -2.2010 C.ar  1 <1>  -0.1500 
 18 C       -7.4420    -5.3750    -0.1010 C.ar  1 <1>   0.3100 
 19 C       -7.7950    -4.5460    -2.3490 C.ar  1 <1>  -0.1500 
 20 C       -7.8940    -6.1770     0.9840 C.ar  1 <1>   0.0820 
 21 C       -8.2300    -5.3440    -1.2760 C.ar  1 <1>   0.0000 
 22 O       -7.1320    -6.1950     2.1160 O.3   1 <1>  -0.3630 
 23 C       -9.0620    -6.9040     0.8810 C.ar  1 <1>  -0.1500 
 24 C       -9.4140    -6.0980    -1.3440 C.ar  1 <1>  -0.1500 
 25 C       -7.4630    -6.9740     3.2430 C.3   1 <1>   0.0400 
 26 C       -9.8240    -6.8640    -0.2870 C.ar  1 <1>  -0.1500 
 27 H       -4.5950    -0.6940    -0.4280 H     1 <1>   0.0800 
 28 H       -4.0460    -0.6970     1.2200 H     1 <1>   0.0800 
 29 H       -1.5720    -2.8790    -0.1670 H     1 <1>   0.0800 
 30 H       -0.8680    -1.7450    -1.2730 H     1 <1>   0.0800 
 31 H       -4.1590     1.6410    -0.8060 H     1 <1>   0.1500 
 32 H       -5.2770    -2.6210     1.0420 H     1 <1>   0.0800 
 33 H       -3.6510    -3.2170     0.9440 H     1 <1>   0.0800 
 34 H       -1.8950    -3.1310    -2.7340 H     1 <1>   0.0800 
 35 H       -3.1140    -1.9070    -2.5920 H     1 <1>   0.0800 
 36 H       -2.5940     3.8970     2.4550 H     1 <1>   0.1500 
 37 H       -4.5730     3.8560     0.5870 H     1 <1>   0.1500 
 38 H       -3.0720    -4.5210    -1.0280 H     1 <1>   0.0800 
 39 H       -3.9310    -4.2920    -2.5220 H     1 <1>   0.0800 
 40 H       -6.2530    -3.2170    -2.9760 H     1 <1>   0.1500 
 41 H       -8.3770    -4.4990    -3.2520 H     1 <1>   0.1500 
 42 H       -9.4230    -7.5160     1.6850 H     1 <1>   0.1500 
 43 H       -9.9990    -6.0630    -2.2470 H     1 <1>   0.1500 
 44 H       -6.7020    -6.8210     3.9870 H     1 <1>   0.0800 
 45 H       -7.4900    -8.0100     2.9550 H     1 <1>   0.0800 
 46 H       -8.4150    -6.6500     3.6230 H     1 <1>   0.0800 
 47 H      -10.7320    -7.4400    -0.3440 H     1 <1>   0.1500 
@<TRIPOS>BOND
  1   1   2  2   
  2   2   3  am  
  3   2   4  1   
  4   3   5  1   
  5   3   6  1   
  6   4   7  1   
  7   4   8  2   
  8   5   9  1   
  9   5  27  1   
 10   5  28  1   
 11   6  10  1   
 12   6  29  1   
 13   6  30  1   
 14   7  11  1   
 15   8  12  1   
 16   8  31  1   
 17   9  13  1   
 18   9  32  1   
 19   9  33  1   
 20  10  14  1   
 21  10  34  1   
 22  10  35  1   
 23  11  12  2   
 24  11  36  1   
 25  12  37  1   
 26  13  14  1   
 27  13  15  1   
 28  14  38  1   
 29  14  39  1   
 30  15  16  ar  
 31  15  17  ar  
 32  16  18  ar  
 33  17  19  ar  
 34  17  40  1   
 35  18  20  ar  
 36  18  21  ar  
 37  19  21  ar  
 38  19  41  1   
 39  20  22  1   
 40  20  23  ar  
 41  21  24  ar  
 42  22  25  1   
 43  23  26  ar  
 44  23  42  1   
 45  24  26  ar  
 46  24  43  1   
 47  25  44  1   
 48  25  45  1   
 49  25  46  1   
 50  26  47  1   
@<TRIPOS>SUBSTRUCTURE
  1 ****   9 GROUP 4 **** **** 0

# MOE 2024.06 (io_trps.svl 2023.06)
