@<TRIPOS>MOLECULE
NONAME
52 54 1 0 0 
SMALL
USER_CHARGES


@<TRIPOS>ATOM
  1 O       -1.9110     0.5100    -2.7910 O.2   1 <1>  -0.5700 
  2 C       -2.2540     1.1380    -1.8190 C.2   1 <1>   0.5690 
  3 N       -2.7900     0.5220    -0.7220 N.am  1 <1>  -0.6600 
  4 C       -2.0690     2.6460    -1.8490 C.3   1 <1>  -0.0990 
  5 C       -3.2640     1.1700     0.5260 C.3   1 <1>   0.1400 
  6 C       -2.9170    -0.9500    -0.6300 C.3   1 <1>   0.1400 
  7 C       -0.7640     3.0740    -1.1590 C.3   1 <1>  -0.1600 
  8 C       -3.7600     0.0230     1.4080 C.3   1 <1>   0.2000 
  9 C       -3.1000    -1.2420     0.8600 C.3   1 <1>  -0.0800 
 10 C       -0.5600     4.5920    -1.2050 C.3   1 <1>  -0.0160 
 11 O       -3.3980     0.2120     2.7320 O.3   1 <1>  -0.6800 
 12 C       -3.9140    -2.5130     1.1460 C.3   1 <1>  -0.0170 
 13 C        0.6820     4.9720    -0.4170 C.ar  1 <1>  -0.1440 
 14 C       -3.2180    -3.7460     0.5920 C.ar  1 <1>  -0.1440 
 15 C        1.9330     4.9030    -1.0090 C.ar  1 <1>  -0.1500 
 16 C        0.5760     5.3790     0.9030 C.ar  1 <1>  -0.1500 
 17 C       -3.5440    -4.2860    -0.6360 C.ar  1 <1>  -0.1500 
 18 C       -2.2190    -4.3890     1.2930 C.ar  1 <1>  -0.1500 
 19 C        3.0700     5.2360    -0.2920 C.ar  1 <1>  -0.1500 
 20 C        1.7090     5.7120     1.6230 C.ar  1 <1>  -0.1500 
 21 C       -2.8720    -5.4080    -1.0910 C.ar  1 <1>   0.1600 
 22 C       -1.6100    -5.5070     0.7480 C.ar  1 <1>   0.1600 
 23 C        2.9610     5.6430     1.0350 C.ar  1 <1>   0.0820 
 24 N       -1.9120    -6.0320    -0.4280 N.ar  1 <1>  -0.6200 
 25 O        4.0200     5.9820     1.8110 O.3   1 <1>  -0.3620 
 26 C        5.3360     5.9560     1.3060 C.3   1 <1>   0.0400 
 27 H       -2.0450     2.9580    -2.8780 H     1 <1>   0.0800 
 28 H       -2.9130     3.1230    -1.3870 H     1 <1>   0.0800 
 29 H       -2.4470     1.6870     0.9960 H     1 <1>   0.0800 
 30 H       -4.0670     1.8540     0.3110 H     1 <1>   0.0800 
 31 H       -3.7800    -1.2590    -1.1950 H     1 <1>   0.0800 
 32 H       -2.0410    -1.4390    -1.0240 H     1 <1>   0.0800 
 33 H       -0.7720     2.7520    -0.1330 H     1 <1>   0.0800 
 34 H        0.0670     2.5900    -1.6440 H     1 <1>   0.0800 
 35 H       -4.8340    -0.0380     1.3550 H     1 <1>   0.0800 
 36 H       -2.1160    -1.3450     1.2830 H     1 <1>   0.0800 
 37 H       -1.4170     5.0910    -0.7880 H     1 <1>   0.0800 
 38 H       -0.4550     4.9170    -2.2260 H     1 <1>   0.0800 
 39 H       -2.4250     0.2260     2.8210 H     1 <1>   0.4000 
 40 H       -4.8960    -2.4270     0.7160 H     1 <1>   0.0800 
 41 H       -4.0360    -2.6240     2.2100 H     1 <1>   0.0800 
 42 H        2.0270     4.5870    -2.0330 H     1 <1>   0.1500 
 43 H       -0.3870     5.4380     1.3790 H     1 <1>   0.1500 
 44 H       -4.3130    -3.8470    -1.2460 H     1 <1>   0.1500 
 45 H       -1.9080    -4.0320     2.2580 H     1 <1>   0.1500 
 46 H        4.0230     5.1720    -0.7800 H     1 <1>   0.1500 
 47 H        1.6310     6.0280     2.6470 H     1 <1>   0.1500 
 48 H       -3.1380    -5.8140    -2.0520 H     1 <1>   0.1500 
 49 H       -0.8320    -5.9960     1.3100 H     1 <1>   0.1500 
 50 H        6.0010     6.2650     2.0910 H     1 <1>   0.0800 
 51 H        5.4050     6.6380     0.4770 H     1 <1>   0.0800 
 52 H        5.5720     4.9520     1.0010 H     1 <1>   0.0800 
@<TRIPOS>BOND
  1   1   2  2   
  2   2   3  am  
  3   2   4  1   
  4   3   5  1   
  5   3   6  1   
  6   4   7  1   
  7   4  27  1   
  8   4  28  1   
  9   5   8  1   
 10   5  29  1   
 11   5  30  1   
 12   6   9  1   
 13   6  31  1   
 14   6  32  1   
 15   7  10  1   
 16   7  33  1   
 17   7  34  1   
 18   8   9  1   
 19   8  11  1   
 20   8  35  1   
 21   9  12  1   
 22   9  36  1   
 23  10  13  1   
 24  10  37  1   
 25  10  38  1   
 26  11  39  1   
 27  12  14  1   
 28  12  40  1   
 29  12  41  1   
 30  13  15  ar  
 31  13  16  ar  
 32  14  17  ar  
 33  14  18  ar  
 34  15  19  ar  
 35  15  42  1   
 36  16  20  ar  
 37  16  43  1   
 38  17  21  ar  
 39  17  44  1   
 40  18  22  ar  
 41  18  45  1   
 42  19  23  ar  
 43  19  46  1   
 44  20  23  ar  
 45  20  47  1   
 46  21  24  ar  
 47  21  48  1   
 48  22  24  ar  
 49  22  49  1   
 50  23  25  1   
 51  25  26  1   
 52  26  50  1   
 53  26  51  1   
 54  26  52  1   
@<TRIPOS>SUBSTRUCTURE
  1 ****   3 GROUP 4 **** **** 0

# MOE 2024.06 (io_trps.svl 2023.06)
