@<TRIPOS>MOLECULE
NONAME
57 60 1 0 0 
SMALL
USER_CHARGES


@<TRIPOS>ATOM
  1 O        1.0070     0.5780     2.0650 O.2   1 <1>  -0.5700 
  2 C        1.8720     0.5140     1.2160 C.2   1 <1>   0.5440 
  3 N        2.3320     1.5760     0.4980 N.am  1 <1>  -0.6600 
  4 C        2.5490    -0.6780     0.8130 C.ar  1 <1>   0.0860 
  5 C        1.8740     2.9730     0.6360 C.3   1 <1>   0.2200 
  6 C        3.3830     1.1310    -0.4630 C.3   1 <1>   0.2840 
  7 C        3.4500    -0.3660    -0.1850 C.ar  1 <1>   0.1660 
  8 C        2.4440    -1.9920     1.2340 C.ar  1 <1>  -0.1500 
  9 C        1.2660     3.4470    -0.6820 C.3   1 <1>  -0.2400 
 10 C        3.0430     3.8570     1.0650 C.3   1 <1>  -0.2400 
 11 N        4.2450    -1.2180    -0.8090 N.ar  1 <1>  -0.6200 
 12 C        3.2630    -2.9090     0.6050 C.ar  1 <1>  -0.1430 
 13 C        4.1370    -2.4800    -0.3970 C.ar  1 <1>   0.3930 
 14 C        3.2240    -4.3720     0.9910 C.3   1 <1>   0.4860 
 15 O        4.9060    -3.4160    -0.9920 O.3   1 <1>  -0.3630 
 16 N        2.7380    -5.1700    -0.1660 N.4   1 <1>  -0.9590 
 17 C        5.8870    -3.0590    -1.9520 C.3   1 <1>   0.0400 
 18 C        1.3670    -4.7870    -0.6320 C.3   1 <1>   0.3430 
 19 C        2.7560    -6.6440     0.0810 C.3   1 <1>   0.3430 
 20 C        0.6880    -6.1000    -1.0210 C.3   1 <1>   0.2000 
 21 C        1.3240    -7.1490    -0.1180 C.3   1 <1>  -0.0800 
 22 O       -0.6830    -6.0600    -0.8260 O.3   1 <1>  -0.6800 
 23 C        1.2450    -8.5710    -0.7070 C.3   1 <1>  -0.0170 
 24 C        1.8310    -9.6190     0.2310 C.ar  1 <1>   0.1670 
 25 N        3.1200    -9.5020     0.5180 N.ar  1 <1>  -0.6200 
 26 C        1.0200   -10.6360     0.7330 C.ar  1 <1>   0.1600 
 27 C        3.5390   -10.4710     1.3200 C.ar  1 <1>   0.1600 
 28 N        1.4360   -11.5910     1.5460 N.ar  1 <1>  -0.6200 
 29 C        2.7240   -11.4790     1.8190 C.ar  1 <1>   0.1600 
 30 H        1.1140     3.0120     1.4000 H     1 <1>   0.0800 
 31 H        3.0820     1.3190    -1.4780 H     1 <1>   0.0800 
 32 H        4.3260     1.6020    -0.2490 H     1 <1>   0.0800 
 33 H        1.7480    -2.2420     2.0190 H     1 <1>   0.1500 
 34 H        2.0040     3.4810    -1.4620 H     1 <1>   0.0800 
 35 H        0.8610     4.4350    -0.5580 H     1 <1>   0.0800 
 36 H        0.4650     2.7910    -0.9720 H     1 <1>   0.0800 
 37 H        3.8020     3.8960     0.3050 H     1 <1>   0.0800 
 38 H        3.4680     3.4830     1.9790 H     1 <1>   0.0800 
 39 H        2.6920     4.8570     1.2430 H     1 <1>   0.0800 
 40 H        2.5740    -4.5120     1.8400 H     1 <1>   0.0800 
 41 H        4.2170    -4.6910     1.2650 H     1 <1>   0.0800 
 42 H        3.4060    -4.9600    -0.9280 H     1 <1>   0.4500 
 43 H        6.3980    -3.9490    -2.2710 H     1 <1>   0.0800 
 44 H        6.5870    -2.3770    -1.4990 H     1 <1>   0.0800 
 45 H        5.4040    -2.5890    -2.7920 H     1 <1>   0.0800 
 46 H        0.8190    -4.3290     0.1740 H     1 <1>   0.0800 
 47 H        1.4130    -4.1100    -1.4690 H     1 <1>   0.0800 
 48 H        3.4080    -7.1240    -0.6320 H     1 <1>   0.0800 
 49 H        3.1070    -6.8840     1.0730 H     1 <1>   0.0800 
 50 H        0.8730    -6.3080    -2.0620 H     1 <1>   0.0800 
 51 H        0.8440    -7.1390     0.8460 H     1 <1>   0.0800 
 52 H       -0.9380    -6.0390     0.1180 H     1 <1>   0.4000 
 53 H        1.7770    -8.6160    -1.6410 H     1 <1>   0.0800 
 54 H        0.2160    -8.8090    -0.9140 H     1 <1>   0.0800 
 55 H       -0.0190   -10.6670     0.4530 H     1 <1>   0.1500 
 56 H        4.5780   -10.4700     1.5990 H     1 <1>   0.1500 
 57 H        3.1550   -12.2230     2.4670 H     1 <1>   0.1500 
@<TRIPOS>BOND
  1   1   2  2   
  2   2   3  am  
  3   2   4  1   
  4   3   5  1   
  5   3   6  1   
  6   4   7  ar  
  7   4   8  ar  
  8   5   9  1   
  9   5  10  1   
 10   5  30  1   
 11   6   7  1   
 12   6  31  1   
 13   6  32  1   
 14   7  11  ar  
 15   8  12  ar  
 16   8  33  1   
 17   9  34  1   
 18   9  35  1   
 19   9  36  1   
 20  10  37  1   
 21  10  38  1   
 22  10  39  1   
 23  11  13  ar  
 24  12  13  ar  
 25  12  14  1   
 26  13  15  1   
 27  14  16  1   
 28  14  40  1   
 29  14  41  1   
 30  15  17  1   
 31  16  18  1   
 32  16  19  1   
 33  16  42  1   
 34  17  43  1   
 35  17  44  1   
 36  17  45  1   
 37  18  20  1   
 38  18  46  1   
 39  18  47  1   
 40  19  21  1   
 41  19  48  1   
 42  19  49  1   
 43  20  21  1   
 44  20  22  1   
 45  20  50  1   
 46  21  23  1   
 47  21  51  1   
 48  22  52  1   
 49  23  24  1   
 50  23  53  1   
 51  23  54  1   
 52  24  25  ar  
 53  24  26  ar  
 54  25  27  ar  
 55  26  28  ar  
 56  26  55  1   
 57  27  29  ar  
 58  27  56  1   
 59  28  29  ar  
 60  29  57  1   
@<TRIPOS>SUBSTRUCTURE
  1 ****  14 GROUP 4 **** **** 0

# MOE 2024.06 (io_trps.svl 2023.06)
