@<TRIPOS>MOLECULE
NONAME
43 44 1 0 0 
SMALL
USER_CHARGES


@<TRIPOS>ATOM
  1 O       -2.3010     0.5450    -0.6540 O.co2 1 <1>  -0.9000 
  2 C       -1.4230     1.2920    -1.1140 C.2   1 <1>   0.9060 
  3 O       -1.0970     1.2070    -2.3050 O.co2 1 <1>  -0.9000 
  4 C       -0.7280     2.3210    -0.1990 C.3   1 <1>  -0.1060 
  5 C       -1.6990     2.9440     0.8510 C.3   1 <1>   0.2000 
  6 C       -0.2120     3.4610    -1.1200 C.3   1 <1>   0.2090 
  7 C        0.4450     1.6640     0.5890 C.3   1 <1>  -0.1600 
  8 O       -2.5730     2.0180     1.3850 O.3   1 <1>  -0.6800 
  9 C       -2.5020     4.1120     0.2830 C.3   1 <1>  -0.1600 
 10 N       -0.2000     4.7900    -0.4220 N.pl3 1 <1>  -0.8380 
 11 C        1.4590     0.8750    -0.2590 C.3   1 <1>  -0.1600 
 12 C       -1.5470     5.2790    -0.0020 C.3   1 <1>   0.2090 
 13 C        0.9470     5.5220    -0.2040 C.ar  1 <1>   0.7200 
 14 C        2.5530     0.2690     0.6230 C.3   1 <1>  -0.2400 
 15 N        2.1150     4.9040    -0.3710 N.ar  1 <1>  -0.6200 
 16 N        0.7890     6.7960     0.1610 N.ar  1 <1>  -0.6200 
 17 C        3.1920     5.6180    -0.1580 C.ar  1 <1>   0.1600 
 18 C        1.8850     7.4840     0.3650 C.ar  1 <1>   0.1600 
 19 C        3.1390     6.9390     0.2210 C.ar  1 <1>  -0.1440 
 20 C        4.4000     7.7540     0.4650 C.3   1 <1>  -0.0170 
 21 C        4.8450     8.4540    -0.8210 C.3   1 <1>  -0.2400 
 22 H       -1.1240     3.3230     1.6790 H     1 <1>   0.0800 
 23 H       -0.8730     3.5640    -1.9640 H     1 <1>   0.0800 
 24 H        0.7500     3.2190    -1.5310 H     1 <1>   0.0800 
 25 H        0.9690     2.4340     1.1280 H     1 <1>   0.0800 
 26 H        0.0210     0.9890     1.3120 H     1 <1>   0.0800 
 27 H       -2.6670     1.2950     0.6850 H     1 <1>   0.4000 
 28 H       -2.9930     3.8090    -0.6250 H     1 <1>   0.0800 
 29 H       -3.2480     4.4300     0.9870 H     1 <1>   0.0800 
 30 H        0.9550     0.0820    -0.7870 H     1 <1>   0.0800 
 31 H        1.9180     1.5160    -0.9900 H     1 <1>   0.0800 
 32 H       -1.4420     5.8610     0.8980 H     1 <1>   0.0800 
 33 H       -1.9540     5.9150    -0.7690 H     1 <1>   0.0800 
 34 H        2.1200    -0.4020     1.3440 H     1 <1>   0.0800 
 35 H        3.0850     1.0460     1.1430 H     1 <1>   0.0800 
 36 H        3.2490    -0.2810     0.0160 H     1 <1>   0.0800 
 37 H        4.1420     5.1320    -0.2910 H     1 <1>   0.1500 
 38 H        1.7780     8.5140     0.6560 H     1 <1>   0.1500 
 39 H        4.2150     8.4880     1.2300 H     1 <1>   0.0800 
 40 H        5.1880     7.1090     0.8150 H     1 <1>   0.0800 
 41 H        4.0740     9.1170    -1.1720 H     1 <1>   0.0800 
 42 H        5.0500     7.7290    -1.5890 H     1 <1>   0.0800 
 43 H        5.7370     9.0280    -0.6410 H     1 <1>   0.0800 
@<TRIPOS>BOND
  1   1   2  ar  
  2   2   3  ar  
  3   2   4  1   
  4   4   5  1   
  5   4   6  1   
  6   4   7  1   
  7   5   8  1   
  8   5   9  1   
  9   5  22  1   
 10   6  10  1   
 11   6  23  1   
 12   6  24  1   
 13   7  11  1   
 14   7  25  1   
 15   7  26  1   
 16   8  27  1   
 17   9  12  1   
 18   9  28  1   
 19   9  29  1   
 20  10  12  1   
 21  10  13  1   
 22  11  14  1   
 23  11  30  1   
 24  11  31  1   
 25  12  32  1   
 26  12  33  1   
 27  13  15  ar  
 28  13  16  ar  
 29  14  34  1   
 30  14  35  1   
 31  14  36  1   
 32  15  17  ar  
 33  16  18  ar  
 34  17  19  ar  
 35  17  37  1   
 36  18  19  ar  
 37  18  38  1   
 38  19  20  1   
 39  20  21  1   
 40  20  39  1   
 41  20  40  1   
 42  21  41  1   
 43  21  42  1   
 44  21  43  1   
@<TRIPOS>SUBSTRUCTURE
  1 ****  10 GROUP 4 **** **** 0

# MOE 2024.06 (io_trps.svl 2023.06)
