@<TRIPOS>MOLECULE
NONAME
60 63 1 0 0 
SMALL
USER_CHARGES


@<TRIPOS>ATOM
  1 O        4.4290     2.0530     0.7730 O.co2 1 <1>  -0.9000 
  2 C        3.4590     1.3050     0.5790 C.2   1 <1>   0.9060 
  3 O        3.1360     0.4570     1.4090 O.co2 1 <1>  -0.9000 
  4 C        2.8440     1.2120    -0.8250 C.3   1 <1>  -0.1060 
  5 C        3.3380    -0.1590    -1.3380 C.3   1 <1>   0.2000 
  6 C        3.3860     2.3220    -1.7870 C.3   1 <1>  -0.1600 
  7 C        1.2980     1.2770    -0.7200 C.3   1 <1>  -0.0160 
  8 O        2.9170    -0.3560    -2.6560 O.3   1 <1>  -0.6800 
  9 C        4.8890    -0.2220    -1.3030 C.3   1 <1>   0.3430 
 10 C        4.7620     2.0090    -2.4040 C.3   1 <1>   0.3430 
 11 C        0.7830     2.6590    -0.3350 C.ar  1 <1>  -0.1440 
 12 N        5.5280     1.1310    -1.4840 N.4   1 <1>  -0.9590 
 13 C        0.8510     3.0890     0.9820 C.ar  1 <1>  -0.1500 
 14 C        0.2360     3.5010    -1.2930 C.ar  1 <1>  -0.1500 
 15 C        6.9880     1.0950    -1.6880 C.3   1 <1>   0.4860 
 16 C        0.3890     4.3440     1.3360 C.ar  1 <1>  -0.1500 
 17 C       -0.2290     4.7570    -0.9400 C.ar  1 <1>  -0.1500 
 18 C        7.5260     2.5150    -1.6910 C.ar  1 <1>  -0.1430 
 19 C       -0.1520     5.1800     0.3750 C.ar  1 <1>  -0.1500 
 20 C        7.4790     3.2890    -0.5390 C.ar  1 <1>  -0.1500 
 21 C        8.0540     3.0500    -2.8560 C.ar  1 <1>  -0.1500 
 22 C        7.9500     4.6000    -0.5350 C.ar  1 <1>  -0.0230 
 23 C        8.5290     4.3490    -2.8670 C.ar  1 <1>  -0.1500 
 24 N        7.9230     5.4150     0.6380 N.pl3 1 <1>   0.5930 
 25 C        8.4760     5.1130    -1.7180 C.ar  1 <1>  -0.1500 
 26 N        8.9850     6.1920     0.9820 N.2   1 <1>  -0.7070 
 27 C        6.8990     5.6320     1.5170 C.2   1 <1>  -0.3320 
 28 C        8.6190     6.8500     2.0310 C.2   1 <1>   0.1080 
 29 C        7.3210     6.5450     2.4150 C.2   1 <1>  -0.1500 
 30 C        5.5340     4.9610     1.4800 C.3   1 <1>  -0.0600 
 31 C        9.5280     7.8320     2.7310 C.3   1 <1>  -0.0590 
 32 H        2.9350    -0.9630    -0.7430 H     1 <1>   0.0800 
 33 H        3.4400     3.2590    -1.2590 H     1 <1>   0.0800 
 34 H        2.7010     2.4680    -2.6010 H     1 <1>   0.0800 
 35 H        0.8550     0.9980    -1.6580 H     1 <1>   0.0800 
 36 H        0.9550     0.5650     0.0120 H     1 <1>   0.0800 
 37 H        1.9420    -0.4340    -2.6830 H     1 <1>   0.4000 
 38 H        5.2240    -0.9080    -2.0610 H     1 <1>   0.0800 
 39 H        5.1830    -0.6070    -0.3390 H     1 <1>   0.0800 
 40 H        5.2880     2.9330    -2.5800 H     1 <1>   0.0800 
 41 H        4.6260     1.5020    -3.3450 H     1 <1>   0.0800 
 42 H        5.3830     1.6040    -0.5540 H     1 <1>   0.4500 
 43 H        1.2700     2.4460     1.7400 H     1 <1>   0.1500 
 44 H        0.1680     3.1850    -2.3180 H     1 <1>   0.1500 
 45 H        7.4530     0.5410    -0.8890 H     1 <1>   0.0800 
 46 H        7.2160     0.6130    -2.6230 H     1 <1>   0.0800 
 47 H        0.4530     4.6650     2.3600 H     1 <1>   0.1500 
 48 H       -0.6510     5.4040    -1.6880 H     1 <1>   0.1500 
 49 H       -0.5110     6.1550     0.6510 H     1 <1>   0.1500 
 50 H        7.0730     2.8770     0.3720 H     1 <1>   0.1500 
 51 H        8.1040     2.4680    -3.7600 H     1 <1>   0.1500 
 52 H        8.9430     4.7680    -3.7690 H     1 <1>   0.1500 
 53 H        8.8530     6.1230    -1.7280 H     1 <1>   0.1500 
 54 H        6.7910     6.9600     3.2530 H     1 <1>   0.1500 
 55 H        4.8280     5.5140     2.0720 H     1 <1>   0.0800 
 56 H        5.6020     3.9700     1.8920 H     1 <1>   0.0800 
 57 H        5.1570     4.8970     0.4750 H     1 <1>   0.0800 
 58 H        9.0340     8.2620     3.5820 H     1 <1>   0.0800 
 59 H        9.8030     8.6140     2.0480 H     1 <1>   0.0800 
 60 H       10.4170     7.3250     3.0570 H     1 <1>   0.0800 
@<TRIPOS>BOND
  1   1   2  ar  
  2   2   3  ar  
  3   2   4  1   
  4   4   5  1   
  5   4   6  1   
  6   4   7  1   
  7   5   8  1   
  8   5   9  1   
  9   5  32  1   
 10   6  10  1   
 11   6  33  1   
 12   6  34  1   
 13   7  11  1   
 14   7  35  1   
 15   7  36  1   
 16   8  37  1   
 17   9  12  1   
 18   9  38  1   
 19   9  39  1   
 20  10  12  1   
 21  10  40  1   
 22  10  41  1   
 23  11  13  ar  
 24  11  14  ar  
 25  12  15  1   
 26  12  42  1   
 27  13  16  ar  
 28  13  43  1   
 29  14  17  ar  
 30  14  44  1   
 31  15  18  1   
 32  15  45  1   
 33  15  46  1   
 34  16  19  ar  
 35  16  47  1   
 36  17  19  ar  
 37  17  48  1   
 38  18  20  ar  
 39  18  21  ar  
 40  19  49  1   
 41  20  22  ar  
 42  20  50  1   
 43  21  23  ar  
 44  21  51  1   
 45  22  24  1   
 46  22  25  ar  
 47  23  25  ar  
 48  23  52  1   
 49  24  26  1   
 50  24  27  1   
 51  25  53  1   
 52  26  28  2   
 53  27  29  2   
 54  27  30  1   
 55  28  29  1   
 56  28  31  1   
 57  29  54  1   
 58  30  55  1   
 59  30  56  1   
 60  30  57  1   
 61  31  58  1   
 62  31  59  1   
 63  31  60  1   
@<TRIPOS>SUBSTRUCTURE
  1 ****   1 GROUP 4 **** **** 0

# MOE 2024.06 (io_trps.svl 2023.06)
