@<TRIPOS>MOLECULE
NONAME
47 48 1 0 0 
SMALL
USER_CHARGES


@<TRIPOS>ATOM
  1 S        1.4930     1.3550     0.8430 S.o2  1 <1>   1.3330 
  2 O        1.1470     2.2010     1.9640 O.2   1 <1>  -0.6500 
  3 O        0.4660     0.5640     0.2020 O.2   1 <1>  -0.6500 
  4 N        2.7020     0.2880     1.3770 N.am  1 <1>  -0.8490 
  5 C        2.2990     2.3420    -0.4190 C.3   1 <1>  -0.0550 
  6 C        2.1330    -0.8780     2.0590 C.3   1 <1>   0.1160 
  7 C        3.6990     0.9300     2.2420 C.3   1 <1>   0.1160 
  8 C        2.7010     1.5680    -1.6950 C.3   1 <1>  -0.0800 
  9 C        3.2150     2.4420    -2.8330 C.3   1 <1>   0.2200 
 10 C        3.8390     0.5570    -1.4980 C.3   1 <1>   0.1200 
 11 N        4.0810     3.5170    -2.2990 N.am  1 <1>  -0.7300 
 12 C        4.0750     1.4460    -3.5950 C.3   1 <1>   0.1200 
 13 O        4.6800     0.6670    -2.6090 O.3   1 <1>  -0.5600 
 14 C        3.7080     4.8110    -2.1370 C.2   1 <1>   0.5690 
 15 O        2.6780     5.2370    -2.5980 O.2   1 <1>  -0.5700 
 16 C        4.5910     5.7200    -1.3040 C.3   1 <1>   0.0440 
 17 C        4.7200     5.1820     0.1160 C.ar  1 <1>  -0.1440 
 18 C        5.8920     4.5810     0.5490 C.ar  1 <1>  -0.1500 
 19 C        3.6430     5.2750     0.9840 C.ar  1 <1>  -0.1500 
 20 C        5.9930     4.0760     1.8360 C.ar  1 <1>  -0.1440 
 21 C        3.7370     4.7710     2.2690 C.ar  1 <1>  -0.1500 
 22 C        4.9110     4.1780     2.6950 C.ar  1 <1>  -0.1500 
 23 C        7.2860     3.4260     2.2940 C.3   1 <1>  -0.0970 
 24 H        1.6280     3.1280    -0.7060 H     1 <1>   0.0800 
 25 H        3.1650     2.8040     0.0070 H     1 <1>   0.0800 
 26 H        2.9160    -1.5480     2.3700 H     1 <1>   0.0800 
 27 H        1.4790    -1.4120     1.3910 H     1 <1>   0.0800 
 28 H        1.5670    -0.5670     2.9220 H     1 <1>   0.0800 
 29 H        4.4630     0.2230     2.5150 H     1 <1>   0.0800 
 30 H        3.2350     1.3100     3.1390 H     1 <1>   0.0800 
 31 H        4.1680     1.7460     1.7230 H     1 <1>   0.0800 
 32 H        1.8420     1.0270    -2.0540 H     1 <1>   0.0800 
 33 H        2.4240     2.8530    -3.4390 H     1 <1>   0.0800 
 34 H        3.4690    -0.4520    -1.4360 H     1 <1>   0.0800 
 35 H        4.4300     0.7800    -0.6270 H     1 <1>   0.0800 
 36 H        4.9370     3.1710    -1.8570 H     1 <1>   0.3700 
 37 H        4.8280     1.9200    -4.2000 H     1 <1>   0.0800 
 38 H        3.4660     0.7980    -4.2020 H     1 <1>   0.0800 
 39 H        5.5540     5.7970    -1.7720 H     1 <1>   0.0800 
 40 H        4.1570     6.7030    -1.2780 H     1 <1>   0.0800 
 41 H        6.7360     4.5050    -0.1140 H     1 <1>   0.1500 
 42 H        2.7240     5.7370     0.6630 H     1 <1>   0.1500 
 43 H        2.8930     4.8410     2.9350 H     1 <1>   0.1500 
 44 H        4.9760     3.8000     3.7010 H     1 <1>   0.1500 
 45 H        7.1410     2.8890     3.2140 H     1 <1>   0.0800 
 46 H        8.0350     4.1810     2.4520 H     1 <1>   0.0800 
 47 H        7.6390     2.7370     1.5480 H     1 <1>   0.0800 
@<TRIPOS>BOND
  1   1   2  2   
  2   1   3  2   
  3   1   4  am  
  4   1   5  1   
  5   4   6  1   
  6   4   7  1   
  7   5   8  1   
  8   5  24  1   
  9   5  25  1   
 10   6  26  1   
 11   6  27  1   
 12   6  28  1   
 13   7  29  1   
 14   7  30  1   
 15   7  31  1   
 16   8   9  1   
 17   8  10  1   
 18   8  32  1   
 19   9  11  1   
 20   9  12  1   
 21   9  33  1   
 22  10  13  1   
 23  10  34  1   
 24  10  35  1   
 25  11  14  am  
 26  11  36  1   
 27  12  13  1   
 28  12  37  1   
 29  12  38  1   
 30  14  15  2   
 31  14  16  1   
 32  16  17  1   
 33  16  39  1   
 34  16  40  1   
 35  17  18  ar  
 36  17  19  ar  
 37  18  20  ar  
 38  18  41  1   
 39  19  21  ar  
 40  19  42  1   
 41  20  22  ar  
 42  20  23  1   
 43  21  22  ar  
 44  21  43  1   
 45  22  44  1   
 46  23  45  1   
 47  23  46  1   
 48  23  47  1   
@<TRIPOS>SUBSTRUCTURE
  1 ****   5 GROUP 4 **** **** 0

# MOE 2024.06 (io_trps.svl 2023.06)
