@<TRIPOS>MOLECULE
NONAME
39 39 1 0 0 
SMALL
USER_CHARGES


@<TRIPOS>ATOM
  1 S       -0.6240     0.1470     1.7960 S.3   1 <1>  -0.4600 
  2 C        0.7340     0.5020     0.6570 C.3   1 <1>   0.0700 
  3 C       -0.7880    -1.6560     1.7030 C.3   1 <1>  -0.0100 
  4 C        0.9360     2.0200     0.6500 C.3   1 <1>  -0.1600 
  5 C        2.0990     2.4550    -0.2500 C.3   1 <1>   0.2810 
  6 N        3.3590     1.8350     0.2680 N.am  1 <1>  -0.7300 
  7 C        2.1880     3.9900    -0.3450 C.2   1 <1>   0.5690 
  8 C        4.5450     1.7120    -0.3640 C.2   1 <1>   0.5690 
  9 O        1.3770     4.5700    -1.0290 O.2   1 <1>  -0.5700 
 10 N        3.1950     4.6190     0.3310 N.am  1 <1>  -0.4930 
 11 O        5.5080     1.3530     0.2560 O.2   1 <1>  -0.5700 
 12 C        4.6870     2.0520    -1.8280 C.3   1 <1>  -0.1790 
 13 C        3.5250     5.9950     0.3910 C.2   1 <1>   0.0630 
 14 C        4.6800     6.5530     0.9430 C.2   1 <1>   0.1080 
 15 C        2.8200     7.0540    -0.0540 C.2   1 <1>  -0.3020 
 16 N        4.6910     7.8470     0.8520 N.2   1 <1>  -0.7070 
 17 C        5.8120     5.7780     1.5800 C.3   1 <1>  -0.0590 
 18 N        3.5400     8.1570     0.2320 N.pl3 1 <1>   0.3140 
 19 C        3.1670     9.5430    -0.0660 C.3   1 <1>   0.0160 
 20 H        1.5980    -0.0260     1.0210 H     1 <1>   0.0800 
 21 H        0.4500     0.1310    -0.3120 H     1 <1>   0.0800 
 22 H       -1.5850    -1.9450     2.3640 H     1 <1>   0.0800 
 23 H        0.1440    -2.0930     2.0130 H     1 <1>   0.0800 
 24 H       -1.0210    -1.9180     0.6860 H     1 <1>   0.0800 
 25 H        0.0320     2.4800     0.2900 H     1 <1>   0.0800 
 26 H        1.1030     2.3740     1.6520 H     1 <1>   0.0800 
 27 H        1.9160     2.0870    -1.2450 H     1 <1>   0.0800 
 28 H        3.3440     1.5360     1.2470 H     1 <1>   0.3700 
 29 H        3.8410     3.9990     0.8200 H     1 <1>   0.3700 
 30 H        3.9850     1.4850    -2.4080 H     1 <1>   0.0800 
 31 H        5.6810     1.8090    -2.1580 H     1 <1>   0.0800 
 32 H        4.5210     3.1010    -1.9820 H     1 <1>   0.0800 
 33 H        1.8670     7.0740    -0.5480 H     1 <1>   0.1500 
 34 H        6.0920     4.9490     0.9560 H     1 <1>   0.0800 
 35 H        5.5080     5.4170     2.5440 H     1 <1>   0.0800 
 36 H        6.6660     6.4200     1.7030 H     1 <1>   0.0800 
 37 H        2.7800     9.5980    -1.0660 H     1 <1>   0.0800 
 38 H        4.0370    10.1670     0.0210 H     1 <1>   0.0800 
 39 H        2.4200     9.8630     0.6360 H     1 <1>   0.0800 
@<TRIPOS>BOND
  1   1   2  1   
  2   1   3  1   
  3   2   4  1   
  4   2  20  1   
  5   2  21  1   
  6   3  22  1   
  7   3  23  1   
  8   3  24  1   
  9   4   5  1   
 10   4  25  1   
 11   4  26  1   
 12   5   6  1   
 13   5   7  1   
 14   5  27  1   
 15   6   8  am  
 16   6  28  1   
 17   7   9  2   
 18   7  10  am  
 19   8  11  2   
 20   8  12  1   
 21  10  13  1   
 22  10  29  1   
 23  12  30  1   
 24  12  31  1   
 25  12  32  1   
 26  13  14  1   
 27  13  15  2   
 28  14  16  2   
 29  14  17  1   
 30  15  18  1   
 31  15  33  1   
 32  16  18  1   
 33  17  34  1   
 34  17  35  1   
 35  17  36  1   
 36  18  19  1   
 37  19  37  1   
 38  19  38  1   
 39  19  39  1   
@<TRIPOS>SUBSTRUCTURE
  1 ****  10 GROUP 4 **** **** 0

# MOE 2024.06 (io_trps.svl 2023.06)
