@<TRIPOS>MOLECULE
NONAME
45 46 1 0 0 
SMALL
USER_CHARGES


@<TRIPOS>ATOM
  1 O       -2.5960     0.3860     2.5120 O.2   1 <1>  -0.5700 
  2 C       -3.1810     1.0990     1.7260 C.2   1 <1>   0.5690 
  3 N       -4.2920     0.6630     1.0530 N.am  1 <1>  -0.6600 
  4 C       -2.5290     2.4550     1.4140 C.3   1 <1>   0.4040 
  5 C       -4.4860    -0.8070     0.9230 C.3   1 <1>   0.3200 
  6 C       -5.0760     1.4900     0.0800 C.3   1 <1>   0.1400 
  7 N       -1.1580     2.3040     0.7910 N.4   1 <1>  -0.9590 
  8 C       -3.4050    -1.3520    -0.0030 C.2   1 <1>   0.0070 
  9 C       -6.0140     2.4830     0.7860 C.3   1 <1>   0.1200 
 10 C       -0.4990     3.6190     0.5790 C.3   1 <1>   0.3430 
 11 C       -1.2260     1.4820    -0.4560 C.3   1 <1>   0.3430 
 12 N       -3.2710    -1.0310    -1.2540 N.2   1 <1>  -0.5650 
 13 N       -2.4600    -2.2130     0.4350 N.pl3 1 <1>   0.0330 
 14 O       -5.2810     3.4260     1.5040 O.3   1 <1>  -0.6800 
 15 C        0.9240     3.4040     0.0610 C.3   1 <1>  -0.1600 
 16 C        0.1840     1.2410    -0.9920 C.3   1 <1>  -0.1600 
 17 C       -2.2000    -1.7430    -1.6570 C.2   1 <1>   0.0770 
 18 C       -1.6860    -2.4610    -0.6370 C.2   1 <1>  -0.3020 
 19 C        0.9390     2.5580    -1.2210 C.3   1 <1>  -0.0800 
 20 C        2.3780     2.2830    -1.6700 C.3   1 <1>  -0.2400 
 21 H       -2.4540     3.0030     2.3360 H     1 <1>   0.0800 
 22 H       -3.1630     3.0090     0.7490 H     1 <1>   0.0800 
 23 H       -5.4570    -1.0280     0.5170 H     1 <1>   0.0800 
 24 H       -4.4170    -1.2680     1.8930 H     1 <1>   0.0800 
 25 H       -5.6740     0.8440    -0.5410 H     1 <1>   0.0800 
 26 H       -4.4140     2.0200    -0.5810 H     1 <1>   0.0800 
 27 H       -0.6020     1.7580     1.4650 H     1 <1>   0.4500 
 28 H       -6.6650     1.9610     1.4670 H     1 <1>   0.0800 
 29 H       -6.6110     3.0080     0.0600 H     1 <1>   0.0800 
 30 H       -0.4640     4.1700     1.5060 H     1 <1>   0.0800 
 31 H       -1.0590     4.1960    -0.1400 H     1 <1>   0.0800 
 32 H       -1.8150     1.9890    -1.2020 H     1 <1>   0.0800 
 33 H       -1.6900     0.5310    -0.2500 H     1 <1>   0.0800 
 34 H       -2.3530    -2.5840     1.3860 H     1 <1>   0.2700 
 35 H       -5.8900     4.0170     1.9960 H     1 <1>   0.4000 
 36 H        1.5110     2.9290     0.8270 H     1 <1>   0.0800 
 37 H        1.3690     4.3630    -0.1390 H     1 <1>   0.0800 
 38 H        0.1100     0.7010    -1.9200 H     1 <1>   0.0800 
 39 H        0.7210     0.6160    -0.2990 H     1 <1>   0.0800 
 40 H       -1.8510    -1.7040    -2.6770 H     1 <1>   0.1500 
 41 H       -0.8400    -3.1260    -0.6180 H     1 <1>   0.1500 
 42 H        0.4420     3.1080    -2.0050 H     1 <1>   0.0800 
 43 H        2.9180     1.7330    -0.9190 H     1 <1>   0.0800 
 44 H        2.8970     3.2080    -1.8540 H     1 <1>   0.0800 
 45 H        2.3830     1.7110    -2.5820 H     1 <1>   0.0800 
@<TRIPOS>BOND
  1   1   2  2   
  2   2   3  am  
  3   2   4  1   
  4   3   5  1   
  5   3   6  1   
  6   4   7  1   
  7   4  21  1   
  8   4  22  1   
  9   5   8  1   
 10   5  23  1   
 11   5  24  1   
 12   6   9  1   
 13   6  25  1   
 14   6  26  1   
 15   7  10  1   
 16   7  11  1   
 17   7  27  1   
 18   8  12  2   
 19   8  13  1   
 20   9  14  1   
 21   9  28  1   
 22   9  29  1   
 23  10  15  1   
 24  10  30  1   
 25  10  31  1   
 26  11  16  1   
 27  11  32  1   
 28  11  33  1   
 29  12  17  1   
 30  13  18  1   
 31  13  34  1   
 32  14  35  1   
 33  15  19  1   
 34  15  36  1   
 35  15  37  1   
 36  16  19  1   
 37  16  38  1   
 38  16  39  1   
 39  17  18  2   
 40  17  40  1   
 41  18  41  1   
 42  19  20  1   
 43  19  42  1   
 44  20  43  1   
 45  20  44  1   
 46  20  45  1   
@<TRIPOS>SUBSTRUCTURE
  1 ****  11 GROUP 4 **** **** 0

# MOE 2024.06 (io_trps.svl 2023.06)
