@<TRIPOS>MOLECULE
NONAME
43 45 1 0 0 
SMALL
USER_CHARGES


@<TRIPOS>ATOM
  1 O       -0.9400    -1.6380    -0.4550 O.2   1 <1>  -0.5700 
  2 C        0.2040    -2.0040    -0.3380 C.2   1 <1>   0.5690 
  3 N        0.6920    -2.7420     0.6780 N.am  1 <1>  -0.6600 
  4 C        1.2780    -1.7130    -1.3480 C.3   1 <1>  -0.0990 
  5 C        2.1060    -3.1090     0.5050 C.3   1 <1>   0.1400 
  6 C       -0.0940    -3.2520     1.8430 C.3   1 <1>   0.2010 
  7 C        2.4410    -2.6250    -0.9130 C.3   1 <1>  -0.1600 
  8 C       -0.3680    -4.7560     1.7690 C.2   1 <1>   0.5690 
  9 O        0.3010    -5.4910     2.4590 O.2   1 <1>  -0.5700 
 10 N       -1.3400    -5.2550     0.9440 N.am  1 <1>  -0.6600 
 11 C       -2.2200    -4.4710     0.0370 C.3   1 <1>   0.1400 
 12 C       -1.5770    -6.7080     0.7610 C.3   1 <1>   0.1400 
 13 C       -3.3250    -5.4520    -0.3510 C.3   1 <1>   0.2000 
 14 C       -2.6070    -6.8060    -0.3710 C.3   1 <1>  -0.0800 
 15 O       -4.2780    -5.4510     0.6570 O.3   1 <1>  -0.6800 
 16 C       -3.5230    -8.0400    -0.2750 C.3   1 <1>  -0.0170 
 17 C       -2.7150    -9.3240    -0.3840 C.ar  1 <1>  -0.1440 
 18 C       -2.3350    -9.8410    -1.6070 C.ar  1 <1>  -0.1500 
 19 C       -2.3160   -10.0370     0.7280 C.ar  1 <1>  -0.1500 
 20 C       -1.5930   -11.0090    -1.6560 C.ar  1 <1>   0.1600 
 21 C       -1.5740   -11.1960     0.5690 C.ar  1 <1>   0.1600 
 22 N       -1.2020   -11.6980    -0.5970 N.ar  1 <1>  -0.6200 
 23 H        0.9370    -1.9420    -2.3410 H     1 <1>   0.0800 
 24 H        1.5490    -0.6760    -1.2790 H     1 <1>   0.0800 
 25 H        2.7040    -2.5970     1.2410 H     1 <1>   0.0800 
 26 H        2.2390    -4.1740     0.6000 H     1 <1>   0.0800 
 27 H        0.4510    -3.0460     2.7470 H     1 <1>   0.0800 
 28 H       -1.0300    -2.7260     1.9020 H     1 <1>   0.0800 
 29 H        3.3850    -2.1100    -0.9380 H     1 <1>   0.0800 
 30 H        2.4970    -3.4780    -1.5670 H     1 <1>   0.0800 
 31 H       -2.6170    -3.5880     0.5080 H     1 <1>   0.0800 
 32 H       -1.6600    -4.1890    -0.8370 H     1 <1>   0.0800 
 33 H       -0.6610    -7.2160     0.5080 H     1 <1>   0.0800 
 34 H       -1.9670    -7.1160     1.6780 H     1 <1>   0.0800 
 35 H       -3.8060    -5.2030    -1.2810 H     1 <1>   0.0800 
 36 H       -2.0590    -6.8670    -1.2940 H     1 <1>   0.0800 
 37 H       -3.8170    -5.4950     1.5190 H     1 <1>   0.4000 
 38 H       -4.2500    -8.0080    -1.0670 H     1 <1>   0.0800 
 39 H       -4.0630    -8.0360     0.6560 H     1 <1>   0.0800 
 40 H       -2.6090    -9.3470    -2.5210 H     1 <1>   0.1500 
 41 H       -2.5730    -9.7050     1.7170 H     1 <1>   0.1500 
 42 H       -1.3070   -11.3980    -2.6180 H     1 <1>   0.1500 
 43 H       -1.2700   -11.7380     1.4480 H     1 <1>   0.1500 
@<TRIPOS>BOND
  1   1   2  2   
  2   2   3  am  
  3   2   4  1   
  4   3   5  1   
  5   3   6  1   
  6   4   7  1   
  7   4  23  1   
  8   4  24  1   
  9   5   7  1   
 10   5  25  1   
 11   5  26  1   
 12   6   8  1   
 13   6  27  1   
 14   6  28  1   
 15   7  29  1   
 16   7  30  1   
 17   8   9  2   
 18   8  10  am  
 19  10  11  1   
 20  10  12  1   
 21  11  13  1   
 22  11  31  1   
 23  11  32  1   
 24  12  14  1   
 25  12  33  1   
 26  12  34  1   
 27  13  14  1   
 28  13  15  1   
 29  13  35  1   
 30  14  16  1   
 31  14  36  1   
 32  15  37  1   
 33  16  17  1   
 34  16  38  1   
 35  16  39  1   
 36  17  18  ar  
 37  17  19  ar  
 38  18  20  ar  
 39  18  40  1   
 40  19  21  ar  
 41  19  41  1   
 42  20  22  ar  
 43  20  42  1   
 44  21  22  ar  
 45  21  43  1   
@<TRIPOS>SUBSTRUCTURE
  1 ****  12 GROUP 4 **** **** 0

# MOE 2024.06 (io_trps.svl 2023.06)
