@<TRIPOS>MOLECULE
NONAME
54 56 1 0 0 
SMALL
USER_CHARGES


@<TRIPOS>ATOM
  1 O        2.4190     1.1060     0.9920 O.co2 1 <1>  -0.9000 
  2 C        1.5400     1.1290     0.1180 C.2   1 <1>   0.9060 
  3 O        1.8660     1.3860    -1.0460 O.co2 1 <1>  -0.9000 
  4 C        0.0220     1.0890     0.4610 C.3   1 <1>   0.3170 
  5 N       -0.7050     2.4120     0.4060 N.4   1 <1>  -0.9590 
  6 C       -0.3560     0.5830     1.8510 C.3   1 <1>  -0.1600 
  7 C       -2.0160     2.2160     1.0500 C.3   1 <1>   0.3430 
  8 C       -0.7200     3.0070    -0.9520 C.3   1 <1>   0.4860 
  9 C       -1.7590     1.1510     2.1170 C.3   1 <1>  -0.1600 
 10 C       -1.2220     4.4440    -0.9050 C.ar  1 <1>  -0.1430 
 11 C       -0.7150     5.3950    -0.0180 C.ar  1 <1>   0.0830 
 12 C       -2.2050     4.8290    -1.8050 C.ar  1 <1>  -0.1500 
 13 O        0.2130     5.0630     0.9050 O.3   1 <1>  -0.3630 
 14 C       -1.1880     6.6980    -0.0370 C.ar  1 <1>  -0.1500 
 15 C       -2.6750     6.1310    -1.8240 C.ar  1 <1>  -0.1500 
 16 C        1.5470     5.4890     0.7130 C.3   1 <1>   0.1200 
 17 C       -2.1660     7.0670    -0.9420 C.ar  1 <1>  -0.1500 
 18 C        2.3350     4.2110     0.4630 C.3   1 <1>  -0.1600 
 19 C        3.8530     4.2910     0.5390 C.3   1 <1>   0.3430 
 20 N        4.3710     2.9220     0.2920 N.4   1 <1>  -0.9590 
 21 C        5.5690     2.5530     1.1030 C.3   1 <1>   0.3430 
 22 C        4.5630     2.5960    -1.1610 C.3   1 <1>   0.3430 
 23 C        6.0160     1.1100     0.7990 C.3   1 <1>   0.1200 
 24 C        5.0790     1.1560    -1.3430 C.3   1 <1>   0.1200 
 25 O        6.2340     0.9520    -0.5740 O.3   1 <1>  -0.5600 
 26 H       -0.4280     0.4320    -0.2610 H     1 <1>   0.0800 
 27 H       -0.1780     3.0860     0.9830 H     1 <1>   0.4500 
 28 H       -0.3330    -0.4920     1.8900 H     1 <1>   0.0800 
 29 H        0.3420     0.9650     2.5760 H     1 <1>   0.0800 
 30 H       -2.3800     3.1360     1.4790 H     1 <1>   0.0800 
 31 H       -2.7280     1.8460     0.3310 H     1 <1>   0.0800 
 32 H        0.2760     3.0020    -1.3640 H     1 <1>   0.0800 
 33 H       -1.3460     2.4180    -1.6000 H     1 <1>   0.0800 
 34 H       -1.8130     1.5850     3.1010 H     1 <1>   0.0800 
 35 H       -2.5080     0.3820     2.0440 H     1 <1>   0.0800 
 36 H       -2.6160     4.1230    -2.5080 H     1 <1>   0.1500 
 37 H       -0.7990     7.4210     0.6580 H     1 <1>   0.1500 
 38 H       -3.4380     6.4200    -2.5280 H     1 <1>   0.1500 
 39 H        1.6020     6.1700    -0.1210 H     1 <1>   0.0800 
 40 H        1.8660     5.9820     1.6150 H     1 <1>   0.0800 
 41 H       -2.5330     8.0790    -0.9580 H     1 <1>   0.1500 
 42 H        2.0290     3.5200     1.2250 H     1 <1>   0.0800 
 43 H        2.0600     3.8460    -0.5080 H     1 <1>   0.0800 
 44 H        4.1420     4.6210     1.5230 H     1 <1>   0.0800 
 45 H        4.2430     4.9800    -0.1930 H     1 <1>   0.0800 
 46 H        3.6240     2.2370     0.5860 H     1 <1>   0.4500 
 47 H        6.3840     3.2210     0.8820 H     1 <1>   0.0800 
 48 H        5.3370     2.6340     2.1520 H     1 <1>   0.0800 
 49 H        3.6260     2.6940    -1.6840 H     1 <1>   0.0800 
 50 H        5.2700     3.2760    -1.6020 H     1 <1>   0.0800 
 51 H        5.2660     0.4040     1.1170 H     1 <1>   0.0800 
 52 H        6.9380     0.8880     1.3060 H     1 <1>   0.0800 
 53 H        5.3300     0.9790    -2.3740 H     1 <1>   0.0800 
 54 H        4.3270     0.4440    -1.0460 H     1 <1>   0.0800 
@<TRIPOS>BOND
  1   1   2  ar  
  2   2   3  ar  
  3   2   4  1   
  4   4   5  1   
  5   4   6  1   
  6   4  26  1   
  7   5   7  1   
  8   5   8  1   
  9   5  27  1   
 10   6   9  1   
 11   6  28  1   
 12   6  29  1   
 13   7   9  1   
 14   7  30  1   
 15   7  31  1   
 16   8  10  1   
 17   8  32  1   
 18   8  33  1   
 19   9  34  1   
 20   9  35  1   
 21  10  11  ar  
 22  10  12  ar  
 23  11  13  1   
 24  11  14  ar  
 25  12  15  ar  
 26  12  36  1   
 27  13  16  1   
 28  14  17  ar  
 29  14  37  1   
 30  15  17  ar  
 31  15  38  1   
 32  16  18  1   
 33  16  39  1   
 34  16  40  1   
 35  17  41  1   
 36  18  19  1   
 37  18  42  1   
 38  18  43  1   
 39  19  20  1   
 40  19  44  1   
 41  19  45  1   
 42  20  21  1   
 43  20  22  1   
 44  20  46  1   
 45  21  23  1   
 46  21  47  1   
 47  21  48  1   
 48  22  24  1   
 49  22  49  1   
 50  22  50  1   
 51  23  25  1   
 52  23  51  1   
 53  23  52  1   
 54  24  25  1   
 55  24  53  1   
 56  24  54  1   
@<TRIPOS>SUBSTRUCTURE
  1 ****  18 GROUP 4 **** **** 0

# MOE 2024.06 (io_trps.svl 2023.06)
