@<TRIPOS>MOLECULE
NONAME
42 44 1 0 0 
SMALL
USER_CHARGES


@<TRIPOS>ATOM
  1 O        1.7690    -0.6190     1.7780 O.3   1 <1>  -0.6800 
  2 C        2.3600     0.4330     1.0940 C.3   1 <1>   0.2000 
  3 C        3.4220    -0.0490     0.0470 C.3   1 <1>   0.0000 
  4 C        2.9290     1.4170     2.1180 C.3   1 <1>  -0.1600 
  5 C        4.6340     0.9210     0.0310 C.3   1 <1>   0.2090 
  6 C        2.7580    -0.0220    -1.3510 C.3   1 <1>   0.1200 
  7 C        3.9400    -1.5050     0.2600 C.3   1 <1>  -0.1600 
  8 C        3.4440     2.6740     1.4030 C.3   1 <1>   0.2090 
  9 N        4.1910     2.3480     0.1500 N.pl3 1 <1>  -0.8380 
 10 O        2.4020     1.2740    -1.6950 O.3   1 <1>  -0.6800 
 11 C        4.7120    -1.7860     1.5660 C.3   1 <1>  -0.1600 
 12 C        4.9610     3.3400    -0.4190 C.ar  1 <1>   0.4100 
 13 C        5.0400    -3.2760     1.6900 C.3   1 <1>  -0.2400 
 14 N        6.2550     3.1470    -0.5150 N.ar  1 <1>  -0.6200 
 15 C        4.3870     4.5350    -0.8740 C.ar  1 <1>   0.0000 
 16 C        6.9760     4.1540    -1.0320 C.ar  1 <1>   0.4700 
 17 C        5.2310     5.4830    -1.3720 C.ar  1 <1>   0.1050 
 18 C        3.1120     5.1090    -1.0000 C.2   1 <1>   0.1390 
 19 N        6.5570     5.3180    -1.4630 N.ar  1 <1>  -0.5670 
 20 N        4.4600     6.5370    -1.7320 N.pl3 1 <1>   0.3000 
 21 N        3.1420     6.3040    -1.4980 N.2   1 <1>  -0.7070 
 22 H        1.0350    -0.2930     2.3320 H     1 <1>   0.4000 
 23 H        1.5570     0.9360     0.5810 H     1 <1>   0.0800 
 24 H        2.1700     1.7080     2.8200 H     1 <1>   0.0800 
 25 H        3.7350     0.9600     2.6630 H     1 <1>   0.0800 
 26 H        5.1970     0.7840    -0.8780 H     1 <1>   0.0800 
 27 H        5.2980     0.7230     0.8510 H     1 <1>   0.0800 
 28 H        1.8690    -0.6300    -1.3710 H     1 <1>   0.0800 
 29 H        3.4400    -0.3780    -2.1040 H     1 <1>   0.0800 
 30 H        3.0970    -2.1740     0.2160 H     1 <1>   0.0800 
 31 H        4.5830    -1.7680    -0.5620 H     1 <1>   0.0800 
 32 H        4.0830     3.2330     2.0670 H     1 <1>   0.0800 
 33 H        2.6030     3.2950     1.1490 H     1 <1>   0.0800 
 34 H        3.0410     1.8860    -1.2440 H     1 <1>   0.4000 
 35 H        5.6350    -1.2360     1.5900 H     1 <1>   0.0800 
 36 H        4.1240    -1.4920     2.4180 H     1 <1>   0.0800 
 37 H        5.6450    -3.6010     0.8630 H     1 <1>   0.0800 
 38 H        4.1350    -3.8580     1.7090 H     1 <1>   0.0800 
 39 H        5.5800    -3.4590     2.6030 H     1 <1>   0.0800 
 40 H        8.0360     3.9710    -1.0930 H     1 <1>   0.1500 
 41 H        2.2050     4.6010    -0.7180 H     1 <1>   0.1500 
 42 H        4.8190     7.4040    -2.1440 H     1 <1>   0.2700 
@<TRIPOS>BOND
  1   1   2  1   
  2   1  22  1   
  3   2   3  1   
  4   2   4  1   
  5   2  23  1   
  6   3   5  1   
  7   3   6  1   
  8   3   7  1   
  9   4   8  1   
 10   4  24  1   
 11   4  25  1   
 12   5   9  1   
 13   5  26  1   
 14   5  27  1   
 15   6  10  1   
 16   6  28  1   
 17   6  29  1   
 18   7  11  1   
 19   7  30  1   
 20   7  31  1   
 21   8   9  1   
 22   8  32  1   
 23   8  33  1   
 24   9  12  1   
 25  10  34  1   
 26  11  13  1   
 27  11  35  1   
 28  11  36  1   
 29  12  14  ar  
 30  12  15  ar  
 31  13  37  1   
 32  13  38  1   
 33  13  39  1   
 34  14  16  ar  
 35  15  17  ar  
 36  15  18  1   
 37  16  19  ar  
 38  16  40  1   
 39  17  19  ar  
 40  17  20  1   
 41  18  21  2   
 42  18  41  1   
 43  20  21  1   
 44  20  42  1   
@<TRIPOS>SUBSTRUCTURE
  1 ****   9 GROUP 4 **** **** 0

# MOE 2024.06 (io_trps.svl 2023.06)
