@<TRIPOS>MOLECULE
NONAME
41 42 1 0 0 
SMALL
USER_CHARGES


@<TRIPOS>ATOM
  1 CL      -2.1380     0.3440    -1.1550 Cl    1 <1>  -0.1770 
  2 C       -2.8520    -0.9650    -0.2500 C.ar  1 <1>   0.1770 
  3 C       -3.4650    -0.6920     0.9560 C.ar  1 <1>  -0.1500 
  4 C       -2.7900    -2.2510    -0.7550 C.ar  1 <1>  -0.1500 
  5 C       -4.0170    -1.7570     1.6360 C.ar  1 <1>   0.1900 
  6 C       -3.3460    -3.3300    -0.0610 C.ar  1 <1>   0.0860 
  7 F       -4.6080    -1.5330     2.7770 F     1 <1>  -0.1900 
  8 C       -3.9710    -3.0530     1.1580 C.ar  1 <1>  -0.1500 
  9 C       -3.2720    -4.6780    -0.6020 C.2   1 <1>   0.5440 
 10 O       -3.0700    -4.8620    -1.7850 O.2   1 <1>  -0.5700 
 11 N       -3.4380    -5.7720     0.1950 N.am  1 <1>  -0.7300 
 12 C       -3.3130    -7.1830    -0.2430 C.3   1 <1>   0.2200 
 13 C       -4.6840    -7.8190    -0.4150 C.3   1 <1>  -0.0800 
 14 C       -2.7750    -8.0040     0.9200 C.3   1 <1>   0.1200 
 15 C       -5.0490    -8.2320     1.0170 C.3   1 <1>   0.1200 
 16 C       -5.7250    -6.9310    -1.1320 C.3   1 <1>  -0.0550 
 17 O       -3.8690    -8.1710     1.7670 O.3   1 <1>  -0.5600 
 18 S       -7.2620    -7.7690    -1.5270 S.o2  1 <1>   1.3330 
 19 O       -6.9350    -9.0550    -2.1010 O.2   1 <1>  -0.6500 
 20 O       -8.1280    -6.8610    -2.2450 O.2   1 <1>  -0.6500 
 21 N       -7.9730    -8.0430    -0.0070 N.am  1 <1>  -0.8490 
 22 C       -8.7040    -6.8810     0.5100 C.3   1 <1>   0.1160 
 23 C       -8.8520    -9.2170    -0.0130 C.3   1 <1>   0.1160 
 24 H       -3.5120     0.3080     1.3470 H     1 <1>   0.1500 
 25 H       -2.3050    -2.4200    -1.7010 H     1 <1>   0.1500 
 26 H       -4.4290    -3.8330     1.7370 H     1 <1>   0.1500 
 27 H       -3.5820    -5.6770     1.2030 H     1 <1>   0.3700 
 28 H       -2.6980    -7.2620    -1.1240 H     1 <1>   0.0800 
 29 H       -4.5560    -8.7200    -0.9900 H     1 <1>   0.0800 
 30 H       -1.9750    -7.5130     1.4460 H     1 <1>   0.0800 
 31 H       -2.4570    -8.9770     0.5890 H     1 <1>   0.0800 
 32 H       -5.4390    -9.2350     1.0550 H     1 <1>   0.0800 
 33 H       -5.7530    -7.5530     1.4650 H     1 <1>   0.0800 
 34 H       -5.2870    -6.5870    -2.0500 H     1 <1>   0.0800 
 35 H       -5.9370    -6.0650    -0.5390 H     1 <1>   0.0800 
 36 H       -9.0520    -7.0790     1.5100 H     1 <1>   0.0800 
 37 H       -9.5510    -6.6580    -0.1180 H     1 <1>   0.0800 
 38 H       -8.0600    -6.0190     0.5390 H     1 <1>   0.0800 
 39 H       -9.2790    -9.3700     0.9630 H     1 <1>   0.0800 
 40 H       -8.2910   -10.0980    -0.2760 H     1 <1>   0.0800 
 41 H       -9.6450    -9.0860    -0.7310 H     1 <1>   0.0800 
@<TRIPOS>BOND
  1   1   2  1   
  2   2   3  ar  
  3   2   4  ar  
  4   3   5  ar  
  5   3  24  1   
  6   4   6  ar  
  7   4  25  1   
  8   5   7  1   
  9   5   8  ar  
 10   6   8  ar  
 11   6   9  1   
 12   8  26  1   
 13   9  10  2   
 14   9  11  am  
 15  11  12  1   
 16  11  27  1   
 17  12  13  1   
 18  12  14  1   
 19  12  28  1   
 20  13  15  1   
 21  13  16  1   
 22  13  29  1   
 23  14  17  1   
 24  14  30  1   
 25  14  31  1   
 26  15  17  1   
 27  15  32  1   
 28  15  33  1   
 29  16  18  1   
 30  16  34  1   
 31  16  35  1   
 32  18  19  2   
 33  18  20  2   
 34  18  21  am  
 35  21  22  1   
 36  21  23  1   
 37  22  36  1   
 38  22  37  1   
 39  22  38  1   
 40  23  39  1   
 41  23  40  1   
 42  23  41  1   
@<TRIPOS>SUBSTRUCTURE
  1 ****  11 GROUP 4 **** **** 0

# MOE 2024.06 (io_trps.svl 2023.06)
