@<TRIPOS>MOLECULE
NONAME
44 46 1 0 0 
SMALL
USER_CHARGES


@<TRIPOS>ATOM
  1 O       -0.5990     0.4980     1.0310 O.2   1 <1>  -0.5700 
  2 C       -1.5420     0.9710     0.4440 C.2   1 <1>   0.5690 
  3 N       -2.6270     0.2160     0.1070 N.am  1 <1>  -0.6600 
  4 C       -1.5090     2.4400     0.0700 C.3   1 <1>  -0.0990 
  5 C       -3.8330     0.6550    -0.6430 C.3   1 <1>   0.1400 
  6 C       -2.7730    -1.2000     0.5150 C.3   1 <1>   0.1400 
  7 C       -0.2280     3.1330     0.5560 C.3   1 <1>   0.0960 
  8 C       -4.8160    -0.5220    -0.5730 C.3   1 <1>   0.2000 
  9 C       -3.9150    -1.7420    -0.3460 C.3   1 <1>  -0.0800 
 10 N       -0.2420     4.5570     0.1760 N.pl3 1 <1>   0.0480 
 11 O       -5.6530    -0.3670     0.5370 O.3   1 <1>  -0.5600 
 12 C       -4.6300    -2.9570     0.2720 C.3   1 <1>   0.0200 
 13 C       -0.7170     5.5980     0.8610 C.2   1 <1>   0.0360 
 14 C        0.1940     5.1230    -0.9490 C.2   1 <1>   0.0360 
 15 C       -6.8190     0.3590     0.3070 C.3   1 <1>   0.0400 
 16 C       -3.7630    -4.2050     0.3200 C.2   1 <1>  -0.0400 
 17 N       -0.5850     6.7010     0.2100 N.2   1 <1>  -0.3380 
 18 N       -0.0010     6.3960    -0.9520 N.2   1 <1>  -0.3380 
 19 O       -4.2400    -5.2770     0.8950 O.3   1 <1>  -0.0190 
 20 C       -2.5300    -4.4970    -0.1250 C.2   1 <1>  -0.1500 
 21 N       -3.3950    -6.2660     0.8620 N.2   1 <1>  -0.4100 
 22 C       -2.3540    -5.8240     0.2530 C.2   1 <1>   0.1080 
 23 C       -1.1100    -6.6430    -0.0100 C.3   1 <1>  -0.0590 
 24 H       -1.5760     2.5190    -0.9990 H     1 <1>   0.0800 
 25 H       -2.3620     2.9200     0.5140 H     1 <1>   0.0800 
 26 H       -4.2570     1.5460    -0.2140 H     1 <1>   0.0800 
 27 H       -3.5570     0.8370    -1.6660 H     1 <1>   0.0800 
 28 H       -1.8540    -1.7400     0.3620 H     1 <1>   0.0800 
 29 H       -3.0370    -1.2320     1.5590 H     1 <1>   0.0800 
 30 H        0.6360     2.6630     0.1200 H     1 <1>   0.0800 
 31 H       -0.1500     3.0570     1.6260 H     1 <1>   0.0800 
 32 H       -5.4140    -0.6230    -1.4620 H     1 <1>   0.0800 
 33 H       -3.5050    -2.0280    -1.2990 H     1 <1>   0.0800 
 34 H       -5.5110    -3.1820    -0.3020 H     1 <1>   0.0800 
 35 H       -4.9480    -2.7230     1.2740 H     1 <1>   0.0800 
 36 H       -1.1550     5.5120     1.8390 H     1 <1>   0.1500 
 37 H        0.6500     4.5720    -1.7510 H     1 <1>   0.1500 
 38 H       -7.3610     0.4220     1.2350 H     1 <1>   0.0800 
 39 H       -7.4190    -0.1550    -0.4240 H     1 <1>   0.0800 
 40 H       -6.5700     1.3480    -0.0320 H     1 <1>   0.0800 
 41 H       -1.8150    -3.8920    -0.6510 H     1 <1>   0.1500 
 42 H       -0.2640    -6.1820     0.4650 H     1 <1>   0.0800 
 43 H       -0.9330    -6.7070    -1.0680 H     1 <1>   0.0800 
 44 H       -1.2340    -7.6350     0.3840 H     1 <1>   0.0800 
@<TRIPOS>BOND
  1   1   2  2   
  2   2   3  am  
  3   2   4  1   
  4   3   5  1   
  5   3   6  1   
  6   4   7  1   
  7   4  24  1   
  8   4  25  1   
  9   5   8  1   
 10   5  26  1   
 11   5  27  1   
 12   6   9  1   
 13   6  28  1   
 14   6  29  1   
 15   7  10  1   
 16   7  30  1   
 17   7  31  1   
 18   8   9  1   
 19   8  11  1   
 20   8  32  1   
 21   9  12  1   
 22   9  33  1   
 23  10  13  1   
 24  10  14  1   
 25  11  15  1   
 26  12  16  1   
 27  12  34  1   
 28  12  35  1   
 29  13  17  2   
 30  13  36  1   
 31  14  18  2   
 32  14  37  1   
 33  15  38  1   
 34  15  39  1   
 35  15  40  1   
 36  16  19  1   
 37  16  20  2   
 38  17  18  1   
 39  19  21  1   
 40  20  22  1   
 41  20  41  1   
 42  21  22  2   
 43  22  23  1   
 44  23  42  1   
 45  23  43  1   
 46  23  44  1   
@<TRIPOS>SUBSTRUCTURE
  1 ****   3 GROUP 4 **** **** 0

# MOE 2024.06 (io_trps.svl 2023.06)
