@<TRIPOS>MOLECULE
NONAME
57 61 1 0 0 
SMALL
USER_CHARGES


@<TRIPOS>ATOM
  1 O        1.4270    -0.1380    -2.4310 O.2   1 <1>  -0.5700 
  2 C        2.0560    -0.8640    -1.6990 C.2   1 <1>   0.5690 
  3 N        2.2440    -0.6100    -0.3700 N.am  1 <1>  -0.6600 
  4 C        2.7170    -2.0930    -2.2860 C.3   1 <1>  -0.0990 
  5 C        3.0420    -1.5380     0.4680 C.3   1 <1>   0.1400 
  6 C        1.8720     0.6830     0.2570 C.3   1 <1>   0.0600 
  7 C        2.6170    -3.3240    -1.3610 C.3   1 <1>  -0.0800 
  8 C        2.6790    -2.9980     0.1460 C.3   1 <1>  -0.0800 
  9 C        3.7090    -4.3610    -1.6520 C.3   1 <1>  -0.1600 
 10 C        3.6580    -3.9930     0.7890 C.3   1 <1>  -0.1600 
 11 C        4.1220    -4.9540    -0.3060 C.3   1 <1>   0.2200 
 12 N        5.5820    -5.2830    -0.2480 N.am  1 <1>  -0.6600 
 13 C        6.6260    -4.4290    -0.5780 C.2   1 <1>   0.5440 
 14 C        5.8500    -6.7460    -0.1360 C.3   1 <1>   0.0600 
 15 O        7.6130    -4.8990    -1.1130 O.2   1 <1>  -0.5700 
 16 C        6.6070    -3.0080    -0.2970 C.ar  1 <1>   0.0860 
 17 C        6.3530    -2.0650    -1.2810 C.ar  1 <1>  -0.1500 
 18 C        6.8640    -2.5470     1.0120 C.ar  1 <1>  -0.1500 
 19 C        6.2640    -0.7120    -0.9530 C.ar  1 <1>  -0.1520 
 20 C        6.8010    -1.2140     1.3400 C.ar  1 <1>  -0.1500 
 21 N        5.9440     0.3790    -1.7250 N.pl3 1 <1>   0.0330 
 22 C        6.4750    -0.2790     0.3540 C.ar  1 <1>   0.0000 
 23 C        5.9380     1.4760    -0.9160 C.2   1 <1>  -0.3320 
 24 C        6.2570     1.1130     0.3460 C.2   1 <1>  -0.1810 
 25 C        5.6040     2.8870    -1.3590 C.3   1 <1>   0.0200 
 26 C        6.3380     2.0800     1.5100 C.3   1 <1>   0.0210 
 27 C        6.0140     3.8910    -0.2640 C.3   1 <1>  -0.1600 
 28 C        5.6330     3.4020     1.1490 C.3   1 <1>  -0.1600 
 29 H        2.2750    -2.3160    -3.2400 H     1 <1>   0.0800 
 30 H        3.7430    -1.8310    -2.4520 H     1 <1>   0.0800 
 31 H        4.0810    -1.3650     0.2720 H     1 <1>   0.0800 
 32 H        2.8590    -1.3420     1.5110 H     1 <1>   0.0800 
 33 H        1.2570     0.5060     1.1220 H     1 <1>   0.0800 
 34 H        1.3220     1.2960    -0.4370 H     1 <1>   0.0800 
 35 H        2.7630     1.2100     0.5520 H     1 <1>   0.0800 
 36 H        1.6610    -3.7880    -1.5380 H     1 <1>   0.0800 
 37 H        1.7010    -3.1740     0.5620 H     1 <1>   0.0800 
 38 H        4.5470    -3.9050    -2.1380 H     1 <1>   0.0800 
 39 H        3.3330    -5.1320    -2.3000 H     1 <1>   0.0800 
 40 H        3.1580    -4.5500     1.5620 H     1 <1>   0.0800 
 41 H        4.4820    -3.4830     1.2420 H     1 <1>   0.0800 
 42 H        3.5550    -5.8620    -0.1830 H     1 <1>   0.0800 
 43 H        5.2900    -7.1620     0.6830 H     1 <1>   0.0800 
 44 H        6.8960    -6.9260     0.0420 H     1 <1>   0.0800 
 45 H        5.5660    -7.2370    -1.0510 H     1 <1>   0.0800 
 46 H        6.2170    -2.3760    -2.3000 H     1 <1>   0.1500 
 47 H        7.1090    -3.2780     1.7620 H     1 <1>   0.1500 
 48 H        6.9930    -0.8710     2.3400 H     1 <1>   0.1500 
 49 H        5.7220     0.3600    -2.7240 H     1 <1>   0.2700 
 50 H        6.1180     3.1230    -2.2740 H     1 <1>   0.0800 
 51 H        4.5450     2.9530    -1.5350 H     1 <1>   0.0800 
 52 H        5.8770     1.6470     2.3790 H     1 <1>   0.0800 
 53 H        7.3740     2.2650     1.7290 H     1 <1>   0.0800 
 54 H        7.0810     4.0290    -0.3050 H     1 <1>   0.0800 
 55 H        5.5500     4.8410    -0.4610 H     1 <1>   0.0800 
 56 H        4.5690     3.2490     1.1870 H     1 <1>   0.0800 
 57 H        5.8870     4.1520     1.8770 H     1 <1>   0.0800 
@<TRIPOS>BOND
  1   1   2  2   
  2   2   3  am  
  3   2   4  1   
  4   3   5  1   
  5   3   6  1   
  6   4   7  1   
  7   4  29  1   
  8   4  30  1   
  9   5   8  1   
 10   5  31  1   
 11   5  32  1   
 12   6  33  1   
 13   6  34  1   
 14   6  35  1   
 15   7   8  1   
 16   7   9  1   
 17   7  36  1   
 18   8  10  1   
 19   8  37  1   
 20   9  11  1   
 21   9  38  1   
 22   9  39  1   
 23  10  11  1   
 24  10  40  1   
 25  10  41  1   
 26  11  12  1   
 27  11  42  1   
 28  12  13  am  
 29  12  14  1   
 30  13  15  2   
 31  13  16  1   
 32  14  43  1   
 33  14  44  1   
 34  14  45  1   
 35  16  17  ar  
 36  16  18  ar  
 37  17  19  ar  
 38  17  46  1   
 39  18  20  ar  
 40  18  47  1   
 41  19  21  1   
 42  19  22  ar  
 43  20  22  ar  
 44  20  48  1   
 45  21  23  1   
 46  21  49  1   
 47  22  24  1   
 48  23  24  2   
 49  23  25  1   
 50  24  26  1   
 51  25  27  1   
 52  25  50  1   
 53  25  51  1   
 54  26  28  1   
 55  26  52  1   
 56  26  53  1   
 57  27  28  1   
 58  27  54  1   
 59  27  55  1   
 60  28  56  1   
 61  28  57  1   
@<TRIPOS>SUBSTRUCTURE
  1 ****  19 GROUP 4 **** **** 0

# MOE 2024.06 (io_trps.svl 2023.06)
