@<TRIPOS>MOLECULE
NONAME
37 38 1 0 0 
SMALL
USER_CHARGES


@<TRIPOS>ATOM
  1 O       -0.4090    -0.0700     0.6660 O.2   1 <1>  -0.5700 
  2 C       -1.4000    -0.6890     0.3340 C.2   1 <1>   0.7800 
  3 O       -1.2970    -1.9270    -0.1540 O.3   1 <1>  -0.4300 
  4 N       -2.6570    -0.1620     0.4470 N.am  1 <1>  -0.6600 
  5 C       -0.1210    -2.6840    -0.3490 C.3   1 <1>   0.2800 
  6 C       -3.8540    -0.8890    -0.1440 C.3   1 <1>   0.4010 
  7 C       -2.7610     1.3050     0.7870 C.3   1 <1>   0.1400 
  8 C        0.5690    -2.9410     0.9950 C.3   1 <1>  -0.2400 
  9 C       -0.5990    -4.0150    -0.9320 C.3   1 <1>  -0.2400 
 10 C        0.7980    -1.9900    -1.3600 C.3   1 <1>  -0.2400 
 11 C       -5.0150     0.0650    -0.4090 C.2   1 <1>   0.0460 
 12 C       -4.3870    -1.9840     0.8080 C.3   1 <1>   0.1200 
 13 C       -4.1620     1.7950     1.1890 C.3   1 <1>   0.0200 
 14 N       -6.0470    -0.1820    -1.2410 N.2   1 <1>  -0.5650 
 15 C       -5.1620     1.2540     0.1980 C.2   1 <1>  -0.3320 
 16 O       -3.4810    -3.0240     1.0180 O.3   1 <1>  -0.6800 
 17 C       -6.7950     0.8690    -1.1150 C.2   1 <1>   0.0360 
 18 N       -6.3120     1.7870    -0.2480 N.pl3 1 <1>   0.0330 
 19 H       -3.5810    -1.3350    -1.0840 H     1 <1>   0.0800 
 20 H       -2.4470     1.8610    -0.0800 H     1 <1>   0.0800 
 21 H       -2.0730     1.5360     1.5830 H     1 <1>   0.0800 
 22 H       -0.1230    -3.3690     1.6980 H     1 <1>   0.0800 
 23 H        0.9730    -2.0340     1.4040 H     1 <1>   0.0800 
 24 H        1.3850    -3.6280     0.8620 H     1 <1>   0.0800 
 25 H       -1.2610    -4.5110    -0.2460 H     1 <1>   0.0800 
 26 H        0.2380    -4.6620    -1.1210 H     1 <1>   0.0800 
 27 H       -1.1160    -3.8520    -1.8610 H     1 <1>   0.0800 
 28 H        1.2090    -1.0840    -0.9540 H     1 <1>   0.0800 
 29 H        0.2580    -1.7610    -2.2610 H     1 <1>   0.0800 
 30 H        1.6200    -2.6340    -1.6110 H     1 <1>   0.0800 
 31 H       -5.2830    -2.4160     0.3990 H     1 <1>   0.0800 
 32 H       -4.6240    -1.5480     1.7620 H     1 <1>   0.0800 
 33 H       -4.1720     2.8700     1.1910 H     1 <1>   0.0800 
 34 H       -4.4000     1.4480     2.1790 H     1 <1>   0.0800 
 35 H       -2.5720    -2.7230     0.7840 H     1 <1>   0.4000 
 36 H       -7.7210     1.0160    -1.6440 H     1 <1>   0.1500 
 37 H       -6.7370     2.6840     0.0040 H     1 <1>   0.2700 
@<TRIPOS>BOND
  1   1   2  2   
  2   2   3  1   
  3   2   4  am  
  4   3   5  1   
  5   4   6  1   
  6   4   7  1   
  7   5   8  1   
  8   5   9  1   
  9   5  10  1   
 10   6  11  1   
 11   6  12  1   
 12   6  19  1   
 13   7  13  1   
 14   7  20  1   
 15   7  21  1   
 16   8  22  1   
 17   8  23  1   
 18   8  24  1   
 19   9  25  1   
 20   9  26  1   
 21   9  27  1   
 22  10  28  1   
 23  10  29  1   
 24  10  30  1   
 25  11  14  1   
 26  11  15  2   
 27  12  16  1   
 28  12  31  1   
 29  12  32  1   
 30  13  15  1   
 31  13  33  1   
 32  13  34  1   
 33  14  17  2   
 34  15  18  1   
 35  16  35  1   
 36  17  18  1   
 37  17  36  1   
 38  18  37  1   
@<TRIPOS>SUBSTRUCTURE
  1 ****   4 GROUP 4 **** **** 0

# MOE 2024.06 (io_trps.svl 2023.06)
