@<TRIPOS>MOLECULE
NONAME
48 51 1 0 0 
SMALL
USER_CHARGES


@<TRIPOS>ATOM
  1 F       -1.1350     0.5140     1.9940 F     1 <1>  -0.1370 
  2 C       -1.9830     0.7360     1.0210 C.2   1 <1>  -0.0150 
  3 N       -2.1410     1.9620     0.5220 N.pl3 1 <1>   0.3340 
  4 C       -2.8000    -0.1590     0.3960 C.2   1 <1>   0.1410 
  5 C       -3.1040     1.7760    -0.4440 C.2   1 <1>   0.1420 
  6 C       -1.5890     3.2140     0.7720 C.2   1 <1>  -0.1810 
  7 N       -3.5170     0.5310    -0.5420 N.2   1 <1>  -0.5650 
  8 C       -2.8910    -1.5920     0.6600 C.2   1 <1>   0.7160 
  9 C       -3.5250     2.9040    -1.1940 C.2   1 <1>  -0.1050 
 10 C       -1.9940     4.2950     0.0540 C.2   1 <1>  -0.1380 
 11 O       -1.9640    -2.1690     1.2030 O.2   1 <1>  -0.5700 
 12 N       -3.9900    -2.3560     0.3180 N.am  1 <1>  -0.6600 
 13 C       -2.9860     4.1320    -0.9530 C.2   1 <1>  -0.1500 
 14 C       -1.4230     5.6810     0.2870 C.3   1 <1>  -0.1020 
 15 C       -5.2580    -1.8620    -0.2740 C.3   1 <1>   0.1400 
 16 C       -4.1000    -3.8010     0.6120 C.3   1 <1>   0.1400 
 17 C       -6.2290    -3.0500    -0.2320 C.3   1 <1>   0.2000 
 18 C       -5.3070    -4.2740    -0.2010 C.3   1 <1>  -0.0800 
 19 O       -6.9770    -3.0220     0.9520 O.3   1 <1>  -0.5600 
 20 C       -5.9580    -5.5540     0.3520 C.3   1 <1>   0.0200 
 21 C       -8.1090    -2.2100     0.9220 C.3   1 <1>   0.0400 
 22 C       -5.0770    -6.7850     0.2060 C.2   1 <1>  -0.0400 
 23 O       -5.4860    -7.9130     0.7240 O.3   1 <1>  -0.0190 
 24 C       -3.8890    -7.0120    -0.3770 C.2   1 <1>  -0.1500 
 25 N       -4.6360    -8.8780     0.5230 N.2   1 <1>  -0.4100 
 26 C       -3.6630    -8.3640    -0.1380 C.2   1 <1>   0.1080 
 27 C       -2.4410    -9.1320    -0.5900 C.3   1 <1>  -0.0590 
 28 H       -0.8460     3.2550     1.5470 H     1 <1>   0.1500 
 29 H       -4.2750     2.7450    -1.9480 H     1 <1>   0.1500 
 30 H       -3.2960     4.9970    -1.5150 H     1 <1>   0.1500 
 31 H       -0.9570     6.0430    -0.6120 H     1 <1>   0.0800 
 32 H       -0.6870     5.6640     1.0710 H     1 <1>   0.0800 
 33 H       -2.2080     6.3600     0.5690 H     1 <1>   0.0800 
 34 H       -5.6340    -1.0150     0.2720 H     1 <1>   0.0800 
 35 H       -5.0730    -1.5790    -1.2950 H     1 <1>   0.0800 
 36 H       -3.1960    -4.3180     0.3390 H     1 <1>   0.0800 
 37 H       -4.2800    -3.9260     1.6670 H     1 <1>   0.0800 
 38 H       -6.8990    -3.0710    -1.0750 H     1 <1>   0.0800 
 39 H       -4.9750    -4.4580    -1.2070 H     1 <1>   0.0800 
 40 H       -6.8820    -5.7360    -0.1670 H     1 <1>   0.0800 
 41 H       -6.1920    -5.4230     1.3950 H     1 <1>   0.0800 
 42 H       -8.5880    -2.2720     1.8830 H     1 <1>   0.0800 
 43 H       -8.7810    -2.5660     0.1610 H     1 <1>   0.0800 
 44 H       -7.8210    -1.1920     0.7290 H     1 <1>   0.0800 
 45 H       -3.2340    -6.3480    -0.9100 H     1 <1>   0.1500 
 46 H       -2.3660    -9.1020    -1.6610 H     1 <1>   0.0800 
 47 H       -2.5160   -10.1580    -0.2750 H     1 <1>   0.0800 
 48 H       -1.5580    -8.6990    -0.1580 H     1 <1>   0.0800 
@<TRIPOS>BOND
  1   1   2  1   
  2   2   3  1   
  3   2   4  2   
  4   3   5  1   
  5   3   6  1   
  6   4   7  1   
  7   4   8  1   
  8   5   7  2   
  9   5   9  1   
 10   6  10  2   
 11   6  28  1   
 12   8  11  2   
 13   8  12  am  
 14   9  13  2   
 15   9  29  1   
 16  10  13  1   
 17  10  14  1   
 18  12  15  1   
 19  12  16  1   
 20  13  30  1   
 21  14  31  1   
 22  14  32  1   
 23  14  33  1   
 24  15  17  1   
 25  15  34  1   
 26  15  35  1   
 27  16  18  1   
 28  16  36  1   
 29  16  37  1   
 30  17  18  1   
 31  17  19  1   
 32  17  38  1   
 33  18  20  1   
 34  18  39  1   
 35  19  21  1   
 36  20  22  1   
 37  20  40  1   
 38  20  41  1   
 39  21  42  1   
 40  21  43  1   
 41  21  44  1   
 42  22  23  1   
 43  22  24  2   
 44  23  25  1   
 45  24  26  1   
 46  24  45  1   
 47  25  26  2   
 48  26  27  1   
 49  27  46  1   
 50  27  47  1   
 51  27  48  1   
@<TRIPOS>SUBSTRUCTURE
  1 ****  12 GROUP 4 **** **** 0

# MOE 2024.06 (io_trps.svl 2023.06)
