@<TRIPOS>MOLECULE
NONAME
61 63 1 0 0 
SMALL
USER_CHARGES


@<TRIPOS>ATOM
  1 O       -4.5140     2.2100     0.2880 O.2   1 <1>  -0.5700 
  2 C       -3.5320     1.8350    -0.3220 C.2   1 <1>   0.5690 
  3 N       -3.3830     0.4720    -0.5130 N.am  1 <1>  -0.6600 
  4 C       -2.4820     2.9130    -0.7460 C.3   1 <1>   0.2040 
  5 C       -2.1510    -0.1970    -1.0540 C.3   1 <1>   0.3210 
  6 C       -4.5080    -0.4590    -0.1530 C.3   1 <1>   0.1400 
  7 C       -1.3010     2.8500     0.2410 C.ar  1 <1>  -0.1440 
  8 C       -3.0820     4.3380    -0.7250 C.3   1 <1>  -0.1600 
  9 C       -2.1080     2.8380    -2.2440 C.3   1 <1>  -0.1600 
 10 C       -1.8670    -1.5750    -0.4540 C.2   1 <1>   0.0460 
 11 C       -4.4880    -0.9040     1.3290 C.3   1 <1>   0.3430 
 12 C       -0.0120     2.4760    -0.1280 C.ar  1 <1>  -0.1500 
 13 C       -1.5370     3.1660     1.5750 C.ar  1 <1>  -0.1500 
 14 C       -3.8780     4.4910    -2.0250 C.3   1 <1>  -0.1600 
 15 C       -3.2820     3.4690    -2.9950 C.3   1 <1>  -0.1600 
 16 N       -1.4440    -1.7100     0.8220 N.2   1 <1>  -0.5650 
 17 C       -1.9560    -2.7860    -1.0570 C.2   1 <1>  -0.3320 
 18 N       -4.2480     0.2390     2.2690 N.4   1 <1>  -0.9590 
 19 C        1.0010     2.3940     0.8120 C.ar  1 <1>  -0.1500 
 20 C       -0.5270     3.0900     2.5150 C.ar  1 <1>  -0.1500 
 21 C       -1.2620    -2.9830     0.9600 C.2   1 <1>   0.0360 
 22 N       -1.5590    -3.6950    -0.1450 N.pl3 1 <1>   0.0330 
 23 C       -2.3730    -3.1860    -2.4630 C.3   1 <1>  -0.0600 
 24 C       -2.8030     0.3140     2.6500 C.3   1 <1>   0.2630 
 25 C       -5.1330     0.2020     3.4640 C.3   1 <1>   0.2630 
 26 C        0.7460     2.6950     2.1450 C.ar  1 <1>   0.0820 
 27 O        1.6740     2.6260     3.1300 O.3   1 <1>  -0.3620 
 28 C        3.0030     2.2420     2.8580 C.3   1 <1>   0.0400 
 29 H       -1.2880     0.4100    -0.8730 H     1 <1>   0.0800 
 30 H       -2.2620    -0.3040    -2.1170 H     1 <1>   0.0800 
 31 H       -4.4810    -1.3290    -0.7850 H     1 <1>   0.0800 
 32 H       -5.4470     0.0300    -0.3490 H     1 <1>   0.0800 
 33 H       -2.2770     5.0540    -0.7300 H     1 <1>   0.0800 
 34 H       -3.6940     4.5390     0.1370 H     1 <1>   0.0800 
 35 H       -1.8990     1.8560    -2.6130 H     1 <1>   0.0800 
 36 H       -1.2420     3.4530    -2.4210 H     1 <1>   0.0800 
 37 H       -3.7280    -1.6530     1.4660 H     1 <1>   0.0800 
 38 H       -5.4360    -1.3640     1.5510 H     1 <1>   0.0800 
 39 H        0.2290     2.2360    -1.1470 H     1 <1>   0.1500 
 40 H       -2.5160     3.4780     1.8940 H     1 <1>   0.1500 
 41 H       -3.7970     5.4940    -2.4070 H     1 <1>   0.0800 
 42 H       -4.9170     4.2660    -1.8520 H     1 <1>   0.0800 
 43 H       -4.0190     2.7200    -3.2270 H     1 <1>   0.0800 
 44 H       -2.9560     3.9340    -3.9100 H     1 <1>   0.0800 
 45 H       -4.4580     1.0970     1.7090 H     1 <1>   0.4500 
 46 H        1.9800     2.0950     0.4880 H     1 <1>   0.1500 
 47 H       -0.7130     3.3410     3.5430 H     1 <1>   0.1500 
 48 H       -0.9030    -3.4540     1.8600 H     1 <1>   0.1500 
 49 H       -1.4750    -4.7090    -0.2660 H     1 <1>   0.2700 
 50 H       -2.6880    -2.3310    -3.0330 H     1 <1>   0.0800 
 51 H       -3.1890    -3.8860    -2.4250 H     1 <1>   0.0800 
 52 H       -1.5470    -3.6480    -2.9760 H     1 <1>   0.0800 
 53 H       -2.4950    -0.5920     3.1450 H     1 <1>   0.0800 
 54 H       -2.6280     1.1500     3.3050 H     1 <1>   0.0800 
 55 H       -2.1920     0.4410     1.7700 H     1 <1>   0.0800 
 56 H       -4.9380    -0.6840     4.0460 H     1 <1>   0.0800 
 57 H       -6.1670     0.2010     3.1610 H     1 <1>   0.0800 
 58 H       -4.9570     1.0680     4.0810 H     1 <1>   0.0800 
 59 H        3.5520     2.2610     3.7820 H     1 <1>   0.0800 
 60 H        3.4330     2.9410     2.1620 H     1 <1>   0.0800 
 61 H        3.0030     1.2450     2.4540 H     1 <1>   0.0800 
@<TRIPOS>BOND
  1   1   2  2   
  2   2   3  am  
  3   2   4  1   
  4   3   5  1   
  5   3   6  1   
  6   4   7  1   
  7   4   8  1   
  8   4   9  1   
  9   5  10  1   
 10   5  29  1   
 11   5  30  1   
 12   6  11  1   
 13   6  31  1   
 14   6  32  1   
 15   7  12  ar  
 16   7  13  ar  
 17   8  14  1   
 18   8  33  1   
 19   8  34  1   
 20   9  15  1   
 21   9  35  1   
 22   9  36  1   
 23  10  16  1   
 24  10  17  2   
 25  11  18  1   
 26  11  37  1   
 27  11  38  1   
 28  12  19  ar  
 29  12  39  1   
 30  13  20  ar  
 31  13  40  1   
 32  14  15  1   
 33  14  41  1   
 34  14  42  1   
 35  15  43  1   
 36  15  44  1   
 37  16  21  2   
 38  17  22  1   
 39  17  23  1   
 40  18  24  1   
 41  18  25  1   
 42  18  45  1   
 43  19  26  ar  
 44  19  46  1   
 45  20  26  ar  
 46  20  47  1   
 47  21  22  1   
 48  21  48  1   
 49  22  49  1   
 50  23  50  1   
 51  23  51  1   
 52  23  52  1   
 53  24  53  1   
 54  24  54  1   
 55  24  55  1   
 56  25  56  1   
 57  25  57  1   
 58  25  58  1   
 59  26  27  1   
 60  27  28  1   
 61  28  59  1   
 62  28  60  1   
 63  28  61  1   
@<TRIPOS>SUBSTRUCTURE
  1 ****   3 GROUP 4 **** **** 0

# MOE 2024.06 (io_trps.svl 2023.06)
