@<TRIPOS>MOLECULE
NONAME
56 60 1 0 0 
SMALL
USER_CHARGES


@<TRIPOS>ATOM
  1 O        0.1080     0.6100     0.4190 O.2   1 <1>  -0.5700 
  2 C       -0.4650     1.6690     0.2260 C.2   1 <1>   0.7150 
  3 N       -1.8260     1.7170     0.4690 N.am  1 <1>  -0.6600 
  4 C        0.3000     2.8000    -0.2590 C.2   1 <1>   0.0550 
  5 C       -2.7320     2.8090    -0.0030 C.3   1 <1>   0.1400 
  6 C       -2.5190     0.5410     1.0830 C.3   1 <1>   0.1400 
  7 O        0.0790     4.0320     0.1850 O.3   1 <1>  -0.2800 
  8 C        1.3140     2.8440    -1.1480 C.2   1 <1>   0.0460 
  9 C       -3.5910     3.3700     1.1540 C.3   1 <1>   0.1440 
 10 C       -3.9690     0.8590     1.4870 C.3   1 <1>  -0.1600 
 11 C        0.9800     4.7340    -0.4740 C.2   1 <1>   0.2980 
 12 N        1.7390     4.0940    -1.2840 N.2   1 <1>  -0.5650 
 13 C        1.9750     1.7360    -1.9440 C.3   1 <1>  -0.0590 
 14 C       -4.7410     4.1360     0.5220 C.ar  1 <1>   0.1670 
 15 C       -4.0710     2.2550     2.1210 C.3   1 <1>  -0.1600 
 16 C       -2.8520     4.4930     1.9280 C.3   1 <1>  -0.1600 
 17 C        1.0230     6.2300    -0.2000 C.3   1 <1>   0.0200 
 18 N       -5.8000     3.5990    -0.0350 N.ar  1 <1>  -0.6200 
 19 C       -4.5390     5.4810     0.5810 C.ar  1 <1>  -0.1440 
 20 C       -3.2350     5.8220     1.2570 C.3   1 <1>  -0.0170 
 21 C        2.1010     6.9790    -0.9970 C.3   1 <1>  -0.2400 
 22 C       -6.6970     4.4580    -0.5380 C.ar  1 <1>   0.6200 
 23 C       -5.5010     6.2950     0.0400 C.ar  1 <1>   0.1600 
 24 N       -6.5790     5.7940    -0.5180 N.ar  1 <1>  -0.6200 
 25 C       -7.8920     3.8950    -1.1550 C.ar  1 <1>   0.0000 
 26 C       -7.8910     2.6200    -1.7300 C.ar  1 <1>  -0.1500 
 27 C       -9.0970     4.6020    -1.2000 C.ar  1 <1>  -0.1500 
 28 C       -9.0230     2.0820    -2.3150 C.ar  1 <1>  -0.1500 
 29 C      -10.2330     4.0720    -1.7830 C.ar  1 <1>  -0.1500 
 30 C      -10.1990     2.8080    -2.3430 C.ar  1 <1>  -0.1500 
 31 H       -3.3880     2.3900    -0.7480 H     1 <1>   0.0800 
 32 H       -2.1910     3.6020    -0.4840 H     1 <1>   0.0800 
 33 H       -1.9670     0.2440     1.9590 H     1 <1>   0.0800 
 34 H       -2.5050    -0.2830     0.3900 H     1 <1>   0.0800 
 35 H       -4.3140     0.1140     2.1810 H     1 <1>   0.0800 
 36 H       -4.6060     0.8070     0.6200 H     1 <1>   0.0800 
 37 H        1.4970     0.7910    -1.7630 H     1 <1>   0.0800 
 38 H        3.0090     1.6620    -1.6640 H     1 <1>   0.0800 
 39 H        1.9140     1.9610    -2.9930 H     1 <1>   0.0800 
 40 H       -5.0840     2.4450     2.4320 H     1 <1>   0.0800 
 41 H       -3.4560     2.2510     3.0040 H     1 <1>   0.0800 
 42 H       -1.7890     4.3390     1.9600 H     1 <1>   0.0800 
 43 H       -3.2160     4.5260     2.9400 H     1 <1>   0.0800 
 44 H        1.1980     6.3740     0.8500 H     1 <1>   0.0800 
 45 H        0.0600     6.6440    -0.4360 H     1 <1>   0.0800 
 46 H       -2.5040     6.1000     0.5170 H     1 <1>   0.0800 
 47 H       -3.3500     6.6130     1.9780 H     1 <1>   0.0800 
 48 H        3.0750     6.5870    -0.7610 H     1 <1>   0.0800 
 49 H        2.0810     8.0280    -0.7600 H     1 <1>   0.0800 
 50 H        1.9310     6.8580    -2.0530 H     1 <1>   0.0800 
 51 H       -5.3870     7.3650     0.0630 H     1 <1>   0.1500 
 52 H       -6.9850     2.0390    -1.7190 H     1 <1>   0.1500 
 53 H       -9.1440     5.5870    -0.7690 H     1 <1>   0.1500 
 54 H       -8.9890     1.0980    -2.7490 H     1 <1>   0.1500 
 55 H      -11.1450     4.6430    -1.8010 H     1 <1>   0.1500 
 56 H      -11.0820     2.3930    -2.7970 H     1 <1>   0.1500 
@<TRIPOS>BOND
  1   1   2  2   
  2   2   3  am  
  3   2   4  1   
  4   3   5  1   
  5   3   6  1   
  6   4   7  1   
  7   4   8  2   
  8   5   9  1   
  9   5  31  1   
 10   5  32  1   
 11   6  10  1   
 12   6  33  1   
 13   6  34  1   
 14   7  11  1   
 15   8  12  1   
 16   8  13  1   
 17   9  14  1   
 18   9  15  1   
 19   9  16  1   
 20  10  15  1   
 21  10  35  1   
 22  10  36  1   
 23  11  12  2   
 24  11  17  1   
 25  13  37  1   
 26  13  38  1   
 27  13  39  1   
 28  14  18  ar  
 29  14  19  ar  
 30  15  40  1   
 31  15  41  1   
 32  16  20  1   
 33  16  42  1   
 34  16  43  1   
 35  17  21  1   
 36  17  44  1   
 37  17  45  1   
 38  18  22  ar  
 39  19  20  1   
 40  19  23  ar  
 41  20  46  1   
 42  20  47  1   
 43  21  48  1   
 44  21  49  1   
 45  21  50  1   
 46  22  24  ar  
 47  22  25  1   
 48  23  24  ar  
 49  23  51  1   
 50  25  26  ar  
 51  25  27  ar  
 52  26  28  ar  
 53  26  52  1   
 54  27  29  ar  
 55  27  53  1   
 56  28  30  ar  
 57  28  54  1   
 58  29  30  ar  
 59  29  55  1   
 60  30  56  1   
@<TRIPOS>SUBSTRUCTURE
  1 ****   5 GROUP 4 **** **** 0

# MOE 2024.06 (io_trps.svl 2023.06)
