@<TRIPOS>MOLECULE
NONAME
45 47 1 0 0 
SMALL
USER_CHARGES


@<TRIPOS>ATOM
  1 O       -0.6030     0.2990     0.8250 O.2   1 <1>  -0.5700 
  2 C       -1.5040     0.8320     0.2220 C.2   1 <1>   0.5690 
  3 N       -2.5530     0.1050    -0.2640 N.am  1 <1>  -0.6600 
  4 C       -1.4750     2.3380     0.0130 C.3   1 <1>  -0.0990 
  5 C       -3.8050     0.6310    -0.8660 C.3   1 <1>   0.1400 
  6 C       -2.6410    -1.3680    -0.1050 C.3   1 <1>   0.1400 
  7 C       -0.1040     2.9730     0.2860 C.3   1 <1>  -0.0160 
  8 C       -4.8360    -0.4610    -0.5900 C.3   1 <1>   0.2000 
  9 C       -4.0170    -1.7550    -0.6610 C.3   1 <1>  -0.0800 
 10 C       -0.1550     4.4660     0.0060 C.ar  1 <1>  -0.1440 
 11 O       -5.3120    -0.2840     0.7010 O.3   1 <1>  -0.6800 
 12 C       -4.6490    -2.9760     0.0330 C.3   1 <1>  -0.0170 
 13 C        0.1600     4.9530    -1.2530 C.ar  1 <1>  -0.1500 
 14 C       -0.5230     5.3530     1.0060 C.ar  1 <1>  -0.1500 
 15 C       -3.8010    -4.2200    -0.1770 C.ar  1 <1>  -0.1440 
 16 C        0.1060     6.3120    -1.5110 C.ar  1 <1>  -0.1500 
 17 C       -0.5780     6.7120     0.7490 C.ar  1 <1>  -0.1500 
 18 C       -3.9000    -4.9820    -1.3240 C.ar  1 <1>  -0.1500 
 19 C       -2.8870    -4.6520     0.7640 C.ar  1 <1>  -0.1500 
 20 C       -0.2640     7.1920    -0.5100 C.ar  1 <1>  -0.1500 
 21 C       -3.1020    -6.1040    -1.4720 C.ar  1 <1>   0.1600 
 22 C       -2.1360    -5.7900     0.5170 C.ar  1 <1>   0.1600 
 23 N       -2.2210    -6.5260    -0.5790 N.ar  1 <1>  -0.6200 
 24 H       -1.7520     2.5500    -1.0030 H     1 <1>   0.0800 
 25 H       -2.2040     2.7850     0.6620 H     1 <1>   0.0800 
 26 H       -4.1030     1.5730    -0.4390 H     1 <1>   0.0800 
 27 H       -3.6630     0.7410    -1.9270 H     1 <1>   0.0800 
 28 H       -1.8460    -1.8570    -0.6420 H     1 <1>   0.0800 
 29 H       -2.5630    -1.6110     0.9410 H     1 <1>   0.0800 
 30 H        0.6420     2.5090    -0.3360 H     1 <1>   0.0800 
 31 H        0.1790     2.8040     1.3110 H     1 <1>   0.0800 
 32 H       -5.6710    -0.4410    -1.2700 H     1 <1>   0.0800 
 33 H       -3.8820    -1.9950    -1.7010 H     1 <1>   0.0800 
 34 H       -4.5480    -0.1690     1.3020 H     1 <1>   0.4000 
 35 H       -5.6340    -3.1450    -0.3680 H     1 <1>   0.0800 
 36 H       -4.7610    -2.7930     1.0880 H     1 <1>   0.0800 
 37 H        0.4500     4.2760    -2.0380 H     1 <1>   0.1500 
 38 H       -0.7690     4.9880     1.9880 H     1 <1>   0.1500 
 39 H        0.3520     6.6840    -2.4900 H     1 <1>   0.1500 
 40 H       -0.8640     7.3950     1.5300 H     1 <1>   0.1500 
 41 H       -4.5890    -4.7150    -2.1030 H     1 <1>   0.1500 
 42 H       -2.7510    -4.1180     1.6860 H     1 <1>   0.1500 
 43 H       -0.3060     8.2490    -0.7090 H     1 <1>   0.1500 
 44 H       -3.1930    -6.6860    -2.3730 H     1 <1>   0.1500 
 45 H       -1.4280    -6.1100     1.2620 H     1 <1>   0.1500 
@<TRIPOS>BOND
  1   1   2  2   
  2   2   3  am  
  3   2   4  1   
  4   3   5  1   
  5   3   6  1   
  6   4   7  1   
  7   4  24  1   
  8   4  25  1   
  9   5   8  1   
 10   5  26  1   
 11   5  27  1   
 12   6   9  1   
 13   6  28  1   
 14   6  29  1   
 15   7  10  1   
 16   7  30  1   
 17   7  31  1   
 18   8   9  1   
 19   8  11  1   
 20   8  32  1   
 21   9  12  1   
 22   9  33  1   
 23  10  13  ar  
 24  10  14  ar  
 25  11  34  1   
 26  12  15  1   
 27  12  35  1   
 28  12  36  1   
 29  13  16  ar  
 30  13  37  1   
 31  14  17  ar  
 32  14  38  1   
 33  15  18  ar  
 34  15  19  ar  
 35  16  20  ar  
 36  16  39  1   
 37  17  20  ar  
 38  17  40  1   
 39  18  21  ar  
 40  18  41  1   
 41  19  22  ar  
 42  19  42  1   
 43  20  43  1   
 44  21  23  ar  
 45  21  44  1   
 46  22  23  ar  
 47  22  45  1   
@<TRIPOS>SUBSTRUCTURE
  1 ****   3 GROUP 4 **** **** 0

# MOE 2024.06 (io_trps.svl 2023.06)
