@<TRIPOS>MOLECULE
NONAME
45 47 1 0 0 
SMALL
USER_CHARGES


@<TRIPOS>ATOM
  1 CL      -0.0210     1.3490    -1.4410 Cl    1 <1>  -0.1770 
  2 C       -1.6480     1.3650    -0.8130 C.ar  1 <1>   0.1770 
  3 C       -2.2890     2.5730    -0.6160 C.ar  1 <1>  -0.1500 
  4 C       -2.2780     0.1710    -0.5190 C.ar  1 <1>  -0.1500 
  5 C       -3.5800     2.5800    -0.1170 C.ar  1 <1>  -0.1500 
  6 C       -3.5680     0.1910    -0.0200 C.ar  1 <1>  -0.1500 
  7 C       -4.2500     1.3920     0.1900 C.ar  1 <1>   0.0530 
  8 C       -5.5900     1.4280     0.7200 C.2   1 <1>   0.0870 
  9 O       -5.9080     2.3590     1.5850 O.3   1 <1>  -0.0190 
 10 C       -6.7010     0.6600     0.5390 C.2   1 <1>  -0.0860 
 11 N       -7.1420     2.2710     2.0040 N.2   1 <1>  -0.4100 
 12 C       -7.6380     1.2660     1.3850 C.2   1 <1>   0.3720 
 13 C       -6.9250    -0.4850    -0.2910 C.2   1 <1>   0.7160 
 14 N       -8.9610     0.9040     1.5920 N.pl3 1 <1>  -0.8520 
 15 O       -6.1920    -0.7450    -1.2260 O.2   1 <1>  -0.5700 
 16 N       -7.9740    -1.3150    -0.0480 N.am  1 <1>  -0.7300 
 17 C       -9.8820     1.2990     0.4900 C.3   1 <1>   0.2090 
 18 C       -8.3830    -2.4830    -0.8560 C.3   1 <1>   0.2200 
 19 C      -11.2020     0.5390     0.6080 C.3   1 <1>   0.1200 
 20 C       -9.8430    -2.3520    -1.2720 C.3   1 <1>   0.1200 
 21 C       -8.4450    -3.7000     0.0390 C.3   1 <1>  -0.1600 
 22 O      -11.9340     0.7400    -0.5600 O.3   1 <1>  -0.5600 
 23 O      -10.5960    -2.7810    -0.1750 O.3   1 <1>  -0.5600 
 24 C       -9.8460    -3.6290     0.6420 C.3   1 <1>   0.1200 
 25 C      -13.0590    -0.0740    -0.6570 C.3   1 <1>   0.0400 
 26 H       -1.7810     3.4910    -0.8500 H     1 <1>   0.1500 
 27 H       -1.7620    -0.7580    -0.6810 H     1 <1>   0.1500 
 28 H       -4.0810     3.5190     0.0380 H     1 <1>   0.1500 
 29 H       -4.0540    -0.7410     0.2110 H     1 <1>   0.1500 
 30 H       -9.2660     1.3780     2.4500 H     1 <1>   0.4000 
 31 H       -8.6380    -1.0160     0.6780 H     1 <1>   0.3700 
 32 H       -9.4310     1.0680    -0.4610 H     1 <1>   0.0800 
 33 H      -10.0700     2.3580     0.5350 H     1 <1>   0.0800 
 34 H       -7.7280    -2.6180    -1.7010 H     1 <1>   0.0800 
 35 H      -11.7780     0.9010     1.4410 H     1 <1>   0.0800 
 36 H      -11.0110    -0.5130     0.7200 H     1 <1>   0.0800 
 37 H      -10.0610    -3.0110    -2.0950 H     1 <1>   0.0800 
 38 H      -10.1140    -1.3430    -1.5310 H     1 <1>   0.0800 
 39 H       -7.6710    -3.7140     0.7850 H     1 <1>   0.0800 
 40 H       -8.3670    -4.5920    -0.5570 H     1 <1>   0.0800 
 41 H       -9.8220    -3.1960     1.6280 H     1 <1>   0.0800 
 42 H      -10.3220    -4.5940     0.6770 H     1 <1>   0.0800 
 43 H      -13.5600     0.1540    -1.5810 H     1 <1>   0.0800 
 44 H      -13.7160     0.1250     0.1720 H     1 <1>   0.0800 
 45 H      -12.7520    -1.1070    -0.6570 H     1 <1>   0.0800 
@<TRIPOS>BOND
  1   1   2  1   
  2   2   3  ar  
  3   2   4  ar  
  4   3   5  ar  
  5   3  26  1   
  6   4   6  ar  
  7   4  27  1   
  8   5   7  ar  
  9   5  28  1   
 10   6   7  ar  
 11   6  29  1   
 12   7   8  1   
 13   8   9  1   
 14   8  10  2   
 15   9  11  1   
 16  10  12  1   
 17  10  13  1   
 18  11  12  2   
 19  12  14  1   
 20  13  15  2   
 21  13  16  am  
 22  14  17  1   
 23  14  30  1   
 24  16  18  1   
 25  16  31  1   
 26  17  19  1   
 27  17  32  1   
 28  17  33  1   
 29  18  20  1   
 30  18  21  1   
 31  18  34  1   
 32  19  22  1   
 33  19  35  1   
 34  19  36  1   
 35  20  23  1   
 36  20  37  1   
 37  20  38  1   
 38  21  24  1   
 39  21  39  1   
 40  21  40  1   
 41  22  25  1   
 42  23  24  1   
 43  24  41  1   
 44  24  42  1   
 45  25  43  1   
 46  25  44  1   
 47  25  45  1   
@<TRIPOS>SUBSTRUCTURE
  1 ****  13 GROUP 4 **** **** 0

# MOE 2024.06 (io_trps.svl 2023.06)
