@<TRIPOS>MOLECULE
NONAME
46 47 1 0 0 
SMALL
USER_CHARGES


@<TRIPOS>ATOM
  1 S       -0.1480    -0.4460     1.3950 S.o2  1 <1>   1.4470 
  2 O       -0.6500     0.2880     2.5380 O.2   1 <1>  -0.6500 
  3 O        0.5940    -1.6640     1.6530 O.2   1 <1>  -0.6500 
  4 N       -1.4650    -0.8790     0.4140 N.am  1 <1>  -0.8490 
  5 C        0.8700     0.5630     0.2760 C.ar  1 <1>  -0.0090 
  6 C       -2.0250    -2.2170     0.7550 C.3   1 <1>   0.1960 
  7 C       -2.4910     0.1800     0.2600 C.3   1 <1>   0.1960 
  8 C        0.7070     1.9420     0.1360 C.ar  1 <1>   0.0820 
  9 C        1.8410    -0.0570    -0.5040 C.ar  1 <1>  -0.1500 
 10 C       -3.2110    -2.5360    -0.1720 C.3   1 <1>   0.2000 
 11 C       -3.8810    -0.2400     0.7580 C.3   1 <1>  -0.1600 
 12 O       -0.2500     2.5550     0.8730 O.3   1 <1>  -0.3630 
 13 C        1.5100     2.6620    -0.7490 C.ar  1 <1>  -0.1500 
 14 C        2.6380     0.6550    -1.3820 C.ar  1 <1>  -0.1500 
 15 O       -2.7310    -2.3470    -1.4640 O.3   1 <1>  -0.6800 
 16 C       -4.4050    -1.5890     0.1700 C.3   1 <1>  -0.1060 
 17 C       -0.2900     3.9530     1.0550 C.3   1 <1>   0.0400 
 18 C        2.4720     2.0200    -1.5030 C.ar  1 <1>  -0.1500 
 19 C       -5.1980    -2.2700     1.3130 C.2   1 <1>   0.9060 
 20 C       -5.3740    -1.3680    -1.0430 C.3   1 <1>  -0.1600 
 21 O       -6.2590    -1.7600     1.6960 O.co2 1 <1>  -0.9000 
 22 O       -4.7460    -3.2770     1.8750 O.co2 1 <1>  -0.9000 
 23 C       -4.9790    -0.3250    -2.1120 C.3   1 <1>  -0.1600 
 24 C       -6.0290    -0.2690    -3.2250 C.3   1 <1>  -0.2400 
 25 H       -1.2740    -2.9780     0.6290 H     1 <1>   0.0800 
 26 H       -2.3450    -2.2440     1.7840 H     1 <1>   0.0800 
 27 H       -2.2050     1.0730     0.7840 H     1 <1>   0.0800 
 28 H       -2.5590     0.4340    -0.7840 H     1 <1>   0.0800 
 29 H        1.9780    -1.1230    -0.4220 H     1 <1>   0.1500 
 30 H       -3.5000    -3.5700    -0.0970 H     1 <1>   0.0800 
 31 H       -3.8090    -0.3260     1.8300 H     1 <1>   0.0800 
 32 H       -4.5960     0.5420     0.5840 H     1 <1>   0.0800 
 33 H        1.3960     3.7230    -0.8690 H     1 <1>   0.1500 
 34 H        3.3840     0.1460    -1.9690 H     1 <1>   0.1500 
 35 H       -2.1060    -1.5940    -1.3870 H     1 <1>   0.4000 
 36 H       -1.0460     4.1700     1.7880 H     1 <1>   0.0800 
 37 H       -0.5420     4.4210     0.1210 H     1 <1>   0.0800 
 38 H        0.6690     4.2870     1.4110 H     1 <1>   0.0800 
 39 H        3.0900     2.5790    -2.1850 H     1 <1>   0.1500 
 40 H       -5.5320    -2.3200    -1.5180 H     1 <1>   0.0800 
 41 H       -6.3310    -1.0600    -0.6580 H     1 <1>   0.0800 
 42 H       -4.9030     0.6500    -1.6670 H     1 <1>   0.0800 
 43 H       -4.0310    -0.5660    -2.5530 H     1 <1>   0.0800 
 44 H       -6.9900    -0.0040    -2.8200 H     1 <1>   0.0800 
 45 H       -6.1080    -1.2270    -3.7080 H     1 <1>   0.0800 
 46 H       -5.7490     0.4650    -3.9600 H     1 <1>   0.0800 
@<TRIPOS>BOND
  1   1   2  2   
  2   1   3  2   
  3   1   4  am  
  4   1   5  1   
  5   4   6  1   
  6   4   7  1   
  7   5   8  ar  
  8   5   9  ar  
  9   6  10  1   
 10   6  25  1   
 11   6  26  1   
 12   7  11  1   
 13   7  27  1   
 14   7  28  1   
 15   8  12  1   
 16   8  13  ar  
 17   9  14  ar  
 18   9  29  1   
 19  10  15  1   
 20  10  16  1   
 21  10  30  1   
 22  11  16  1   
 23  11  31  1   
 24  11  32  1   
 25  12  17  1   
 26  13  18  ar  
 27  13  33  1   
 28  14  18  ar  
 29  14  34  1   
 30  15  35  1   
 31  16  19  1   
 32  16  20  1   
 33  17  36  1   
 34  17  37  1   
 35  17  38  1   
 36  18  39  1   
 37  19  21  ar  
 38  19  22  ar  
 39  20  23  1   
 40  20  40  1   
 41  20  41  1   
 42  23  24  1   
 43  23  42  1   
 44  23  43  1   
 45  24  44  1   
 46  24  45  1   
 47  24  46  1   
@<TRIPOS>SUBSTRUCTURE
  1 ****   4 GROUP 4 **** **** 0

# MOE 2024.06 (io_trps.svl 2023.06)
