@<TRIPOS>MOLECULE
NONAME
30 31 1 0 0 
SMALL
USER_CHARGES


@<TRIPOS>ATOM
  1 F       -0.8160    -0.5360     1.6560 F     1 <1>  -0.1900 
  2 C       -1.8630    -1.0700     1.0750 C.ar  1 <1>   0.1900 
  3 C       -2.8170    -0.2760     0.4910 C.ar  1 <1>   0.1600 
  4 C       -2.0240    -2.4320     1.0400 C.ar  1 <1>   0.1600 
  5 N       -3.8730    -0.8010    -0.0940 N.ar  1 <1>  -0.6200 
  6 N       -3.0710    -2.9760     0.4590 N.ar  1 <1>  -0.6200 
  7 C       -3.9550    -2.1360    -0.0900 C.ar  1 <1>   0.7200 
  8 N       -5.0550    -2.6950    -0.7010 N.pl3 1 <1>  -0.8380 
  9 C       -5.1170    -4.1410    -1.0740 C.3   1 <1>   0.2090 
 10 C       -6.3730    -2.0090    -0.7190 C.3   1 <1>   0.2090 
 11 C       -6.0670    -4.8890    -0.1240 C.3   1 <1>   0.2000 
 12 C       -7.3160    -2.7180     0.2600 C.3   1 <1>  -0.1600 
 13 O       -6.2120    -6.2040    -0.5510 O.3   1 <1>  -0.6800 
 14 C       -7.4590    -4.2270    -0.0490 C.3   1 <1>  -0.0800 
 15 C       -8.3350    -4.9490     0.9890 C.3   1 <1>   0.1200 
 16 O       -9.5910    -4.3660     1.0330 O.3   1 <1>  -0.6800 
 17 H       -2.7110     0.7940     0.5060 H     1 <1>   0.1500 
 18 H       -1.2880    -3.0730     1.4930 H     1 <1>   0.1500 
 19 H       -5.4800    -4.2150    -2.0830 H     1 <1>   0.0800 
 20 H       -4.1410    -4.5930    -1.0370 H     1 <1>   0.0800 
 21 H       -6.2810    -0.9730    -0.4400 H     1 <1>   0.0800 
 22 H       -6.7760    -2.0460    -1.7160 H     1 <1>   0.0800 
 23 H       -5.6150    -4.9180     0.8530 H     1 <1>   0.0800 
 24 H       -6.9350    -2.5810     1.2570 H     1 <1>   0.0800 
 25 H       -8.2760    -2.2380     0.2030 H     1 <1>   0.0800 
 26 H       -6.6890    -6.2370    -1.4030 H     1 <1>   0.4000 
 27 H       -7.9260    -4.3250    -1.0130 H     1 <1>   0.0800 
 28 H       -7.9000    -4.8960     1.9720 H     1 <1>   0.0800 
 29 H       -8.4670    -5.9850     0.7220 H     1 <1>   0.0800 
 30 H       -9.5320    -3.4590     1.3900 H     1 <1>   0.4000 
@<TRIPOS>BOND
  1   1   2  1   
  2   2   3  ar  
  3   2   4  ar  
  4   3   5  ar  
  5   3  17  1   
  6   4   6  ar  
  7   4  18  1   
  8   5   7  ar  
  9   6   7  ar  
 10   7   8  1   
 11   8   9  1   
 12   8  10  1   
 13   9  11  1   
 14   9  19  1   
 15   9  20  1   
 16  10  12  1   
 17  10  21  1   
 18  10  22  1   
 19  11  13  1   
 20  11  14  1   
 21  11  23  1   
 22  12  14  1   
 23  12  24  1   
 24  12  25  1   
 25  13  26  1   
 26  14  15  1   
 27  14  27  1   
 28  15  16  1   
 29  15  28  1   
 30  15  29  1   
 31  16  30  1   
@<TRIPOS>SUBSTRUCTURE
  1 ****   8 GROUP 4 **** **** 0

# MOE 2024.06 (io_trps.svl 2023.06)
