@<TRIPOS>MOLECULE
NONAME
50 53 1 0 0 
SMALL
USER_CHARGES


@<TRIPOS>ATOM
  1 O        0.0890    -0.2030    -0.5420 O.2   1 <1>  -0.5700 
  2 C        1.0680    -0.7860    -0.1170 C.2   1 <1>   0.5440 
  3 N        2.0720    -0.0910     0.5060 N.am  1 <1>  -0.4930 
  4 C        1.1770    -2.2250    -0.2610 C.ar  1 <1>   0.0860 
  5 C        2.2320     1.3030     0.7030 C.2   1 <1>   0.0630 
  6 C        2.4040    -2.8650    -0.4430 C.ar  1 <1>  -0.1500 
  7 C        0.0450    -3.0370    -0.2210 C.ar  1 <1>  -0.1500 
  8 C        1.3100     2.2630     1.1320 C.2   1 <1>   0.1080 
  9 C        3.3850     1.9870     0.5320 C.2   1 <1>  -0.3320 
 10 C        2.4920    -4.2390    -0.5580 C.ar  1 <1>  -0.1500 
 11 C        0.1330    -4.4110    -0.3380 C.ar  1 <1>  -0.1500 
 12 N        1.8390     3.4440     1.2220 N.2   1 <1>  -0.7070 
 13 C       -0.1410     2.0230     1.4860 C.3   1 <1>  -0.0590 
 14 N        3.1170     3.2810     0.8440 N.pl3 1 <1>   0.3140 
 15 C        4.7470     1.4840     0.0720 C.3   1 <1>  -0.0600 
 16 C        1.3600    -5.0550    -0.5050 C.ar  1 <1>   0.0540 
 17 C        4.0430     4.4320     0.7990 C.3   1 <1>   0.0960 
 18 C        1.4620    -6.4990    -0.6220 C.2   1 <1>   0.4620 
 19 C        4.0330     5.0900    -0.5880 C.3   1 <1>  -0.1600 
 20 N        2.5530    -7.1620    -0.7820 N.2   1 <1>  -0.4100 
 21 N        0.3970    -7.3030    -0.5710 N.2   1 <1>  -0.5650 
 22 C        5.0020     6.2770    -0.6520 C.3   1 <1>  -0.2400 
 23 O        2.2470    -8.4200    -0.8420 O.3   1 <1>  -0.0190 
 24 C        0.9460    -8.4380    -0.7090 C.2   1 <1>   0.3930 
 25 C        0.2380    -9.7840    -0.7350 C.3   1 <1>  -0.0150 
 26 C       -1.0560   -10.0060    -0.0100 C.3   1 <1>  -0.2000 
 27 C        0.2040   -10.6470     0.4900 C.3   1 <1>  -0.2000 
 28 H        2.8530    -0.6420     0.8480 H     1 <1>   0.3700 
 29 H        3.3060    -2.2820    -0.5080 H     1 <1>   0.1500 
 30 H       -0.9200    -2.5750    -0.0970 H     1 <1>   0.1500 
 31 H        3.4580    -4.6940    -0.6970 H     1 <1>   0.1500 
 32 H       -0.7690    -4.9980    -0.2990 H     1 <1>   0.1500 
 33 H       -0.2660     1.0400     1.8980 H     1 <1>   0.0800 
 34 H       -0.7420     2.1150     0.6000 H     1 <1>   0.0800 
 35 H       -0.4660     2.7500     2.2070 H     1 <1>   0.0800 
 36 H        4.7050     0.4370    -0.1650 H     1 <1>   0.0800 
 37 H        5.4780     1.6320     0.8460 H     1 <1>   0.0800 
 38 H        5.0580     2.0150    -0.8100 H     1 <1>   0.0800 
 39 H        5.0300     4.0940     1.0500 H     1 <1>   0.0800 
 40 H        3.7250     5.1410     1.5420 H     1 <1>   0.0800 
 41 H        3.0350     5.4340    -0.8040 H     1 <1>   0.0800 
 42 H        4.3100     4.3660    -1.3340 H     1 <1>   0.0800 
 43 H        4.7280     7.0250     0.0710 H     1 <1>   0.0800 
 44 H        4.9700     6.7230    -1.6310 H     1 <1>   0.0800 
 45 H        6.0100     5.9550    -0.4560 H     1 <1>   0.0800 
 46 H        0.3570   -10.2750    -1.6830 H     1 <1>   0.1000 
 47 H       -1.8060   -10.6210    -0.4750 H     1 <1>   0.1000 
 48 H       -1.4800    -9.1900     0.5490 H     1 <1>   0.1000 
 49 H        0.6440   -10.2750     1.4000 H     1 <1>   0.1000 
 50 H        0.3290   -11.7100     0.3750 H     1 <1>   0.1000 
@<TRIPOS>BOND
  1   1   2  2   
  2   2   3  am  
  3   2   4  1   
  4   3   5  1   
  5   3  28  1   
  6   4   6  ar  
  7   4   7  ar  
  8   5   8  1   
  9   5   9  2   
 10   6  10  ar  
 11   6  29  1   
 12   7  11  ar  
 13   7  30  1   
 14   8  12  2   
 15   8  13  1   
 16   9  14  1   
 17   9  15  1   
 18  10  16  ar  
 19  10  31  1   
 20  11  16  ar  
 21  11  32  1   
 22  12  14  1   
 23  13  33  1   
 24  13  34  1   
 25  13  35  1   
 26  14  17  1   
 27  15  36  1   
 28  15  37  1   
 29  15  38  1   
 30  16  18  1   
 31  17  19  1   
 32  17  39  1   
 33  17  40  1   
 34  18  20  2   
 35  18  21  1   
 36  19  22  1   
 37  19  41  1   
 38  19  42  1   
 39  20  23  1   
 40  21  24  2   
 41  22  43  1   
 42  22  44  1   
 43  22  45  1   
 44  23  24  1   
 45  24  25  1   
 46  25  26  1   
 47  25  27  1   
 48  25  46  1   
 49  26  27  1   
 50  26  47  1   
 51  26  48  1   
 52  27  49  1   
 53  27  50  1   
@<TRIPOS>SUBSTRUCTURE
  1 ****   4 GROUP 4 **** **** 0

# MOE 2024.06 (io_trps.svl 2023.06)
