@<TRIPOS>MOLECULE
NONAME
33 34 1 0 0 
SMALL
USER_CHARGES


@<TRIPOS>ATOM
  1 O        0.0940    -1.8770     1.5130 O.3   1 <1>  -0.6800 
  2 C        0.2250    -1.8100     0.1290 C.3   1 <1>   0.4240 
  3 C        1.6870    -1.4430    -0.2140 C.ar  1 <1>  -0.1440 
  4 C       -0.1560    -3.2080    -0.4400 C.3   1 <1>  -0.0800 
  5 C       -0.7460    -0.7110    -0.3730 C.3   1 <1>   0.1200 
  6 C        2.6090    -1.0420     0.7530 C.ar  1 <1>  -0.1500 
  7 C        2.1190    -1.4990    -1.5360 C.ar  1 <1>  -0.1500 
  8 C       -1.5480    -3.7450    -0.0690 C.3   1 <1>  -0.1600 
  9 C        0.7830    -4.3540    -0.0440 C.3   1 <1>  -0.1600 
 10 O       -0.5930     0.4730     0.3440 O.3   1 <1>  -0.6800 
 11 C        3.9140    -0.7330     0.4120 C.ar  1 <1>  -0.1500 
 12 C        3.4230    -1.1900    -1.8800 C.ar  1 <1>  -0.1500 
 13 C       -1.4730    -5.2650    -0.2500 C.3   1 <1>  -0.1600 
 14 C        0.0090    -5.6200    -0.4030 C.3   1 <1>  -0.1600 
 15 C        4.3250    -0.8090    -0.9050 C.ar  1 <1>  -0.1500 
 16 H        0.7050    -2.5670     1.8290 H     1 <1>   0.4000 
 17 H       -0.1340    -3.1460    -1.5140 H     1 <1>   0.0800 
 18 H       -1.7640    -1.0320    -0.2480 H     1 <1>   0.0800 
 19 H       -0.5770    -0.4950    -1.4130 H     1 <1>   0.0800 
 20 H        2.3280    -0.9540     1.7870 H     1 <1>   0.1500 
 21 H        1.4430    -1.7810    -2.3230 H     1 <1>   0.1500 
 22 H       -1.7730    -3.5310     0.9620 H     1 <1>   0.0800 
 23 H       -2.3190    -3.3160    -0.6860 H     1 <1>   0.0800 
 24 H        1.7270    -4.3050    -0.5600 H     1 <1>   0.0800 
 25 H        0.9620    -4.3460     1.0170 H     1 <1>   0.0800 
 26 H       -0.3980     0.2260     1.2740 H     1 <1>   0.4000 
 27 H        4.6100    -0.4280     1.1740 H     1 <1>   0.1500 
 28 H        3.7360    -1.2430    -2.9080 H     1 <1>   0.1500 
 29 H       -1.8960    -5.7600     0.6080 H     1 <1>   0.0800 
 30 H       -2.0180    -5.5710    -1.1270 H     1 <1>   0.0800 
 31 H        0.2080    -5.8800    -1.4290 H     1 <1>   0.0800 
 32 H        0.2900    -6.4480     0.2260 H     1 <1>   0.0800 
 33 H        5.3400    -0.5690    -1.1700 H     1 <1>   0.1500 
@<TRIPOS>BOND
  1   1   2  1   
  2   1  16  1   
  3   2   3  1   
  4   2   4  1   
  5   2   5  1   
  6   3   6  ar  
  7   3   7  ar  
  8   4   8  1   
  9   4   9  1   
 10   4  17  1   
 11   5  10  1   
 12   5  18  1   
 13   5  19  1   
 14   6  11  ar  
 15   6  20  1   
 16   7  12  ar  
 17   7  21  1   
 18   8  13  1   
 19   8  22  1   
 20   8  23  1   
 21   9  14  1   
 22   9  24  1   
 23   9  25  1   
 24  10  26  1   
 25  11  15  ar  
 26  11  27  1   
 27  12  15  ar  
 28  12  28  1   
 29  13  14  1   
 30  13  29  1   
 31  13  30  1   
 32  14  31  1   
 33  14  32  1   
 34  15  33  1   
@<TRIPOS>SUBSTRUCTURE
  1 ****   2 GROUP 4 **** **** 0

# MOE 2024.06 (io_trps.svl 2023.06)
