@<TRIPOS>MOLECULE
NONAME
55 58 1 0 0 
SMALL
USER_CHARGES


@<TRIPOS>ATOM
  1 O       -0.4380    -0.1680    -1.7890 O.2   1 <1>  -0.5700 
  2 C       -1.3510    -0.6440    -1.1400 C.2   1 <1>   0.5440 
  3 N       -1.3260    -1.9980    -0.8330 N.am  1 <1>  -0.6600 
  4 C       -2.4580     0.2180    -0.7800 C.ar  1 <1>   0.0860 
  5 C       -0.1180    -2.9050    -0.9170 C.3   1 <1>   0.2200 
  6 C       -2.6020    -2.7390    -0.6010 C.3   1 <1>   0.1400 
  7 C       -2.8630     0.4130     0.5450 C.ar  1 <1>   0.0820 
  8 C       -3.1600     0.8940    -1.7810 C.ar  1 <1>  -0.1500 
  9 C        0.0380    -3.7470     0.3840 C.3   1 <1>   0.0000 
 10 C        1.2200    -2.2180    -1.2980 C.3   1 <1>   0.3430 
 11 C       -2.5070    -3.5840     0.6700 C.3   1 <1>  -0.1600 
 12 O       -2.1760    -0.1830     1.5540 O.3   1 <1>  -0.3630 
 13 C       -3.9640     1.2260     0.8350 C.ar  1 <1>   0.0820 
 14 C       -4.2360     1.7110    -1.4910 C.ar  1 <1>  -0.1500 
 15 C        1.1770    -4.7980     0.1980 C.3   1 <1>  -0.1600 
 16 C       -1.2850    -4.5140     0.6360 C.3   1 <1>  -0.1600 
 17 C        0.3020    -2.8400     1.6270 C.3   1 <1>   0.1200 
 18 N        2.4440    -2.9730    -0.8570 N.4   1 <1>  -0.9590 
 19 C       -2.4000     0.2850     2.8710 C.3   1 <1>   0.1200 
 20 O       -4.3990     1.4020     2.1080 O.3   1 <1>  -0.3630 
 21 C       -4.6430     1.8750    -0.1780 C.ar  1 <1>  -0.1500 
 22 C        2.2370    -4.4360    -0.8550 C.3   1 <1>   0.3430 
 23 O        1.6150    -2.3730     1.7040 O.3   1 <1>  -0.6800 
 24 C        3.6800    -2.5450    -1.5520 C.3   1 <1>   0.3430 
 25 C       -3.8960     0.5240     3.0950 C.3   1 <1>   0.1200 
 26 C        4.0170    -1.1110    -1.1590 C.3   1 <1>  -0.2400 
 27 H       -0.3250    -3.5950    -1.7160 H     1 <1>   0.0800 
 28 H       -3.4390    -2.0680    -0.5170 H     1 <1>   0.0800 
 29 H       -2.7880    -3.3810    -1.4460 H     1 <1>   0.0800 
 30 H       -2.8460     0.7730    -2.8040 H     1 <1>   0.1500 
 31 H        1.2460    -1.2510    -0.8240 H     1 <1>   0.0800 
 32 H        1.2370    -2.0660    -2.3630 H     1 <1>   0.0800 
 33 H       -2.4720    -2.9340     1.5260 H     1 <1>   0.0800 
 34 H       -3.4020    -4.1760     0.7600 H     1 <1>   0.0800 
 35 H       -4.7590     2.2210    -2.2820 H     1 <1>   0.1500 
 36 H        0.7690    -5.7480    -0.0980 H     1 <1>   0.0800 
 37 H        1.6680    -4.9720     1.1400 H     1 <1>   0.0800 
 38 H       -1.4430    -5.2330    -0.1510 H     1 <1>   0.0800 
 39 H       -1.2280    -5.0630     1.5620 H     1 <1>   0.0800 
 40 H        0.1150    -3.3960     2.5300 H     1 <1>   0.0800 
 41 H       -0.3490    -1.9840     1.6180 H     1 <1>   0.0800 
 42 H        2.5250    -2.7160     0.1500 H     1 <1>   0.4500 
 43 H       -2.0220    -0.4510     3.5570 H     1 <1>   0.0800 
 44 H       -1.8520     1.2030     2.9980 H     1 <1>   0.0800 
 45 H       -5.4810     2.5040     0.0620 H     1 <1>   0.1500 
 46 H        1.9060    -4.7510    -1.8320 H     1 <1>   0.0800 
 47 H        3.1580    -4.9470    -0.6260 H     1 <1>   0.0800 
 48 H        1.7160    -1.8110     2.5030 H     1 <1>   0.4000 
 49 H        4.4970    -3.1870    -1.2650 H     1 <1>   0.0800 
 50 H        3.5490    -2.6160    -2.6200 H     1 <1>   0.0800 
 51 H       -4.0740     0.9710     4.0570 H     1 <1>   0.0800 
 52 H       -4.4400    -0.4010     3.0300 H     1 <1>   0.0800 
 53 H        4.1140    -1.0220    -0.0920 H     1 <1>   0.0800 
 54 H        3.2710    -0.4220    -1.5130 H     1 <1>   0.0800 
 55 H        4.9560    -0.8340    -1.6040 H     1 <1>   0.0800 
@<TRIPOS>BOND
  1   1   2  2   
  2   2   3  am  
  3   2   4  1   
  4   3   5  1   
  5   3   6  1   
  6   4   7  ar  
  7   4   8  ar  
  8   5   9  1   
  9   5  10  1   
 10   5  27  1   
 11   6  11  1   
 12   6  28  1   
 13   6  29  1   
 14   7  12  1   
 15   7  13  ar  
 16   8  14  ar  
 17   8  30  1   
 18   9  15  1   
 19   9  16  1   
 20   9  17  1   
 21  10  18  1   
 22  10  31  1   
 23  10  32  1   
 24  11  16  1   
 25  11  33  1   
 26  11  34  1   
 27  12  19  1   
 28  13  20  1   
 29  13  21  ar  
 30  14  21  ar  
 31  14  35  1   
 32  15  22  1   
 33  15  36  1   
 34  15  37  1   
 35  16  38  1   
 36  16  39  1   
 37  17  23  1   
 38  17  40  1   
 39  17  41  1   
 40  18  22  1   
 41  18  24  1   
 42  18  42  1   
 43  19  25  1   
 44  19  43  1   
 45  19  44  1   
 46  20  25  1   
 47  21  45  1   
 48  22  46  1   
 49  22  47  1   
 50  23  48  1   
 51  24  26  1   
 52  24  49  1   
 53  24  50  1   
 54  25  51  1   
 55  25  52  1   
 56  26  53  1   
 57  26  54  1   
 58  26  55  1   
@<TRIPOS>SUBSTRUCTURE
  1 ****   3 GROUP 4 **** **** 0

# MOE 2024.06 (io_trps.svl 2023.06)
