@<TRIPOS>MOLECULE
NONAME
36 37 1 0 0 
SMALL
USER_CHARGES


@<TRIPOS>ATOM
  1 S       -0.2820     0.2930    -1.7710 S.o2  1 <1>   1.5010 
  2 O        0.4390    -0.5560    -2.6960 O.2   1 <1>  -0.6500 
  3 O       -0.9270     1.4880    -2.2750 O.2   1 <1>  -0.6500 
  4 N       -1.4890    -0.6520    -1.0440 N.am  1 <1>  -0.8490 
  5 C        0.8190     0.7300    -0.3930 C.2   1 <1>  -0.0630 
  6 C       -0.9800    -1.8850    -0.4250 C.3   1 <1>   0.1960 
  7 C       -2.3590     0.1040    -0.1340 C.3   1 <1>   0.1960 
  8 C        0.7780     1.8260     0.4030 C.2   1 <1>  -0.1400 
  9 C        1.8740    -0.1700    -0.0060 C.2   1 <1>  -0.1500 
 10 C       -2.1130    -2.8660    -0.0850 C.3   1 <1>  -0.1860 
 11 C       -3.3770    -0.7890     0.5920 C.3   1 <1>  -0.1600 
 12 S        2.0310     1.7730     1.6310 S.3   1 <1>  -0.0800 
 13 C       -0.1100     3.0560     0.4490 C.3   1 <1>  -0.0600 
 14 C        2.6030     0.2280     1.0490 C.2   1 <1>  -0.1400 
 15 C       -1.7020    -3.5700     1.1950 C.2   1 <1>   0.9060 
 16 C       -3.4820    -2.1620    -0.0650 C.3   1 <1>   0.2000 
 17 C        3.7650    -0.4100     1.7790 C.3   1 <1>  -0.0600 
 18 O       -0.5820    -4.0870     1.2290 O.co2 1 <1>  -0.9000 
 19 O       -2.4610    -3.5900     2.1740 O.co2 1 <1>  -0.9000 
 20 O       -4.4040    -2.9090     0.6310 O.3   1 <1>  -0.6800 
 21 H       -0.2880    -2.3830    -1.0840 H     1 <1>   0.0800 
 22 H       -0.4430    -1.6280     0.4750 H     1 <1>   0.0800 
 23 H       -1.7670     0.6190     0.6040 H     1 <1>   0.0800 
 24 H       -2.8930     0.8420    -0.7090 H     1 <1>   0.0800 
 25 H        2.0260    -1.0900    -0.5470 H     1 <1>   0.1500 
 26 H       -2.1430    -3.6180    -0.8490 H     1 <1>   0.0800 
 27 H       -4.3380    -0.3090     0.5940 H     1 <1>   0.0800 
 28 H       -3.0620    -0.9130     1.6140 H     1 <1>   0.0800 
 29 H       -0.8780     3.0190    -0.3000 H     1 <1>   0.0800 
 30 H        0.4830     3.9370     0.2830 H     1 <1>   0.0800 
 31 H       -0.5780     3.1320     1.4140 H     1 <1>   0.0800 
 32 H       -3.8490    -2.0470    -1.0710 H     1 <1>   0.0800 
 33 H        4.0110    -1.3540     1.3280 H     1 <1>   0.0800 
 34 H        3.5010    -0.5770     2.8080 H     1 <1>   0.0800 
 35 H        4.6250     0.2340     1.7360 H     1 <1>   0.0800 
 36 H       -3.9030    -3.2740     1.4230 H     1 <1>   0.4000 
@<TRIPOS>BOND
  1   1   2  2   
  2   1   3  2   
  3   1   4  am  
  4   1   5  1   
  5   4   6  1   
  6   4   7  1   
  7   5   8  2   
  8   5   9  1   
  9   6  10  1   
 10   6  21  1   
 11   6  22  1   
 12   7  11  1   
 13   7  23  1   
 14   7  24  1   
 15   8  12  1   
 16   8  13  1   
 17   9  14  2   
 18   9  25  1   
 19  10  15  1   
 20  10  16  1   
 21  10  26  1   
 22  11  16  1   
 23  11  27  1   
 24  11  28  1   
 25  12  14  1   
 26  13  29  1   
 27  13  30  1   
 28  13  31  1   
 29  14  17  1   
 30  15  18  ar  
 31  15  19  ar  
 32  16  20  1   
 33  16  32  1   
 34  17  33  1   
 35  17  34  1   
 36  17  35  1   
 37  20  36  1   
@<TRIPOS>SUBSTRUCTURE
  1 ****   6 GROUP 4 **** **** 0

# MOE 2024.06 (io_trps.svl 2023.06)
