@<TRIPOS>MOLECULE
NONAME
44 47 1 0 0 
SMALL
USER_CHARGES


@<TRIPOS>ATOM
  1 S       -1.7270     3.7320     1.5170 S.3   1 <1>  -0.0800 
  2 C       -2.0090     2.0200     1.2400 C.2   1 <1>  -0.1400 
  3 C       -1.0220     3.9200    -0.0790 C.2   1 <1>  -0.1100 
  4 C       -1.5820     1.6660     0.0140 C.2   1 <1>  -0.1500 
  5 C       -2.6520     1.2260     2.3670 C.3   1 <1>   0.0810 
  6 C       -1.0220     2.7470    -0.7390 C.2   1 <1>  -0.1500 
  7 C       -3.5550     0.1080     1.8600 C.2   1 <1>   0.5690 
  8 O       -3.0970    -1.0110     1.8640 O.2   1 <1>  -0.5700 
  9 N       -4.8420     0.3580     1.4410 N.am  1 <1>  -0.6600 
 10 C       -5.4570     1.7230     1.3230 C.3   1 <1>   0.1400 
 11 C       -5.7830    -0.7600     1.1350 C.3   1 <1>   0.1400 
 12 C       -6.0950     1.9450    -0.0630 C.3   1 <1>   0.1430 
 13 C       -6.4230    -0.5670    -0.2450 C.3   1 <1>  -0.1600 
 14 C       -6.7430     3.3170    -0.0670 C.ar  1 <1>   0.1670 
 15 C       -7.0930     0.8110    -0.3720 C.3   1 <1>  -0.1600 
 16 C       -5.0220     2.0880    -1.1740 C.3   1 <1>  -0.1600 
 17 N       -7.8650     3.6360     0.5400 N.ar  1 <1>  -0.6200 
 18 C       -6.0020     4.2180    -0.7730 C.ar  1 <1>  -0.1430 
 19 C       -4.7560     3.5920    -1.3470 C.3   1 <1>  -0.0170 
 20 C       -8.2240     4.9040     0.3970 C.ar  1 <1>   0.4770 
 21 C       -6.4670     5.5070    -0.8540 C.ar  1 <1>   0.1600 
 22 N       -7.5910     5.8630    -0.2660 N.ar  1 <1>  -0.6200 
 23 C       -9.5130     5.3100     1.0680 C.3   1 <1>  -0.0970 
 24 H       -0.6770     4.9000    -0.3550 H     1 <1>   0.1500 
 25 H       -1.6340     0.6720    -0.3990 H     1 <1>   0.1500 
 26 H       -3.2220     1.8750     3.0030 H     1 <1>   0.0800 
 27 H       -1.8730     0.7970     2.9690 H     1 <1>   0.0800 
 28 H       -0.6430     2.5870    -1.7330 H     1 <1>   0.1500 
 29 H       -4.7300     2.4950     1.4920 H     1 <1>   0.0800 
 30 H       -6.2190     1.8210     2.0760 H     1 <1>   0.0800 
 31 H       -6.5500    -0.7820     1.8890 H     1 <1>   0.0800 
 32 H       -5.2700    -1.7070     1.1590 H     1 <1>   0.0800 
 33 H       -7.1570    -1.3380    -0.4010 H     1 <1>   0.0800 
 34 H       -5.6650    -0.6850    -0.9990 H     1 <1>   0.0800 
 35 H       -7.5040     0.9370    -1.3580 H     1 <1>   0.0800 
 36 H       -7.9110     0.8660     0.3270 H     1 <1>   0.0800 
 37 H       -5.4180     1.7150    -2.1020 H     1 <1>   0.0800 
 38 H       -4.1250     1.5410    -0.9520 H     1 <1>   0.0800 
 39 H       -4.6120     3.8540    -2.3810 H     1 <1>   0.0800 
 40 H       -3.9000     3.8960    -0.7690 H     1 <1>   0.0800 
 41 H       -5.9170     6.2530    -1.4000 H     1 <1>   0.1500 
 42 H       -9.7550     4.6240     1.8580 H     1 <1>   0.0800 
 43 H      -10.3040     5.3080     0.3430 H     1 <1>   0.0800 
 44 H       -9.4150     6.2970     1.4810 H     1 <1>   0.0800 
@<TRIPOS>BOND
  1   1   2  1   
  2   1   3  1   
  3   2   4  2   
  4   2   5  1   
  5   3   6  2   
  6   3  24  1   
  7   4   6  1   
  8   4  25  1   
  9   5   7  1   
 10   5  26  1   
 11   5  27  1   
 12   6  28  1   
 13   7   8  2   
 14   7   9  am  
 15   9  10  1   
 16   9  11  1   
 17  10  12  1   
 18  10  29  1   
 19  10  30  1   
 20  11  13  1   
 21  11  31  1   
 22  11  32  1   
 23  12  14  1   
 24  12  15  1   
 25  12  16  1   
 26  13  15  1   
 27  13  33  1   
 28  13  34  1   
 29  14  17  ar  
 30  14  18  ar  
 31  15  35  1   
 32  15  36  1   
 33  16  19  1   
 34  16  37  1   
 35  16  38  1   
 36  17  20  ar  
 37  18  19  1   
 38  18  21  ar  
 39  19  39  1   
 40  19  40  1   
 41  20  22  ar  
 42  20  23  1   
 43  21  22  ar  
 44  21  41  1   
 45  23  42  1   
 46  23  43  1   
 47  23  44  1   
@<TRIPOS>SUBSTRUCTURE
  1 ****  10 GROUP 4 **** **** 0

# MOE 2024.06 (io_trps.svl 2023.06)
