@<TRIPOS>MOLECULE
NONAME
45 46 1 0 0 
SMALL
USER_CHARGES


@<TRIPOS>ATOM
  1 S        0.0540     0.3630     0.3120 S.o2  1 <1>   1.2040 
  2 O       -0.2190    -0.2520    -0.9680 O.2   1 <1>  -0.6500 
  3 O       -0.2620    -0.3360     1.5370 O.2   1 <1>  -0.6500 
  4 C        1.7730     0.9210     0.3590 C.ar  1 <1>  -0.0090 
  5 C       -0.8350     1.9070     0.3480 C.3   1 <1>  -0.1350 
  6 C        2.4860     1.1490    -0.8100 C.ar  1 <1>  -0.1500 
  7 C        2.4130     1.1640     1.5670 C.ar  1 <1>  -0.1500 
  8 C        3.7920     1.6060    -0.7770 C.ar  1 <1>  -0.1500 
  9 C        3.7180     1.6210     1.6090 C.ar  1 <1>  -0.1500 
 10 C        4.4220     1.8470     0.4360 C.ar  1 <1>  -0.1430 
 11 C        5.8580     2.3540     0.5000 C.3   1 <1>   0.4330 
 12 N        5.9110     3.6490    -0.1910 N.pl3 1 <1>  -0.8690 
 13 C        6.8330     1.4010    -0.1820 C.3   1 <1>  -0.2400 
 14 C        6.6200     4.7250     0.2800 C.ar  1 <1>   0.4100 
 15 N        7.5200     4.5160     1.2210 N.ar  1 <1>  -0.6200 
 16 C        6.3980     5.9830    -0.2230 C.ar  1 <1>  -0.1500 
 17 C        8.1740     5.5880     1.6220 C.ar  1 <1>   0.4700 
 18 C        7.1360     7.0290     0.2760 C.ar  1 <1>   0.4100 
 19 N        8.0430     6.8340     1.2160 N.ar  1 <1>  -0.6200 
 20 N        6.9390     8.3180    -0.1820 N.pl3 1 <1>  -0.8380 
 21 C        8.0940     9.2500    -0.2620 C.3   1 <1>   0.2090 
 22 C        5.6130     8.9510     0.0510 C.3   1 <1>   0.1290 
 23 C        8.0410    10.0120    -1.5820 C.3   1 <1>  -0.2400 
 24 H       -1.8920     1.7210     0.3230 H     1 <1>   0.0800 
 25 H       -0.5750     2.5090    -0.5010 H     1 <1>   0.0800 
 26 H       -0.6060     2.4500     1.2440 H     1 <1>   0.0800 
 27 H        2.0170     0.9620    -1.7620 H     1 <1>   0.1500 
 28 H        1.8860     0.9880     2.4910 H     1 <1>   0.1500 
 29 H        4.3180     1.7700    -1.7020 H     1 <1>   0.1500 
 30 H        4.1840     1.8010     2.5630 H     1 <1>   0.1500 
 31 H        6.1470     2.4720     1.5320 H     1 <1>   0.0800 
 32 H        5.0330     3.8550    -0.6650 H     1 <1>   0.4000 
 33 H        6.6090     1.3060    -1.2280 H     1 <1>   0.0800 
 34 H        6.7730     0.4320     0.2780 H     1 <1>   0.0800 
 35 H        7.8350     1.7730    -0.0690 H     1 <1>   0.0800 
 36 H        5.6780     6.1540    -0.9940 H     1 <1>   0.1500 
 37 H        8.9140     5.4240     2.3870 H     1 <1>   0.1500 
 38 H        9.0160     8.6950    -0.2180 H     1 <1>   0.0800 
 39 H        8.0720     9.9310     0.5720 H     1 <1>   0.0800 
 40 H        4.9180     8.2330     0.4520 H     1 <1>   0.0800 
 41 H        5.2250     9.3300    -0.8780 H     1 <1>   0.0800 
 42 H        5.7100     9.7610     0.7520 H     1 <1>   0.0800 
 43 H        8.0290     9.3180    -2.4030 H     1 <1>   0.0800 
 44 H        8.9110    10.6350    -1.6730 H     1 <1>   0.0800 
 45 H        7.1680    10.6370    -1.6260 H     1 <1>   0.0800 
@<TRIPOS>BOND
  1   1   2  2   
  2   1   3  2   
  3   1   4  1   
  4   1   5  1   
  5   4   6  ar  
  6   4   7  ar  
  7   5  24  1   
  8   5  25  1   
  9   5  26  1   
 10   6   8  ar  
 11   6  27  1   
 12   7   9  ar  
 13   7  28  1   
 14   8  10  ar  
 15   8  29  1   
 16   9  10  ar  
 17   9  30  1   
 18  10  11  1   
 19  11  12  1   
 20  11  13  1   
 21  11  31  1   
 22  12  14  1   
 23  12  32  1   
 24  13  33  1   
 25  13  34  1   
 26  13  35  1   
 27  14  15  ar  
 28  14  16  ar  
 29  15  17  ar  
 30  16  18  ar  
 31  16  36  1   
 32  17  19  ar  
 33  17  37  1   
 34  18  19  ar  
 35  18  20  1   
 36  20  21  1   
 37  20  22  1   
 38  21  23  1   
 39  21  38  1   
 40  21  39  1   
 41  22  40  1   
 42  22  41  1   
 43  22  42  1   
 44  23  43  1   
 45  23  44  1   
 46  23  45  1   
@<TRIPOS>SUBSTRUCTURE
  1 ****  12 GROUP 4 **** **** 0

# MOE 2024.06 (io_trps.svl 2023.06)
