@<TRIPOS>MOLECULE
NONAME
52 55 1 0 0 
SMALL
USER_CHARGES


@<TRIPOS>ATOM
  1 O        2.9280    -1.2470    -2.3160 O.2   1 <1>  -0.5700 
  2 C        2.1050    -1.5740    -1.4750 C.2   1 <1>   0.5440 
  3 N        1.4680    -0.5500    -0.7930 N.am  1 <1>  -0.6600 
  4 C        1.8760    -3.0020    -1.2310 C.ar  1 <1>   0.3960 
  5 C        1.8040     0.8770    -0.9980 C.3   1 <1>   0.1400 
  6 C        0.5100    -0.7060     0.3260 C.3   1 <1>   0.1400 
  7 N        0.6930    -3.4560    -0.7830 N.ar  1 <1>  -0.6200 
  8 C        2.9360    -3.8800    -1.4880 C.ar  1 <1>   0.1600 
  9 C        1.3240     1.5720     0.2690 C.3   1 <1>  -0.1600 
 10 C        0.1620     0.7140     0.7580 C.3   1 <1>  -0.1600 
 11 C        0.6450    -4.7660    -0.6120 C.ar  1 <1>   0.4100 
 12 N        2.9160    -5.1940    -1.3160 N.ar  1 <1>  -0.6200 
 13 N       -0.5570    -5.2940    -0.1680 N.pl3 1 <1>  -0.8380 
 14 C        1.7440    -5.5990    -0.8690 C.ar  1 <1>   0.1600 
 15 C       -1.2920    -6.2230    -1.0640 C.3   1 <1>   0.2090 
 16 C       -1.4290    -4.4860     0.7230 C.3   1 <1>   0.2090 
 17 C       -2.1520    -7.1720    -0.2280 C.3   1 <1>  -0.1600 
 18 C       -2.2960    -5.4170     1.5750 C.3   1 <1>  -0.1600 
 19 C       -3.1080    -6.4010     0.7090 C.3   1 <1>  -0.0800 
 20 C       -4.0070    -7.3160     1.5760 C.3   1 <1>   0.3430 
 21 O       -3.2210    -8.1200     2.3840 O.3   1 <1>  -0.6800 
 22 C       -4.9290    -8.2200     0.7440 C.ar  1 <1>   0.1660 
 23 N       -4.5030    -9.4490     0.4470 N.ar  1 <1>  -0.6200 
 24 C       -6.1610    -7.7200     0.3430 C.ar  1 <1>  -0.1500 
 25 C       -5.3330   -10.1910    -0.2690 C.ar  1 <1>   0.1600 
 26 C       -7.0120    -8.5050    -0.4050 C.ar  1 <1>  -0.1500 
 27 C       -6.5750    -9.7740    -0.7140 C.ar  1 <1>  -0.1500 
 28 H        1.2680     1.2400    -1.8580 H     1 <1>   0.0800 
 29 H        2.8620     1.0120    -1.1480 H     1 <1>   0.0800 
 30 H        0.9850    -1.2440     1.1290 H     1 <1>   0.0800 
 31 H       -0.3710    -1.2340     0.0040 H     1 <1>   0.0800 
 32 H        3.8570    -3.4620    -1.8570 H     1 <1>   0.1500 
 33 H        1.0350     2.5910     0.0800 H     1 <1>   0.0800 
 34 H        2.1190     1.5610     0.9940 H     1 <1>   0.0800 
 35 H        0.0190     0.7850     1.8220 H     1 <1>   0.0800 
 36 H       -0.7450     1.0150     0.2630 H     1 <1>   0.0800 
 37 H        1.6170    -6.6490    -0.6820 H     1 <1>   0.1500 
 38 H       -0.6000    -6.7910    -1.6620 H     1 <1>   0.0800 
 39 H       -1.9170    -5.6490    -1.7280 H     1 <1>   0.0800 
 40 H       -2.0500    -3.8420     0.1220 H     1 <1>   0.0800 
 41 H       -0.8220    -3.8710     1.3650 H     1 <1>   0.0800 
 42 H       -1.5010    -7.8050     0.3500 H     1 <1>   0.0800 
 43 H       -2.7130    -7.8010    -0.8940 H     1 <1>   0.0800 
 44 H       -2.9590    -4.8230     2.1770 H     1 <1>   0.0800 
 45 H       -1.6500    -5.9630     2.2420 H     1 <1>   0.0800 
 46 H       -3.7660    -5.8170     0.0890 H     1 <1>   0.0800 
 47 H       -4.6050    -6.7080     2.2310 H     1 <1>   0.0800 
 48 H       -3.2410    -9.0060     1.9540 H     1 <1>   0.4000 
 49 H       -6.4570    -6.7230     0.6130 H     1 <1>   0.1500 
 50 H       -5.0060   -11.1870    -0.5150 H     1 <1>   0.1500 
 51 H       -7.9730    -8.1450    -0.7310 H     1 <1>   0.1500 
 52 H       -7.1910   -10.4380    -1.2940 H     1 <1>   0.1500 
@<TRIPOS>BOND
  1   1   2  2   
  2   2   3  am  
  3   2   4  1   
  4   3   5  1   
  5   3   6  1   
  6   4   7  ar  
  7   4   8  ar  
  8   5   9  1   
  9   5  28  1   
 10   5  29  1   
 11   6  10  1   
 12   6  30  1   
 13   6  31  1   
 14   7  11  ar  
 15   8  12  ar  
 16   8  32  1   
 17   9  10  1   
 18   9  33  1   
 19   9  34  1   
 20  10  35  1   
 21  10  36  1   
 22  11  13  1   
 23  11  14  ar  
 24  12  14  ar  
 25  13  15  1   
 26  13  16  1   
 27  14  37  1   
 28  15  17  1   
 29  15  38  1   
 30  15  39  1   
 31  16  18  1   
 32  16  40  1   
 33  16  41  1   
 34  17  19  1   
 35  17  42  1   
 36  17  43  1   
 37  18  19  1   
 38  18  44  1   
 39  18  45  1   
 40  19  20  1   
 41  19  46  1   
 42  20  21  1   
 43  20  22  1   
 44  20  47  1   
 45  21  48  1   
 46  22  23  ar  
 47  22  24  ar  
 48  23  25  ar  
 49  24  26  ar  
 50  24  49  1   
 51  25  27  ar  
 52  25  50  1   
 53  26  27  ar  
 54  26  51  1   
 55  27  52  1   
@<TRIPOS>SUBSTRUCTURE
  1 ****  13 GROUP 4 **** **** 0

# MOE 2024.06 (io_trps.svl 2023.06)
