@<TRIPOS>MOLECULE
NONAME
45 46 1 0 0 
SMALL
USER_CHARGES


@<TRIPOS>ATOM
  1 CL       1.6630    -0.4120     0.1660 Cl    1 <1>  -0.1770 
  2 C        0.7940    -1.9030    -0.0760 C.ar  1 <1>   0.1770 
  3 C        1.1330    -3.0130     0.6660 C.ar  1 <1>  -0.1500 
  4 C       -0.2240    -1.9500    -1.0060 C.ar  1 <1>  -0.1500 
  5 C        0.4440    -4.2110     0.4800 C.ar  1 <1>   0.0830 
  6 C       -0.9060    -3.1360    -1.1930 C.ar  1 <1>  -0.1500 
  7 O        0.7550    -5.3110     1.2120 O.3   1 <1>  -0.3630 
  8 C       -0.5970    -4.2940    -0.4690 C.ar  1 <1>   0.0860 
  9 C        1.7550    -5.3250     2.2100 C.3   1 <1>   0.0400 
 10 C       -1.3600    -5.5050    -0.7330 C.2   1 <1>   0.5440 
 11 O       -2.4830    -5.4410    -1.2000 O.2   1 <1>  -0.5700 
 12 N       -0.8580    -6.7450    -0.4750 N.am  1 <1>  -0.7300 
 13 C       -1.5970    -8.0160    -0.6270 C.3   1 <1>   0.2200 
 14 C       -2.5150    -8.2130     0.5820 C.3   1 <1>  -0.0800 
 15 C       -0.6440    -9.2050    -0.5390 C.3   1 <1>   0.1200 
 16 C       -1.9660    -9.4740     1.2600 C.3   1 <1>   0.1200 
 17 C       -4.0170    -8.2050     0.2180 C.3   1 <1>  -0.0550 
 18 O       -0.6610    -9.5890     0.7990 O.3   1 <1>  -0.5600 
 19 S       -4.6460    -9.5830    -0.7530 S.o2  1 <1>   1.3330 
 20 O       -5.9580    -9.2470    -1.2580 O.2   1 <1>  -0.6500 
 21 O       -3.6220   -10.0290    -1.6740 O.2   1 <1>  -0.6500 
 22 N       -4.8690   -10.8070     0.4050 N.am  1 <1>  -0.8490 
 23 C       -6.1400   -10.6990     1.1320 C.3   1 <1>   0.1160 
 24 C       -4.7440   -12.1490    -0.1730 C.3   1 <1>   0.1160 
 25 H        1.9310    -2.9150     1.3750 H     1 <1>   0.1500 
 26 H       -0.4740    -1.0700    -1.5720 H     1 <1>   0.1500 
 27 H       -1.7010    -3.1740    -1.9190 H     1 <1>   0.1500 
 28 H        1.7830    -6.3100     2.6410 H     1 <1>   0.0800 
 29 H        1.5040    -4.6040     2.9680 H     1 <1>   0.0800 
 30 H        2.7040    -5.0980     1.7590 H     1 <1>   0.0800 
 31 H       -0.0330    -6.7940     0.1330 H     1 <1>   0.3700 
 32 H       -2.1200    -8.0140    -1.5690 H     1 <1>   0.0800 
 33 H       -2.3610    -7.4020     1.2730 H     1 <1>   0.0800 
 34 H        0.3610    -8.9630    -0.8370 H     1 <1>   0.0800 
 35 H       -1.0140   -10.0300    -1.1250 H     1 <1>   0.0800 
 36 H       -2.4830   -10.3680     0.9670 H     1 <1>   0.0800 
 37 H       -1.9540    -9.3930     2.3330 H     1 <1>   0.0800 
 38 H       -4.2020    -7.3010    -0.3320 H     1 <1>   0.0800 
 39 H       -4.5860    -8.1340     1.1230 H     1 <1>   0.0800 
 40 H       -6.1820   -11.4370     1.9140 H     1 <1>   0.0800 
 41 H       -6.9710   -10.8510     0.4620 H     1 <1>   0.0800 
 42 H       -6.2330    -9.7250     1.5790 H     1 <1>   0.0800 
 43 H       -4.8840   -12.8990     0.5860 H     1 <1>   0.0800 
 44 H       -3.7610   -12.2790    -0.5950 H     1 <1>   0.0800 
 45 H       -5.4750   -12.2900    -0.9520 H     1 <1>   0.0800 
@<TRIPOS>BOND
  1   1   2  1   
  2   2   3  ar  
  3   2   4  ar  
  4   3   5  ar  
  5   3  25  1   
  6   4   6  ar  
  7   4  26  1   
  8   5   7  1   
  9   5   8  ar  
 10   6   8  ar  
 11   6  27  1   
 12   7   9  1   
 13   8  10  1   
 14   9  28  1   
 15   9  29  1   
 16   9  30  1   
 17  10  11  2   
 18  10  12  am  
 19  12  13  1   
 20  12  31  1   
 21  13  14  1   
 22  13  15  1   
 23  13  32  1   
 24  14  16  1   
 25  14  17  1   
 26  14  33  1   
 27  15  18  1   
 28  15  34  1   
 29  15  35  1   
 30  16  18  1   
 31  16  36  1   
 32  16  37  1   
 33  17  19  1   
 34  17  38  1   
 35  17  39  1   
 36  19  20  2   
 37  19  21  2   
 38  19  22  am  
 39  22  23  1   
 40  22  24  1   
 41  23  40  1   
 42  23  41  1   
 43  23  42  1   
 44  24  43  1   
 45  24  44  1   
 46  24  45  1   
@<TRIPOS>SUBSTRUCTURE
  1 ****  12 GROUP 4 **** **** 0

# MOE 2024.06 (io_trps.svl 2023.06)
