@<TRIPOS>MOLECULE
NONAME
16 15 1 0 0 
SMALL
USER_CHARGES


@<TRIPOS>ATOM
  1 F       -2.8940     1.9170     0.2750 F     1 <1>  -0.3400 
  2 C       -2.1530     0.8320     0.0660 C.3   1 <1>   0.2410 
  3 C       -2.8150    -0.3710     0.7300 C.2   1 <1>   0.4480 
  4 O       -2.4040    -0.8070     1.7650 O.2   1 <1>  -0.5700 
  5 C       -3.9580    -1.0630     0.0250 C.3   1 <1>  -0.0380 
  6 C       -4.9160    -0.0620    -0.5550 C.2   1 <1>   0.6590 
  7 O       -4.8500     0.2520    -1.7140 O.2   1 <1>  -0.5700 
  8 O       -5.8140     0.4460     0.2770 O.3   1 <1>  -0.4300 
  9 C       -6.7280     1.4400    -0.1380 C.3   1 <1>   0.0400 
 10 H       -1.1910     1.0310     0.5020 H     1 <1>   0.0800 
 11 H       -2.0690     0.7100    -0.9990 H     1 <1>   0.0800 
 12 H       -4.4820    -1.6940     0.7180 H     1 <1>   0.0800 
 13 H       -3.5670    -1.6750    -0.7650 H     1 <1>   0.0800 
 14 H       -7.3550     1.6980     0.6970 H     1 <1>   0.0800 
 15 H       -7.3240     1.0520    -0.9460 H     1 <1>   0.0800 
 16 H       -6.1750     2.3040    -0.4670 H     1 <1>   0.0800 
@<TRIPOS>BOND
  1   1   2  1   
  2   2   3  1   
  3   2  10  1   
  4   2  11  1   
  5   3   4  2   
  6   3   5  1   
  7   5   6  1   
  8   5  12  1   
  9   5  13  1   
 10   6   7  2   
 11   6   8  1   
 12   8   9  1   
 13   9  14  1   
 14   9  15  1   
 15   9  16  1   
@<TRIPOS>SUBSTRUCTURE
  1 ****   6 GROUP 4 **** **** 0

# MOE 2024.06 (io_trps.svl 2023.06)
