@<TRIPOS>MOLECULE
NONAME
37 39 1 0 0 
SMALL
USER_CHARGES


@<TRIPOS>ATOM
  1 CL      -0.6970     0.9420    -1.6710 Cl    1 <1>  -0.1770 
  2 C       -2.2650     1.1530    -0.9380 C.ar  1 <1>   0.1770 
  3 C       -2.5200     0.5830     0.2950 C.ar  1 <1>  -0.1500 
  4 C       -3.2310     1.8890    -1.5970 C.ar  1 <1>  -0.1500 
  5 C       -3.7680     0.7460     0.8710 C.ar  1 <1>  -0.1500 
  6 C       -4.4760     2.0450    -1.0120 C.ar  1 <1>  -0.1500 
  7 C       -4.7720     1.4660     0.2210 C.ar  1 <1>   0.0540 
  8 C       -6.0890     1.6070     0.7990 C.2   1 <1>   0.2350 
  9 N       -6.6550     2.7560     1.0600 N.2   1 <1>  -0.7070 
 10 C       -6.9390     0.5500     1.1370 C.2   1 <1>  -0.1810 
 11 N       -7.8550     2.4560     1.5850 N.pl3 1 <1>   0.3000 
 12 C       -8.0520     1.1270     1.6390 C.2   1 <1>  -0.3020 
 13 C       -6.6360    -0.9180     0.9360 C.3   1 <1>   0.5240 
 14 N       -7.8600    -1.5490     0.4270 N.4   1 <1>  -0.9590 
 15 C       -8.0260    -3.0050     0.5500 C.3   1 <1>   0.3430 
 16 C       -8.3330    -1.1520    -0.9150 C.3   1 <1>   0.3430 
 17 C       -9.3870    -3.1870    -0.0740 C.3   1 <1>  -0.1860 
 18 C       -9.3770    -2.2120    -1.2660 C.3   1 <1>  -0.1600 
 19 C      -10.3680    -2.7980     1.0120 C.2   1 <1>   0.9060 
 20 O      -10.3100    -1.6410     1.4600 O.co2 1 <1>  -0.9000 
 21 O      -11.1010    -3.6640     1.4740 O.co2 1 <1>  -0.9000 
 22 H       -1.7450     0.0270     0.7930 H     1 <1>   0.1500 
 23 H       -3.0060     2.3350    -2.5490 H     1 <1>   0.1500 
 24 H       -3.9640     0.3230     1.8410 H     1 <1>   0.1500 
 25 H       -5.2340     2.6270    -1.5080 H     1 <1>   0.1500 
 26 H       -8.5200     3.1780     1.8940 H     1 <1>   0.2700 
 27 H       -8.9620     0.6860     2.0180 H     1 <1>   0.1500 
 28 H       -6.3590    -1.3570     1.8800 H     1 <1>   0.0800 
 29 H       -5.8300    -1.0470     0.2330 H     1 <1>   0.0800 
 30 H       -8.6430    -1.2090     1.0440 H     1 <1>   0.4500 
 31 H       -8.0230    -3.3260     1.5800 H     1 <1>   0.0800 
 32 H       -7.2720    -3.5270    -0.0150 H     1 <1>   0.0800 
 33 H       -7.5230    -1.1710    -1.6250 H     1 <1>   0.0800 
 34 H       -8.7730    -0.1680    -0.8840 H     1 <1>   0.0800 
 35 H       -9.5690    -4.2050    -0.3660 H     1 <1>   0.0800 
 36 H       -9.0870    -2.7170    -2.1710 H     1 <1>   0.0800 
 37 H      -10.3460    -1.7660    -1.4130 H     1 <1>   0.0800 
@<TRIPOS>BOND
  1   1   2  1   
  2   2   3  ar  
  3   2   4  ar  
  4   3   5  ar  
  5   3  22  1   
  6   4   6  ar  
  7   4  23  1   
  8   5   7  ar  
  9   5  24  1   
 10   6   7  ar  
 11   6  25  1   
 12   7   8  1   
 13   8   9  2   
 14   8  10  1   
 15   9  11  1   
 16  10  12  2   
 17  10  13  1   
 18  11  12  1   
 19  11  26  1   
 20  12  27  1   
 21  13  14  1   
 22  13  28  1   
 23  13  29  1   
 24  14  15  1   
 25  14  16  1   
 26  14  30  1   
 27  15  17  1   
 28  15  31  1   
 29  15  32  1   
 30  16  18  1   
 31  16  33  1   
 32  16  34  1   
 33  17  18  1   
 34  17  19  1   
 35  17  35  1   
 36  18  36  1   
 37  18  37  1   
 38  19  20  ar  
 39  19  21  ar  
@<TRIPOS>SUBSTRUCTURE
  1 ****  13 GROUP 4 **** **** 0

# MOE 2024.06 (io_trps.svl 2023.06)
