@<TRIPOS>MOLECULE
NONAME
44 46 1 0 0 
SMALL
USER_CHARGES


@<TRIPOS>ATOM
  1 O       -0.6220     0.0260     1.1160 O.2   1 <1>  -0.5700 
  2 C       -1.4310     0.6500     0.4700 C.2   1 <1>   0.5690 
  3 N       -2.4270    -0.0110    -0.2060 N.am  1 <1>  -0.6600 
  4 C       -1.2730     2.1760     0.4750 C.3   1 <1>  -0.0190 
  5 C       -3.5870     0.5390    -0.9570 C.3   1 <1>   0.1400 
  6 C       -2.5370    -1.4950    -0.1590 C.3   1 <1>   0.1400 
  7 C       -2.3090     2.8900     1.3630 C.3   1 <1>  -0.1600 
  8 C       -1.2000     2.8260    -0.9210 C.3   1 <1>  -0.1600 
  9 C       -4.6620    -0.5350    -0.8190 C.3   1 <1>   0.2000 
 10 C       -3.8580    -1.8350    -0.8600 C.3   1 <1>  -0.0800 
 11 C       -2.1200     4.4090     1.3060 C.3   1 <1>   0.1200 
 12 C       -1.0780     4.3480    -0.7970 C.3   1 <1>   0.1200 
 13 O       -5.2500    -0.3900     0.4290 O.3   1 <1>  -0.6800 
 14 C       -4.5660    -3.0750    -0.2840 C.3   1 <1>   0.0210 
 15 O       -2.1350     4.8260    -0.0240 O.3   1 <1>  -0.5600 
 16 C       -3.6760    -4.2970    -0.3870 C.2   1 <1>   0.1080 
 17 N       -3.2820    -4.7880    -1.5210 N.2   1 <1>  -0.7070 
 18 C       -3.1780    -5.0130     0.6960 C.2   1 <1>  -0.1500 
 19 N       -2.5160    -5.8430    -1.1880 N.pl3 1 <1>   0.3000 
 20 C       -2.4350    -5.9990     0.1500 C.2   1 <1>  -0.3320 
 21 C       -1.6420    -7.0960     0.8350 C.3   1 <1>  -0.0600 
 22 H       -0.3160     2.3640     0.9310 H     1 <1>   0.0800 
 23 H       -3.9290     1.4840    -0.5810 H     1 <1>   0.0800 
 24 H       -3.3140     0.6410    -1.9930 H     1 <1>   0.0800 
 25 H       -1.7010    -1.9550    -0.6600 H     1 <1>   0.0800 
 26 H       -2.5500    -1.8160     0.8690 H     1 <1>   0.0800 
 27 H       -2.2000     2.5550     2.3800 H     1 <1>   0.0800 
 28 H       -3.3110     2.6620     1.0540 H     1 <1>   0.0800 
 29 H       -2.0780     2.6160    -1.4990 H     1 <1>   0.0800 
 30 H       -0.3520     2.4390    -1.4570 H     1 <1>   0.0800 
 31 H       -5.4280    -0.4770    -1.5740 H     1 <1>   0.0800 
 32 H       -3.6240    -2.0410    -1.8910 H     1 <1>   0.0800 
 33 H       -1.1850     4.7060     1.7510 H     1 <1>   0.0800 
 34 H       -2.9250     4.9090     1.8170 H     1 <1>   0.0800 
 35 H       -1.1420     4.8130    -1.7660 H     1 <1>   0.0800 
 36 H       -0.1500     4.6340    -0.3320 H     1 <1>   0.0800 
 37 H       -4.5360    -0.3150     1.0950 H     1 <1>   0.4000 
 38 H       -5.4710    -3.2600    -0.8340 H     1 <1>   0.0800 
 39 H       -4.8290    -2.9180     0.7460 H     1 <1>   0.0800 
 40 H       -3.3600    -4.8020     1.7350 H     1 <1>   0.1500 
 41 H       -2.0620    -6.4340    -1.8950 H     1 <1>   0.2700 
 42 H       -1.7340    -7.0070     1.9030 H     1 <1>   0.0800 
 43 H       -0.6010    -7.0200     0.5750 H     1 <1>   0.0800 
 44 H       -2.0090    -8.0620     0.5390 H     1 <1>   0.0800 
@<TRIPOS>BOND
  1   1   2  2   
  2   2   3  am  
  3   2   4  1   
  4   3   5  1   
  5   3   6  1   
  6   4   7  1   
  7   4   8  1   
  8   4  22  1   
  9   5   9  1   
 10   5  23  1   
 11   5  24  1   
 12   6  10  1   
 13   6  25  1   
 14   6  26  1   
 15   7  11  1   
 16   7  27  1   
 17   7  28  1   
 18   8  12  1   
 19   8  29  1   
 20   8  30  1   
 21   9  10  1   
 22   9  13  1   
 23   9  31  1   
 24  10  14  1   
 25  10  32  1   
 26  11  15  1   
 27  11  33  1   
 28  11  34  1   
 29  12  15  1   
 30  12  35  1   
 31  12  36  1   
 32  13  37  1   
 33  14  16  1   
 34  14  38  1   
 35  14  39  1   
 36  16  17  2   
 37  16  18  1   
 38  17  19  1   
 39  18  20  2   
 40  18  40  1   
 41  19  20  1   
 42  19  41  1   
 43  20  21  1   
 44  21  42  1   
 45  21  43  1   
 46  21  44  1   
@<TRIPOS>SUBSTRUCTURE
  1 ****   6 GROUP 4 **** **** 0

# MOE 2024.06 (io_trps.svl 2023.06)
