@<TRIPOS>MOLECULE
NONAME
40 42 1 0 0 
SMALL
USER_CHARGES


@<TRIPOS>ATOM
  1 S        0.0130    -0.0990     1.3610 S.3   1 <1>  -0.0800 
  2 C        1.1580    -0.9800     0.3710 C.2   1 <1>  -0.0450 
  3 C        0.7160     1.4060     0.8330 C.2   1 <1>   0.1980 
  4 C        1.9440    -0.0580    -0.2340 C.2   1 <1>   0.0460 
  5 C        1.1400    -2.4220     0.3530 C.2   1 <1>   0.7150 
  6 N        1.6850     1.2720     0.0220 N.2   1 <1>  -0.5650 
  7 C        0.1230     2.6850     1.3730 C.3   1 <1>  -0.0600 
  8 C        3.0970    -0.3360    -1.1770 C.3   1 <1>  -0.0590 
  9 O        2.1920    -3.0340     0.3840 O.2   1 <1>  -0.5700 
 10 N       -0.0300    -3.1470     0.2770 N.am  1 <1>  -0.6600 
 11 C       -1.3330    -2.6140    -0.1940 C.3   1 <1>   0.1400 
 12 C       -0.0340    -4.6320     0.2420 C.3   1 <1>   0.1400 
 13 C       -2.1000    -3.8350    -0.6980 C.3   1 <1>   0.2000 
 14 C       -1.4990    -5.0270     0.0430 C.3   1 <1>  -0.0800 
 15 O       -3.4550    -3.7390    -0.4220 O.3   1 <1>  -0.6800 
 16 C       -1.6990    -6.3530    -0.7110 C.3   1 <1>  -0.0170 
 17 C       -1.1390    -7.5350     0.0640 C.ar  1 <1>   0.1670 
 18 N        0.1630    -7.7450    -0.0380 N.ar  1 <1>  -0.6200 
 19 C       -1.9880    -8.3300     0.8330 C.ar  1 <1>   0.1600 
 20 C        0.5560    -8.7890     0.6730 C.ar  1 <1>   0.1600 
 21 N       -1.5970    -9.3730     1.5470 N.ar  1 <1>  -0.6200 
 22 C       -0.2950    -9.5760     1.4390 C.ar  1 <1>   0.1600 
 23 H        0.6510     3.5280     0.9660 H     1 <1>   0.0800 
 24 H        0.2100     2.7030     2.4440 H     1 <1>   0.0800 
 25 H       -0.9120     2.7530     1.0970 H     1 <1>   0.0800 
 26 H        3.2130    -1.3890    -1.3540 H     1 <1>   0.0800 
 27 H        4.0070     0.0440    -0.7510 H     1 <1>   0.0800 
 28 H        2.9220     0.1560    -2.1160 H     1 <1>   0.0800 
 29 H       -1.8480    -2.1600     0.6340 H     1 <1>   0.0800 
 30 H       -1.1890    -1.8970    -0.9850 H     1 <1>   0.0800 
 31 H        0.5710    -4.9670    -0.5840 H     1 <1>   0.0800 
 32 H        0.3660    -5.0380     1.1570 H     1 <1>   0.0800 
 33 H       -1.9740    -3.9310    -1.7630 H     1 <1>   0.0800 
 34 H       -1.9430    -5.1010     1.0200 H     1 <1>   0.0800 
 35 H       -3.6030    -3.6410     0.5380 H     1 <1>   0.4000 
 36 H       -1.2180    -6.3070    -1.6720 H     1 <1>   0.0800 
 37 H       -2.7500    -6.5050    -0.8850 H     1 <1>   0.0800 
 38 H       -3.0360    -8.0920     0.8620 H     1 <1>   0.1500 
 39 H        1.6030    -9.0340     0.6480 H     1 <1>   0.1500 
 40 H        0.1190   -10.4050     1.9840 H     1 <1>   0.1500 
@<TRIPOS>BOND
  1   1   2  1   
  2   1   3  1   
  3   2   4  2   
  4   2   5  1   
  5   3   6  2   
  6   3   7  1   
  7   4   6  1   
  8   4   8  1   
  9   5   9  2   
 10   5  10  am  
 11   7  23  1   
 12   7  24  1   
 13   7  25  1   
 14   8  26  1   
 15   8  27  1   
 16   8  28  1   
 17  10  11  1   
 18  10  12  1   
 19  11  13  1   
 20  11  29  1   
 21  11  30  1   
 22  12  14  1   
 23  12  31  1   
 24  12  32  1   
 25  13  14  1   
 26  13  15  1   
 27  13  33  1   
 28  14  16  1   
 29  14  34  1   
 30  15  35  1   
 31  16  17  1   
 32  16  36  1   
 33  16  37  1   
 34  17  18  ar  
 35  17  19  ar  
 36  18  20  ar  
 37  19  21  ar  
 38  19  38  1   
 39  20  22  ar  
 40  20  39  1   
 41  21  22  ar  
 42  22  40  1   
@<TRIPOS>SUBSTRUCTURE
  1 ****  10 GROUP 4 **** **** 0

# MOE 2024.06 (io_trps.svl 2023.06)
