@<TRIPOS>MOLECULE
NONAME
43 46 1 0 0 
SMALL
USER_CHARGES


@<TRIPOS>ATOM
  1 O        0.0500     1.0060     0.9200 O.2   1 <1>  -0.5700 
  2 C        0.1850     2.2030     0.7240 C.2   1 <1>   0.7150 
  3 N       -0.9390     3.0070     0.7960 N.am  1 <1>  -0.6600 
  4 C        1.5140     2.7020     0.4140 C.2   1 <1>   0.0550 
  5 C       -2.2340     2.4870     1.3240 C.3   1 <1>   0.1400 
  6 C       -1.0150     4.3650     0.1750 C.3   1 <1>   0.1400 
  7 O        1.8320     4.0050     0.5040 O.3   1 <1>  -0.2800 
  8 C        2.6150     2.0060     0.0280 C.2   1 <1>  -0.1500 
  9 C       -3.2650     2.3280     0.1830 C.3   1 <1>   0.0000 
 10 C       -2.4470     4.7190    -0.2640 C.3   1 <1>  -0.1600 
 11 C        3.1130     4.1470     0.1730 C.ar  1 <1>   0.1400 
 12 C        3.6660     2.9200    -0.1400 C.ar  1 <1>   0.0000 
 13 C       -4.6760     2.1730     0.7810 C.3   1 <1>   0.2000 
 14 C       -3.1580     3.4920    -0.8550 C.3   1 <1>  -0.1600 
 15 C       -3.1140     0.9830    -0.5460 C.3   1 <1>  -0.1600 
 16 C        3.8540     5.3210     0.1270 C.ar  1 <1>  -0.1500 
 17 C        5.0090     2.8480    -0.5160 C.ar  1 <1>  -0.1500 
 18 O       -5.2580     3.3880     1.0930 O.3   1 <1>  -0.6800 
 19 C       -5.5060     1.4260    -0.2630 C.3   1 <1>  -0.1600 
 20 C       -4.4900     0.7010    -1.1590 C.3   1 <1>  -0.1600 
 21 C        5.1810     5.2430    -0.2470 C.ar  1 <1>  -0.1500 
 22 C        5.7550     4.0090    -0.5670 C.ar  1 <1>  -0.1500 
 23 H       -2.0940     1.5530     1.8400 H     1 <1>   0.0800 
 24 H       -2.6090     3.1920     2.0470 H     1 <1>   0.0800 
 25 H       -0.6520     5.0990     0.8740 H     1 <1>   0.0800 
 26 H       -0.3790     4.3830    -0.6940 H     1 <1>   0.0800 
 27 H        2.6940     0.9450    -0.1250 H     1 <1>   0.1500 
 28 H       -2.9980     5.0920     0.5820 H     1 <1>   0.0800 
 29 H       -2.4050     5.5090    -0.9930 H     1 <1>   0.0800 
 30 H       -4.6320     1.5870     1.6840 H     1 <1>   0.0800 
 31 H       -2.5740     3.1700    -1.6990 H     1 <1>   0.0800 
 32 H       -4.1230     3.7670    -1.2400 H     1 <1>   0.0800 
 33 H       -2.3270     0.9860    -1.2810 H     1 <1>   0.0800 
 34 H       -2.8910     0.2080     0.1690 H     1 <1>   0.0800 
 35 H        3.3880     6.2550     0.3790 H     1 <1>   0.1500 
 36 H        5.4400     1.8940    -0.7600 H     1 <1>   0.1500 
 37 H       -5.2730     3.9530     0.2990 H     1 <1>   0.4000 
 38 H       -6.1560     0.7200     0.2230 H     1 <1>   0.0800 
 39 H       -6.0950     2.1040    -0.8550 H     1 <1>   0.0800 
 40 H       -4.6840    -0.3570    -1.2070 H     1 <1>   0.0800 
 41 H       -4.5340     1.1070    -2.1550 H     1 <1>   0.0800 
 42 H        5.7830     6.1340    -0.2930 H     1 <1>   0.1500 
 43 H        6.7910     3.9710    -0.8550 H     1 <1>   0.1500 
@<TRIPOS>BOND
  1   1   2  2   
  2   2   3  am  
  3   2   4  1   
  4   3   5  1   
  5   3   6  1   
  6   4   7  1   
  7   4   8  2   
  8   5   9  1   
  9   5  23  1   
 10   5  24  1   
 11   6  10  1   
 12   6  25  1   
 13   6  26  1   
 14   7  11  1   
 15   8  12  1   
 16   8  27  1   
 17   9  13  1   
 18   9  14  1   
 19   9  15  1   
 20  10  14  1   
 21  10  28  1   
 22  10  29  1   
 23  11  12  ar  
 24  11  16  ar  
 25  12  17  ar  
 26  13  18  1   
 27  13  19  1   
 28  13  30  1   
 29  14  31  1   
 30  14  32  1   
 31  15  20  1   
 32  15  33  1   
 33  15  34  1   
 34  16  21  ar  
 35  16  35  1   
 36  17  22  ar  
 37  17  36  1   
 38  18  37  1   
 39  19  20  1   
 40  19  38  1   
 41  19  39  1   
 42  20  40  1   
 43  20  41  1   
 44  21  22  ar  
 45  21  42  1   
 46  22  43  1   
@<TRIPOS>SUBSTRUCTURE
  1 ****   2 GROUP 4 **** **** 0

# MOE 2024.06 (io_trps.svl 2023.06)
