@<TRIPOS>MOLECULE
NONAME
49 51 1 0 0 
SMALL
USER_CHARGES


@<TRIPOS>ATOM
  1 O        2.6490     2.3620     0.9900 O.3   1 <1>  -0.0190 
  2 N        3.4240     1.3430     1.2060 N.2   1 <1>  -0.4100 
  3 C        1.9530     2.2230    -0.1070 C.2   1 <1>  -0.0400 
  4 C        3.2120     0.5220     0.2400 C.2   1 <1>   0.1080 
  5 C        2.2680     1.0360    -0.6460 C.2   1 <1>  -0.1500 
  6 C        1.0050     3.3230    -0.5430 C.3   1 <1>   0.0200 
  7 C        3.9000    -0.8170     0.0960 C.3   1 <1>  -0.0590 
  8 C        1.7860     4.5960    -0.9260 C.3   1 <1>  -0.0800 
  9 C        0.9440     5.7750    -1.4140 C.3   1 <1>   0.2000 
 10 C        2.6050     5.1780     0.2320 C.3   1 <1>   0.3430 
 11 O       -0.1490     5.9570    -0.5680 O.3   1 <1>  -0.6800 
 12 C        1.9000     6.9560    -1.2260 C.3   1 <1>   0.3430 
 13 N        2.6670     6.6510     0.0180 N.4   1 <1>  -0.9590 
 14 C        2.1180     7.3900     1.1840 C.3   1 <1>   0.4860 
 15 C        2.4090     8.8640     0.9890 C.ar  1 <1>  -0.1440 
 16 C        3.7250     9.3120     1.0050 C.ar  1 <1>   0.0820 
 17 C        1.3770     9.7670     0.7830 C.ar  1 <1>  -0.1500 
 18 O        4.7070     8.3990     1.2030 O.3   1 <1>  -0.3630 
 19 C        4.0020    10.6610     0.8220 C.ar  1 <1>  -0.1500 
 20 C        1.6570    11.1090     0.5910 C.ar  1 <1>  -0.1500 
 21 C        5.8440     8.3860     0.3660 C.3   1 <1>   0.2580 
 22 C        2.9670    11.5550     0.6110 C.ar  1 <1>  -0.1500 
 23 C        5.4030     7.9380    -1.0190 C.2   1 <1>  -0.2880 
 24 C        5.6700     6.7490    -1.5690 C.2   1 <1>  -0.3000 
 25 H        1.9090     0.5580    -1.5390 H     1 <1>   0.1500 
 26 H        0.4370     2.9780    -1.3900 H     1 <1>   0.0800 
 27 H        0.3180     3.5190     0.2620 H     1 <1>   0.0800 
 28 H        4.4620    -0.8440    -0.8200 H     1 <1>   0.0800 
 29 H        3.1690    -1.6040     0.0870 H     1 <1>   0.0800 
 30 H        4.5720    -0.9770     0.9200 H     1 <1>   0.0800 
 31 H        2.4790     4.3360    -1.7070 H     1 <1>   0.0800 
 32 H        0.5960     5.6820    -2.4290 H     1 <1>   0.0800 
 33 H        3.5920     4.7440     0.2580 H     1 <1>   0.0800 
 34 H        2.1090     4.9630     1.1650 H     1 <1>   0.0800 
 35 H       -0.9060     5.3930    -0.8370 H     1 <1>   0.4000 
 36 H        1.3650     7.8890    -1.1620 H     1 <1>   0.0800 
 37 H        2.5800     6.9960    -2.0610 H     1 <1>   0.0800 
 38 H        3.6450     6.9790    -0.0810 H     1 <1>   0.4500 
 39 H        1.0570     7.2230     1.2670 H     1 <1>   0.0800 
 40 H        2.5960     7.0570     2.0910 H     1 <1>   0.0800 
 41 H        0.3510     9.4390     0.7710 H     1 <1>   0.1500 
 42 H        5.0110    11.0280     0.8530 H     1 <1>   0.1500 
 43 H        0.8560    11.8110     0.4320 H     1 <1>   0.1500 
 44 H        6.3030     9.3580     0.3480 H     1 <1>   0.0800 
 45 H        6.5430     7.6830     0.7860 H     1 <1>   0.0800 
 46 H        3.1790    12.6020     0.4690 H     1 <1>   0.1500 
 47 H        4.8470     8.7060    -1.5330 H     1 <1>   0.1500 
 48 H        5.3640     6.4590    -2.5610 H     1 <1>   0.1500 
 49 H        6.2340     5.9670    -1.0860 H     1 <1>   0.1500 
@<TRIPOS>BOND
  1   1   2  1   
  2   1   3  1   
  3   2   4  2   
  4   3   5  2   
  5   3   6  1   
  6   4   5  1   
  7   4   7  1   
  8   5  25  1   
  9   6   8  1   
 10   6  26  1   
 11   6  27  1   
 12   7  28  1   
 13   7  29  1   
 14   7  30  1   
 15   8   9  1   
 16   8  10  1   
 17   8  31  1   
 18   9  11  1   
 19   9  12  1   
 20   9  32  1   
 21  10  13  1   
 22  10  33  1   
 23  10  34  1   
 24  11  35  1   
 25  12  13  1   
 26  12  36  1   
 27  12  37  1   
 28  13  14  1   
 29  13  38  1   
 30  14  15  1   
 31  14  39  1   
 32  14  40  1   
 33  15  16  ar  
 34  15  17  ar  
 35  16  18  1   
 36  16  19  ar  
 37  17  20  ar  
 38  17  41  1   
 39  18  21  1   
 40  19  22  ar  
 41  19  42  1   
 42  20  22  ar  
 43  20  43  1   
 44  21  23  1   
 45  21  44  1   
 46  21  45  1   
 47  22  46  1   
 48  23  24  2   
 49  23  47  1   
 50  24  48  1   
 51  24  49  1   
@<TRIPOS>SUBSTRUCTURE
  1 ****  13 GROUP 4 **** **** 0

# MOE 2024.06 (io_trps.svl 2023.06)
