@<TRIPOS>MOLECULE
NONAME
49 52 1 0 0 
SMALL
USER_CHARGES


@<TRIPOS>ATOM
  1 O       -0.6750     0.4270     0.3960 O.2   1 <1>  -0.5700 
  2 C       -0.3730     1.5520     0.7030 C.2   1 <1>   0.5690 
  3 N       -1.2750     2.5530     0.6270 N.am  1 <1>  -0.7300 
  4 C        1.0580     1.8690     1.1470 C.3   1 <1>   0.1810 
  5 C       -0.9800     3.9590     0.9960 C.3   1 <1>   0.3640 
  6 O        1.1740     3.1040     1.8210 O.3   1 <1>  -0.5600 
  7 C       -1.5430     4.8730    -0.0920 C.ar  1 <1>  -0.1440 
  8 C        0.5420     4.2030     1.1790 C.3   1 <1>   0.2610 
  9 C       -2.2510     6.0120     0.2650 C.ar  1 <1>  -0.1500 
 10 C       -1.3560     4.5940    -1.4410 C.ar  1 <1>  -0.1500 
 11 C        0.8280     5.5130     1.9390 C.2   1 <1>   0.5690 
 12 C       -2.7630     6.8570    -0.7040 C.ar  1 <1>  -0.1500 
 13 C       -1.8680     5.4380    -2.4110 C.ar  1 <1>  -0.1500 
 14 O       -0.0650     6.0100     2.5920 O.2   1 <1>  -0.5700 
 15 N        2.0660     6.1180     1.8720 N.am  1 <1>  -0.6600 
 16 C       -2.5720     6.5700    -2.0440 C.ar  1 <1>  -0.1500 
 17 C        3.2810     5.5030     1.2680 C.3   1 <1>   0.1400 
 18 C        2.3230     7.4280     2.5350 C.3   1 <1>   0.1400 
 19 C        3.8580     6.4560     0.2190 C.3   1 <1>  -0.1600 
 20 C        2.8950     8.4100     1.5090 C.3   1 <1>  -0.1600 
 21 C        4.1490     7.8360     0.8290 C.3   1 <1>   0.1000 
 22 C        4.7040     8.7870    -0.2210 C.2   1 <1>   0.0060 
 23 N        5.9100     9.2330    -0.2380 N.2   1 <1>  -0.3380 
 24 N        4.0030     9.2630    -1.2580 N.pl3 1 <1>   0.0330 
 25 N        6.0290    10.0230    -1.3150 N.2   1 <1>  -0.3380 
 26 C        4.8820    10.0280    -1.9040 C.2   1 <1>   0.2700 
 27 N        4.6100    10.7340    -3.0540 N.pl3 1 <1>  -0.8840 
 28 H       -2.2280     2.3420     0.3280 H     1 <1>   0.3700 
 29 H        1.7010     1.8910     0.2860 H     1 <1>   0.0800 
 30 H        1.4000     1.0990     1.8150 H     1 <1>   0.0800 
 31 H       -1.4840     4.1600     1.9260 H     1 <1>   0.0800 
 32 H        0.9780     4.2950     0.2020 H     1 <1>   0.0800 
 33 H       -2.4050     6.2530     1.3050 H     1 <1>   0.1500 
 34 H       -0.8150     3.7150    -1.7470 H     1 <1>   0.1500 
 35 H       -3.3110     7.7360    -0.4140 H     1 <1>   0.1500 
 36 H       -1.7220     5.2120    -3.4530 H     1 <1>   0.1500 
 37 H       -2.9730     7.2250    -2.7970 H     1 <1>   0.1500 
 38 H        4.0070     5.3340     2.0460 H     1 <1>   0.0800 
 39 H        3.0650     4.5530     0.8150 H     1 <1>   0.0800 
 40 H        1.4170     7.8330     2.9520 H     1 <1>   0.0800 
 41 H        3.0220     7.2830     3.3410 H     1 <1>   0.0800 
 42 H        4.7710     6.0430    -0.1730 H     1 <1>   0.0800 
 43 H        3.1600     6.5460    -0.5940 H     1 <1>   0.0800 
 44 H        2.1340     8.6220     0.7800 H     1 <1>   0.0800 
 45 H        3.1460     9.3310     2.0030 H     1 <1>   0.0800 
 46 H        4.9070     7.7120     1.5840 H     1 <1>   0.0800 
 47 H        3.0400     9.0810    -1.5330 H     1 <1>   0.2700 
 48 H        5.4860    11.0710    -3.4670 H     1 <1>   0.4000 
 49 H        4.0040    11.5430    -2.8990 H     1 <1>   0.4000 
@<TRIPOS>BOND
  1   1   2  2   
  2   2   3  am  
  3   2   4  1   
  4   3   5  1   
  5   3  28  1   
  6   4   6  1   
  7   4  29  1   
  8   4  30  1   
  9   5   7  1   
 10   5   8  1   
 11   5  31  1   
 12   6   8  1   
 13   7   9  ar  
 14   7  10  ar  
 15   8  11  1   
 16   8  32  1   
 17   9  12  ar  
 18   9  33  1   
 19  10  13  ar  
 20  10  34  1   
 21  11  14  2   
 22  11  15  am  
 23  12  16  ar  
 24  12  35  1   
 25  13  16  ar  
 26  13  36  1   
 27  15  17  1   
 28  15  18  1   
 29  16  37  1   
 30  17  19  1   
 31  17  38  1   
 32  17  39  1   
 33  18  20  1   
 34  18  40  1   
 35  18  41  1   
 36  19  21  1   
 37  19  42  1   
 38  19  43  1   
 39  20  21  1   
 40  20  44  1   
 41  20  45  1   
 42  21  22  1   
 43  21  46  1   
 44  22  23  2   
 45  22  24  1   
 46  23  25  1   
 47  24  26  1   
 48  24  47  1   
 49  25  26  2   
 50  26  27  1   
 51  27  48  1   
 52  27  49  1   
@<TRIPOS>SUBSTRUCTURE
  1 ****  15 GROUP 4 **** **** 0

# MOE 2024.06 (io_trps.svl 2023.06)
