@<TRIPOS>MOLECULE
NONAME
48 50 1 0 0 
SMALL
USER_CHARGES


@<TRIPOS>ATOM
  1 CL      -0.8390    -0.2200    -1.9010 Cl    1 <1>  -0.1770 
  2 C       -1.8010    -0.9910    -0.6530 C.ar  1 <1>   0.1770 
  3 C       -2.4940    -0.2910     0.3450 C.ar  1 <1>   0.0820 
  4 C       -1.8540    -2.3690    -0.7160 C.ar  1 <1>  -0.1500 
  5 O       -2.5370     1.0510     0.5440 O.3   1 <1>  -0.3630 
  6 C       -3.2330    -1.0300     1.2570 C.ar  1 <1>  -0.1500 
  7 C       -2.6010    -3.1130     0.1950 C.ar  1 <1>   0.0860 
  8 C       -1.6700     1.9770    -0.0680 C.3   1 <1>   0.1200 
  9 C       -3.2820    -2.4100     1.1880 C.ar  1 <1>  -0.1500 
 10 C       -2.6500    -4.5590     0.1050 C.2   1 <1>   0.5440 
 11 C       -1.8650     3.3320     0.6120 C.3   1 <1>  -0.1600 
 12 O       -1.6150    -5.1870    -0.0130 O.2   1 <1>  -0.5700 
 13 N       -3.8400    -5.2490     0.1330 N.am  1 <1>  -0.6600 
 14 C       -0.9520     4.4000    -0.0010 C.3   1 <1>  -0.2400 
 15 C       -5.1740    -4.6590    -0.1470 C.3   1 <1>   0.1400 
 16 C       -3.8940    -6.7290     0.0310 C.3   1 <1>   0.1400 
 17 C       -6.0480    -5.8410    -0.5650 C.3   1 <1>   0.2000 
 18 C       -5.3840    -7.0760     0.0380 C.3   1 <1>  -0.0800 
 19 O       -7.3430    -5.7170    -0.0840 O.3   1 <1>  -0.6800 
 20 C       -5.7360    -8.3680    -0.7200 C.3   1 <1>  -0.0160 
 21 C       -5.1070    -9.5900    -0.0710 C.ar  1 <1>   0.1670 
 22 N       -3.8510    -9.8510    -0.3940 N.ar  1 <1>  -0.6200 
 23 C       -5.8490   -10.3670     0.8180 C.ar  1 <1>   0.1600 
 24 C       -3.3890   -10.9250     0.2250 C.ar  1 <1>   0.1600 
 25 N       -5.3890   -11.4410     1.4400 N.ar  1 <1>  -0.6200 
 26 C       -4.1330   -11.6930     1.1120 C.ar  1 <1>   0.1600 
 27 H       -1.3060    -2.8860    -1.4840 H     1 <1>   0.1500 
 28 H       -3.7680    -0.5090     2.0320 H     1 <1>   0.1500 
 29 H       -0.6580     1.6340     0.0580 H     1 <1>   0.0800 
 30 H       -1.9230     2.0420    -1.1110 H     1 <1>   0.0800 
 31 H       -3.8490    -2.9580     1.9200 H     1 <1>   0.1500 
 32 H       -2.8910     3.6390     0.5030 H     1 <1>   0.0800 
 33 H       -1.6440     3.2370     1.6610 H     1 <1>   0.0800 
 34 H       -1.1670     4.5230    -1.0480 H     1 <1>   0.0800 
 35 H        0.0810     4.1210     0.1120 H     1 <1>   0.0800 
 36 H       -1.1070     5.3430     0.4920 H     1 <1>   0.0800 
 37 H       -5.5550    -4.2020     0.7490 H     1 <1>   0.0800 
 38 H       -5.1090    -3.9330    -0.9390 H     1 <1>   0.0800 
 39 H       -3.4300    -7.0350    -0.8920 H     1 <1>   0.0800 
 40 H       -3.3730    -7.1890     0.8540 H     1 <1>   0.0800 
 41 H       -6.0880    -5.9030    -1.6400 H     1 <1>   0.0800 
 42 H       -5.6800    -7.1740     1.0680 H     1 <1>   0.0800 
 43 H       -7.3420    -5.6660     0.8910 H     1 <1>   0.4000 
 44 H       -5.3990    -8.3010    -1.7400 H     1 <1>   0.0800 
 45 H       -6.8050    -8.4850    -0.7410 H     1 <1>   0.0800 
 46 H       -6.8660   -10.0870     1.0260 H     1 <1>   0.1500 
 47 H       -2.3730   -11.2100     0.0210 H     1 <1>   0.1500 
 48 H       -3.6700   -12.5500     1.5670 H     1 <1>   0.1500 
@<TRIPOS>BOND
  1   1   2  1   
  2   2   3  ar  
  3   2   4  ar  
  4   3   5  1   
  5   3   6  ar  
  6   4   7  ar  
  7   4  27  1   
  8   5   8  1   
  9   6   9  ar  
 10   6  28  1   
 11   7   9  ar  
 12   7  10  1   
 13   8  11  1   
 14   8  29  1   
 15   8  30  1   
 16   9  31  1   
 17  10  12  2   
 18  10  13  am  
 19  11  14  1   
 20  11  32  1   
 21  11  33  1   
 22  13  15  1   
 23  13  16  1   
 24  14  34  1   
 25  14  35  1   
 26  14  36  1   
 27  15  17  1   
 28  15  37  1   
 29  15  38  1   
 30  16  18  1   
 31  16  39  1   
 32  16  40  1   
 33  17  18  1   
 34  17  19  1   
 35  17  41  1   
 36  18  20  1   
 37  18  42  1   
 38  19  43  1   
 39  20  21  1   
 40  20  44  1   
 41  20  45  1   
 42  21  22  ar  
 43  21  23  ar  
 44  22  24  ar  
 45  23  25  ar  
 46  23  46  1   
 47  24  26  ar  
 48  24  47  1   
 49  25  26  ar  
 50  26  48  1   
@<TRIPOS>SUBSTRUCTURE
  1 ****  13 GROUP 4 **** **** 0

# MOE 2024.06 (io_trps.svl 2023.06)
