@<TRIPOS>MOLECULE
NONAME
61 64 1 0 0 
SMALL
USER_CHARGES


@<TRIPOS>ATOM
  1 O        1.3550     2.9790     3.8440 O.2   1 <1>  -0.5700 
  2 C        0.7150     3.4340     2.9220 C.2   1 <1>   0.5690 
  3 N       -0.6080     3.0880     2.7400 N.am  1 <1>  -0.6600 
  4 C        1.4530     4.4110     2.0230 C.3   1 <1>   0.1570 
  5 C       -1.4290     3.5610     1.5670 C.3   1 <1>   0.1400 
  6 C       -1.2490     2.0710     3.6290 C.3   1 <1>   0.1400 
  7 N        1.3840     4.0220     0.6080 N.pl3 1 <1>   0.3140 
  8 C       -2.9460     3.4280     1.7920 C.3   1 <1>   0.1440 
  9 C       -2.2090     1.1800     2.8330 C.3   1 <1>  -0.1600 
 10 N        0.8110     4.8520    -0.2820 N.2   1 <1>  -0.7070 
 11 C        1.7480     2.8550     0.0260 C.2   1 <1>  -0.3320 
 12 C       -3.6950     3.8960     0.5570 C.ar  1 <1>   0.1670 
 13 C       -3.3300     1.9660     2.1240 C.3   1 <1>  -0.1600 
 14 C       -3.4500     4.4190     2.8790 C.3   1 <1>  -0.1600 
 15 C        0.7920     4.1940    -1.3950 C.2   1 <1>   0.1080 
 16 C        1.3720     2.9330    -1.2700 C.2   1 <1>  -0.1810 
 17 C        2.4330     1.7120     0.7640 C.3   1 <1>  -0.0600 
 18 N       -3.4500     3.4990    -0.6670 N.ar  1 <1>  -0.6200 
 19 C       -4.6700     4.7950     0.8630 C.ar  1 <1>  -0.1440 
 20 C       -4.7420     5.0640     2.3440 C.3   1 <1>  -0.0170 
 21 C        0.1680     4.7900    -2.6370 C.3   1 <1>  -0.0590 
 22 C        1.5210     1.8870    -2.3620 C.3   1 <1>   0.0210 
 23 C       -4.2160     4.0490    -1.6110 C.ar  1 <1>   0.7200 
 24 C       -5.4130     5.3040    -0.1720 C.ar  1 <1>   0.1600 
 25 C        2.8070     2.1220    -3.1560 C.3   1 <1>  -0.2400 
 26 N       -5.1940     4.9400    -1.4140 N.ar  1 <1>  -0.6200 
 27 N       -3.9720     3.6570    -2.9140 N.pl3 1 <1>  -0.8380 
 28 C       -4.5300     4.3970    -4.0780 C.3   1 <1>   0.1290 
 29 C       -3.1910     2.4300    -3.2310 C.3   1 <1>   0.1290 
 30 H        2.4850     4.4560     2.3090 H     1 <1>   0.0800 
 31 H        1.0220     5.3870     2.1350 H     1 <1>   0.0800 
 32 H       -1.1600     2.9770     0.7030 H     1 <1>   0.0800 
 33 H       -1.2050     4.5900     1.3480 H     1 <1>   0.0800 
 34 H       -1.7800     2.5770     4.4160 H     1 <1>   0.0800 
 35 H       -0.4960     1.4520     4.0850 H     1 <1>   0.0800 
 36 H       -2.6420     0.4440     3.4860 H     1 <1>   0.0800 
 37 H       -1.6280     0.6510     2.0960 H     1 <1>   0.0800 
 38 H       -3.5640     1.4450     1.2110 H     1 <1>   0.0800 
 39 H       -4.2230     1.9540     2.7240 H     1 <1>   0.0800 
 40 H       -2.7210     5.1980     3.0190 H     1 <1>   0.0800 
 41 H       -3.6140     3.9430     3.8290 H     1 <1>   0.0800 
 42 H        3.2770     2.0790     1.3190 H     1 <1>   0.0800 
 43 H        2.7840     0.9690     0.0720 H     1 <1>   0.0800 
 44 H        1.7440     1.2450     1.4450 H     1 <1>   0.0800 
 45 H       -4.7750     6.1180     2.5560 H     1 <1>   0.0800 
 46 H       -5.6090     4.5780     2.7560 H     1 <1>   0.0800 
 47 H        0.4300     5.8290    -2.7050 H     1 <1>   0.0800 
 48 H       -0.9020     4.7070    -2.5680 H     1 <1>   0.0800 
 49 H        0.5090     4.2870    -3.5200 H     1 <1>   0.0800 
 50 H        0.6700     1.9250    -3.0170 H     1 <1>   0.0800 
 51 H        1.5440     0.9070    -1.9200 H     1 <1>   0.0800 
 52 H       -6.1950     6.0180     0.0190 H     1 <1>   0.1500 
 53 H        2.7900     3.0960    -3.6110 H     1 <1>   0.0800 
 54 H        2.9110     1.3780    -3.9250 H     1 <1>   0.0800 
 55 H        3.6570     2.0670    -2.4990 H     1 <1>   0.0800 
 56 H       -4.6610     5.4380    -3.8360 H     1 <1>   0.0800 
 57 H       -5.4840     3.9780    -4.3470 H     1 <1>   0.0800 
 58 H       -3.8590     4.3280    -4.9160 H     1 <1>   0.0800 
 59 H       -3.2920     1.7050    -2.4420 H     1 <1>   0.0800 
 60 H       -2.1510     2.6840    -3.3400 H     1 <1>   0.0800 
 61 H       -3.5490     1.9880    -4.1440 H     1 <1>   0.0800 
@<TRIPOS>BOND
  1   1   2  2   
  2   2   3  am  
  3   2   4  1   
  4   3   5  1   
  5   3   6  1   
  6   4   7  1   
  7   4  30  1   
  8   4  31  1   
  9   5   8  1   
 10   5  32  1   
 11   5  33  1   
 12   6   9  1   
 13   6  34  1   
 14   6  35  1   
 15   7  10  1   
 16   7  11  1   
 17   8  12  1   
 18   8  13  1   
 19   8  14  1   
 20   9  13  1   
 21   9  36  1   
 22   9  37  1   
 23  10  15  2   
 24  11  16  2   
 25  11  17  1   
 26  12  18  ar  
 27  12  19  ar  
 28  13  38  1   
 29  13  39  1   
 30  14  20  1   
 31  14  40  1   
 32  14  41  1   
 33  15  16  1   
 34  15  21  1   
 35  16  22  1   
 36  17  42  1   
 37  17  43  1   
 38  17  44  1   
 39  18  23  ar  
 40  19  20  1   
 41  19  24  ar  
 42  20  45  1   
 43  20  46  1   
 44  21  47  1   
 45  21  48  1   
 46  21  49  1   
 47  22  25  1   
 48  22  50  1   
 49  22  51  1   
 50  23  26  ar  
 51  23  27  1   
 52  24  26  ar  
 53  24  52  1   
 54  25  53  1   
 55  25  54  1   
 56  25  55  1   
 57  27  28  1   
 58  27  29  1   
 59  28  56  1   
 60  28  57  1   
 61  28  58  1   
 62  29  59  1   
 63  29  60  1   
 64  29  61  1   
@<TRIPOS>SUBSTRUCTURE
  1 ****   5 GROUP 4 **** **** 0

# MOE 2024.06 (io_trps.svl 2023.06)
