@<TRIPOS>MOLECULE
NONAME
49 51 1 0 0 
SMALL
USER_CHARGES


@<TRIPOS>ATOM
  1 O        0.5550     0.5280     1.9820 O.2   1 <1>  -0.5700 
  2 C        0.3700     1.6840     1.6840 C.2   1 <1>   0.5690 
  3 N       -0.8440     2.1450     1.2510 N.am  1 <1>  -0.6600 
  4 C        1.5610     2.6250     1.7840 C.3   1 <1>  -0.0990 
  5 C       -1.1420     3.5880     1.0090 C.3   1 <1>   0.1400 
  6 C       -2.0090     1.2350     1.1250 C.3   1 <1>   0.2780 
  7 C        1.1880     4.1160     1.7890 C.3   1 <1>  -0.1600 
  8 C        0.1290     4.3970     0.7110 C.3   1 <1>  -0.0190 
  9 C       -2.3930     1.1300    -0.3380 C.2   1 <1>  -0.2880 
 10 C       -0.1750     5.8910     0.6070 C.2   1 <1>   0.5690 
 11 C       -3.5640     1.5020    -0.8660 C.2   1 <1>  -0.3000 
 12 O       -1.1820     6.3330     1.1110 O.2   1 <1>  -0.5700 
 13 N        0.7010     6.7000    -0.0450 N.am  1 <1>  -0.5100 
 14 C        0.4470     8.0890    -0.5460 C.3   1 <1>   0.2250 
 15 C        1.5780     6.4170    -1.2280 C.3   1 <1>   0.2250 
 16 C        1.7090     7.9450    -1.4370 C.3   1 <1>   0.2580 
 17 O        2.8780     8.4400    -0.8070 O.3   1 <1>  -0.3400 
 18 C        3.1510     9.7690    -0.7660 C.ar  1 <1>   0.0820 
 19 C        4.2740    10.1510    -0.0530 C.ar  1 <1>  -0.1500 
 20 C        2.3740    10.7410    -1.3920 C.ar  1 <1>  -0.1500 
 21 C        4.6320    11.4850     0.0470 C.ar  1 <1>   0.0820 
 22 C        2.7270    12.0760    -1.2950 C.ar  1 <1>  -0.1500 
 23 O        5.7480    11.7660     0.7670 O.3   1 <1>  -0.3630 
 24 C        3.8510    12.4520    -0.5800 C.ar  1 <1>  -0.1500 
 25 C        6.1960    13.0920     0.9360 C.3   1 <1>   0.0400 
 26 H        2.1990     2.4200     0.9440 H     1 <1>   0.0800 
 27 H        2.1120     2.3900     2.6760 H     1 <1>   0.0800 
 28 H       -1.6290     3.9830     1.8850 H     1 <1>   0.0800 
 29 H       -1.8220     3.6880     0.1800 H     1 <1>   0.0800 
 30 H       -2.8290     1.6250     1.7020 H     1 <1>   0.0800 
 31 H       -1.7720     0.2550     1.5040 H     1 <1>   0.0800 
 32 H        2.0690     4.7090     1.6150 H     1 <1>   0.0800 
 33 H        0.7900     4.3830     2.7530 H     1 <1>   0.0800 
 34 H        0.5010     4.0700    -0.2420 H     1 <1>   0.0800 
 35 H       -1.5950     0.7110    -0.9270 H     1 <1>   0.1500 
 36 H       -3.8050     1.4130    -1.9110 H     1 <1>   0.1500 
 37 H       -4.3790     1.9240    -0.3020 H     1 <1>   0.1500 
 38 H        0.5340     8.8270     0.2310 H     1 <1>   0.0000 
 39 H       -0.4710     8.1360    -1.1050 H     1 <1>   0.0000 
 40 H        1.0240     5.9210    -2.0060 H     1 <1>   0.0000 
 41 H        2.4940     5.9270    -0.9510 H     1 <1>   0.0000 
 42 H        1.6290     8.2750    -2.4580 H     1 <1>   0.0000 
 43 H        4.8780     9.4070     0.4320 H     1 <1>   0.1500 
 44 H        1.4980    10.4840    -1.9560 H     1 <1>   0.1500 
 45 H        2.1250    12.8260    -1.7790 H     1 <1>   0.1500 
 46 H        4.1000    13.4940    -0.5220 H     1 <1>   0.1500 
 47 H        7.0860    13.0690     1.5370 H     1 <1>   0.0800 
 48 H        5.4300    13.6580     1.4370 H     1 <1>   0.0800 
 49 H        6.4180    13.5110    -0.0300 H     1 <1>   0.0800 
@<TRIPOS>BOND
  1   1   2  2   
  2   2   3  am  
  3   2   4  1   
  4   3   5  1   
  5   3   6  1   
  6   4   7  1   
  7   4  26  1   
  8   4  27  1   
  9   5   8  1   
 10   5  28  1   
 11   5  29  1   
 12   6   9  1   
 13   6  30  1   
 14   6  31  1   
 15   7   8  1   
 16   7  32  1   
 17   7  33  1   
 18   8  10  1   
 19   8  34  1   
 20   9  11  2   
 21   9  35  1   
 22  10  12  2   
 23  10  13  am  
 24  11  36  1   
 25  11  37  1   
 26  13  14  1   
 27  13  15  1   
 28  14  16  1   
 29  14  38  1   
 30  14  39  1   
 31  15  16  1   
 32  15  40  1   
 33  15  41  1   
 34  16  17  1   
 35  16  42  1   
 36  17  18  1   
 37  18  19  ar  
 38  18  20  ar  
 39  19  21  ar  
 40  19  43  1   
 41  20  22  ar  
 42  20  44  1   
 43  21  23  1   
 44  21  24  ar  
 45  22  24  ar  
 46  22  45  1   
 47  23  25  1   
 48  24  46  1   
 49  25  47  1   
 50  25  48  1   
 51  25  49  1   
@<TRIPOS>SUBSTRUCTURE
  1 ****  13 GROUP 4 **** **** 0

# MOE 2024.06 (io_trps.svl 2023.06)
