@<TRIPOS>MOLECULE
NONAME
39 41 1 0 0 
SMALL
USER_CHARGES


@<TRIPOS>ATOM
  1 F        0.0510    -0.5280    -0.1390 F     1 <1>  -0.1900 
  2 C       -0.6000    -1.6600    -0.0370 C.ar  1 <1>   0.1900 
  3 C        0.0590    -2.8860     0.1020 C.ar  1 <1>   0.0820 
  4 C       -1.9780    -1.5810    -0.0690 C.ar  1 <1>  -0.1500 
  5 O        1.4080    -3.0930     0.1460 O.3   1 <1>  -0.3630 
  6 C       -0.7220    -4.0260     0.2080 C.ar  1 <1>  -0.1500 
  7 C       -2.7250    -2.7390     0.0410 C.ar  1 <1>  -0.1500 
  8 C        2.3500    -2.0570    -0.0250 C.3   1 <1>   0.0400 
  9 C       -2.1190    -3.9910     0.1810 C.ar  1 <1>   0.0530 
 10 C       -2.8910    -5.2100     0.3020 C.2   1 <1>   0.0870 
 11 O       -2.3200    -6.3030     0.7500 O.3   1 <1>  -0.0190 
 12 C       -4.1870    -5.5270     0.0490 C.2   1 <1>  -0.2330 
 13 N       -3.1390    -7.3180     0.8120 N.2   1 <1>  -0.4100 
 14 C       -4.2770    -6.8790     0.3910 C.2   1 <1>   0.3720 
 15 C       -5.2270    -4.6960    -0.4630 C.2   1 <1>   1.0330 
 16 N       -5.4230    -7.6890     0.3030 N.pl3 1 <1>  -0.8210 
 17 O       -6.1330    -4.2810     0.2840 O.co2 1 <1>  -0.9000 
 18 O       -5.1810    -4.2700    -1.6290 O.co2 1 <1>  -0.9000 
 19 C       -5.2300    -9.1570     0.4340 C.3   1 <1>   0.3040 
 20 C       -6.6420    -7.1380     0.9620 C.3   1 <1>   0.1290 
 21 C       -6.3120    -9.9040    -0.3560 C.3   1 <1>  -0.1950 
 22 C       -7.5980   -10.3580     0.2650 C.3   1 <1>  -0.2000 
 23 C       -6.5560   -11.3650    -0.1310 C.3   1 <1>  -0.2000 
 24 H       -2.4650    -0.6300    -0.1810 H     1 <1>   0.1500 
 25 H       -0.2230    -4.9720     0.3110 H     1 <1>   0.1500 
 26 H       -3.7990    -2.6610     0.0140 H     1 <1>   0.1500 
 27 H        3.3330    -2.4900     0.0100 H     1 <1>   0.0800 
 28 H        2.2360    -1.3450     0.7730 H     1 <1>   0.0800 
 29 H        2.1900    -1.5930    -0.9830 H     1 <1>   0.0800 
 30 H       -5.2520    -9.4350     1.4730 H     1 <1>   0.0800 
 31 H       -4.2710    -9.4310     0.0300 H     1 <1>   0.0800 
 32 H       -6.3720    -6.3730     1.6700 H     1 <1>   0.0800 
 33 H       -7.1830    -7.9050     1.4830 H     1 <1>   0.0800 
 34 H       -7.2820    -6.7000     0.2160 H     1 <1>   0.0800 
 35 H       -6.3450    -9.5650    -1.3770 H     1 <1>   0.1000 
 36 H       -8.4980   -10.2730    -0.3190 H     1 <1>   0.1000 
 37 H       -7.7680   -10.1850     1.3130 H     1 <1>   0.1000 
 38 H       -6.0120   -11.8740     0.6460 H     1 <1>   0.1000 
 39 H       -6.7400   -11.9920    -0.9860 H     1 <1>   0.1000 
@<TRIPOS>BOND
  1   1   2  1   
  2   2   3  ar  
  3   2   4  ar  
  4   3   5  1   
  5   3   6  ar  
  6   4   7  ar  
  7   4  24  1   
  8   5   8  1   
  9   6   9  ar  
 10   6  25  1   
 11   7   9  ar  
 12   7  26  1   
 13   8  27  1   
 14   8  28  1   
 15   8  29  1   
 16   9  10  1   
 17  10  11  1   
 18  10  12  2   
 19  11  13  1   
 20  12  14  1   
 21  12  15  1   
 22  13  14  2   
 23  14  16  1   
 24  15  17  ar  
 25  15  18  ar  
 26  16  19  1   
 27  16  20  1   
 28  19  21  1   
 29  19  30  1   
 30  19  31  1   
 31  20  32  1   
 32  20  33  1   
 33  20  34  1   
 34  21  22  1   
 35  21  23  1   
 36  21  35  1   
 37  22  23  1   
 38  22  36  1   
 39  22  37  1   
 40  23  38  1   
 41  23  39  1   
@<TRIPOS>SUBSTRUCTURE
  1 ****  10 GROUP 4 **** **** 0

# MOE 2024.06 (io_trps.svl 2023.06)
