@<TRIPOS>MOLECULE
NONAME
24 24 1 0 0 
SMALL
USER_CHARGES


@<TRIPOS>ATOM
  1 CL      -0.5030     0.6530    -2.3010 Cl    1 <1>  -0.1770 
  2 C       -0.3900     2.2440    -1.6050 C.ar  1 <1>   0.4870 
  3 N       -1.4940     2.7340    -1.0750 N.ar  1 <1>  -0.6200 
  4 C        0.8310     2.8890    -1.6530 C.ar  1 <1>  -0.1500 
  5 C       -1.3680     3.9450    -0.5540 C.ar  1 <1>   0.1600 
  6 C        0.9370     4.1490    -1.1070 C.ar  1 <1>  -0.1500 
  7 C       -0.1980     4.7040    -0.5340 C.ar  1 <1>  -0.1440 
  8 C       -0.1240     6.1190     0.0840 C.3   1 <1>   0.1440 
  9 C        0.3180     7.1370    -0.9950 C.3   1 <1>   0.1200 
 10 C        0.9080     6.1130     1.2240 C.3   1 <1>  -0.2400 
 11 C       -1.4620     6.5890     0.6910 C.3   1 <1>  -0.2400 
 12 O       -0.5410     7.1050    -2.0880 O.3   1 <1>  -0.6800 
 13 H        1.6730     2.4030    -2.1090 H     1 <1>   0.1500 
 14 H       -2.2680     4.3420    -0.1210 H     1 <1>   0.1500 
 15 H        1.8790     4.6690    -1.1340 H     1 <1>   0.1500 
 16 H        1.3080     6.9160    -1.3510 H     1 <1>   0.0800 
 17 H        0.3110     8.1380    -0.6020 H     1 <1>   0.0800 
 18 H        1.8910     5.8730     0.8610 H     1 <1>   0.0800 
 19 H        0.6360     5.3820     1.9660 H     1 <1>   0.0800 
 20 H        0.9560     7.0770     1.6980 H     1 <1>   0.0800 
 21 H       -2.2310     6.6300    -0.0610 H     1 <1>   0.0800 
 22 H       -1.3600     7.5760     1.1050 H     1 <1>   0.0800 
 23 H       -1.7780     5.9290     1.4800 H     1 <1>   0.0800 
 24 H       -0.6360     6.1860    -2.4120 H     1 <1>   0.4000 
@<TRIPOS>BOND
  1   1   2  1   
  2   2   3  ar  
  3   2   4  ar  
  4   3   5  ar  
  5   4   6  ar  
  6   4  13  1   
  7   5   7  ar  
  8   5  14  1   
  9   6   7  ar  
 10   6  15  1   
 11   7   8  1   
 12   8   9  1   
 13   8  10  1   
 14   8  11  1   
 15   9  12  1   
 16   9  16  1   
 17   9  17  1   
 18  10  18  1   
 19  10  19  1   
 20  10  20  1   
 21  11  21  1   
 22  11  22  1   
 23  11  23  1   
 24  12  24  1   
@<TRIPOS>SUBSTRUCTURE
  1 ****   7 GROUP 4 **** **** 0

# MOE 2024.06 (io_trps.svl 2023.06)
