@<TRIPOS>MOLECULE
NONAME
55 57 1 0 0 
SMALL
USER_CHARGES


@<TRIPOS>ATOM
  1 O       -0.1930    -0.0720     0.6890 O.2   1 <1>  -0.5700 
  2 C        0.9110    -0.5840     0.7190 C.2   1 <1>   0.7150 
  3 N        2.0020     0.2250     0.6450 N.am  1 <1>  -0.7300 
  4 C        1.0620    -2.0190     0.8230 C.2   1 <1>   0.0550 
  5 C        1.9590     1.6600     0.3320 C.3   1 <1>   0.4000 
  6 O        0.0010    -2.7870     1.0430 O.3   1 <1>  -0.2800 
  7 C        2.1530    -2.8320     0.7320 C.2   1 <1>  -0.1500 
  8 C        3.3620     2.0510    -0.1120 C.2   1 <1>  -0.3320 
  9 C        1.4920     2.4690     1.5560 C.3   1 <1>   0.1200 
 10 C        0.3650    -4.0460     1.0860 C.2   1 <1>  -0.0400 
 11 C        1.7000    -4.1430     0.8990 C.2   1 <1>  -0.1500 
 12 N        3.6190     3.0980    -0.9320 N.pl3 1 <1>   0.3140 
 13 C        4.5610     1.5000     0.1950 C.2   1 <1>  -0.1500 
 14 O        1.2950     3.8090     1.2040 O.3   1 <1>  -0.5600 
 15 C       -0.6970    -5.1090     1.3130 C.3   1 <1>   0.5230 
 16 N        4.9370     3.2190    -1.1690 N.2   1 <1>  -0.7070 
 17 C        2.6730     4.0510    -1.5330 C.3   1 <1>   0.0160 
 18 C        5.4930     2.2660    -0.4910 C.2   1 <1>   0.1390 
 19 C        0.8960     4.6120     2.2670 C.3   1 <1>   0.0400 
 20 N       -1.7730    -4.9600     0.2920 N.4   1 <1>  -0.9590 
 21 C       -2.7470    -3.8900     0.6720 C.3   1 <1>   0.3430 
 22 C       -2.4490    -6.2520    -0.0030 C.3   1 <1>   0.3430 
 23 C       -3.7340    -3.6650    -0.4730 C.3   1 <1>  -0.1600 
 24 C       -3.4310    -6.0670    -1.1600 C.3   1 <1>  -0.1600 
 25 C       -4.4560    -4.9630    -0.8650 C.3   1 <1>  -0.0800 
 26 C       -5.3640    -4.7300    -2.0760 C.3   1 <1>  -0.2400 
 27 H        2.9260    -0.1770     0.5140 H     1 <1>   0.3700 
 28 H        1.2540     1.8050    -0.4690 H     1 <1>   0.0800 
 29 H        3.1780    -2.5520     0.5600 H     1 <1>   0.1500 
 30 H        2.2390     2.4230     2.3290 H     1 <1>   0.0800 
 31 H        0.5570     2.0800     1.9190 H     1 <1>   0.0800 
 32 H        2.3270    -5.0190     0.8750 H     1 <1>   0.1500 
 33 H        4.8000     0.6650     0.8280 H     1 <1>   0.1500 
 34 H       -1.1070    -5.0100     2.3050 H     1 <1>   0.0800 
 35 H       -0.2370    -6.0790     1.2280 H     1 <1>   0.0800 
 36 H        1.7560     3.5530    -1.7810 H     1 <1>   0.0800 
 37 H        3.1110     4.4630    -2.4230 H     1 <1>   0.0800 
 38 H        2.4830     4.8410    -0.8310 H     1 <1>   0.0800 
 39 H        6.5570     2.1000    -0.4700 H     1 <1>   0.1500 
 40 H        0.7660     5.6150     1.8990 H     1 <1>   0.0800 
 41 H        1.6590     4.6010     3.0270 H     1 <1>   0.0800 
 42 H       -0.0370     4.2460     2.6600 H     1 <1>   0.0800 
 43 H       -1.3070    -4.6310    -0.5640 H     1 <1>   0.4500 
 44 H       -2.2330    -2.9640     0.8780 H     1 <1>   0.0800 
 45 H       -3.2850    -4.1810     1.5590 H     1 <1>   0.0800 
 46 H       -2.9850    -6.5920     0.8690 H     1 <1>   0.0800 
 47 H       -1.7210    -7.0010    -0.2700 H     1 <1>   0.0800 
 48 H       -3.2060    -3.2590    -1.3190 H     1 <1>   0.0800 
 49 H       -4.4580    -2.9310    -0.1650 H     1 <1>   0.0800 
 50 H       -3.9480    -6.9970    -1.3300 H     1 <1>   0.0800 
 51 H       -2.8830    -5.8360    -2.0570 H     1 <1>   0.0800 
 52 H       -5.0740    -5.2760    -0.0380 H     1 <1>   0.0800 
 53 H       -4.7940    -4.4110    -2.9310 H     1 <1>   0.0800 
 54 H       -6.0970    -3.9730    -1.8550 H     1 <1>   0.0800 
 55 H       -5.8870    -5.6350    -2.3340 H     1 <1>   0.0800 
@<TRIPOS>BOND
  1   1   2  2   
  2   2   3  am  
  3   2   4  1   
  4   3   5  1   
  5   3  27  1   
  6   4   6  1   
  7   4   7  2   
  8   5   8  1   
  9   5   9  1   
 10   5  28  1   
 11   6  10  1   
 12   7  11  1   
 13   7  29  1   
 14   8  12  1   
 15   8  13  2   
 16   9  14  1   
 17   9  30  1   
 18   9  31  1   
 19  10  11  2   
 20  10  15  1   
 21  11  32  1   
 22  12  16  1   
 23  12  17  1   
 24  13  18  1   
 25  13  33  1   
 26  14  19  1   
 27  15  20  1   
 28  15  34  1   
 29  15  35  1   
 30  16  18  2   
 31  17  36  1   
 32  17  37  1   
 33  17  38  1   
 34  18  39  1   
 35  19  40  1   
 36  19  41  1   
 37  19  42  1   
 38  20  21  1   
 39  20  22  1   
 40  20  43  1   
 41  21  23  1   
 42  21  44  1   
 43  21  45  1   
 44  22  24  1   
 45  22  46  1   
 46  22  47  1   
 47  23  25  1   
 48  23  48  1   
 49  23  49  1   
 50  24  25  1   
 51  24  50  1   
 52  24  51  1   
 53  25  26  1   
 54  25  52  1   
 55  26  53  1   
 56  26  54  1   
 57  26  55  1   
@<TRIPOS>SUBSTRUCTURE
  1 ****   2 GROUP 4 **** **** 0

# MOE 2024.06 (io_trps.svl 2023.06)
