@<TRIPOS>MOLECULE
NONAME
43 44 1 0 0 
SMALL
USER_CHARGES


@<TRIPOS>ATOM
  1 S        1.2070    -0.0060     0.5650 S.3   1 <1>  -0.4600 
  2 C        0.7780     1.6460    -0.0410 C.3   1 <1>   0.0700 
  3 C        0.2520    -1.1040    -0.5140 C.3   1 <1>  -0.0100 
  4 C        1.4600     2.6680     0.8690 C.3   1 <1>  -0.0990 
  5 C        1.2050     4.0870     0.4040 C.2   1 <1>   0.5690 
  6 O        0.1170     4.3660    -0.0360 O.2   1 <1>  -0.5700 
  7 N        2.2350     4.9820     0.5060 N.am  1 <1>  -0.4940 
  8 C        2.3530     6.3470     0.1520 C.2   1 <1>  -0.0880 
  9 N        1.3840     7.3020     0.0830 N.pl3 1 <1>   0.3140 
 10 C        3.5290     6.9620    -0.1580 C.2   1 <1>  -0.0540 
 11 N        1.9010     8.5010    -0.2650 N.2   1 <1>  -0.7070 
 12 C       -0.0470     7.2070     0.4020 C.3   1 <1>   0.0160 
 13 C        4.8490     6.3850    -0.2110 C.ar  1 <1>   0.0540 
 14 C        3.1660     8.2890    -0.4120 C.2   1 <1>   0.1080 
 15 C        5.1340     5.3380    -1.0820 C.ar  1 <1>  -0.1500 
 16 C        5.8720     6.8520     0.6100 C.ar  1 <1>  -0.1500 
 17 C        4.1160     9.3920    -0.8230 C.3   1 <1>  -0.0590 
 18 C        6.3960     4.7750    -1.1290 C.ar  1 <1>  -0.1500 
 19 C        7.1370     6.2950     0.5670 C.ar  1 <1>  -0.1500 
 20 C        7.4070     5.2470    -0.3080 C.ar  1 <1>   0.0820 
 21 O        8.6170     4.6430    -0.4170 O.3   1 <1>  -0.3620 
 22 C        9.7240     5.0790     0.3410 C.3   1 <1>   0.0400 
 23 H       -0.2940     1.7400    -0.0070 H     1 <1>   0.0800 
 24 H        1.1250     1.7220    -1.0570 H     1 <1>   0.0800 
 25 H        0.4560    -2.1170    -0.2140 H     1 <1>   0.0800 
 26 H        0.5680    -0.9350    -1.5280 H     1 <1>   0.0800 
 27 H       -0.7900    -0.8710    -0.3890 H     1 <1>   0.0800 
 28 H        2.5170     2.4740     0.8830 H     1 <1>   0.0800 
 29 H        1.0790     2.5630     1.8680 H     1 <1>   0.0800 
 30 H        3.1210     4.5720     0.8080 H     1 <1>   0.3700 
 31 H       -0.1800     6.5800     1.2620 H     1 <1>   0.0800 
 32 H       -0.5660     6.7920    -0.4410 H     1 <1>   0.0800 
 33 H       -0.4280     8.1890     0.6110 H     1 <1>   0.0800 
 34 H        4.3570     4.9700    -1.7290 H     1 <1>   0.1500 
 35 H        5.6640     7.6580     1.2910 H     1 <1>   0.1500 
 36 H        4.9250     8.9910    -1.4040 H     1 <1>   0.0800 
 37 H        4.5090     9.8740     0.0530 H     1 <1>   0.0800 
 38 H        3.5900    10.1180    -1.4140 H     1 <1>   0.0800 
 39 H        6.6090     3.9670    -1.8060 H     1 <1>   0.1500 
 40 H        7.8960     6.6860     1.2180 H     1 <1>   0.1500 
 41 H       10.5690     4.4690     0.0780 H     1 <1>   0.0800 
 42 H        9.5000     4.9610     1.3870 H     1 <1>   0.0800 
 43 H        9.9280     6.1070     0.1020 H     1 <1>   0.0800 
@<TRIPOS>BOND
  1   1   2  1   
  2   1   3  1   
  3   2   4  1   
  4   2  23  1   
  5   2  24  1   
  6   3  25  1   
  7   3  26  1   
  8   3  27  1   
  9   4   5  1   
 10   4  28  1   
 11   4  29  1   
 12   5   6  2   
 13   5   7  am  
 14   7   8  1   
 15   7  30  1   
 16   8   9  1   
 17   8  10  2   
 18   9  11  1   
 19   9  12  1   
 20  10  13  1   
 21  10  14  1   
 22  11  14  2   
 23  12  31  1   
 24  12  32  1   
 25  12  33  1   
 26  13  15  ar  
 27  13  16  ar  
 28  14  17  1   
 29  15  18  ar  
 30  15  34  1   
 31  16  19  ar  
 32  16  35  1   
 33  17  36  1   
 34  17  37  1   
 35  17  38  1   
 36  18  20  ar  
 37  18  39  1   
 38  19  20  ar  
 39  19  40  1   
 40  20  21  1   
 41  21  22  1   
 42  22  41  1   
 43  22  42  1   
 44  22  43  1   
@<TRIPOS>SUBSTRUCTURE
  1 ****   7 GROUP 4 **** **** 0

# MOE 2024.06 (io_trps.svl 2023.06)
