@<TRIPOS>MOLECULE
NONAME
37 38 1 0 0 
SMALL
USER_CHARGES


@<TRIPOS>ATOM
  1 S        0.1110    -0.2840    -0.9040 S.o2  1 <1>   1.3330 
  2 O        0.7310    -0.1960    -2.2070 O.2   1 <1>  -0.6500 
  3 O       -0.6950    -1.4350    -0.5690 O.2   1 <1>  -0.6500 
  4 N        1.3350    -0.1610     0.2690 N.am  1 <1>  -0.8490 
  5 C       -0.8620     1.2040    -0.6590 C.3   1 <1>  -0.0550 
  6 C        2.5610    -0.8590    -0.1300 C.3   1 <1>   0.1160 
  7 C        0.9160    -0.6140     1.6000 C.3   1 <1>   0.1160 
  8 C       -0.1320     2.5120    -1.0360 C.3   1 <1>  -0.0800 
  9 C       -1.0210     3.7580    -1.0010 C.3   1 <1>   0.2000 
 10 C        1.0530     2.8710    -0.1300 C.3   1 <1>   0.1400 
 11 O       -1.7780     3.7400     0.1610 O.3   1 <1>  -0.6800 
 12 C       -0.0260     4.9130    -0.9060 C.3   1 <1>   0.1400 
 13 N        1.1100     4.3550    -0.1270 N.am  1 <1>  -0.6600 
 14 C        2.1140     5.0670     0.5030 C.2   1 <1>   0.7160 
 15 O        2.8830     4.4330     1.2070 O.2   1 <1>  -0.5700 
 16 C        2.2930     6.5100     0.3740 C.2   1 <1>   0.2030 
 17 N        1.6440     7.3410    -0.3920 N.2   1 <1>  -0.4100 
 18 C        3.2380     7.2390     1.0840 C.2   1 <1>  -0.1500 
 19 O        2.0920     8.5630    -0.2340 O.3   1 <1>  -0.0190 
 20 C        3.0540     8.4910     0.6580 C.2   1 <1>  -0.0100 
 21 H       -1.7420     1.1300    -1.2670 H     1 <1>   0.0800 
 22 H       -1.1870     1.2510     0.3620 H     1 <1>   0.0800 
 23 H        3.3190    -0.7450     0.6260 H     1 <1>   0.0800 
 24 H        2.9400    -0.4440    -1.0490 H     1 <1>   0.0800 
 25 H        2.3630    -1.9080    -0.2800 H     1 <1>   0.0800 
 26 H        1.6960    -0.4240     2.3170 H     1 <1>   0.0800 
 27 H        0.6990    -1.6700     1.5880 H     1 <1>   0.0800 
 28 H        0.0320    -0.0840     1.9130 H     1 <1>   0.0800 
 29 H        0.2490     2.4140    -2.0390 H     1 <1>   0.0800 
 30 H       -1.6850     3.8370    -1.8450 H     1 <1>   0.0800 
 31 H        1.9750     2.4550    -0.5010 H     1 <1>   0.0800 
 32 H        0.8910     2.5260     0.8770 H     1 <1>   0.0800 
 33 H       -1.1880     3.9080     0.9240 H     1 <1>   0.4000 
 34 H       -0.4650     5.7720    -0.4280 H     1 <1>   0.0800 
 35 H        0.3220     5.1850    -1.8880 H     1 <1>   0.0800 
 36 H        3.9350     6.8410     1.7990 H     1 <1>   0.1500 
 37 H        3.5640     9.3960     0.9340 H     1 <1>   0.1500 
@<TRIPOS>BOND
  1   1   2  2   
  2   1   3  2   
  3   1   4  am  
  4   1   5  1   
  5   4   6  1   
  6   4   7  1   
  7   5   8  1   
  8   5  21  1   
  9   5  22  1   
 10   6  23  1   
 11   6  24  1   
 12   6  25  1   
 13   7  26  1   
 14   7  27  1   
 15   7  28  1   
 16   8   9  1   
 17   8  10  1   
 18   8  29  1   
 19   9  11  1   
 20   9  12  1   
 21   9  30  1   
 22  10  13  1   
 23  10  31  1   
 24  10  32  1   
 25  11  33  1   
 26  12  13  1   
 27  12  34  1   
 28  12  35  1   
 29  13  14  am  
 30  14  15  2   
 31  14  16  1   
 32  16  17  2   
 33  16  18  1   
 34  17  19  1   
 35  18  20  2   
 36  18  36  1   
 37  19  20  1   
 38  20  37  1   
@<TRIPOS>SUBSTRUCTURE
  1 ****  10 GROUP 4 **** **** 0

# MOE 2024.06 (io_trps.svl 2023.06)
