@<TRIPOS>MOLECULE
NONAME
44 46 1 0 0 
SMALL
USER_CHARGES


@<TRIPOS>ATOM
  1 O        0.0680    -0.0140     0.1970 O.2   1 <1>  -0.5700 
  2 C        1.2030    -0.4590     0.2090 C.2   1 <1>   0.7160 
  3 N        2.2820     0.3660     0.4190 N.am  1 <1>  -0.4940 
  4 C        1.4580    -1.8700     0.0030 C.2   1 <1>   0.2030 
  5 C        2.3660     1.7640     0.6250 C.2   1 <1>  -0.0880 
  6 N        2.6300    -2.4360     0.0070 N.2   1 <1>  -0.4100 
  7 C        0.5030    -2.8460    -0.2310 C.2   1 <1>  -0.1500 
  8 N        3.5150     2.4630     0.8600 N.pl3 1 <1>   0.3140 
  9 C        1.3640     2.6750     0.6340 C.2   1 <1>  -0.1500 
 10 O        2.5090    -3.7240    -0.2100 O.3   1 <1>  -0.0190 
 11 C        1.2220    -3.9680    -0.3520 C.2   1 <1>  -0.0400 
 12 N        3.2580     3.7860     1.0200 N.2   1 <1>  -0.7070 
 13 C        4.9130     1.9540     0.9920 C.3   1 <1>   0.2710 
 14 C        1.9770     3.8950     0.8810 C.2   1 <1>   0.1080 
 15 C        0.7910    -5.4050    -0.6200 C.3   1 <1>   0.1000 
 16 C        5.3590     1.1650    -0.2550 C.3   1 <1>  -0.1950 
 17 C        5.0830     1.1160     2.2660 C.3   1 <1>  -0.2400 
 18 C        1.2630     5.2220     0.9830 C.3   1 <1>  -0.0590 
 19 C       -0.6960    -5.4950    -0.9870 C.3   1 <1>  -0.2400 
 20 C        1.0800    -6.2810     0.6030 C.3   1 <1>  -0.2400 
 21 C        6.7660     1.2740    -0.7560 C.3   1 <1>  -0.2000 
 22 C        5.6350     1.8620    -1.5500 C.3   1 <1>  -0.2000 
 23 H        3.1640    -0.1490     0.3920 H     1 <1>   0.3700 
 24 H       -0.5570    -2.6790    -0.2900 H     1 <1>   0.1500 
 25 H        0.3130     2.5100     0.4850 H     1 <1>   0.1500 
 26 H        5.5410     2.8230     1.0780 H     1 <1>   0.0800 
 27 H        1.3660    -5.7740    -1.4520 H     1 <1>   0.0800 
 28 H        4.9290     0.1810    -0.3050 H     1 <1>   0.1000 
 29 H        4.4780     0.2290     2.2320 H     1 <1>   0.0800 
 30 H        4.8060     1.7010     3.1250 H     1 <1>   0.0800 
 31 H        6.1120     0.8240     2.3730 H     1 <1>   0.0800 
 32 H        0.2060     5.0930     0.8380 H     1 <1>   0.0800 
 33 H        1.6430     5.8920     0.2350 H     1 <1>   0.0800 
 34 H        1.4370     5.6480     1.9540 H     1 <1>   0.0800 
 35 H       -1.3090    -5.1530    -0.1720 H     1 <1>   0.0800 
 36 H       -0.9620    -6.5110    -1.2140 H     1 <1>   0.0800 
 37 H       -0.9000    -4.8900    -1.8530 H     1 <1>   0.0800 
 38 H        0.5340    -5.9230     1.4580 H     1 <1>   0.0800 
 39 H        2.1300    -6.2580     0.8350 H     1 <1>   0.0800 
 40 H        0.7970    -7.3000     0.4120 H     1 <1>   0.0800 
 41 H        7.2540     0.3920    -1.1350 H     1 <1>   0.1000 
 42 H        7.4540     1.9490    -0.2770 H     1 <1>   0.1000 
 43 H        5.5300     2.9340    -1.5940 H     1 <1>   0.1000 
 44 H        5.3350     1.3840    -2.4660 H     1 <1>   0.1000 
@<TRIPOS>BOND
  1   1   2  2   
  2   2   3  am  
  3   2   4  1   
  4   3   5  1   
  5   3  23  1   
  6   4   6  2   
  7   4   7  1   
  8   5   8  1   
  9   5   9  2   
 10   6  10  1   
 11   7  11  2   
 12   7  24  1   
 13   8  12  1   
 14   8  13  1   
 15   9  14  1   
 16   9  25  1   
 17  10  11  1   
 18  11  15  1   
 19  12  14  2   
 20  13  16  1   
 21  13  17  1   
 22  13  26  1   
 23  14  18  1   
 24  15  19  1   
 25  15  20  1   
 26  15  27  1   
 27  16  21  1   
 28  16  22  1   
 29  16  28  1   
 30  17  29  1   
 31  17  30  1   
 32  17  31  1   
 33  18  32  1   
 34  18  33  1   
 35  18  34  1   
 36  19  35  1   
 37  19  36  1   
 38  19  37  1   
 39  20  38  1   
 40  20  39  1   
 41  20  40  1   
 42  21  22  1   
 43  21  41  1   
 44  21  42  1   
 45  22  43  1   
 46  22  44  1   
@<TRIPOS>SUBSTRUCTURE
  1 ****   3 GROUP 4 **** **** 0

# MOE 2024.06 (io_trps.svl 2023.06)
