@<TRIPOS>MOLECULE
NONAME
48 50 1 0 0 
SMALL
USER_CHARGES


@<TRIPOS>ATOM
  1 O        0.4300    -1.5370    -0.0440 O.3   1 <1>  -0.3630 
  2 C        0.1100    -2.7880     0.3660 C.ar  1 <1>   0.0830 
  3 C        1.1980    -1.3170    -1.2090 C.3   1 <1>   0.1200 
  4 C       -0.6010    -2.8910     1.5490 C.ar  1 <1>  -0.1500 
  5 C        0.4530    -3.9440    -0.3280 C.ar  1 <1>  -0.1500 
  6 C        1.3730     0.1890    -1.3940 C.3   1 <1>   0.1200 
  7 C       -0.9740    -4.1290     2.0410 C.ar  1 <1>  -0.1500 
  8 C        0.0800    -5.1830     0.1640 C.ar  1 <1>  -0.1500 
  9 O        2.1900     0.4220    -2.4920 O.3   1 <1>  -0.6800 
 10 C       -0.6390    -5.2830     1.3480 C.ar  1 <1>  -0.1430 
 11 C       -1.0660    -6.6390     1.8730 C.3   1 <1>   0.4860 
 12 N       -2.1210    -7.1640     0.9740 N.4   1 <1>  -0.9590 
 13 C       -3.3510    -6.3120     0.8710 C.3   1 <1>   0.3430 
 14 C       -2.5740    -8.5470     1.2450 C.3   1 <1>   0.3430 
 15 C       -4.5360    -7.2920     0.7890 C.3   1 <1>   0.2000 
 16 C       -3.8930    -8.6450     0.4750 C.3   1 <1>  -0.0800 
 17 O       -5.1710    -7.3720     2.0230 O.3   1 <1>  -0.6800 
 18 C       -3.7180    -8.8080    -1.0610 C.3   1 <1>  -0.0170 
 19 C       -2.3850    -9.4030    -1.4970 C.ar  1 <1>   0.1670 
 20 N       -1.3430    -8.5780    -1.4870 N.ar  1 <1>  -0.6200 
 21 C       -2.3100   -10.7400    -1.8830 C.ar  1 <1>   0.1600 
 22 C       -0.2390    -9.1780    -1.9180 C.ar  1 <1>   0.1600 
 23 N       -1.2020   -11.3380    -2.2800 N.ar  1 <1>  -0.6200 
 24 C       -0.1710   -10.5130    -2.2980 C.ar  1 <1>   0.1600 
 25 H        2.1510    -1.7960    -1.0760 H     1 <1>   0.0800 
 26 H        0.6700    -1.7330    -2.0480 H     1 <1>   0.0800 
 27 H       -0.8570    -1.9910     2.0810 H     1 <1>   0.1500 
 28 H        1.0060    -3.8970    -1.2470 H     1 <1>   0.1500 
 29 H        1.8310     0.6370    -0.5290 H     1 <1>   0.0800 
 30 H        0.4210     0.6540    -1.5880 H     1 <1>   0.0800 
 31 H       -1.5220    -4.1730     2.9670 H     1 <1>   0.1500 
 32 H        0.3570    -6.0650    -0.3890 H     1 <1>   0.1500 
 33 H        3.1210     0.2050    -2.2880 H     1 <1>   0.4000 
 34 H       -1.4420    -6.5440     2.8780 H     1 <1>   0.0800 
 35 H       -0.2180    -7.3050     1.8800 H     1 <1>   0.0800 
 36 H       -1.7050    -7.2110     0.0220 H     1 <1>   0.4500 
 37 H       -3.4630    -5.6650     1.7260 H     1 <1>   0.0800 
 38 H       -3.2980    -5.7100    -0.0220 H     1 <1>   0.0800 
 39 H       -1.8510    -9.2760     0.9140 H     1 <1>   0.0800 
 40 H       -2.7550    -8.6780     2.2990 H     1 <1>   0.0800 
 41 H       -5.2730    -6.9840     0.0660 H     1 <1>   0.0800 
 42 H       -4.4850    -9.4640     0.8470 H     1 <1>   0.0800 
 43 H       -4.5870    -7.6590     2.7500 H     1 <1>   0.4000 
 44 H       -3.8090    -7.8570    -1.5570 H     1 <1>   0.0800 
 45 H       -4.5240    -9.4160    -1.4380 H     1 <1>   0.0800 
 46 H       -3.2010   -11.3450    -1.8650 H     1 <1>   0.1500 
 47 H        0.6600    -8.5890    -1.9760 H     1 <1>   0.1500 
 48 H        0.7710   -10.9130    -2.6300 H     1 <1>   0.1500 
@<TRIPOS>BOND
  1   1   2  1   
  2   1   3  1   
  3   2   4  ar  
  4   2   5  ar  
  5   3   6  1   
  6   3  25  1   
  7   3  26  1   
  8   4   7  ar  
  9   4  27  1   
 10   5   8  ar  
 11   5  28  1   
 12   6   9  1   
 13   6  29  1   
 14   6  30  1   
 15   7  10  ar  
 16   7  31  1   
 17   8  10  ar  
 18   8  32  1   
 19   9  33  1   
 20  10  11  1   
 21  11  12  1   
 22  11  34  1   
 23  11  35  1   
 24  12  13  1   
 25  12  14  1   
 26  12  36  1   
 27  13  15  1   
 28  13  37  1   
 29  13  38  1   
 30  14  16  1   
 31  14  39  1   
 32  14  40  1   
 33  15  16  1   
 34  15  17  1   
 35  15  41  1   
 36  16  18  1   
 37  16  42  1   
 38  17  43  1   
 39  18  19  1   
 40  18  44  1   
 41  18  45  1   
 42  19  20  ar  
 43  19  21  ar  
 44  20  22  ar  
 45  21  23  ar  
 46  21  46  1   
 47  22  24  ar  
 48  22  47  1   
 49  23  24  ar  
 50  24  48  1   
@<TRIPOS>SUBSTRUCTURE
  1 ****   8 GROUP 4 **** **** 0

# MOE 2024.06 (io_trps.svl 2023.06)
