@<TRIPOS>MOLECULE
NONAME
54 56 1 0 0 
SMALL
USER_CHARGES


@<TRIPOS>ATOM
  1 S        0.1400     0.4390     0.0150 S.3   1 <1>  -0.4600 
  2 C        1.6870     0.5180    -0.9280 C.3   1 <1>   0.2510 
  3 C       -0.8740    -0.7150    -0.9420 C.3   1 <1>   0.0700 
  4 C        2.6090     1.5190    -0.2570 C.2   1 <1>  -0.1810 
  5 C       -2.2180    -0.8590    -0.2280 C.3   1 <1>  -0.1600 
  6 C        3.7790     1.3220     0.3900 C.2   1 <1>  -0.0400 
  7 C        2.3810     2.8950    -0.1970 C.2   1 <1>  -0.1500 
  8 C       -3.1440    -1.8250    -0.9770 C.3   1 <1>  -0.1600 
  9 O        4.2610     2.4670     0.8150 O.3   1 <1>  -0.2800 
 10 C        4.5660     0.0640     0.6870 C.3   1 <1>  -0.0600 
 11 C        3.4310     3.4490     0.4690 C.2   1 <1>   0.0550 
 12 C       -4.4880    -1.9660    -0.2580 C.3   1 <1>  -0.2400 
 13 C        3.6740     4.8370     0.8130 C.2   1 <1>   0.7150 
 14 O        2.7580     5.6380     0.7230 O.2   1 <1>  -0.5700 
 15 N        4.9060     5.3180     1.2220 N.am  1 <1>  -0.6600 
 16 C        6.2020     4.7810     0.7310 C.3   1 <1>   0.1400 
 17 C        5.0210     6.5680     2.0180 C.3   1 <1>   0.1400 
 18 C        6.8820     5.8370    -0.1450 C.3   1 <1>  -0.1600 
 19 C        5.6510     7.6550     1.1500 C.3   1 <1>  -0.1600 
 20 C        7.0010     7.1910     0.5760 C.3   1 <1>   0.1000 
 21 C        7.6600     8.2430    -0.3120 C.2   1 <1>   0.0060 
 22 N        8.8570     8.6680    -0.0870 N.2   1 <1>  -0.3380 
 23 N        7.1290     8.8420    -1.3910 N.pl3 1 <1>   0.0480 
 24 N        9.1450     9.5680    -1.0250 N.2   1 <1>  -0.3380 
 25 C        8.1100     9.6560    -1.7830 C.2   1 <1>   0.0360 
 26 C        5.8090     8.7180    -2.0430 C.3   1 <1>   0.0160 
 27 H        1.4420     0.8280    -1.9280 H     1 <1>   0.0800 
 28 H        2.1080    -0.4700    -0.9360 H     1 <1>   0.0800 
 29 H       -0.3460    -1.6520    -0.9860 H     1 <1>   0.0800 
 30 H       -0.9920    -0.3020    -1.9290 H     1 <1>   0.0800 
 31 H       -2.6840     0.1090    -0.1590 H     1 <1>   0.0800 
 32 H       -2.0480    -1.2230     0.7710 H     1 <1>   0.0800 
 33 H        1.5230     3.4070    -0.5970 H     1 <1>   0.1500 
 34 H       -2.6780    -2.7940    -1.0470 H     1 <1>   0.0800 
 35 H       -3.3140    -1.4620    -1.9770 H     1 <1>   0.0800 
 36 H        4.0580    -0.8030     0.3080 H     1 <1>   0.0800 
 37 H        4.6840    -0.0420     1.7500 H     1 <1>   0.0800 
 38 H        5.5380     0.1280     0.2340 H     1 <1>   0.0800 
 39 H       -4.3440    -2.3480     0.7380 H     1 <1>   0.0800 
 40 H       -5.1250    -2.6460    -0.7960 H     1 <1>   0.0800 
 41 H       -4.9830    -1.0120    -0.1950 H     1 <1>   0.0800 
 42 H        6.0590     3.8900     0.1470 H     1 <1>   0.0800 
 43 H        6.8250     4.5350     1.5740 H     1 <1>   0.0800 
 44 H        5.6350     6.3800     2.8820 H     1 <1>   0.0800 
 45 H        4.0510     6.8870     2.3640 H     1 <1>   0.0800 
 46 H        6.3180     5.9390    -1.0510 H     1 <1>   0.0800 
 47 H        7.8660     5.4930    -0.4130 H     1 <1>   0.0800 
 48 H        5.7990     8.5420     1.7400 H     1 <1>   0.0800 
 49 H        4.9570     7.8920     0.3670 H     1 <1>   0.0800 
 50 H        7.6590     7.0390     1.4150 H     1 <1>   0.0800 
 51 H        8.0330    10.3060    -2.6350 H     1 <1>   0.1500 
 52 H        5.4530     7.7090    -1.9750 H     1 <1>   0.0800 
 53 H        5.8930     8.9900    -3.0790 H     1 <1>   0.0800 
 54 H        5.1120     9.3770    -1.5580 H     1 <1>   0.0800 
@<TRIPOS>BOND
  1   1   2  1   
  2   1   3  1   
  3   2   4  1   
  4   2  27  1   
  5   2  28  1   
  6   3   5  1   
  7   3  29  1   
  8   3  30  1   
  9   4   6  2   
 10   4   7  1   
 11   5   8  1   
 12   5  31  1   
 13   5  32  1   
 14   6   9  1   
 15   6  10  1   
 16   7  11  2   
 17   7  33  1   
 18   8  12  1   
 19   8  34  1   
 20   8  35  1   
 21   9  11  1   
 22  10  36  1   
 23  10  37  1   
 24  10  38  1   
 25  11  13  1   
 26  12  39  1   
 27  12  40  1   
 28  12  41  1   
 29  13  14  2   
 30  13  15  am  
 31  15  16  1   
 32  15  17  1   
 33  16  18  1   
 34  16  42  1   
 35  16  43  1   
 36  17  19  1   
 37  17  44  1   
 38  17  45  1   
 39  18  20  1   
 40  18  46  1   
 41  18  47  1   
 42  19  20  1   
 43  19  48  1   
 44  19  49  1   
 45  20  21  1   
 46  20  50  1   
 47  21  22  2   
 48  21  23  1   
 49  22  24  1   
 50  23  25  1   
 51  23  26  1   
 52  24  25  2   
 53  25  51  1   
 54  26  52  1   
 55  26  53  1   
 56  26  54  1   
@<TRIPOS>SUBSTRUCTURE
  1 ****  11 GROUP 4 **** **** 0

# MOE 2024.06 (io_trps.svl 2023.06)
