@<TRIPOS>MOLECULE
NONAME
52 54 1 0 0 
SMALL
USER_CHARGES


@<TRIPOS>ATOM
  1 O        0.5350    -0.2990    -0.0380 O.3   1 <1>  -0.3630 
  2 C        0.2480    -1.5930     0.2650 C.ar  1 <1>   0.0820 
  3 C       -0.2360     0.8020     0.3980 C.3   1 <1>   0.1200 
  4 C        1.0440    -2.5800    -0.3100 C.ar  1 <1>  -0.1440 
  5 C       -0.7940    -1.9620     1.1130 C.ar  1 <1>  -0.1500 
  6 C       -1.4850     0.9270    -0.4750 C.3   1 <1>  -0.2400 
  7 C        0.7790    -3.9150    -0.0410 C.ar  1 <1>  -0.1500 
  8 C        2.1980    -2.2150    -1.2400 C.3   1 <1>   0.2630 
  9 C       -1.0470    -3.2950     1.3750 C.ar  1 <1>  -0.1500 
 10 C       -0.2650    -4.2800     0.7930 C.ar  1 <1>  -0.1440 
 11 O        3.3150    -2.9450    -0.8700 O.3   1 <1>  -0.6800 
 12 C       -0.5530    -5.7440     1.0620 C.3   1 <1>   0.4860 
 13 N       -1.0920    -6.3560    -0.1840 N.4   1 <1>  -0.9590 
 14 C       -2.4330    -5.7740    -0.5190 C.3   1 <1>   0.3430 
 15 C       -1.2910    -7.8280    -0.0090 C.3   1 <1>   0.3430 
 16 C       -3.4600    -6.7620     0.0400 C.3   1 <1>   0.2000 
 17 C       -2.7840    -8.1070    -0.2240 C.3   1 <1>  -0.0800 
 18 O       -3.5720    -6.5480     1.4120 O.3   1 <1>  -0.6800 
 19 C       -3.2960    -9.3060     0.5970 C.3   1 <1>  -0.0170 
 20 C       -2.4370   -10.5300     0.3230 C.ar  1 <1>  -0.1430 
 21 C       -1.5380   -11.0140     1.2530 C.ar  1 <1>  -0.1500 
 22 C       -2.5070   -11.2160    -0.8730 C.ar  1 <1>  -0.1500 
 23 C       -0.7600   -12.1160     0.9420 C.ar  1 <1>   0.1600 
 24 C       -1.6820   -12.3080    -1.0850 C.ar  1 <1>   0.1600 
 25 N       -0.8030   -12.7650    -0.2090 N.ar  1 <1>  -0.6200 
 26 H       -0.4690     0.6880     1.4420 H     1 <1>   0.0800 
 27 H        0.3760     1.6790     0.2840 H     1 <1>   0.0800 
 28 H       -1.4190    -1.2240     1.5780 H     1 <1>   0.1500 
 29 H       -2.1100     0.0590    -0.3830 H     1 <1>   0.0800 
 30 H       -1.2010     1.0540    -1.5050 H     1 <1>   0.0800 
 31 H       -2.0530     1.7880    -0.1710 H     1 <1>   0.0800 
 32 H        1.4080    -4.6650    -0.4910 H     1 <1>   0.1500 
 33 H        2.4540    -1.1720    -1.1860 H     1 <1>   0.0800 
 34 H        1.9560    -2.4650    -2.2590 H     1 <1>   0.0800 
 35 H       -1.8590    -3.5530     2.0350 H     1 <1>   0.1500 
 36 H        3.5500    -2.7140     0.0490 H     1 <1>   0.4000 
 37 H       -1.2690    -5.8390     1.8630 H     1 <1>   0.0800 
 38 H        0.3590    -6.2370     1.3550 H     1 <1>   0.0800 
 39 H       -0.4280    -6.1460    -0.9390 H     1 <1>   0.4500 
 40 H       -2.5730    -4.7890    -0.1060 H     1 <1>   0.0800 
 41 H       -2.5430    -5.7230    -1.5890 H     1 <1>   0.0800 
 42 H       -0.6960    -8.3940    -0.7080 H     1 <1>   0.0800 
 43 H       -1.0170    -8.1200     0.9920 H     1 <1>   0.0800 
 44 H       -4.4300    -6.6560    -0.4170 H     1 <1>   0.0800 
 45 H       -2.9120    -8.3410    -1.2670 H     1 <1>   0.0800 
 46 H       -4.3980    -6.9450     1.7650 H     1 <1>   0.4000 
 47 H       -4.3180    -9.5220     0.3350 H     1 <1>   0.0800 
 48 H       -3.2690    -9.0890     1.6510 H     1 <1>   0.0800 
 49 H       -1.4330   -10.5550     2.2200 H     1 <1>   0.1500 
 50 H       -3.1940   -10.9210    -1.6460 H     1 <1>   0.1500 
 51 H       -0.0640   -12.4860     1.6780 H     1 <1>   0.1500 
 52 H       -1.7480   -12.8350    -2.0220 H     1 <1>   0.1500 
@<TRIPOS>BOND
  1   1   2  1   
  2   1   3  1   
  3   2   4  ar  
  4   2   5  ar  
  5   3   6  1   
  6   3  26  1   
  7   3  27  1   
  8   4   7  ar  
  9   4   8  1   
 10   5   9  ar  
 11   5  28  1   
 12   6  29  1   
 13   6  30  1   
 14   6  31  1   
 15   7  10  ar  
 16   7  32  1   
 17   8  11  1   
 18   8  33  1   
 19   8  34  1   
 20   9  10  ar  
 21   9  35  1   
 22  10  12  1   
 23  11  36  1   
 24  12  13  1   
 25  12  37  1   
 26  12  38  1   
 27  13  14  1   
 28  13  15  1   
 29  13  39  1   
 30  14  16  1   
 31  14  40  1   
 32  14  41  1   
 33  15  17  1   
 34  15  42  1   
 35  15  43  1   
 36  16  17  1   
 37  16  18  1   
 38  16  44  1   
 39  17  19  1   
 40  17  45  1   
 41  18  46  1   
 42  19  20  1   
 43  19  47  1   
 44  19  48  1   
 45  20  21  ar  
 46  20  22  ar  
 47  21  23  ar  
 48  21  49  1   
 49  22  24  ar  
 50  22  50  1   
 51  23  25  ar  
 52  23  51  1   
 53  24  25  ar  
 54  24  52  1   
@<TRIPOS>SUBSTRUCTURE
  1 ****  13 GROUP 4 **** **** 0

# MOE 2024.06 (io_trps.svl 2023.06)
