@<TRIPOS>MOLECULE
NONAME
43 45 1 0 0 
SMALL
USER_CHARGES


@<TRIPOS>ATOM
  1 F       -2.8850    -0.6120     1.6430 F     1 <1>  -0.1900 
  2 C       -2.8890     0.4070     0.8250 C.ar  1 <1>   0.1900 
  3 C       -3.3320     0.2490    -0.4930 C.ar  1 <1>   0.0860 
  4 C       -2.4450     1.6080     1.3400 C.ar  1 <1>  -0.1500 
  5 C       -3.7950    -1.0060    -1.0610 C.2   1 <1>   0.5440 
  6 C       -3.3080     1.4090    -1.2770 C.ar  1 <1>  -0.1500 
  7 C       -2.4310     2.7320     0.5350 C.ar  1 <1>   0.0830 
  8 O       -4.4520    -1.0120    -2.0850 O.2   1 <1>  -0.5700 
  9 N       -3.5130    -2.2140    -0.4920 N.am  1 <1>  -0.7300 
 10 C       -2.8690     2.6240    -0.7820 C.ar  1 <1>  -0.1500 
 11 O       -1.9860     3.8800     1.0920 O.3   1 <1>  -0.3630 
 12 C       -3.9480    -3.5310    -1.0110 C.3   1 <1>   0.2200 
 13 C       -1.9350     5.0880     0.3650 C.3   1 <1>   0.0400 
 14 C       -5.1870    -3.9810    -0.2580 C.3   1 <1>  -0.0800 
 15 C       -2.9320    -4.6020    -0.6200 C.3   1 <1>   0.1200 
 16 C       -4.5770    -4.6050     0.9990 C.3   1 <1>   0.1200 
 17 C       -6.0080    -4.9950    -1.0770 C.3   1 <1>  -0.0170 
 18 O       -3.3060    -5.0680     0.6450 O.3   1 <1>  -0.5600 
 19 C       -7.2590    -5.4340    -0.3330 C.ar  1 <1>  -0.1430 
 20 C       -7.3570    -6.6710     0.2730 C.ar  1 <1>  -0.1500 
 21 C       -8.3660    -4.6160    -0.2280 C.ar  1 <1>  -0.1500 
 22 C       -8.5210    -7.0170     0.9380 C.ar  1 <1>   0.1600 
 23 C       -9.4830    -5.0590     0.4610 C.ar  1 <1>   0.1600 
 24 N       -9.5870    -6.2400     1.0480 N.ar  1 <1>  -0.6200 
 25 H       -2.1130     1.6770     2.3600 H     1 <1>   0.1500 
 26 H       -3.6430     1.3500    -2.3000 H     1 <1>   0.1500 
 27 H       -3.0530    -2.2430     0.4230 H     1 <1>   0.3700 
 28 H       -2.8740     3.4780    -1.4350 H     1 <1>   0.1500 
 29 H       -4.0930    -3.4810    -2.0770 H     1 <1>   0.0800 
 30 H       -1.5520     5.8530     1.0170 H     1 <1>   0.0800 
 31 H       -2.9290     5.3460     0.0450 H     1 <1>   0.0800 
 32 H       -1.2780     4.9630    -0.4770 H     1 <1>   0.0800 
 33 H       -5.8170    -3.1450    -0.0090 H     1 <1>   0.0800 
 34 H       -1.9260    -4.2230    -0.5830 H     1 <1>   0.0800 
 35 H       -2.9820    -5.4350    -1.2990 H     1 <1>   0.0800 
 36 H       -5.1540    -5.4230     1.3930 H     1 <1>   0.0800 
 37 H       -4.4470    -3.8600     1.7650 H     1 <1>   0.0800 
 38 H       -5.4080    -5.8570    -1.3130 H     1 <1>   0.0800 
 39 H       -6.3040    -4.5420    -2.0080 H     1 <1>   0.0800 
 40 H       -6.5400    -7.3680     0.2360 H     1 <1>   0.1500 
 41 H       -8.3690    -3.6380    -0.6760 H     1 <1>   0.1500 
 42 H       -8.5790    -7.9850     1.4060 H     1 <1>   0.1500 
 43 H      -10.3360    -4.4060     0.5320 H     1 <1>   0.1500 
@<TRIPOS>BOND
  1   1   2  1   
  2   2   3  ar  
  3   2   4  ar  
  4   3   5  1   
  5   3   6  ar  
  6   4   7  ar  
  7   4  25  1   
  8   5   8  2   
  9   5   9  am  
 10   6  10  ar  
 11   6  26  1   
 12   7  10  ar  
 13   7  11  1   
 14   9  12  1   
 15   9  27  1   
 16  10  28  1   
 17  11  13  1   
 18  12  14  1   
 19  12  15  1   
 20  12  29  1   
 21  13  30  1   
 22  13  31  1   
 23  13  32  1   
 24  14  16  1   
 25  14  17  1   
 26  14  33  1   
 27  15  18  1   
 28  15  34  1   
 29  15  35  1   
 30  16  18  1   
 31  16  36  1   
 32  16  37  1   
 33  17  19  1   
 34  17  38  1   
 35  17  39  1   
 36  19  20  ar  
 37  19  21  ar  
 38  20  22  ar  
 39  20  40  1   
 40  21  23  ar  
 41  21  41  1   
 42  22  24  ar  
 43  22  42  1   
 44  23  24  ar  
 45  23  43  1   
@<TRIPOS>SUBSTRUCTURE
  1 ****   9 GROUP 4 **** **** 0

# MOE 2024.06 (io_trps.svl 2023.06)
