@<TRIPOS>MOLECULE
NONAME
59 62 1 0 0 
SMALL
USER_CHARGES


@<TRIPOS>ATOM
  1 S       -1.9230    -0.1950     0.8480 S.o2  1 <1>   1.2040 
  2 O       -2.4700    -1.1590     1.7760 O.2   1 <1>  -0.6500 
  3 O       -2.4600    -0.1450    -0.4980 O.2   1 <1>  -0.6500 
  4 C       -0.1180    -0.3000     0.8200 C.ar  1 <1>  -0.0090 
  5 C       -2.2190     1.4210     1.5780 C.3   1 <1>   0.0890 
  6 C        0.6230     0.3070    -0.1880 C.ar  1 <1>  -0.1500 
  7 C        0.5760    -0.9620     1.8270 C.ar  1 <1>  -0.1500 
  8 C       -1.6930     2.5990     0.7510 C.ar  1 <1>  -0.1440 
  9 C        2.0060     0.2610    -0.1900 C.ar  1 <1>  -0.1500 
 10 C        1.9590    -1.0130     1.8330 C.ar  1 <1>  -0.1500 
 11 C       -2.3090     3.0580    -0.4160 C.ar  1 <1>  -0.1440 
 12 C       -0.5290     3.2130     1.1920 C.ar  1 <1>  -0.1500 
 13 C        2.6760    -0.4000     0.8230 C.ar  1 <1>  -0.1500 
 14 C       -1.7330     4.1080    -1.1210 C.ar  1 <1>  -0.1500 
 15 C       -3.5930     2.4500    -0.9710 C.3   1 <1>   0.4860 
 16 C        0.0260     4.2650     0.4890 C.ar  1 <1>  -0.1500 
 17 C       -0.5750     4.7110    -0.6700 C.ar  1 <1>  -0.1500 
 18 N       -4.6920     3.4540    -0.9170 N.4   1 <1>  -0.9590 
 19 C       -4.9450     3.9190     0.4790 C.3   1 <1>   0.3430 
 20 C       -5.9180     2.9170    -1.5730 C.3   1 <1>   0.3430 
 21 C       -6.0140     5.0030     0.4820 C.3   1 <1>  -0.1600 
 22 C       -7.0060     3.9820    -1.5870 C.3   1 <1>  -0.1600 
 23 C       -7.2990     4.5090    -0.1840 C.3   1 <1>   0.4180 
 24 O       -8.1400     5.6050    -0.3810 O.3   1 <1>  -0.5600 
 25 C       -7.9920     3.4370     0.6590 C.2   1 <1>  -0.2880 
 26 C       -8.9030     6.0480     0.7090 C.3   1 <1>   0.1200 
 27 C       -9.1660     3.6190     1.2660 C.2   1 <1>  -0.2760 
 28 C       -9.8800     4.9560     1.1650 C.3   1 <1>  -0.0220 
 29 C       -9.8930     2.5600     2.0760 C.3   1 <1>  -0.1020 
 30 H       -1.7670     1.4450     2.5520 H     1 <1>   0.0800 
 31 H       -3.2730     1.5460     1.7310 H     1 <1>   0.0800 
 32 H        0.1180     0.8240    -0.9860 H     1 <1>   0.1500 
 33 H        0.0310    -1.4510     2.6190 H     1 <1>   0.1500 
 34 H        2.5620     0.7370    -0.9800 H     1 <1>   0.1500 
 35 H        2.4780    -1.5330     2.6210 H     1 <1>   0.1500 
 36 H       -0.0300     2.8780     2.0870 H     1 <1>   0.1500 
 37 H        3.7530    -0.4380     0.8230 H     1 <1>   0.1500 
 38 H       -2.1710     4.4710    -2.0360 H     1 <1>   0.1500 
 39 H       -3.8770     1.5810    -0.4020 H     1 <1>   0.0800 
 40 H       -3.4220     2.1360    -1.9880 H     1 <1>   0.0800 
 41 H        0.9310     4.7320     0.8410 H     1 <1>   0.1500 
 42 H       -0.1340     5.5260    -1.2220 H     1 <1>   0.1500 
 43 H       -4.3690     4.2710    -1.4510 H     1 <1>   0.4500 
 44 H       -4.0370     4.3160     0.9070 H     1 <1>   0.0800 
 45 H       -5.2720     3.0920     1.0870 H     1 <1>   0.0800 
 46 H       -6.2710     2.0500    -1.0380 H     1 <1>   0.0800 
 47 H       -5.6980     2.6200    -2.5860 H     1 <1>   0.0800 
 48 H       -5.6450     5.8720    -0.0330 H     1 <1>   0.0800 
 49 H       -6.2180     5.2760     1.5010 H     1 <1>   0.0800 
 50 H       -7.9070     3.5600    -1.9960 H     1 <1>   0.0800 
 51 H       -6.7010     4.7920    -2.2240 H     1 <1>   0.0800 
 52 H       -7.4620     2.5060     0.7230 H     1 <1>   0.1500 
 53 H       -9.4450     6.9240     0.3980 H     1 <1>   0.0800 
 54 H       -8.2390     6.3200     1.5090 H     1 <1>   0.0800 
 55 H      -10.6950     4.8820     0.4660 H     1 <1>   0.0800 
 56 H      -10.2850     5.2370     2.1210 H     1 <1>   0.0800 
 57 H      -10.0250     2.8910     3.0910 H     1 <1>   0.0800 
 58 H       -9.3380     1.6390     2.0880 H     1 <1>   0.0800 
 59 H      -10.8610     2.3670     1.6470 H     1 <1>   0.0800 
@<TRIPOS>BOND
  1   1   2  2   
  2   1   3  2   
  3   1   4  1   
  4   1   5  1   
  5   4   6  ar  
  6   4   7  ar  
  7   5   8  1   
  8   5  30  1   
  9   5  31  1   
 10   6   9  ar  
 11   6  32  1   
 12   7  10  ar  
 13   7  33  1   
 14   8  11  ar  
 15   8  12  ar  
 16   9  13  ar  
 17   9  34  1   
 18  10  13  ar  
 19  10  35  1   
 20  11  14  ar  
 21  11  15  1   
 22  12  16  ar  
 23  12  36  1   
 24  13  37  1   
 25  14  17  ar  
 26  14  38  1   
 27  15  18  1   
 28  15  39  1   
 29  15  40  1   
 30  16  17  ar  
 31  16  41  1   
 32  17  42  1   
 33  18  19  1   
 34  18  20  1   
 35  18  43  1   
 36  19  21  1   
 37  19  44  1   
 38  19  45  1   
 39  20  22  1   
 40  20  46  1   
 41  20  47  1   
 42  21  23  1   
 43  21  48  1   
 44  21  49  1   
 45  22  23  1   
 46  22  50  1   
 47  22  51  1   
 48  23  24  1   
 49  23  25  1   
 50  24  26  1   
 51  25  27  2   
 52  25  52  1   
 53  26  28  1   
 54  26  53  1   
 55  26  54  1   
 56  27  28  1   
 57  27  29  1   
 58  28  55  1   
 59  28  56  1   
 60  29  57  1   
 61  29  58  1   
 62  29  59  1   
@<TRIPOS>SUBSTRUCTURE
  1 ****  15 GROUP 4 **** **** 0

# MOE 2024.06 (io_trps.svl 2023.06)
