@<TRIPOS>MOLECULE
NONAME
62 65 1 0 0 
SMALL
USER_CHARGES


@<TRIPOS>ATOM
  1 O       -1.0050    -0.3580    -0.1260 O.3   1 <1>  -0.3630 
  2 C       -0.8730     0.8820     0.4100 C.ar  1 <1>   0.0830 
  3 C        0.1600    -1.1420    -0.3240 C.3   1 <1>   0.0400 
  4 C       -1.6280     1.9740    -0.1280 C.ar  1 <1>   0.0000 
  5 C       -0.0010     1.0630     1.4580 C.ar  1 <1>  -0.1500 
  6 C       -1.3580     3.2670     0.3960 C.ar  1 <1>   0.0000 
  7 C       -2.6260     1.8780    -1.1420 C.ar  1 <1>  -0.1440 
  8 C        0.2120     2.3290     1.9930 C.ar  1 <1>  -0.1500 
  9 C       -2.0040     4.4040    -0.1560 C.ar  1 <1>   0.0830 
 10 C       -0.4450     3.4000     1.4650 C.ar  1 <1>  -0.1500 
 11 C       -3.2320     2.9960    -1.6520 C.ar  1 <1>  -0.1500 
 12 C       -3.1070     0.5450    -1.6850 C.3   1 <1>   0.4860 
 13 O       -1.6790     5.6160     0.3620 O.3   1 <1>  -0.3630 
 14 C       -2.9170     4.2630    -1.1690 C.ar  1 <1>  -0.1500 
 15 N       -3.7550    -0.2030    -0.5670 N.4   1 <1>  -0.9590 
 16 C       -2.2020     6.8260    -0.1400 C.3   1 <1>   0.0400 
 17 C       -4.0510    -1.6330    -0.9240 C.3   1 <1>   0.3430 
 18 C       -4.9190     0.5460    -0.0010 C.3   1 <1>   0.3430 
 19 C       -4.7550    -2.4370     0.2210 C.3   1 <1>   0.4230 
 20 C       -5.4760    -0.2370     1.1860 C.3   1 <1>  -0.1600 
 21 N       -5.0750    -3.8990    -0.1110 N.4   1 <1>  -0.9590 
 22 C       -5.9750    -1.6540     0.7850 C.3   1 <1>   0.0000 
 23 C       -6.1240    -4.5170     0.7750 C.3   1 <1>   0.3430 
 24 C       -5.4170    -4.2070    -1.5420 C.3   1 <1>   0.2630 
 25 C       -6.5090    -2.3560     2.0650 C.3   1 <1>  -0.1600 
 26 C       -7.0960    -1.5760    -0.2940 C.3   1 <1>   0.1200 
 27 C       -6.1470    -3.8500     2.1480 C.3   1 <1>  -0.1600 
 28 O       -7.9360    -0.5030    -0.0730 O.3   1 <1>  -0.6800 
 29 H       -0.0650    -1.9250    -1.0250 H     1 <1>   0.0800 
 30 H        0.4650    -1.5710     0.6140 H     1 <1>   0.0800 
 31 H        0.9430    -0.5170    -0.7210 H     1 <1>   0.0800 
 32 H        0.5440     0.2470     1.8950 H     1 <1>   0.1500 
 33 H        0.9000     2.4530     2.8130 H     1 <1>   0.1500 
 34 H       -0.2630     4.3790     1.8750 H     1 <1>   0.1500 
 35 H       -3.9720     2.9380    -2.4330 H     1 <1>   0.1500 
 36 H       -2.2630    -0.0030    -2.0700 H     1 <1>   0.0800 
 37 H       -3.8090     0.7040    -2.4870 H     1 <1>   0.0800 
 38 H       -3.4150     5.1070    -1.6100 H     1 <1>   0.1500 
 39 H       -3.0030    -0.1810     0.1490 H     1 <1>   0.4500 
 40 H       -1.7710     7.6350     0.4220 H     1 <1>   0.0800 
 41 H       -3.2700     6.8250    -0.0160 H     1 <1>   0.0800 
 42 H       -1.9320     6.9200    -1.1770 H     1 <1>   0.0800 
 43 H       -4.6870    -1.6410    -1.7920 H     1 <1>   0.0800 
 44 H       -3.1260    -2.1260    -1.1760 H     1 <1>   0.0800 
 45 H       -4.6060     1.5250     0.3320 H     1 <1>   0.0800 
 46 H       -5.6880     0.6750    -0.7470 H     1 <1>   0.0800 
 47 H       -4.0430    -2.4650     1.0290 H     1 <1>   0.0800 
 48 H       -4.7120    -0.3010     1.9430 H     1 <1>   0.0800 
 49 H       -6.2800     0.3340     1.6190 H     1 <1>   0.0800 
 50 H       -4.2160    -4.4320     0.1050 H     1 <1>   0.4500 
 51 H       -7.0980    -4.4050     0.3260 H     1 <1>   0.0800 
 52 H       -5.9350    -5.5740     0.8870 H     1 <1>   0.0800 
 53 H       -6.3160    -3.6910    -1.8390 H     1 <1>   0.0800 
 54 H       -5.5830    -5.2670    -1.6640 H     1 <1>   0.0800 
 55 H       -4.6140    -3.9190    -2.2010 H     1 <1>   0.0800 
 56 H       -6.1220    -1.8830     2.9530 H     1 <1>   0.0800 
 57 H       -7.5800    -2.2470     2.1170 H     1 <1>   0.0800 
 58 H       -7.7000    -2.4680    -0.3160 H     1 <1>   0.0800 
 59 H       -6.6870    -1.4270    -1.2770 H     1 <1>   0.0800 
 60 H       -6.8690    -4.3510     2.7710 H     1 <1>   0.0800 
 61 H       -5.1880    -3.9780     2.6210 H     1 <1>   0.0800 
 62 H       -8.6140    -0.6920     0.6120 H     1 <1>   0.4000 
@<TRIPOS>BOND
  1   1   2  1   
  2   1   3  1   
  3   2   4  ar  
  4   2   5  ar  
  5   3  29  1   
  6   3  30  1   
  7   3  31  1   
  8   4   6  ar  
  9   4   7  ar  
 10   5   8  ar  
 11   5  32  1   
 12   6   9  ar  
 13   6  10  ar  
 14   7  11  ar  
 15   7  12  1   
 16   8  10  ar  
 17   8  33  1   
 18   9  13  1   
 19   9  14  ar  
 20  10  34  1   
 21  11  14  ar  
 22  11  35  1   
 23  12  15  1   
 24  12  36  1   
 25  12  37  1   
 26  13  16  1   
 27  14  38  1   
 28  15  17  1   
 29  15  18  1   
 30  15  39  1   
 31  16  40  1   
 32  16  41  1   
 33  16  42  1   
 34  17  19  1   
 35  17  43  1   
 36  17  44  1   
 37  18  20  1   
 38  18  45  1   
 39  18  46  1   
 40  19  21  1   
 41  19  22  1   
 42  19  47  1   
 43  20  22  1   
 44  20  48  1   
 45  20  49  1   
 46  21  23  1   
 47  21  24  1   
 48  21  50  1   
 49  22  25  1   
 50  22  26  1   
 51  23  27  1   
 52  23  51  1   
 53  23  52  1   
 54  24  53  1   
 55  24  54  1   
 56  24  55  1   
 57  25  27  1   
 58  25  56  1   
 59  25  57  1   
 60  26  28  1   
 61  26  58  1   
 62  26  59  1   
 63  27  60  1   
 64  27  61  1   
 65  28  62  1   
@<TRIPOS>SUBSTRUCTURE
  1 ****  15 GROUP 4 **** **** 0

# MOE 2024.06 (io_trps.svl 2023.06)
