@<TRIPOS>MOLECULE
NONAME
48 50 1 0 0 
SMALL
USER_CHARGES


@<TRIPOS>ATOM
  1 F       -0.6450     5.2650     2.5730 F     1 <1>  -0.1900 
  2 C       -1.1300     4.3950     1.7220 C.ar  1 <1>   0.1900 
  3 C       -1.3410     3.0780     2.1160 C.ar  1 <1>   0.0830 
  4 C       -1.4170     4.8300     0.4420 C.ar  1 <1>  -0.1500 
  5 O       -1.0600     2.6580     3.3670 O.3   1 <1>  -0.5330 
  6 C       -1.8530     2.1820     1.1910 C.ar  1 <1>  -0.1500 
  7 C       -1.9350     3.9290    -0.4780 C.ar  1 <1>  -0.1440 
  8 C       -2.1460     2.6090    -0.0950 C.ar  1 <1>  -0.1500 
  9 C       -2.2740     4.3780    -1.8970 C.3   1 <1>   0.0440 
 10 C       -3.6850     3.9950    -2.3320 C.2   1 <1>   0.5690 
 11 O       -3.7820     3.2360    -3.2690 O.2   1 <1>  -0.5700 
 12 N       -4.7970     4.4900    -1.6920 N.am  1 <1>  -0.6600 
 13 C       -6.1600     4.0270    -2.0970 C.3   1 <1>   0.1400 
 14 C       -4.7300     5.4260    -0.5260 C.3   1 <1>   0.1400 
 15 C       -7.0720     3.9460    -0.8710 C.3   1 <1>  -0.1600 
 16 C       -6.0280     6.2260    -0.4250 C.3   1 <1>  -0.1600 
 17 C       -7.2400     5.3130    -0.1590 C.3   1 <1>   0.2800 
 18 O       -7.2300     5.0830     1.2250 O.3   1 <1>  -0.5600 
 19 C       -8.5460     6.0540    -0.5590 C.3   1 <1>  -0.1600 
 20 C       -8.2670     4.3180     1.7850 C.3   1 <1>   0.1200 
 21 C       -9.5970     6.1030     0.5530 C.3   1 <1>   0.2800 
 22 C       -9.6480     4.7560     1.2700 C.3   1 <1>  -0.1600 
 23 O       -9.1840     7.0370     1.4670 O.3   1 <1>  -0.6800 
 24 C      -10.9650     6.5520     0.0480 C.3   1 <1>  -0.2400 
 25 H       -1.2340     5.8570     0.1840 H     1 <1>   0.1500 
 26 H       -1.2390     1.7120     3.5080 H     1 <1>   0.4500 
 27 H       -2.0260     1.1560     1.4620 H     1 <1>   0.1500 
 28 H       -2.5440     1.9030    -0.8060 H     1 <1>   0.1500 
 29 H       -1.5740     3.9220    -2.5730 H     1 <1>   0.0800 
 30 H       -2.1640     5.4410    -1.9970 H     1 <1>   0.0800 
 31 H       -6.0970     3.0550    -2.5570 H     1 <1>   0.0800 
 32 H       -6.5660     4.7140    -2.8200 H     1 <1>   0.0800 
 33 H       -3.9070     6.1080    -0.6420 H     1 <1>   0.0800 
 34 H       -4.5810     4.8590     0.3780 H     1 <1>   0.0800 
 35 H       -6.6210     3.2360    -0.2010 H     1 <1>   0.0800 
 36 H       -8.0260     3.5490    -1.1670 H     1 <1>   0.0800 
 37 H       -6.1510     6.7570    -1.3520 H     1 <1>   0.0800 
 38 H       -5.9500     6.9590     0.3570 H     1 <1>   0.0800 
 39 H       -8.9720     5.5700    -1.4180 H     1 <1>   0.0800 
 40 H       -8.3420     7.0620    -0.8730 H     1 <1>   0.0800 
 41 H       -8.2150     4.4590     2.8510 H     1 <1>   0.0800 
 42 H       -8.0880     3.2780     1.5750 H     1 <1>   0.0800 
 43 H      -10.3470     4.7930     2.0860 H     1 <1>   0.0800 
 44 H      -10.0070     4.0100     0.5850 H     1 <1>   0.0800 
 45 H       -8.3000     6.7450     1.7790 H     1 <1>   0.4000 
 46 H      -11.3480     5.8490    -0.6690 H     1 <1>   0.0800 
 47 H      -10.8880     7.5150    -0.4250 H     1 <1>   0.0800 
 48 H      -11.6600     6.6190     0.8660 H     1 <1>   0.0800 
@<TRIPOS>BOND
  1   1   2  1   
  2   2   3  ar  
  3   2   4  ar  
  4   3   5  1   
  5   3   6  ar  
  6   4   7  ar  
  7   4  25  1   
  8   5  26  1   
  9   6   8  ar  
 10   6  27  1   
 11   7   8  ar  
 12   7   9  1   
 13   8  28  1   
 14   9  10  1   
 15   9  29  1   
 16   9  30  1   
 17  10  11  2   
 18  10  12  am  
 19  12  13  1   
 20  12  14  1   
 21  13  15  1   
 22  13  31  1   
 23  13  32  1   
 24  14  16  1   
 25  14  33  1   
 26  14  34  1   
 27  15  17  1   
 28  15  35  1   
 29  15  36  1   
 30  16  17  1   
 31  16  37  1   
 32  16  38  1   
 33  17  18  1   
 34  17  19  1   
 35  18  20  1   
 36  19  21  1   
 37  19  39  1   
 38  19  40  1   
 39  20  22  1   
 40  20  41  1   
 41  20  42  1   
 42  21  22  1   
 43  21  23  1   
 44  21  24  1   
 45  22  43  1   
 46  22  44  1   
 47  23  45  1   
 48  24  46  1   
 49  24  47  1   
 50  24  48  1   
@<TRIPOS>SUBSTRUCTURE
  1 ****  14 GROUP 4 **** **** 0

# MOE 2024.06 (io_trps.svl 2023.06)
