@<TRIPOS>MOLECULE
NONAME
44 47 1 0 0 
SMALL
USER_CHARGES


@<TRIPOS>ATOM
  1 O       -0.2170     0.1200     0.6380 O.2   1 <1>  -0.5700 
  2 C       -1.2600     0.7450     0.5970 C.2   1 <1>   0.5440 
  3 N       -2.4370     0.0530     0.4280 N.am  1 <1>  -0.6600 
  4 C       -1.2400     2.1890     0.7120 C.ar  1 <1>   0.0860 
  5 C       -3.7180     0.6530    -0.0220 C.3   1 <1>   0.1400 
  6 C       -2.4720    -1.4230     0.2850 C.3   1 <1>   0.1400 
  7 C       -0.4220     2.9580    -0.1150 C.ar  1 <1>  -0.1500 
  8 C       -2.0290     2.8590     1.6510 C.ar  1 <1>  -0.1500 
  9 C       -4.5330    -0.5200    -0.5670 C.3   1 <1>   0.2000 
 10 C       -3.9500    -1.7680     0.0930 C.3   1 <1>  -0.0800 
 11 C       -0.4060     4.3370    -0.0250 C.ar  1 <1>   0.0830 
 12 C       -2.0260     4.2400     1.7460 C.ar  1 <1>  -0.1500 
 13 O       -5.8780    -0.4020    -0.2470 O.3   1 <1>  -0.6800 
 14 C       -4.2000    -3.0440    -0.7300 C.3   1 <1>  -0.0170 
 15 O        0.4140     5.0400    -0.8460 O.3   1 <1>  -0.3630 
 16 C       -1.2220     4.9860     0.9030 C.ar  1 <1>   0.0830 
 17 C       -3.6560    -4.2790    -0.0310 C.ar  1 <1>   0.1670 
 18 C        0.6650     6.3880    -0.4950 C.3   1 <1>   0.1200 
 19 O       -1.2450     6.3360     0.9960 O.3   1 <1>  -0.3630 
 20 N       -2.3700    -4.5380    -0.2040 N.ar  1 <1>  -0.6200 
 21 C       -4.5010    -5.0690     0.7470 C.ar  1 <1>   0.1600 
 22 C       -0.6360     7.0710    -0.0500 C.3   1 <1>   0.1200 
 23 C       -1.9880    -5.6240     0.4480 C.ar  1 <1>   0.1600 
 24 N       -4.1220    -6.1550     1.4000 N.ar  1 <1>  -0.6200 
 25 C       -2.8360    -6.4050     1.2240 C.ar  1 <1>   0.1600 
 26 H       -4.2130     1.1060     0.8190 H     1 <1>   0.0800 
 27 H       -3.5420     1.3860    -0.7900 H     1 <1>   0.0800 
 28 H       -1.8920    -1.7070    -0.5770 H     1 <1>   0.0800 
 29 H       -2.0600    -1.9030     1.1570 H     1 <1>   0.0800 
 30 H        0.2130     2.4680    -0.8320 H     1 <1>   0.1500 
 31 H       -2.6480     2.2820     2.3160 H     1 <1>   0.1500 
 32 H       -4.4390    -0.5620    -1.6390 H     1 <1>   0.0800 
 33 H       -4.3760    -1.8860     1.0740 H     1 <1>   0.0800 
 34 H       -2.6400     4.7450     2.4700 H     1 <1>   0.1500 
 35 H       -5.9940    -0.3480     0.7210 H     1 <1>   0.4000 
 36 H       -3.7360    -2.9560    -1.6970 H     1 <1>   0.0800 
 37 H       -5.2570    -3.1600    -0.8900 H     1 <1>   0.0800 
 38 H        1.3850     6.3980     0.3030 H     1 <1>   0.0800 
 39 H        1.0820     6.8820    -1.3540 H     1 <1>   0.0800 
 40 H       -5.5360    -4.7890     0.8340 H     1 <1>   0.1500 
 41 H       -1.3300     7.1230    -0.8700 H     1 <1>   0.0800 
 42 H       -0.4420     8.0640     0.3130 H     1 <1>   0.0800 
 43 H       -0.9550    -5.9090     0.3640 H     1 <1>   0.1500 
 44 H       -2.4320    -7.2720     1.7170 H     1 <1>   0.1500 
@<TRIPOS>BOND
  1   1   2  2   
  2   2   3  am  
  3   2   4  1   
  4   3   5  1   
  5   3   6  1   
  6   4   7  ar  
  7   4   8  ar  
  8   5   9  1   
  9   5  26  1   
 10   5  27  1   
 11   6  10  1   
 12   6  28  1   
 13   6  29  1   
 14   7  11  ar  
 15   7  30  1   
 16   8  12  ar  
 17   8  31  1   
 18   9  10  1   
 19   9  13  1   
 20   9  32  1   
 21  10  14  1   
 22  10  33  1   
 23  11  15  1   
 24  11  16  ar  
 25  12  16  ar  
 26  12  34  1   
 27  13  35  1   
 28  14  17  1   
 29  14  36  1   
 30  14  37  1   
 31  15  18  1   
 32  16  19  1   
 33  17  20  ar  
 34  17  21  ar  
 35  18  22  1   
 36  18  38  1   
 37  18  39  1   
 38  19  22  1   
 39  20  23  ar  
 40  21  24  ar  
 41  21  40  1   
 42  22  41  1   
 43  22  42  1   
 44  23  25  ar  
 45  23  43  1   
 46  24  25  ar  
 47  25  44  1   
@<TRIPOS>SUBSTRUCTURE
  1 ****   3 GROUP 4 **** **** 0

# MOE 2024.06 (io_trps.svl 2023.06)
