@<TRIPOS>MOLECULE
NONAME
51 52 1 0 0 
SMALL
USER_CHARGES


@<TRIPOS>ATOM
  1 O        0.3430    -0.4810    -1.1220 O.2   1 <1>  -0.5700 
  2 C        0.2370    -1.6950    -1.0060 C.2   1 <1>   0.6160 
  3 N        0.7720    -2.3530     0.0920 N.am  1 <1>  -0.4690 
  4 C       -0.4350    -2.4790    -1.9810 C.2   1 <1>  -0.1360 
  5 C        0.6310    -3.7140     0.2250 C.2   1 <1>  -0.0410 
  6 C        1.5120    -1.5700     1.1150 C.3   1 <1>   0.0600 
  7 C       -0.5710    -3.8240    -1.8390 C.2   1 <1>  -0.1500 
  8 C       -0.0390    -4.4870    -0.6900 C.2   1 <1>   0.0140 
  9 C       -0.1920    -5.9130    -0.5130 C.2   1 <1>   0.6160 
 10 O        0.7190    -6.5560    -0.0220 O.2   1 <1>  -0.5700 
 11 N       -1.3510    -6.5750    -0.8630 N.am  1 <1>  -0.6600 
 12 C       -2.7060    -5.9580    -0.7280 C.3   1 <1>   0.1400 
 13 C       -1.4000    -8.0650    -0.9800 C.3   1 <1>   0.1400 
 14 C       -3.5450    -6.6840     0.3470 C.3   1 <1>   0.2000 
 15 C       -2.3010    -8.6720     0.1130 C.3   1 <1>   0.2000 
 16 O       -3.5570    -8.0590     0.0790 O.3   1 <1>  -0.5600 
 17 C       -5.0100    -6.1910     0.4140 C.3   1 <1>  -0.0800 
 18 C       -2.5390   -10.1770    -0.0640 C.3   1 <1>  -0.1600 
 19 C       -5.1060    -4.6860     0.7220 C.3   1 <1>  -0.2400 
 20 C       -5.8140    -6.9610     1.4760 C.3   1 <1>  -0.2400 
 21 C       -1.2570   -11.0120     0.0950 C.3   1 <1>  -0.1600 
 22 C       -1.5640   -12.5110     0.0060 C.3   1 <1>  -0.1600 
 23 C       -0.2880   -13.3440     0.1610 C.3   1 <1>  -0.2400 
 24 H       -0.8210    -1.9470    -2.8300 H     1 <1>   0.1500 
 25 H        1.0700    -4.1800     1.0930 H     1 <1>   0.1500 
 26 H        1.8840    -2.2150     1.8920 H     1 <1>   0.0800 
 27 H        0.8560    -0.8350     1.5480 H     1 <1>   0.0800 
 28 H        2.3410    -1.0660     0.6500 H     1 <1>   0.0800 
 29 H       -1.0690    -4.4200    -2.5850 H     1 <1>   0.1500 
 30 H       -2.6130    -4.9230    -0.4560 H     1 <1>   0.0800 
 31 H       -3.2170    -6.0130    -1.6730 H     1 <1>   0.0800 
 32 H       -1.7900    -8.3290    -1.9470 H     1 <1>   0.0800 
 33 H       -0.4090    -8.4780    -0.9040 H     1 <1>   0.0800 
 34 H       -3.0860    -6.5400     1.3110 H     1 <1>   0.0800 
 35 H       -1.8650    -8.4930     1.0820 H     1 <1>   0.0800 
 36 H       -5.4650    -6.3660    -0.5460 H     1 <1>   0.0800 
 37 H       -3.2500   -10.4920     0.6800 H     1 <1>   0.0800 
 38 H       -2.9670   -10.3560    -1.0350 H     1 <1>   0.0800 
 39 H       -4.6010    -4.4550     1.6430 H     1 <1>   0.0800 
 40 H       -6.1370    -4.3930     0.8180 H     1 <1>   0.0800 
 41 H       -4.6770    -4.0990    -0.0690 H     1 <1>   0.0800 
 42 H       -5.3780    -6.8320     2.4500 H     1 <1>   0.0800 
 43 H       -5.8290    -8.0120     1.2460 H     1 <1>   0.0800 
 44 H       -6.8320    -6.6140     1.5030 H     1 <1>   0.0800 
 45 H       -0.5510   -10.7540    -0.6750 H     1 <1>   0.0800 
 46 H       -0.8060   -10.7970     1.0490 H     1 <1>   0.0800 
 47 H       -2.2610   -12.7850     0.7800 H     1 <1>   0.0800 
 48 H       -2.0180   -12.7330    -0.9450 H     1 <1>   0.0800 
 49 H        0.1710   -13.1540     1.1150 H     1 <1>   0.0800 
 50 H        0.4150   -13.1050    -0.6170 H     1 <1>   0.0800 
 51 H       -0.5240   -14.3920     0.0980 H     1 <1>   0.0800 
@<TRIPOS>BOND
  1   1   2  2   
  2   2   3  am  
  3   2   4  1   
  4   3   5  1   
  5   3   6  1   
  6   4   7  2   
  7   4  24  1   
  8   5   8  2   
  9   5  25  1   
 10   6  26  1   
 11   6  27  1   
 12   6  28  1   
 13   7   8  1   
 14   7  29  1   
 15   8   9  1   
 16   9  10  2   
 17   9  11  am  
 18  11  12  1   
 19  11  13  1   
 20  12  14  1   
 21  12  30  1   
 22  12  31  1   
 23  13  15  1   
 24  13  32  1   
 25  13  33  1   
 26  14  16  1   
 27  14  17  1   
 28  14  34  1   
 29  15  16  1   
 30  15  18  1   
 31  15  35  1   
 32  17  19  1   
 33  17  20  1   
 34  17  36  1   
 35  18  21  1   
 36  18  37  1   
 37  18  38  1   
 38  19  39  1   
 39  19  40  1   
 40  19  41  1   
 41  20  42  1   
 42  20  43  1   
 43  20  44  1   
 44  21  22  1   
 45  21  45  1   
 46  21  46  1   
 47  22  23  1   
 48  22  47  1   
 49  22  48  1   
 50  23  49  1   
 51  23  50  1   
 52  23  51  1   
@<TRIPOS>SUBSTRUCTURE
  1 ****  11 GROUP 4 **** **** 0

# MOE 2024.06 (io_trps.svl 2023.06)
