@<TRIPOS>MOLECULE
NONAME
46 49 1 0 0 
SMALL
USER_CHARGES


@<TRIPOS>ATOM
  1 O        1.2510     1.5680     1.2730 O.3   1 <1>  -0.0190 
  2 N        2.1070     0.5960     1.3840 N.2   1 <1>  -0.4100 
  3 C        0.8600     1.7330     0.0380 C.2   1 <1>  -0.0400 
  4 C        2.2570     0.1150     0.2020 C.2   1 <1>   0.1080 
  5 C        1.4770     0.8120    -0.7170 C.2   1 <1>  -0.1500 
  6 C       -0.1130     2.8440    -0.3080 C.3   1 <1>   0.0200 
  7 C        3.1620    -1.0500    -0.1330 C.3   1 <1>  -0.0590 
  8 C        0.3780     4.1930     0.2450 C.3   1 <1>  -0.0800 
  9 C       -0.4070     5.3880    -0.2770 C.3   1 <1>   0.2000 
 10 C        1.8250     4.5200    -0.1170 C.3   1 <1>   0.2090 
 11 O       -1.5690     5.5620     0.4560 O.3   1 <1>  -0.6800 
 12 C        0.5380     6.5830    -0.1290 C.3   1 <1>   0.2090 
 13 N        1.9250     6.0120    -0.0940 N.pl3 1 <1>  -0.8380 
 14 C        3.0910     6.6900    -0.0330 C.ar  1 <1>   0.4610 
 15 N        3.0810     8.0230     0.0400 N.ar  1 <1>  -0.1790 
 16 C        4.3630     6.0630    -0.0420 C.ar  1 <1>  -0.1500 
 17 C        4.2120     8.8150     0.1130 C.ar  1 <1>   0.3610 
 18 C        5.5240     6.7720     0.0270 C.ar  1 <1>  -0.1440 
 19 C        5.4770     8.1980     0.1090 C.ar  1 <1>   0.0000 
 20 C        4.1090    10.2080     0.1910 C.ar  1 <1>  -0.1500 
 21 C        6.8660     6.0490     0.0160 C.3   1 <1>  -0.0970 
 22 C        6.6100     9.0250     0.1850 C.ar  1 <1>  -0.1500 
 23 C        5.2360    10.9900     0.2640 C.ar  1 <1>  -0.1500 
 24 C        6.4920    10.3920     0.2610 C.ar  1 <1>  -0.1500 
 25 H        1.4150     0.6230    -1.7730 H     1 <1>   0.1500 
 26 H       -0.2200     2.8940    -1.3770 H     1 <1>   0.0800 
 27 H       -1.0760     2.6130     0.1120 H     1 <1>   0.0800 
 28 H        3.8960    -0.7470    -0.8560 H     1 <1>   0.0800 
 29 H        2.5800    -1.8600    -0.5340 H     1 <1>   0.0800 
 30 H        3.6660    -1.3910     0.7540 H     1 <1>   0.0800 
 31 H        0.3260     4.1690     1.3200 H     1 <1>   0.0800 
 32 H       -0.6760     5.2650    -1.3130 H     1 <1>   0.0800 
 33 H        2.0550     4.1640    -1.1080 H     1 <1>   0.0800 
 34 H        2.4980     4.0650     0.5920 H     1 <1>   0.0800 
 35 H       -1.4130     5.4250     1.4110 H     1 <1>   0.4000 
 36 H        0.3350     7.0980     0.7950 H     1 <1>   0.0800 
 37 H        0.4170     7.2480    -0.9670 H     1 <1>   0.0800 
 38 H        2.1760     8.4760     0.0500 H     1 <1>   0.4570 
 39 H        4.3960     4.9920    -0.1080 H     1 <1>   0.1500 
 40 H        3.1440    10.6820     0.1940 H     1 <1>   0.1500 
 41 H        6.7340     4.9830    -0.0480 H     1 <1>   0.0800 
 42 H        7.4120     6.2620     0.9190 H     1 <1>   0.0800 
 43 H        7.4520     6.3630    -0.8290 H     1 <1>   0.0800 
 44 H        7.5950     8.5910     0.1850 H     1 <1>   0.1500 
 45 H        5.1650    12.0650     0.3240 H     1 <1>   0.1500 
 46 H        7.3720    11.0130     0.3190 H     1 <1>   0.1500 
@<TRIPOS>BOND
  1   1   2  1   
  2   1   3  1   
  3   2   4  2   
  4   3   5  2   
  5   3   6  1   
  6   4   5  1   
  7   4   7  1   
  8   5  25  1   
  9   6   8  1   
 10   6  26  1   
 11   6  27  1   
 12   7  28  1   
 13   7  29  1   
 14   7  30  1   
 15   8   9  1   
 16   8  10  1   
 17   8  31  1   
 18   9  11  1   
 19   9  12  1   
 20   9  32  1   
 21  10  13  1   
 22  10  33  1   
 23  10  34  1   
 24  11  35  1   
 25  12  13  1   
 26  12  36  1   
 27  12  37  1   
 28  13  14  1   
 29  14  15  ar  
 30  14  16  ar  
 31  15  17  ar  
 32  15  38  1   
 33  16  18  ar  
 34  16  39  1   
 35  17  19  ar  
 36  17  20  ar  
 37  18  19  ar  
 38  18  21  1   
 39  19  22  ar  
 40  20  23  ar  
 41  20  40  1   
 42  21  41  1   
 43  21  42  1   
 44  21  43  1   
 45  22  24  ar  
 46  22  44  1   
 47  23  24  ar  
 48  23  45  1   
 49  24  46  1   
@<TRIPOS>SUBSTRUCTURE
  1 ****  13 GROUP 4 **** **** 0

# MOE 2024.06 (io_trps.svl 2023.06)
