@<TRIPOS>MOLECULE
NONAME
43 45 1 0 0 
SMALL
USER_CHARGES


@<TRIPOS>ATOM
  1 S        1.3170    -1.2810    -2.1550 S.3   1 <1>  -0.0800 
  2 C        0.7080    -1.6730    -0.5670 C.2   1 <1>   0.1980 
  3 C        1.4290     0.3870    -1.6710 C.2   1 <1>  -0.1400 
  4 N        0.6020    -0.6770     0.2210 N.2   1 <1>  -0.5650 
  5 C        0.3720    -3.1310    -0.2910 C.3   1 <1>   0.5230 
  6 C        1.0100     0.4940    -0.3970 C.2   1 <1>   0.0460 
  7 C        1.9500     1.3630    -2.7100 C.3   1 <1>  -0.0600 
  8 N       -0.3150    -3.2560     1.0390 N.4   1 <1>  -0.9590 
  9 C        0.9360     1.7540     0.4410 C.3   1 <1>  -0.0590 
 10 C       -1.7170    -2.7200     0.9910 C.3   1 <1>   0.3430 
 11 C       -0.3840    -4.6710     1.4990 C.3   1 <1>   0.3430 
 12 C       -2.6200    -3.8370     1.5340 C.3   1 <1>   0.2000 
 13 C       -1.8310    -5.1180     1.2700 C.3   1 <1>  -0.0800 
 14 O       -2.7870    -3.6900     2.9060 O.3   1 <1>  -0.6800 
 15 C       -2.0970    -5.6320    -0.1650 C.3   1 <1>  -0.0160 
 16 C       -1.0220    -6.5810    -0.6680 C.ar  1 <1>   0.1670 
 17 N        0.0510    -6.0130    -1.2060 N.ar  1 <1>  -0.6200 
 18 C       -1.2040    -7.9500    -0.5510 C.ar  1 <1>  -0.1500 
 19 C        0.9700    -6.8540    -1.6620 C.ar  1 <1>   0.1600 
 20 C       -0.2330    -8.8080    -1.0180 C.ar  1 <1>  -0.1500 
 21 C        0.8800    -8.2330    -1.5910 C.ar  1 <1>  -0.1500 
 22 H        1.2860    -3.7010    -0.2880 H     1 <1>   0.0800 
 23 H       -0.2570    -3.5140    -1.0760 H     1 <1>   0.0800 
 24 H        1.9830     2.3620    -2.3170 H     1 <1>   0.0800 
 25 H        1.3100     1.3540    -3.5740 H     1 <1>   0.0800 
 26 H        2.9430     1.0800    -3.0120 H     1 <1>   0.0800 
 27 H        0.2370    -2.6610     1.6770 H     1 <1>   0.4500 
 28 H        1.2720     2.6090    -0.1160 H     1 <1>   0.0800 
 29 H        1.5550     1.6460     1.3120 H     1 <1>   0.0800 
 30 H       -0.0780     1.9230     0.7530 H     1 <1>   0.0800 
 31 H       -1.8210    -1.8180     1.5720 H     1 <1>   0.0800 
 32 H       -1.9890    -2.5070    -0.0300 H     1 <1>   0.0800 
 33 H        0.3300    -5.3000     0.9940 H     1 <1>   0.0800 
 34 H       -0.1750    -4.7090     2.5560 H     1 <1>   0.0800 
 35 H       -3.5990    -3.8340     1.0830 H     1 <1>   0.0800 
 36 H       -2.0950    -5.8980     1.9640 H     1 <1>   0.0800 
 37 H       -1.9450    -3.5990     3.3910 H     1 <1>   0.4000 
 38 H       -2.1630    -4.8150    -0.8620 H     1 <1>   0.0800 
 39 H       -3.0510    -6.1310    -0.1870 H     1 <1>   0.0800 
 40 H       -2.0970    -8.3510    -0.1040 H     1 <1>   0.1500 
 41 H        1.8460    -6.4270    -2.1210 H     1 <1>   0.1500 
 42 H       -0.3400    -9.8780    -0.9460 H     1 <1>   0.1500 
 43 H        1.6710    -8.8490    -1.9820 H     1 <1>   0.1500 
@<TRIPOS>BOND
  1   1   2  1   
  2   1   3  1   
  3   2   4  2   
  4   2   5  1   
  5   3   6  2   
  6   3   7  1   
  7   4   6  1   
  8   5   8  1   
  9   5  22  1   
 10   5  23  1   
 11   6   9  1   
 12   7  24  1   
 13   7  25  1   
 14   7  26  1   
 15   8  10  1   
 16   8  11  1   
 17   8  27  1   
 18   9  28  1   
 19   9  29  1   
 20   9  30  1   
 21  10  12  1   
 22  10  31  1   
 23  10  32  1   
 24  11  13  1   
 25  11  33  1   
 26  11  34  1   
 27  12  13  1   
 28  12  14  1   
 29  12  35  1   
 30  13  15  1   
 31  13  36  1   
 32  14  37  1   
 33  15  16  1   
 34  15  38  1   
 35  15  39  1   
 36  16  17  ar  
 37  16  18  ar  
 38  17  19  ar  
 39  18  20  ar  
 40  18  40  1   
 41  19  21  ar  
 42  19  41  1   
 43  20  21  ar  
 44  20  42  1   
 45  21  43  1   
@<TRIPOS>SUBSTRUCTURE
  1 ****   5 GROUP 4 **** **** 0

# MOE 2024.06 (io_trps.svl 2023.06)
