@<TRIPOS>MOLECULE
NONAME
44 45 1 0 0 
SMALL
USER_CHARGES


@<TRIPOS>ATOM
  1 F       -3.6840    -0.7120     1.5820 F     1 <1>  -0.3400 
  2 C       -2.7310    -0.9750     0.6970 C.3   1 <1>   1.1640 
  3 F       -1.7590    -1.5800     1.3660 F     1 <1>  -0.3400 
  4 F       -2.2470     0.1970     0.3040 F     1 <1>  -0.3400 
  5 C       -3.2640    -1.8450    -0.4550 C.ar  1 <1>  -0.1440 
  6 C       -3.7690    -3.1130    -0.1850 C.ar  1 <1>  -0.1500 
  7 C       -3.2570    -1.4020    -1.7730 C.ar  1 <1>  -0.1500 
  8 C       -4.2690    -3.9480    -1.1870 C.ar  1 <1>   0.0860 
  9 C       -3.7350    -2.2110    -2.7860 C.ar  1 <1>  -0.1500 
 10 C       -4.8080    -5.2650    -0.8880 C.2   1 <1>   0.5440 
 11 C       -4.2310    -3.4670    -2.4950 C.ar  1 <1>  -0.1500 
 12 O       -4.8370    -6.1380    -1.7350 O.2   1 <1>  -0.5700 
 13 N       -5.3750    -5.5510     0.3300 N.am  1 <1>  -0.6600 
 14 C       -5.1470    -6.8910     0.9390 C.3   1 <1>   0.3200 
 15 C       -6.6120    -4.8360     0.7690 C.3   1 <1>   0.1400 
 16 C       -6.3260    -7.7730     0.5920 C.2   1 <1>  -0.3320 
 17 C       -7.7230    -4.9860    -0.2940 C.3   1 <1>   0.3430 
 18 N       -6.5550    -8.2010    -0.6630 N.pl3 1 <1>   0.0330 
 19 C       -7.3210    -8.2720     1.3570 C.2   1 <1>   0.0770 
 20 N       -9.1120    -4.7880     0.2470 N.4   1 <1>  -0.9590 
 21 C       -7.7050    -8.9000    -0.5890 C.2   1 <1>   0.0360 
 22 N       -8.2090    -8.9470     0.6040 N.2   1 <1>  -0.5650 
 23 C       -9.5620    -5.9900     1.0230 C.3   1 <1>   0.2630 
 24 C      -10.0680    -4.5440    -0.8770 C.3   1 <1>   0.2630 
 25 H       -3.7670    -3.4710     0.8310 H     1 <1>   0.1500 
 26 H       -2.8740    -0.4250    -2.0260 H     1 <1>   0.1500 
 27 H       -3.7160    -1.8620    -3.8060 H     1 <1>   0.1500 
 28 H       -4.5890    -4.0910    -3.2960 H     1 <1>   0.1500 
 29 H       -5.0510    -6.7920     2.0070 H     1 <1>   0.0800 
 30 H       -4.2360    -7.3230     0.5570 H     1 <1>   0.0800 
 31 H       -6.3880    -3.7930     0.9140 H     1 <1>   0.0800 
 32 H       -6.9370    -5.2480     1.7080 H     1 <1>   0.0800 
 33 H       -7.6590    -5.9710    -0.7230 H     1 <1>   0.0800 
 34 H       -7.5350    -4.2730    -1.0790 H     1 <1>   0.0800 
 35 H       -5.9690    -7.9960    -1.4880 H     1 <1>   0.2700 
 36 H       -7.4560    -8.1720     2.4220 H     1 <1>   0.1500 
 37 H       -9.1230    -3.9630     0.8650 H     1 <1>   0.4500 
 38 H       -8.1450    -9.3680    -1.4540 H     1 <1>   0.1500 
 39 H       -9.5580    -6.8670     0.3940 H     1 <1>   0.0800 
 40 H      -10.5610    -5.8430     1.4000 H     1 <1>   0.0800 
 41 H       -8.9050    -6.1710     1.8580 H     1 <1>   0.0800 
 42 H      -10.0890    -5.3940    -1.5410 H     1 <1>   0.0800 
 43 H       -9.7720    -3.6730    -1.4400 H     1 <1>   0.0800 
 44 H      -11.0620    -4.3830    -0.4940 H     1 <1>   0.0800 
@<TRIPOS>BOND
  1   1   2  1   
  2   2   3  1   
  3   2   4  1   
  4   2   5  1   
  5   5   6  ar  
  6   5   7  ar  
  7   6   8  ar  
  8   6  25  1   
  9   7   9  ar  
 10   7  26  1   
 11   8  10  1   
 12   8  11  ar  
 13   9  11  ar  
 14   9  27  1   
 15  10  12  2   
 16  10  13  am  
 17  11  28  1   
 18  13  14  1   
 19  13  15  1   
 20  14  16  1   
 21  14  29  1   
 22  14  30  1   
 23  15  17  1   
 24  15  31  1   
 25  15  32  1   
 26  16  18  1   
 27  16  19  2   
 28  17  20  1   
 29  17  33  1   
 30  17  34  1   
 31  18  21  1   
 32  18  35  1   
 33  19  22  1   
 34  19  36  1   
 35  20  23  1   
 36  20  24  1   
 37  20  37  1   
 38  21  22  2   
 39  21  38  1   
 40  23  39  1   
 41  23  40  1   
 42  23  41  1   
 43  24  42  1   
 44  24  43  1   
 45  24  44  1   
@<TRIPOS>SUBSTRUCTURE
  1 ****  13 GROUP 4 **** **** 0

# MOE 2024.06 (io_trps.svl 2023.06)
