@<TRIPOS>MOLECULE
NONAME
42 44 1 0 0 
SMALL
USER_CHARGES


@<TRIPOS>ATOM
  1 CL       0.6920    -1.1760     2.0080 Cl    1 <1>  -0.1770 
  2 C        0.6820    -2.3950     0.7540 C.ar  1 <1>   0.1770 
  3 C        0.6430    -2.0060    -0.5920 C.ar  1 <1>  -0.1440 
  4 C        0.7080    -3.7190     1.1390 C.ar  1 <1>  -0.1500 
  5 C        0.6320    -2.9840    -1.5690 C.ar  1 <1>  -0.1500 
  6 C        0.6160    -0.5340    -0.9770 C.3   1 <1>  -0.0960 
  7 C        0.6910    -4.7020     0.1500 C.ar  1 <1>   0.0000 
  8 C        0.6560    -4.3180    -1.1810 C.ar  1 <1>   0.1400 
  9 C        0.6860    -6.1140     0.1160 C.2   1 <1>  -0.1810 
 10 O        0.6420    -5.3910    -1.9720 O.3   1 <1>  -0.2800 
 11 C        0.6580    -6.4600    -1.1850 C.2   1 <1>  -0.0100 
 12 C        0.6840    -7.0160     1.3410 C.3   1 <1>   0.0820 
 13 C       -0.4300    -8.0570     1.3190 C.2   1 <1>   0.5690 
 14 O       -0.1070    -9.2100     1.1400 O.2   1 <1>  -0.5700 
 15 N       -1.7480    -7.7180     1.5100 N.am  1 <1>  -0.6600 
 16 C       -2.7740    -8.7930     1.6580 C.3   1 <1>   0.3200 
 17 C       -2.3300    -6.3600     1.2800 C.3   1 <1>   0.1400 
 18 C       -3.2320    -9.2700     0.2910 C.2   1 <1>   0.0060 
 19 C       -2.3210    -5.5310     2.5680 C.3   1 <1>   0.1200 
 20 N       -4.4310    -9.1410    -0.1820 N.2   1 <1>  -0.5650 
 21 N       -2.3780    -9.8830    -0.5550 N.pl3 1 <1>   0.0330 
 22 O       -2.7540    -4.2430     2.2920 O.3   1 <1>  -0.6800 
 23 C       -4.3520    -9.7000    -1.4060 C.2   1 <1>   0.0770 
 24 C       -3.1060   -10.1590    -1.6520 C.2   1 <1>  -0.3020 
 25 H        0.7440    -3.9820     2.1800 H     1 <1>   0.1500 
 26 H        0.6040    -2.7480    -2.6170 H     1 <1>   0.1500 
 27 H       -0.2540    -0.0590    -0.5590 H     1 <1>   0.0800 
 28 H        0.5880    -0.4150    -2.0460 H     1 <1>   0.0800 
 29 H        1.4940    -0.0390    -0.6030 H     1 <1>   0.0800 
 30 H        0.6420    -7.4320    -1.6500 H     1 <1>   0.1500 
 31 H        0.5910    -6.4320     2.2350 H     1 <1>   0.0800 
 32 H        1.6300    -7.5240     1.3910 H     1 <1>   0.0800 
 33 H       -3.6190    -8.4210     2.2100 H     1 <1>   0.0800 
 34 H       -2.3610    -9.6230     2.2050 H     1 <1>   0.0800 
 35 H       -3.3460    -6.4590     0.9350 H     1 <1>   0.0800 
 36 H       -1.7830    -5.8520     0.5090 H     1 <1>   0.0800 
 37 H       -1.3340    -5.4640     2.9880 H     1 <1>   0.0800 
 38 H       -2.9940    -5.9550     3.2930 H     1 <1>   0.0800 
 39 H       -1.3830   -10.0570    -0.3610 H     1 <1>   0.2700 
 40 H       -2.1630    -3.7920     1.6570 H     1 <1>   0.4000 
 41 H       -5.2110    -9.7430    -2.0550 H     1 <1>   0.1500 
 42 H       -2.7070   -10.6510    -2.5200 H     1 <1>   0.1500 
@<TRIPOS>BOND
  1   1   2  1   
  2   2   3  ar  
  3   2   4  ar  
  4   3   5  ar  
  5   3   6  1   
  6   4   7  ar  
  7   4  25  1   
  8   5   8  ar  
  9   5  26  1   
 10   6  27  1   
 11   6  28  1   
 12   6  29  1   
 13   7   8  ar  
 14   7   9  1   
 15   8  10  1   
 16   9  11  2   
 17   9  12  1   
 18  10  11  1   
 19  11  30  1   
 20  12  13  1   
 21  12  31  1   
 22  12  32  1   
 23  13  14  2   
 24  13  15  am  
 25  15  16  1   
 26  15  17  1   
 27  16  18  1   
 28  16  33  1   
 29  16  34  1   
 30  17  19  1   
 31  17  35  1   
 32  17  36  1   
 33  18  20  2   
 34  18  21  1   
 35  19  22  1   
 36  19  37  1   
 37  19  38  1   
 38  20  23  1   
 39  21  24  1   
 40  21  39  1   
 41  22  40  1   
 42  23  24  2   
 43  23  41  1   
 44  24  42  1   
@<TRIPOS>SUBSTRUCTURE
  1 ****   9 GROUP 4 **** **** 0

# MOE 2024.06 (io_trps.svl 2023.06)
