@<TRIPOS>MOLECULE
NONAME
53 57 1 0 0 
SMALL
USER_CHARGES


@<TRIPOS>ATOM
  1 O       -0.3820     0.5070     0.7450 O.2   1 <1>  -0.5700 
  2 C       -1.4480     0.9630     0.4010 C.2   1 <1>   0.5690 
  3 N       -2.5900     0.2040     0.4260 N.am  1 <1>  -0.6600 
  4 C       -1.4970     2.4100    -0.0720 C.3   1 <1>  -0.0990 
  5 C       -2.5470    -1.1610     1.0320 C.3   1 <1>   0.1400 
  6 C       -3.8980     0.6490    -0.1460 C.3   1 <1>   0.1400 
  7 C       -0.2550     3.2270     0.3140 C.3   1 <1>  -0.0170 
  8 C       -3.9250    -1.5780     1.5460 C.3   1 <1>  -0.1600 
  9 C       -4.6630    -0.5580    -0.6810 C.3   1 <1>  -0.1600 
 10 C       -0.4030     4.6670    -0.1530 C.ar  1 <1>  -0.1440 
 11 C       -5.0070    -1.5400     0.4520 C.3   1 <1>   0.4600 
 12 C        0.0780     5.0660    -1.3920 C.ar  1 <1>   0.1600 
 13 C       -1.0250     5.6030     0.6490 C.ar  1 <1>  -0.1500 
 14 O       -6.1720    -1.0760     1.1000 O.3   1 <1>  -0.5600 
 15 C       -5.2530    -2.9410    -0.1010 C.2   1 <1>  -0.3320 
 16 N       -0.0150     6.2900    -1.8860 N.ar  1 <1>  -0.6200 
 17 C       -1.1290     6.8840     0.1520 C.ar  1 <1>  -0.1500 
 18 C       -7.4280    -1.4050     0.5530 C.3   1 <1>   0.1200 
 19 N       -4.3300    -3.7510    -0.7040 N.pl3 1 <1>   0.0330 
 20 C       -6.4400    -3.5780    -0.0560 C.2   1 <1>  -0.1810 
 21 C       -0.6150     7.1700    -1.1010 C.ar  1 <1>   0.1600 
 22 C       -7.6560    -2.9250     0.5490 C.3   1 <1>   0.0210 
 23 C       -4.9540    -4.9280    -1.0410 C.ar  1 <1>  -0.1520 
 24 C       -6.2860    -4.8510    -0.6430 C.ar  1 <1>   0.0000 
 25 C       -4.4590    -6.0730    -1.6700 C.ar  1 <1>  -0.1500 
 26 C       -7.1400    -5.9340    -0.8720 C.ar  1 <1>  -0.1500 
 27 C       -5.3110    -7.1310    -1.8910 C.ar  1 <1>  -0.1500 
 28 C       -6.6520    -7.0620    -1.4920 C.ar  1 <1>  -0.1500 
 29 H       -2.3610     2.8840     0.3560 H     1 <1>   0.0800 
 30 H       -1.6010     2.4140    -1.1410 H     1 <1>   0.0800 
 31 H       -1.8460    -1.1710     1.8510 H     1 <1>   0.0800 
 32 H       -2.1990    -1.8600     0.2910 H     1 <1>   0.0800 
 33 H       -3.7380     1.3460    -0.9500 H     1 <1>   0.0800 
 34 H       -4.4770     1.1360     0.6220 H     1 <1>   0.0800 
 35 H        0.6230     2.7880    -0.1280 H     1 <1>   0.0800 
 36 H       -0.1240     3.2040     1.3830 H     1 <1>   0.0800 
 37 H       -4.1910    -0.9070     2.3430 H     1 <1>   0.0800 
 38 H       -3.8690    -2.5660     1.9640 H     1 <1>   0.0800 
 39 H       -4.0450    -1.0450    -1.4130 H     1 <1>   0.0800 
 40 H       -5.5540    -0.2390    -1.1840 H     1 <1>   0.0800 
 41 H        0.5670     4.3360    -2.0150 H     1 <1>   0.1500 
 42 H       -1.4140     5.3480     1.6200 H     1 <1>   0.1500 
 43 H       -1.6020     7.6580     0.7290 H     1 <1>   0.1500 
 44 H       -7.4770    -1.0220    -0.4500 H     1 <1>   0.0800 
 45 H       -8.1810    -0.9190     1.1460 H     1 <1>   0.0800 
 46 H       -3.3440    -3.5390    -0.8790 H     1 <1>   0.2700 
 47 H       -0.7030     8.1740    -1.4780 H     1 <1>   0.1500 
 48 H       -8.5300    -3.1600    -0.0300 H     1 <1>   0.0800 
 49 H       -7.7990    -3.2800     1.5530 H     1 <1>   0.0800 
 50 H       -3.4290    -6.1190    -1.9730 H     1 <1>   0.1500 
 51 H       -8.1650    -5.8670    -0.5600 H     1 <1>   0.1500 
 52 H       -4.9550    -8.0240    -2.3740 H     1 <1>   0.1500 
 53 H       -7.2970    -7.9030    -1.6760 H     1 <1>   0.1500 
@<TRIPOS>BOND
  1   1   2  2   
  2   2   3  am  
  3   2   4  1   
  4   3   5  1   
  5   3   6  1   
  6   4   7  1   
  7   4  29  1   
  8   4  30  1   
  9   5   8  1   
 10   5  31  1   
 11   5  32  1   
 12   6   9  1   
 13   6  33  1   
 14   6  34  1   
 15   7  10  1   
 16   7  35  1   
 17   7  36  1   
 18   8  11  1   
 19   8  37  1   
 20   8  38  1   
 21   9  11  1   
 22   9  39  1   
 23   9  40  1   
 24  10  12  ar  
 25  10  13  ar  
 26  11  14  1   
 27  11  15  1   
 28  12  16  ar  
 29  12  41  1   
 30  13  17  ar  
 31  13  42  1   
 32  14  18  1   
 33  15  19  1   
 34  15  20  2   
 35  16  21  ar  
 36  17  21  ar  
 37  17  43  1   
 38  18  22  1   
 39  18  44  1   
 40  18  45  1   
 41  19  23  1   
 42  19  46  1   
 43  20  22  1   
 44  20  24  1   
 45  21  47  1   
 46  22  48  1   
 47  22  49  1   
 48  23  24  ar  
 49  23  25  ar  
 50  24  26  ar  
 51  25  27  ar  
 52  25  50  1   
 53  26  28  ar  
 54  26  51  1   
 55  27  28  ar  
 56  27  52  1   
 57  28  53  1   
@<TRIPOS>SUBSTRUCTURE
  1 ****   6 GROUP 4 **** **** 0

# MOE 2024.06 (io_trps.svl 2023.06)
