@<TRIPOS>MOLECULE
NONAME
56 60 1 0 0 
SMALL
USER_CHARGES


@<TRIPOS>ATOM
  1 O       -1.1300    -1.1960    -1.8100 O.3   1 <1>  -0.6800 
  2 C       -2.1080    -1.3260    -0.8460 C.3   1 <1>   0.2000 
  3 C       -1.9500    -2.6810    -0.1610 C.3   1 <1>  -0.1600 
  4 C       -3.4690    -1.2140    -1.5290 C.3   1 <1>  -0.1600 
  5 C       -3.0720    -2.8920     0.8580 C.3   1 <1>   0.2090 
  6 C       -4.5970    -1.4260    -0.5190 C.3   1 <1>   0.2090 
  7 N       -4.4010    -2.7100     0.2080 N.pl3 1 <1>  -0.8380 
  8 C       -5.1780    -3.8090    -0.1140 C.ar  1 <1>   0.4100 
  9 N       -4.5610    -4.9310    -0.4320 N.ar  1 <1>  -0.6200 
 10 C       -6.5500    -3.7370    -0.1020 C.ar  1 <1>  -0.1500 
 11 C       -5.3500    -5.9390    -0.7400 C.ar  1 <1>   0.4700 
 12 C       -7.2830    -4.8520    -0.4430 C.ar  1 <1>   0.4100 
 13 N       -6.6670    -5.9770    -0.7660 N.ar  1 <1>  -0.6200 
 14 N       -8.6720    -4.8700    -0.4570 N.pl3 1 <1>  -0.8380 
 15 C       -9.5310    -3.6510    -0.5680 C.3   1 <1>   0.2090 
 16 C       -9.4140    -6.1680    -0.4660 C.3   1 <1>   0.2090 
 17 C      -10.5080    -3.5660     0.6260 C.3   1 <1>   0.1430 
 18 C      -10.9110    -5.9800    -0.1570 C.3   1 <1>  -0.1600 
 19 C      -11.5470    -2.5130     0.2790 C.ar  1 <1>   0.1670 
 20 C      -11.1290    -4.9500     0.9660 C.3   1 <1>  -0.1600 
 21 C       -9.8220    -2.9410     1.8710 C.3   1 <1>  -0.1600 
 22 N      -12.5490    -2.6690    -0.5580 N.ar  1 <1>  -0.6200 
 23 C      -11.3090    -1.3410     0.9340 C.ar  1 <1>  -0.1430 
 24 C      -10.0910    -1.4280     1.8190 C.3   1 <1>  -0.0170 
 25 C      -13.3150    -1.5970    -0.7040 C.ar  1 <1>   0.4770 
 26 C      -12.1650    -0.2930     0.7070 C.ar  1 <1>   0.1600 
 27 N      -13.1820    -0.4130    -0.1210 N.ar  1 <1>  -0.6200 
 28 C      -14.4840    -1.7390    -1.6490 C.3   1 <1>  -0.0970 
 29 H       -0.2510    -1.3670    -1.4250 H     1 <1>   0.4000 
 30 H       -1.9820    -0.5280    -0.1330 H     1 <1>   0.0800 
 31 H       -1.0040    -2.7360     0.3460 H     1 <1>   0.0800 
 32 H       -2.0010    -3.4710    -0.8890 H     1 <1>   0.0800 
 33 H       -3.5520    -1.9610    -2.2990 H     1 <1>   0.0800 
 34 H       -3.5700    -0.2440    -1.9780 H     1 <1>   0.0800 
 35 H       -2.9780    -2.1800     1.6600 H     1 <1>   0.0800 
 36 H       -2.9980    -3.8790     1.2840 H     1 <1>   0.0800 
 37 H       -5.5390    -1.4320    -1.0400 H     1 <1>   0.0800 
 38 H       -4.6100    -0.6190     0.1930 H     1 <1>   0.0800 
 39 H       -7.0180    -2.8250     0.1900 H     1 <1>   0.1500 
 40 H       -4.8530    -6.8560    -1.0050 H     1 <1>   0.1500 
 41 H      -10.0980    -3.7250    -1.4810 H     1 <1>   0.0800 
 42 H       -8.9460    -2.7540    -0.6410 H     1 <1>   0.0800 
 43 H       -8.9790    -6.8130     0.2790 H     1 <1>   0.0800 
 44 H       -9.2940    -6.6420    -1.4260 H     1 <1>   0.0800 
 45 H      -11.3330    -6.9270     0.1270 H     1 <1>   0.0800 
 46 H      -11.4210    -5.6560    -1.0470 H     1 <1>   0.0800 
 47 H      -12.1800    -4.8440     1.1690 H     1 <1>   0.0800 
 48 H      -10.6660    -5.3470     1.8530 H     1 <1>   0.0800 
 49 H       -8.7720    -3.1700     1.9160 H     1 <1>   0.0800 
 50 H      -10.2870    -3.3200     2.7640 H     1 <1>   0.0800 
 51 H       -9.2680    -0.9090     1.3580 H     1 <1>   0.0800 
 52 H      -10.2780    -1.0250     2.7990 H     1 <1>   0.0800 
 53 H      -12.0190     0.6510     1.2020 H     1 <1>   0.1500 
 54 H      -14.3040    -2.5360    -2.3470 H     1 <1>   0.0800 
 55 H      -14.6280    -0.8240    -2.1920 H     1 <1>   0.0800 
 56 H      -15.3700    -1.9570    -1.0840 H     1 <1>   0.0800 
@<TRIPOS>BOND
  1   1   2  1   
  2   1  29  1   
  3   2   3  1   
  4   2   4  1   
  5   2  30  1   
  6   3   5  1   
  7   3  31  1   
  8   3  32  1   
  9   4   6  1   
 10   4  33  1   
 11   4  34  1   
 12   5   7  1   
 13   5  35  1   
 14   5  36  1   
 15   6   7  1   
 16   6  37  1   
 17   6  38  1   
 18   7   8  1   
 19   8   9  ar  
 20   8  10  ar  
 21   9  11  ar  
 22  10  12  ar  
 23  10  39  1   
 24  11  13  ar  
 25  11  40  1   
 26  12  13  ar  
 27  12  14  1   
 28  14  15  1   
 29  14  16  1   
 30  15  17  1   
 31  15  41  1   
 32  15  42  1   
 33  16  18  1   
 34  16  43  1   
 35  16  44  1   
 36  17  19  1   
 37  17  20  1   
 38  17  21  1   
 39  18  20  1   
 40  18  45  1   
 41  18  46  1   
 42  19  22  ar  
 43  19  23  ar  
 44  20  47  1   
 45  20  48  1   
 46  21  24  1   
 47  21  49  1   
 48  21  50  1   
 49  22  25  ar  
 50  23  24  1   
 51  23  26  ar  
 52  24  51  1   
 53  24  52  1   
 54  25  27  ar  
 55  25  28  1   
 56  26  27  ar  
 57  26  53  1   
 58  28  54  1   
 59  28  55  1   
 60  28  56  1   
@<TRIPOS>SUBSTRUCTURE
  1 ****  10 GROUP 4 **** **** 0

# MOE 2024.06 (io_trps.svl 2023.06)
