@<TRIPOS>MOLECULE
NONAME
52 55 1 0 0 
SMALL
USER_CHARGES


@<TRIPOS>ATOM
  1 O        1.5000     2.6790    -2.8050 O.2   1 <1>  -0.5700 
  2 C        0.9440     2.1740    -1.8470 C.2   1 <1>   0.7160 
  3 N        0.9820     0.8240    -1.7690 N.am  1 <1>  -0.8000 
  4 C        0.2670     2.9520    -0.8180 C.2   1 <1>   0.2030 
  5 N       -0.3810     2.4400     0.2180 N.2   1 <1>  -0.7070 
  6 C        0.2090     4.3500    -0.7680 C.2   1 <1>  -0.1810 
  7 N       -0.8430     3.4880     0.9140 N.pl3 1 <1>   0.3140 
  8 C       -0.5000     4.6520     0.3310 C.2   1 <1>  -0.3320 
  9 C        0.8150     5.3740    -1.7140 C.3   1 <1>   0.3900 
 10 C       -1.6110     3.3170     2.1530 C.3   1 <1>   0.0160 
 11 C       -0.7850     6.0750     0.7770 C.3   1 <1>   0.0200 
 12 N        0.8210     6.7240    -1.0490 N.pl3 1 <1>  -0.8380 
 13 C       -0.4720     7.0620    -0.3670 C.3   1 <1>   0.2090 
 14 C        1.9900     7.2690    -0.6380 C.ar  1 <1>   0.4100 
 15 N        2.8320     6.4410    -0.0580 N.ar  1 <1>  -0.6200 
 16 C        2.2880     8.6470    -0.8090 C.ar  1 <1>  -0.1430 
 17 C        3.9660     6.9180     0.4110 C.ar  1 <1>   0.7710 
 18 C        3.4590     9.1130    -0.2880 C.ar  1 <1>   0.2180 
 19 C        1.3160     9.5430    -1.5870 C.3   1 <1>  -0.0970 
 20 N        4.2750     8.2170     0.3170 N.ar  1 <1>  -0.1790 
 21 N        4.8380     6.0700     1.0100 N.pl3 1 <1>  -0.8380 
 22 C        3.9470    10.5570    -0.3270 C.3   1 <1>  -0.0970 
 23 C        4.5180     4.6200     1.1570 C.3   1 <1>   0.2090 
 24 C        6.1940     6.3490     1.5530 C.3   1 <1>   0.2090 
 25 C        5.6320     4.0530     2.0250 C.3   1 <1>  -0.1600 
 26 C        6.8170     4.9790     1.7810 C.3   1 <1>  -0.1600 
 27 H        1.4330     0.2690    -2.4920 H     1 <1>   0.3700 
 28 H        0.5100     0.3540    -0.9950 H     1 <1>   0.3700 
 29 H        0.2330     5.4190    -2.6180 H     1 <1>   0.0800 
 30 H        1.8170     5.0830    -1.9770 H     1 <1>   0.0800 
 31 H       -1.6560     2.2720     2.3970 H     1 <1>   0.0800 
 32 H       -2.6050     3.6960     2.0060 H     1 <1>   0.0800 
 33 H       -1.1250     3.8520     2.9460 H     1 <1>   0.0800 
 34 H       -0.1680     6.3100     1.6260 H     1 <1>   0.0800 
 35 H       -1.8150     6.1810     1.0640 H     1 <1>   0.0800 
 36 H       -0.4360     8.0610     0.0290 H     1 <1>   0.0800 
 37 H       -1.2630     7.0190    -1.0950 H     1 <1>   0.0800 
 38 H        0.7880     8.9740    -2.3320 H     1 <1>   0.0800 
 39 H        1.8310    10.3280    -2.1100 H     1 <1>   0.0800 
 40 H        0.5970     9.9830    -0.9200 H     1 <1>   0.0800 
 41 H        5.1620     8.4760     0.7240 H     1 <1>   0.4570 
 42 H        3.1510    11.2400    -0.5600 H     1 <1>   0.0800 
 43 H        4.7170    10.6670    -1.0700 H     1 <1>   0.0800 
 44 H        4.3420    10.8470     0.6300 H     1 <1>   0.0800 
 45 H        4.5250     4.1530     0.1850 H     1 <1>   0.0800 
 46 H        3.5520     4.4740     1.6130 H     1 <1>   0.0800 
 47 H        6.1030     6.8650     2.4960 H     1 <1>   0.0800 
 48 H        6.7900     6.9260     0.8670 H     1 <1>   0.0800 
 49 H        5.8500     3.0290     1.7740 H     1 <1>   0.0800 
 50 H        5.3300     4.1010     3.0570 H     1 <1>   0.0800 
 51 H        7.5090     4.9820     2.6040 H     1 <1>   0.0800 
 52 H        7.3370     4.6750     0.8890 H     1 <1>   0.0800 
@<TRIPOS>BOND
  1   1   2  2   
  2   2   3  am  
  3   2   4  1   
  4   3  27  1   
  5   3  28  1   
  6   4   5  2   
  7   4   6  1   
  8   5   7  1   
  9   6   8  2   
 10   6   9  1   
 11   7   8  1   
 12   7  10  1   
 13   8  11  1   
 14   9  12  1   
 15   9  29  1   
 16   9  30  1   
 17  10  31  1   
 18  10  32  1   
 19  10  33  1   
 20  11  13  1   
 21  11  34  1   
 22  11  35  1   
 23  12  13  1   
 24  12  14  1   
 25  13  36  1   
 26  13  37  1   
 27  14  15  ar  
 28  14  16  ar  
 29  15  17  ar  
 30  16  18  ar  
 31  16  19  1   
 32  17  20  ar  
 33  17  21  1   
 34  18  20  ar  
 35  18  22  1   
 36  19  38  1   
 37  19  39  1   
 38  19  40  1   
 39  20  41  1   
 40  21  23  1   
 41  21  24  1   
 42  22  42  1   
 43  22  43  1   
 44  22  44  1   
 45  23  25  1   
 46  23  45  1   
 47  23  46  1   
 48  24  26  1   
 49  24  47  1   
 50  24  48  1   
 51  25  26  1   
 52  25  49  1   
 53  25  50  1   
 54  26  51  1   
 55  26  52  1   
@<TRIPOS>SUBSTRUCTURE
  1 ****  15 GROUP 4 **** **** 0

# MOE 2024.06 (io_trps.svl 2023.06)
