@<TRIPOS>MOLECULE
NONAME
40 43 1 0 0 
SMALL
USER_CHARGES


@<TRIPOS>ATOM
  1 O       -0.6310     4.3870     2.2880 O.2   1 <1>  -0.5700 
  2 C       -0.5970     3.5680     1.3810 C.2   1 <1>   0.7150 
  3 N       -1.7790     2.9300     1.0480 N.am  1 <1>  -0.6600 
  4 C        0.6790     3.3390     0.7230 C.2   1 <1>   0.1010 
  5 C       -3.1130     3.5360     1.3520 C.3   1 <1>   0.1400 
  6 C       -1.8730     1.6840     0.2400 C.3   1 <1>   0.1400 
  7 N        0.9350     2.7840    -0.4450 N.2   1 <1>  -0.5650 
  8 N        1.8220     3.7600     1.3240 N.pl3 1 <1>   0.0330 
  9 C       -3.8510     3.8910     0.0460 C.3   1 <1>   0.1430 
 10 C       -2.5650     1.9960    -1.0920 C.3   1 <1>  -0.1600 
 11 C        2.2670     2.8500    -0.5720 C.2   1 <1>   0.0770 
 12 C        2.8300     3.4450     0.5010 C.2   1 <1>  -0.3020 
 13 C       -5.2150     4.4510     0.4030 C.ar  1 <1>   0.1670 
 14 C       -3.9440     2.6460    -0.8660 C.3   1 <1>  -0.1600 
 15 C       -3.1800     5.0900    -0.6800 C.3   1 <1>  -0.1600 
 16 N       -6.2360     3.7510     0.8380 N.ar  1 <1>  -0.6200 
 17 C       -5.2610     5.8040     0.2330 C.ar  1 <1>  -0.1440 
 18 C       -3.9460     6.3550    -0.2570 C.3   1 <1>  -0.0170 
 19 C       -7.3140     4.4760     1.0960 C.ar  1 <1>   0.7200 
 20 C       -6.4400     6.4460     0.5240 C.ar  1 <1>   0.1600 
 21 N       -7.4890     5.7820     0.9570 N.ar  1 <1>  -0.6200 
 22 N       -8.3760     3.7960     1.5300 N.pl3 1 <1>  -0.9000 
 23 H       -3.0050     4.4200     1.9570 H     1 <1>   0.0800 
 24 H       -3.6980     2.8280     1.9130 H     1 <1>   0.0800 
 25 H       -2.4560     0.9620     0.7860 H     1 <1>   0.0800 
 26 H       -0.9060     1.2490     0.0700 H     1 <1>   0.0800 
 27 H        1.8490     4.2440     2.2280 H     1 <1>   0.2700 
 28 H       -2.6840     1.0850    -1.6500 H     1 <1>   0.0800 
 29 H       -1.9320     2.6500    -1.6670 H     1 <1>   0.0800 
 30 H        2.7700     2.4630    -1.4430 H     1 <1>   0.1500 
 31 H        3.8640     3.6550     0.7110 H     1 <1>   0.1500 
 32 H       -4.3910     2.9070    -1.8090 H     1 <1>   0.0800 
 33 H       -4.5890     1.9230    -0.3970 H     1 <1>   0.0800 
 34 H       -3.2920     4.9730    -1.7430 H     1 <1>   0.0800 
 35 H       -2.1300     5.1740    -0.4630 H     1 <1>   0.0800 
 36 H       -4.0770     7.0330    -1.0830 H     1 <1>   0.0800 
 37 H       -3.4380     6.8530     0.5510 H     1 <1>   0.0800 
 38 H       -6.5240     7.5130     0.4030 H     1 <1>   0.1500 
 39 H       -9.2640     4.2790     1.4320 H     1 <1>   0.4000 
 40 H       -8.3660     2.8010     1.3270 H     1 <1>   0.4000 
@<TRIPOS>BOND
  1   1   2  2   
  2   2   3  am  
  3   2   4  1   
  4   3   5  1   
  5   3   6  1   
  6   4   7  2   
  7   4   8  1   
  8   5   9  1   
  9   5  23  1   
 10   5  24  1   
 11   6  10  1   
 12   6  25  1   
 13   6  26  1   
 14   7  11  1   
 15   8  12  1   
 16   8  27  1   
 17   9  13  1   
 18   9  14  1   
 19   9  15  1   
 20  10  14  1   
 21  10  28  1   
 22  10  29  1   
 23  11  12  2   
 24  11  30  1   
 25  12  31  1   
 26  13  16  ar  
 27  13  17  ar  
 28  14  32  1   
 29  14  33  1   
 30  15  18  1   
 31  15  34  1   
 32  15  35  1   
 33  16  19  ar  
 34  17  18  1   
 35  17  20  ar  
 36  18  36  1   
 37  18  37  1   
 38  19  21  ar  
 39  19  22  1   
 40  20  21  ar  
 41  20  38  1   
 42  22  39  1   
 43  22  40  1   
@<TRIPOS>SUBSTRUCTURE
  1 ****   5 GROUP 4 **** **** 0

# MOE 2024.06 (io_trps.svl 2023.06)
