@<TRIPOS>MOLECULE
NONAME
39 41 1 0 0 
SMALL
USER_CHARGES


@<TRIPOS>ATOM
  1 CL       0.3860    -0.1500     2.0980 Cl    1 <1>  -0.1230 
  2 C        1.1440    -1.5170     1.3020 C.2   1 <1>   0.1230 
  3 C        2.1920    -1.4770     0.4470 C.2   1 <1>  -0.3020 
  4 C        0.7510    -2.8370     1.4600 C.2   1 <1>  -0.1500 
  5 N        2.4730    -2.7460     0.0580 N.pl3 1 <1>   0.0480 
  6 C        1.5800    -3.6010     0.6720 C.2   1 <1>  -0.2370 
  7 C        3.5630    -3.1160    -0.8680 C.3   1 <1>   0.0160 
  8 C        1.5840    -5.0310     0.4840 C.2   1 <1>   0.7150 
  9 O        2.6360    -5.6310     0.3590 O.2   1 <1>  -0.5700 
 10 N        0.4110    -5.7470     0.4240 N.am  1 <1>  -0.6600 
 11 C       -0.9200    -5.1630     0.1280 C.3   1 <1>   0.1400 
 12 C        0.3950    -7.2160     0.2120 C.3   1 <1>   0.1400 
 13 C       -1.7380    -6.3180    -0.4470 C.3   1 <1>   0.2000 
 14 C       -1.0850    -7.5880     0.0920 C.3   1 <1>  -0.0800 
 15 O       -3.0630    -6.2590    -0.0440 O.3   1 <1>  -0.6800 
 16 C       -1.3590    -8.8160    -0.7940 C.3   1 <1>  -0.0170 
 17 C       -0.7500   -10.0810    -0.2110 C.ar  1 <1>   0.1670 
 18 N        0.5360   -10.2820    -0.4490 N.ar  1 <1>  -0.6200 
 19 C       -1.5400   -10.9560     0.5320 C.ar  1 <1>   0.1600 
 20 C        0.9750   -11.4020     0.1000 C.ar  1 <1>   0.1600 
 21 N       -1.1030   -12.0760     1.0840 N.ar  1 <1>  -0.6200 
 22 C        0.1820   -12.2700     0.8420 C.ar  1 <1>   0.1600 
 23 H        2.7400    -0.6160     0.1090 H     1 <1>   0.1500 
 24 H       -0.0500    -3.1630     2.0970 H     1 <1>   0.1500 
 25 H        3.9960    -2.2310    -1.2950 H     1 <1>   0.0800 
 26 H        3.1710    -3.7390    -1.6510 H     1 <1>   0.0800 
 27 H        4.3160    -3.6600    -0.3260 H     1 <1>   0.0800 
 28 H       -1.3580    -4.8050     1.0430 H     1 <1>   0.0800 
 29 H       -0.8340    -4.3600    -0.5840 H     1 <1>   0.0800 
 30 H        0.9250    -7.4480    -0.6980 H     1 <1>   0.0800 
 31 H        0.8680    -7.7270     1.0330 H     1 <1>   0.0800 
 32 H       -1.7070    -6.2870    -1.5230 H     1 <1>   0.0800 
 33 H       -1.4440    -7.7800     1.0890 H     1 <1>   0.0800 
 34 H       -3.1260    -6.2750     0.9310 H     1 <1>   0.4000 
 35 H       -0.9570    -8.6560    -1.7790 H     1 <1>   0.0800 
 36 H       -2.4220    -8.9450    -0.8980 H     1 <1>   0.0800 
 37 H       -2.5790   -10.7200     0.6780 H     1 <1>   0.1500 
 38 H        2.0130   -11.6460    -0.0430 H     1 <1>   0.1500 
 39 H        0.6310   -13.1580     1.2500 H     1 <1>   0.1500 
@<TRIPOS>BOND
  1   1   2  1   
  2   2   3  2   
  3   2   4  1   
  4   3   5  1   
  5   3  23  1   
  6   4   6  2   
  7   4  24  1   
  8   5   6  1   
  9   5   7  1   
 10   6   8  1   
 11   7  25  1   
 12   7  26  1   
 13   7  27  1   
 14   8   9  2   
 15   8  10  am  
 16  10  11  1   
 17  10  12  1   
 18  11  13  1   
 19  11  28  1   
 20  11  29  1   
 21  12  14  1   
 22  12  30  1   
 23  12  31  1   
 24  13  14  1   
 25  13  15  1   
 26  13  32  1   
 27  14  16  1   
 28  14  33  1   
 29  15  34  1   
 30  16  17  1   
 31  16  35  1   
 32  16  36  1   
 33  17  18  ar  
 34  17  19  ar  
 35  18  20  ar  
 36  19  21  ar  
 37  19  37  1   
 38  20  22  ar  
 39  20  38  1   
 40  21  22  ar  
 41  22  39  1   
@<TRIPOS>SUBSTRUCTURE
  1 ****  10 GROUP 4 **** **** 0

# MOE 2024.06 (io_trps.svl 2023.06)
