@<TRIPOS>MOLECULE
NONAME
46 50 1 0 0 
SMALL
USER_CHARGES


@<TRIPOS>ATOM
  1 N       -0.7090    -0.0750     0.4500 N.ar  1 <1>  -0.6200 
  2 C       -1.3240    -1.2260     0.4220 C.ar  1 <1>   0.4100 
  3 C        0.6440    -0.1520     0.4320 C.ar  1 <1>   0.3100 
  4 N       -2.7160    -1.2160     0.4140 N.pl3 1 <1>  -0.8380 
  5 C       -0.6010    -2.4570     0.3980 C.ar  1 <1>   0.1600 
  6 C        1.3410    -1.3850     0.3890 C.ar  1 <1>   0.3100 
  7 C        1.3900     1.0380     0.4520 C.ar  1 <1>  -0.1500 
  8 C       -3.5020     0.0010     0.8070 C.3   1 <1>   0.2090 
  9 C       -3.5160    -2.3190    -0.2010 C.3   1 <1>   0.2090 
 10 N        0.6880    -2.5760     0.3750 N.ar  1 <1>  -0.6200 
 11 C        2.7420    -1.3710     0.3650 C.ar  1 <1>  -0.1500 
 12 C        2.7610     1.0240     0.4280 C.ar  1 <1>  -0.1500 
 13 C       -4.2370     0.6240    -0.4040 C.3   1 <1>   0.1430 
 14 C       -4.8820    -1.8310    -0.7120 C.3   1 <1>  -0.1600 
 15 C        3.4450    -0.1930     0.3840 C.ar  1 <1>  -0.1500 
 16 C       -5.3470     1.5020     0.1530 C.ar  1 <1>   0.1670 
 17 C       -4.7640    -0.4550    -1.3870 C.3   1 <1>  -0.1600 
 18 C       -3.3540     1.6630    -1.1430 C.3   1 <1>  -0.1600 
 19 N       -6.4850     1.0730     0.6550 N.ar  1 <1>  -0.6200 
 20 C       -5.0180     2.8230     0.0910 C.ar  1 <1>  -0.1440 
 21 C       -3.6540     3.0330    -0.5150 C.3   1 <1>  -0.0170 
 22 C       -7.2900     2.0330     1.0860 C.ar  1 <1>   0.4770 
 23 C       -5.9270     3.7330     0.5700 C.ar  1 <1>   0.1600 
 24 N       -7.0790     3.3430     1.0750 N.ar  1 <1>  -0.6200 
 25 C       -8.6060     1.5780     1.6670 C.3   1 <1>  -0.0970 
 26 H       -1.1830    -3.3570     0.4080 H     1 <1>   0.1500 
 27 H        0.8470     1.9640     0.4870 H     1 <1>   0.1500 
 28 H       -2.8770     0.7380     1.2810 H     1 <1>   0.0800 
 29 H       -4.2300    -0.3020     1.5390 H     1 <1>   0.0800 
 30 H       -3.6610    -3.1030     0.5220 H     1 <1>   0.0800 
 31 H       -2.9640    -2.7220    -1.0340 H     1 <1>   0.0800 
 32 H        3.2500    -2.3180     0.3320 H     1 <1>   0.1500 
 33 H        3.3210     1.9440     0.4440 H     1 <1>   0.1500 
 34 H       -5.5730    -1.7700     0.1120 H     1 <1>   0.0800 
 35 H       -5.2770    -2.5490    -1.4080 H     1 <1>   0.0800 
 36 H        4.5220    -0.1940     0.3650 H     1 <1>   0.1500 
 37 H       -4.0770    -0.5570    -2.2090 H     1 <1>   0.0800 
 38 H       -5.7160    -0.1550    -1.7900 H     1 <1>   0.0800 
 39 H       -3.6440     1.7080    -2.1780 H     1 <1>   0.0800 
 40 H       -2.3080     1.4160    -1.0970 H     1 <1>   0.0800 
 41 H       -3.6560     3.8160    -1.2520 H     1 <1>   0.0800 
 42 H       -2.9420     3.2580     0.2610 H     1 <1>   0.0800 
 43 H       -5.7120     4.7880     0.5420 H     1 <1>   0.1500 
 44 H       -8.9500     0.7000     1.1540 H     1 <1>   0.0800 
 45 H       -9.3440     2.3520     1.5660 H     1 <1>   0.0800 
 46 H       -8.4730     1.3510     2.7070 H     1 <1>   0.0800 
@<TRIPOS>BOND
  1   1   2  ar  
  2   1   3  ar  
  3   2   4  1   
  4   2   5  ar  
  5   3   6  ar  
  6   3   7  ar  
  7   4   8  1   
  8   4   9  1   
  9   5  10  ar  
 10   5  26  1   
 11   6  10  ar  
 12   6  11  ar  
 13   7  12  ar  
 14   7  27  1   
 15   8  13  1   
 16   8  28  1   
 17   8  29  1   
 18   9  14  1   
 19   9  30  1   
 20   9  31  1   
 21  11  15  ar  
 22  11  32  1   
 23  12  15  ar  
 24  12  33  1   
 25  13  16  1   
 26  13  17  1   
 27  13  18  1   
 28  14  17  1   
 29  14  34  1   
 30  14  35  1   
 31  15  36  1   
 32  16  19  ar  
 33  16  20  ar  
 34  17  37  1   
 35  17  38  1   
 36  18  21  1   
 37  18  39  1   
 38  18  40  1   
 39  19  22  ar  
 40  20  21  1   
 41  20  23  ar  
 42  21  41  1   
 43  21  42  1   
 44  22  24  ar  
 45  22  25  1   
 46  23  24  ar  
 47  23  43  1   
 48  25  44  1   
 49  25  45  1   
 50  25  46  1   
@<TRIPOS>SUBSTRUCTURE
  1 ****   8 GROUP 4 **** **** 0

# MOE 2024.06 (io_trps.svl 2023.06)
