@<TRIPOS>MOLECULE
NONAME
43 45 1 0 0 
SMALL
USER_CHARGES


@<TRIPOS>ATOM
  1 CL       2.2230     2.6690     2.0990 Cl    1 <1>  -0.1770 
  2 C        0.5900     2.7250     1.4870 C.ar  1 <1>   0.1770 
  3 C       -0.0230     3.9480     1.3240 C.ar  1 <1>  -0.1500 
  4 C       -0.0610     1.5500     1.1690 C.ar  1 <1>  -0.1500 
  5 C       -1.3110     4.0300     0.8040 C.ar  1 <1>   0.0860 
  6 C       -1.3540     1.6120     0.6770 C.ar  1 <1>  -0.1500 
  7 C       -1.9800     2.8370     0.4960 C.ar  1 <1>  -0.1440 
  8 C       -1.8880     5.3400     0.5810 C.2   1 <1>   0.5440 
  9 C       -3.4050     2.8780    -0.0390 C.3   1 <1>  -0.0960 
 10 O       -2.4930     5.8820     1.4860 O.2   1 <1>  -0.5700 
 11 N       -1.7320     5.9990    -0.6230 N.am  1 <1>  -0.6600 
 12 C       -1.1330     5.3470    -1.8370 C.3   1 <1>   0.1400 
 13 C       -2.0330     7.4550    -0.7240 C.3   1 <1>   0.1400 
 14 C       -0.0310     6.1790    -2.5180 C.3   1 <1>   0.1400 
 15 C       -0.8230     8.2800    -0.2590 C.3   1 <1>  -0.1600 
 16 N        0.8260     6.8820    -1.5170 N.am  1 <1>  -0.6600 
 17 C        0.3720     8.2700    -1.2230 C.3   1 <1>   0.1400 
 18 C        1.7550     6.1620    -0.7690 C.2   1 <1>   0.6300 
 19 O        1.9830     5.0170    -1.1410 O.2   1 <1>  -0.5700 
 20 C        2.4530     6.6390     0.4280 C.2   1 <1>   0.5100 
 21 N        2.4320     7.8090     1.0020 N.2   1 <1>  -0.5120 
 22 N        3.2800     5.7810     1.1470 N.am  1 <1>  -0.4900 
 23 N        3.2490     7.6910     2.0940 N.am  1 <1>  -0.3680 
 24 C        3.7650     6.4550     2.1830 C.2   1 <1>   0.6900 
 25 O        4.5230     6.0320     3.0410 O.2   1 <1>  -0.5700 
 26 H        0.4940     4.8470     1.5960 H     1 <1>   0.1500 
 27 H        0.4360     0.6070     1.3060 H     1 <1>   0.1500 
 28 H       -1.8670     0.6970     0.4360 H     1 <1>   0.1500 
 29 H       -4.0360     3.4230     0.6420 H     1 <1>   0.0800 
 30 H       -3.8070     1.8870    -0.1510 H     1 <1>   0.0800 
 31 H       -3.4300     3.3670    -0.9960 H     1 <1>   0.0800 
 32 H       -1.9150     5.1530    -2.5500 H     1 <1>   0.0800 
 33 H       -0.7030     4.3970    -1.5770 H     1 <1>   0.0800 
 34 H       -2.8780     7.6860    -0.0960 H     1 <1>   0.0800 
 35 H       -2.3020     7.7090    -1.7340 H     1 <1>   0.0800 
 36 H       -0.4850     6.8960    -3.1790 H     1 <1>   0.0800 
 37 H        0.5760     5.5310    -3.1260 H     1 <1>   0.0800 
 38 H       -0.5110     7.9440     0.7140 H     1 <1>   0.0800 
 39 H       -1.1410     9.3000    -0.1450 H     1 <1>   0.0800 
 40 H        1.1780     8.8540    -0.8190 H     1 <1>   0.0800 
 41 H        0.0850     8.7470    -2.1450 H     1 <1>   0.0800 
 42 H        3.4430     4.7980     0.9450 H     1 <1>   0.3700 
 43 H        3.4530     8.4260     2.7770 H     1 <1>   0.3700 
@<TRIPOS>BOND
  1   1   2  1   
  2   2   3  ar  
  3   2   4  ar  
  4   3   5  ar  
  5   3  26  1   
  6   4   6  ar  
  7   4  27  1   
  8   5   7  ar  
  9   5   8  1   
 10   6   7  ar  
 11   6  28  1   
 12   7   9  1   
 13   8  10  2   
 14   8  11  am  
 15   9  29  1   
 16   9  30  1   
 17   9  31  1   
 18  11  12  1   
 19  11  13  1   
 20  12  14  1   
 21  12  32  1   
 22  12  33  1   
 23  13  15  1   
 24  13  34  1   
 25  13  35  1   
 26  14  16  1   
 27  14  36  1   
 28  14  37  1   
 29  15  17  1   
 30  15  38  1   
 31  15  39  1   
 32  16  17  1   
 33  16  18  am  
 34  17  40  1   
 35  17  41  1   
 36  18  19  2   
 37  18  20  1   
 38  20  21  2   
 39  20  22  1   
 40  21  23  1   
 41  22  24  am  
 42  22  42  1   
 43  23  24  am  
 44  23  43  1   
 45  24  25  2   
@<TRIPOS>SUBSTRUCTURE
  1 ****   3 GROUP 4 **** **** 0

# MOE 2024.06 (io_trps.svl 2023.06)
