@<TRIPOS>MOLECULE
NONAME
45 47 1 0 0 
SMALL
USER_CHARGES


@<TRIPOS>ATOM
  1 O       -1.1430     0.7770     1.8140 O.2   1 <1>  -0.5700 
  2 C       -1.7160     1.2430     0.8460 C.2   1 <1>   0.7160 
  3 N       -2.8410     0.5980     0.3670 N.am  1 <1>  -0.6600 
  4 C       -1.1970     2.4470     0.2400 C.2   1 <1>  -0.0860 
  5 C       -3.9490     1.3210    -0.3360 C.3   1 <1>   0.2200 
  6 C       -2.9570    -0.8820     0.5590 C.3   1 <1>   0.0600 
  7 C       -1.1840     2.8460    -1.0620 C.2   1 <1>  -0.0100 
  8 C       -0.5490     3.4980     0.9210 C.2   1 <1>  -0.1500 
  9 C       -4.3900     2.5790     0.4190 C.3   1 <1>  -0.1600 
 10 C       -5.2560     0.5300    -0.4610 C.3   1 <1>  -0.1600 
 11 O       -0.6190     4.0210    -1.2000 O.3   1 <1>  -0.2800 
 12 C       -0.2280     4.4200    -0.0080 C.2   1 <1>  -0.0100 
 13 C       -5.7980     2.8890    -0.1060 C.3   1 <1>  -0.0800 
 14 C       -6.3360     1.5900    -0.7070 C.3   1 <1>  -0.0800 
 15 C       -6.8200     3.3110     0.9590 C.3   1 <1>  -0.1600 
 16 C       -7.6850     1.3290    -0.0160 C.3   1 <1>  -0.1600 
 17 C       -8.1490     2.6890     0.5170 C.3   1 <1>   0.4230 
 18 N       -8.7900     3.4940    -0.5750 N.4   1 <1>  -0.9590 
 19 C       -9.0970     4.9010    -0.1590 C.3   1 <1>   0.2630 
 20 C      -10.0530     2.8660    -1.0840 C.3   1 <1>   0.2630 
 21 H       -3.6230     1.5940    -1.3260 H     1 <1>   0.0800 
 22 H       -3.2760    -1.3540    -0.3530 H     1 <1>   0.0800 
 23 H       -3.6600    -1.0960     1.3450 H     1 <1>   0.0800 
 24 H       -2.0050    -1.3020     0.8360 H     1 <1>   0.0800 
 25 H       -1.5490     2.3420    -1.9380 H     1 <1>   0.1500 
 26 H       -0.3650     3.5120     1.9820 H     1 <1>   0.1500 
 27 H       -4.4140     2.3610     1.4730 H     1 <1>   0.0800 
 28 H       -3.7300     3.4090     0.2430 H     1 <1>   0.0800 
 29 H       -5.2150    -0.1830    -1.2660 H     1 <1>   0.0800 
 30 H       -5.4560     0.0220     0.4650 H     1 <1>   0.0800 
 31 H        0.2730     5.3680     0.0850 H     1 <1>   0.1500 
 32 H       -5.7370     3.6350    -0.8820 H     1 <1>   0.0800 
 33 H       -6.4750     1.7260    -1.7680 H     1 <1>   0.0800 
 34 H       -6.8400     4.3730     1.1110 H     1 <1>   0.0800 
 35 H       -6.5580     2.8610     1.9010 H     1 <1>   0.0800 
 36 H       -7.5350     0.6910     0.8370 H     1 <1>   0.0800 
 37 H       -8.3840     0.8330    -0.6630 H     1 <1>   0.0800 
 38 H       -8.8260     2.5780     1.3490 H     1 <1>   0.0800 
 39 H       -8.1060     3.5250    -1.3450 H     1 <1>   0.4500 
 40 H       -9.7350     4.9040     0.7100 H     1 <1>   0.0800 
 41 H       -9.6000     5.4240    -0.9570 H     1 <1>   0.0800 
 42 H       -8.1930     5.4370     0.0730 H     1 <1>   0.0800 
 43 H      -10.7600     2.7430    -0.2800 H     1 <1>   0.0800 
 44 H       -9.8540     1.9010    -1.5200 H     1 <1>   0.0800 
 45 H      -10.4990     3.4900    -1.8420 H     1 <1>   0.0800 
@<TRIPOS>BOND
  1   1   2  2   
  2   2   3  am  
  3   2   4  1   
  4   3   5  1   
  5   3   6  1   
  6   4   7  2   
  7   4   8  1   
  8   5   9  1   
  9   5  10  1   
 10   5  21  1   
 11   6  22  1   
 12   6  23  1   
 13   6  24  1   
 14   7  11  1   
 15   7  25  1   
 16   8  12  2   
 17   8  26  1   
 18   9  13  1   
 19   9  27  1   
 20   9  28  1   
 21  10  14  1   
 22  10  29  1   
 23  10  30  1   
 24  11  12  1   
 25  12  31  1   
 26  13  14  1   
 27  13  15  1   
 28  13  32  1   
 29  14  16  1   
 30  14  33  1   
 31  15  17  1   
 32  15  34  1   
 33  15  35  1   
 34  16  17  1   
 35  16  36  1   
 36  16  37  1   
 37  17  18  1   
 38  17  38  1   
 39  18  19  1   
 40  18  20  1   
 41  18  39  1   
 42  19  40  1   
 43  19  41  1   
 44  19  42  1   
 45  20  43  1   
 46  20  44  1   
 47  20  45  1   
@<TRIPOS>SUBSTRUCTURE
  1 ****   9 GROUP 4 **** **** 0

# MOE 2024.06 (io_trps.svl 2023.06)
