@<TRIPOS>MOLECULE
NONAME
51 53 1 0 0 
SMALL
USER_CHARGES


@<TRIPOS>ATOM
  1 F       -0.8240     0.4270     1.0380 F     1 <1>  -0.1900 
  2 C       -2.0730     0.7250     0.7870 C.ar  1 <1>   0.1900 
  3 C       -2.5060     2.0460     0.6320 C.ar  1 <1>   0.0830 
  4 C       -2.9490    -0.3370     0.6840 C.ar  1 <1>  -0.1500 
  5 O       -1.7430     3.1740     0.7100 O.3   1 <1>  -0.3630 
  6 C       -3.8500     2.2550     0.3710 C.ar  1 <1>  -0.1500 
  7 C       -4.2850    -0.0920     0.4240 C.ar  1 <1>  -0.1500 
  8 C       -0.3510     3.1490     0.9340 C.3   1 <1>   0.0400 
  9 C       -4.7710     1.2080     0.2600 C.ar  1 <1>   0.0530 
 10 C       -6.1650     1.4820    -0.0100 C.2   1 <1>   0.0870 
 11 O       -6.6430     2.6890     0.1640 O.3   1 <1>  -0.0190 
 12 C       -7.2060     0.7150    -0.4330 C.2   1 <1>  -0.0860 
 13 N       -7.9150     2.7860    -0.1150 N.2   1 <1>  -0.4100 
 14 C       -8.2770     1.6100    -0.4910 C.2   1 <1>   0.3720 
 15 C       -7.2710    -0.6730    -0.7590 C.2   1 <1>   0.7160 
 16 N       -9.5790     1.2870    -0.9060 N.pl3 1 <1>  -0.8210 
 17 O       -6.6770    -1.0850    -1.7390 O.2   1 <1>  -0.5700 
 18 N       -7.9470    -1.5710     0.0350 N.am  1 <1>  -0.6600 
 19 C      -10.6530     2.2090    -0.4430 C.3   1 <1>   0.1290 
 20 C       -9.7000     0.9720    -2.3560 C.3   1 <1>   0.1290 
 21 C       -8.1680    -2.9920    -0.3830 C.3   1 <1>   0.1400 
 22 C       -8.6850    -1.1580     1.2650 C.3   1 <1>   0.1400 
 23 C       -9.6140    -3.4750    -0.0850 C.3   1 <1>   0.2800 
 24 C       -9.2210    -2.3780     2.0320 C.3   1 <1>   0.1200 
 25 O      -10.0370    -3.1820     1.2210 O.3   1 <1>  -0.5600 
 26 C      -10.6230    -2.8000    -1.0190 C.3   1 <1>  -0.2400 
 27 C       -9.7120    -4.9940    -0.2270 C.3   1 <1>  -0.2400 
 28 H       -2.5870    -1.3420     0.8060 H     1 <1>   0.1500 
 29 H       -4.1850     3.2700     0.2490 H     1 <1>   0.1500 
 30 H       -4.9500    -0.9330     0.3500 H     1 <1>   0.1500 
 31 H        0.0070     4.1620     0.9320 H     1 <1>   0.0800 
 32 H        0.1220     2.5940     0.1430 H     1 <1>   0.0800 
 33 H       -0.1580     2.6970     1.8910 H     1 <1>   0.0800 
 34 H      -10.5420     2.3990     0.6100 H     1 <1>   0.0800 
 35 H      -11.6180     1.7640    -0.6130 H     1 <1>   0.0800 
 36 H      -10.5920     3.1440    -0.9730 H     1 <1>   0.0800 
 37 H       -8.9090     0.3130    -2.6690 H     1 <1>   0.0800 
 38 H       -9.6440     1.8780    -2.9350 H     1 <1>   0.0800 
 39 H      -10.6420     0.4870    -2.5460 H     1 <1>   0.0800 
 40 H       -7.4690    -3.6180     0.1440 H     1 <1>   0.0800 
 41 H       -7.9720    -3.1070    -1.4340 H     1 <1>   0.0800 
 42 H       -9.5150    -0.5300     0.9950 H     1 <1>   0.0800 
 43 H       -8.0300    -0.5920     1.9050 H     1 <1>   0.0800 
 44 H       -9.8130    -2.0590     2.8710 H     1 <1>   0.0800 
 45 H       -8.4070    -2.9800     2.3950 H     1 <1>   0.0800 
 46 H      -10.5900    -1.7330    -0.8980 H     1 <1>   0.0800 
 47 H      -11.6180    -3.1450    -0.8040 H     1 <1>   0.0800 
 48 H      -10.3940    -3.0300    -2.0430 H     1 <1>   0.0800 
 49 H       -9.0430    -5.4750     0.4620 H     1 <1>   0.0800 
 50 H       -9.4500    -5.2930    -1.2260 H     1 <1>   0.0800 
 51 H      -10.7160    -5.3220    -0.0250 H     1 <1>   0.0800 
@<TRIPOS>BOND
  1   1   2  1   
  2   2   3  ar  
  3   2   4  ar  
  4   3   5  1   
  5   3   6  ar  
  6   4   7  ar  
  7   4  28  1   
  8   5   8  1   
  9   6   9  ar  
 10   6  29  1   
 11   7   9  ar  
 12   7  30  1   
 13   8  31  1   
 14   8  32  1   
 15   8  33  1   
 16   9  10  1   
 17  10  11  1   
 18  10  12  2   
 19  11  13  1   
 20  12  14  1   
 21  12  15  1   
 22  13  14  2   
 23  14  16  1   
 24  15  17  2   
 25  15  18  am  
 26  16  19  1   
 27  16  20  1   
 28  18  21  1   
 29  18  22  1   
 30  19  34  1   
 31  19  35  1   
 32  19  36  1   
 33  20  37  1   
 34  20  38  1   
 35  20  39  1   
 36  21  23  1   
 37  21  40  1   
 38  21  41  1   
 39  22  24  1   
 40  22  42  1   
 41  22  43  1   
 42  23  25  1   
 43  23  26  1   
 44  23  27  1   
 45  24  25  1   
 46  24  44  1   
 47  24  45  1   
 48  26  46  1   
 49  26  47  1   
 50  26  48  1   
 51  27  49  1   
 52  27  50  1   
 53  27  51  1   
@<TRIPOS>SUBSTRUCTURE
  1 ****  12 GROUP 4 **** **** 0

# MOE 2024.06 (io_trps.svl 2023.06)
