@<TRIPOS>MOLECULE
NONAME
51 53 1 0 0 
SMALL
USER_CHARGES


@<TRIPOS>ATOM
  1 O        0.9250    -2.1430    -0.7020 O.3   1 <1>  -0.3630 
  2 C        0.4340    -3.1550     0.0670 C.ar  1 <1>   0.0830 
  3 C        0.5990    -0.7910    -0.4740 C.3   1 <1>   0.1200 
  4 C        0.8390    -4.4750    -0.1860 C.ar  1 <1>   0.0820 
  5 C       -0.4830    -2.9200     1.0890 C.ar  1 <1>  -0.1500 
  6 C        1.3570     0.0530    -1.4950 C.3   1 <1>  -0.2400 
  7 O        1.7130    -4.8640    -1.1540 O.3   1 <1>  -0.3620 
  8 C        0.3130    -5.5090     0.5680 C.ar  1 <1>  -0.1500 
  9 C       -1.0090    -3.9670     1.8270 C.ar  1 <1>  -0.1500 
 10 C        2.8390    -4.0700    -1.4680 C.3   1 <1>   0.0400 
 11 C       -0.6230    -5.2710     1.5610 C.ar  1 <1>  -0.1430 
 12 C       -1.2250    -6.4430     2.3050 C.3   1 <1>   0.4860 
 13 N       -2.1530    -7.0990     1.3550 N.4   1 <1>  -0.9590 
 14 C       -3.4290    -6.3680     1.1010 C.3   1 <1>   0.3430 
 15 C       -2.4980    -8.5170     1.5940 C.3   1 <1>   0.3430 
 16 C       -4.4380    -7.4370     0.6540 C.3   1 <1>   0.2000 
 17 C       -3.6850    -8.7770     0.6620 C.3   1 <1>  -0.0800 
 18 O       -5.4790    -7.5010     1.5730 O.3   1 <1>  -0.6800 
 19 C       -3.2600    -9.2390    -0.7580 C.3   1 <1>  -0.0170 
 20 C       -2.0440    -8.5350    -1.3600 C.ar  1 <1>   0.1670 
 21 N       -2.1390    -7.2260    -1.5470 N.ar  1 <1>  -0.6200 
 22 C       -0.9010    -9.2690    -1.6750 C.ar  1 <1>   0.1600 
 23 C       -1.0450    -6.7120    -2.0950 C.ar  1 <1>   0.1600 
 24 N        0.2050    -8.7490    -2.1750 N.ar  1 <1>  -0.6200 
 25 C        0.0940    -7.4500    -2.3920 C.ar  1 <1>   0.1600 
 26 H       -0.4630    -0.6690    -0.5970 H     1 <1>   0.0800 
 27 H        0.8960    -0.5310     0.5270 H     1 <1>   0.0800 
 28 H       -0.8090    -1.9240     1.3240 H     1 <1>   0.1500 
 29 H        1.0680    -0.2260    -2.4920 H     1 <1>   0.0800 
 30 H        2.4170    -0.0860    -1.3760 H     1 <1>   0.0800 
 31 H        1.1290     1.0930    -1.3500 H     1 <1>   0.0800 
 32 H        0.6520    -6.5090     0.3550 H     1 <1>   0.1500 
 33 H       -1.7230    -3.7490     2.6040 H     1 <1>   0.1500 
 34 H        3.5770    -4.7000    -1.9300 H     1 <1>   0.0800 
 35 H        3.2330    -3.6420    -0.5630 H     1 <1>   0.0800 
 36 H        2.5410    -3.2980    -2.1540 H     1 <1>   0.0800 
 37 H       -1.7480    -6.1130     3.1880 H     1 <1>   0.0800 
 38 H       -0.4400    -7.1230     2.5920 H     1 <1>   0.0800 
 39 H       -1.6860    -7.0660     0.4260 H     1 <1>   0.4500 
 40 H       -3.7840    -5.8770     1.9910 H     1 <1>   0.0800 
 41 H       -3.2840    -5.6400     0.3180 H     1 <1>   0.0800 
 42 H       -1.6680    -9.1700     1.3780 H     1 <1>   0.0800 
 43 H       -2.8050    -8.6500     2.6190 H     1 <1>   0.0800 
 44 H       -4.8630    -7.1970    -0.3060 H     1 <1>   0.0800 
 45 H       -4.3110    -9.5520     1.0720 H     1 <1>   0.0800 
 46 H       -5.2090    -7.8430     2.4460 H     1 <1>   0.4000 
 47 H       -4.0890    -9.1220    -1.4340 H     1 <1>   0.0800 
 48 H       -3.0550   -10.2950    -0.7160 H     1 <1>   0.0800 
 49 H       -0.8930   -10.3320    -1.5070 H     1 <1>   0.1500 
 50 H       -1.0370    -5.6560    -2.3110 H     1 <1>   0.1500 
 51 H        0.9420    -6.9420    -2.8190 H     1 <1>   0.1500 
@<TRIPOS>BOND
  1   1   2  1   
  2   1   3  1   
  3   2   4  ar  
  4   2   5  ar  
  5   3   6  1   
  6   3  26  1   
  7   3  27  1   
  8   4   7  1   
  9   4   8  ar  
 10   5   9  ar  
 11   5  28  1   
 12   6  29  1   
 13   6  30  1   
 14   6  31  1   
 15   7  10  1   
 16   8  11  ar  
 17   8  32  1   
 18   9  11  ar  
 19   9  33  1   
 20  10  34  1   
 21  10  35  1   
 22  10  36  1   
 23  11  12  1   
 24  12  13  1   
 25  12  37  1   
 26  12  38  1   
 27  13  14  1   
 28  13  15  1   
 29  13  39  1   
 30  14  16  1   
 31  14  40  1   
 32  14  41  1   
 33  15  17  1   
 34  15  42  1   
 35  15  43  1   
 36  16  17  1   
 37  16  18  1   
 38  16  44  1   
 39  17  19  1   
 40  17  45  1   
 41  18  46  1   
 42  19  20  1   
 43  19  47  1   
 44  19  48  1   
 45  20  21  ar  
 46  20  22  ar  
 47  21  23  ar  
 48  22  24  ar  
 49  22  49  1   
 50  23  25  ar  
 51  23  50  1   
 52  24  25  ar  
 53  25  51  1   
@<TRIPOS>SUBSTRUCTURE
  1 ****   8 GROUP 4 **** **** 0

# MOE 2024.06 (io_trps.svl 2023.06)
