@<TRIPOS>MOLECULE
NONAME
41 41 1 0 0 
SMALL
USER_CHARGES


@<TRIPOS>ATOM
  1 O        1.1220    -0.8320    -2.3510 O.2   1 <1>  -0.5700 
  2 C        1.7600    -1.0990    -1.3600 C.2   1 <1>   0.5690 
  3 N        2.1520    -0.1610    -0.4410 N.am  1 <1>  -0.4940 
  4 C        2.1360    -2.5720    -1.0890 C.3   1 <1>   0.2810 
  5 C        1.9110     1.2300    -0.3890 C.2   1 <1>  -0.0880 
  6 N        2.6510    -2.7770     0.3030 N.am  1 <1>  -0.7300 
  7 C        3.1970    -3.0650    -2.0870 C.3   1 <1>  -0.1600 
  8 N        2.1450     2.0110     0.7000 N.pl3 1 <1>   0.3140 
  9 C        1.4220     2.0520    -1.3460 C.2   1 <1>  -0.1500 
 10 C        1.9670    -2.5820     1.4490 C.2   1 <1>   0.5690 
 11 C        3.5390    -4.5570    -1.9320 C.3   1 <1>  -0.1600 
 12 N        1.8240     3.3030     0.4620 N.2   1 <1>  -0.7070 
 13 C        2.6350     1.5670     2.0220 C.3   1 <1>   0.0960 
 14 C        1.3940     3.3120    -0.7630 C.2   1 <1>   0.1390 
 15 O        2.5590    -2.2410     2.4370 O.2   1 <1>  -0.5700 
 16 C        0.4640    -2.7060     1.4850 C.3   1 <1>  -0.1790 
 17 C        4.5480    -4.9990    -2.9960 C.3   1 <1>  -0.2400 
 18 C        4.1570     1.3590     2.0090 C.3   1 <1>  -0.1600 
 19 C        4.6520     0.8120     3.3520 C.3   1 <1>  -0.2400 
 20 H        2.6470    -0.5600     0.3620 H     1 <1>   0.3700 
 21 H        1.2450    -3.1600    -1.2200 H     1 <1>   0.0800 
 22 H        3.6700    -2.8090     0.3870 H     1 <1>   0.3700 
 23 H        4.0880    -2.4690    -1.9860 H     1 <1>   0.0800 
 24 H        2.8180    -2.9020    -3.0820 H     1 <1>   0.0800 
 25 H        1.1160     1.8010    -2.3450 H     1 <1>   0.1500 
 26 H        2.6430    -5.1460    -2.0310 H     1 <1>   0.0800 
 27 H        3.9560    -4.7490    -0.9580 H     1 <1>   0.0800 
 28 H        2.1340     0.6530     2.2840 H     1 <1>   0.0800 
 29 H        2.3730     2.3160     2.7470 H     1 <1>   0.0800 
 30 H        1.0540     4.2040    -1.2630 H     1 <1>   0.1500 
 31 H        0.1550    -3.5980     0.9740 H     1 <1>   0.0800 
 32 H        0.0120    -1.8490     1.0220 H     1 <1>   0.0800 
 33 H        0.1330    -2.7630     2.5060 H     1 <1>   0.0800 
 34 H        4.1460    -4.8510    -3.9830 H     1 <1>   0.0800 
 35 H        4.7750    -6.0440    -2.8750 H     1 <1>   0.0800 
 36 H        5.4620    -4.4390    -2.9070 H     1 <1>   0.0800 
 37 H        4.6380     2.3020     1.8090 H     1 <1>   0.0800 
 38 H        4.4260     0.6670     1.2300 H     1 <1>   0.0800 
 39 H        4.4130     1.4940     4.1490 H     1 <1>   0.0800 
 40 H        5.7190     0.6800     3.3250 H     1 <1>   0.0800 
 41 H        4.1960    -0.1410     3.5630 H     1 <1>   0.0800 
@<TRIPOS>BOND
  1   1   2  2   
  2   2   3  am  
  3   2   4  1   
  4   3   5  1   
  5   3  20  1   
  6   4   6  1   
  7   4   7  1   
  8   4  21  1   
  9   5   8  1   
 10   5   9  2   
 11   6  10  am  
 12   6  22  1   
 13   7  11  1   
 14   7  23  1   
 15   7  24  1   
 16   8  12  1   
 17   8  13  1   
 18   9  14  1   
 19   9  25  1   
 20  10  15  2   
 21  10  16  1   
 22  11  17  1   
 23  11  26  1   
 24  11  27  1   
 25  12  14  2   
 26  13  18  1   
 27  13  28  1   
 28  13  29  1   
 29  14  30  1   
 30  16  31  1   
 31  16  32  1   
 32  16  33  1   
 33  17  34  1   
 34  17  35  1   
 35  17  36  1   
 36  18  19  1   
 37  18  37  1   
 38  18  38  1   
 39  19  39  1   
 40  19  40  1   
 41  19  41  1   
@<TRIPOS>SUBSTRUCTURE
  1 ****   3 GROUP 4 **** **** 0

# MOE 2024.06 (io_trps.svl 2023.06)
