@<TRIPOS>MOLECULE
NONAME
41 43 1 0 0 
SMALL
USER_CHARGES


@<TRIPOS>ATOM
  1 S       -0.6510    -0.6040    -0.5940 S.3   1 <1>  -0.0800 
  2 C       -2.0710    -0.8680    -1.5390 C.2   1 <1>   0.4420 
  3 C       -0.8380     1.1040    -0.8740 C.2   1 <1>   0.3250 
  4 N       -2.5690     0.2290    -1.9780 N.2   1 <1>  -0.3380 
  5 N       -2.4720    -2.1720    -1.6970 N.am  1 <1>  -0.4940 
  6 N       -1.8730     1.3370    -1.6020 N.2   1 <1>  -0.3380 
  7 C        0.1080     2.0430    -0.3110 C.ar  1 <1>   0.0530 
  8 C       -3.5610    -2.6960    -2.3320 C.2   1 <1>   0.5690 
  9 C        1.2130     1.6570     0.4540 C.ar  1 <1>  -0.1500 
 10 C       -0.0610     3.4130    -0.5230 C.ar  1 <1>  -0.1500 
 11 O       -4.3980    -2.0350    -2.8930 O.2   1 <1>  -0.5700 
 12 C       -3.7110    -4.2170    -2.3280 C.3   1 <1>   0.2010 
 13 C        2.0940     2.5860     0.9760 C.ar  1 <1>  -0.1500 
 14 C        0.8180     4.3460    -0.0030 C.ar  1 <1>  -0.1500 
 15 N       -3.7820    -4.8040    -0.9450 N.am  1 <1>  -0.6600 
 16 C        1.9030     3.9380     0.7530 C.ar  1 <1>  -0.1430 
 17 C       -2.6470    -4.9930    -0.2030 C.2   1 <1>   0.5690 
 18 C       -5.1500    -5.1820    -0.4920 C.3   1 <1>   0.1400 
 19 C        2.8700     4.9590     1.3230 C.3   1 <1>  -0.0970 
 20 O       -1.5740    -4.5910    -0.5900 O.2   1 <1>  -0.5700 
 21 C       -2.7050    -5.6680     1.1570 C.3   1 <1>  -0.0990 
 22 C       -5.1960    -5.4700     1.0120 C.3   1 <1>  -0.1600 
 23 C       -4.0370    -6.3760     1.4360 C.3   1 <1>  -0.1600 
 24 H       -1.8880    -2.8780    -1.2310 H     1 <1>   0.3700 
 25 H        1.4010     0.6180     0.6530 H     1 <1>   0.1500 
 26 H       -0.8980     3.7540    -1.1080 H     1 <1>   0.1500 
 27 H       -2.8700    -4.6400    -2.8470 H     1 <1>   0.0800 
 28 H       -4.5960    -4.4770    -2.8800 H     1 <1>   0.0800 
 29 H        2.9350     2.2520     1.5590 H     1 <1>   0.1500 
 30 H        0.6530     5.3920    -0.1910 H     1 <1>   0.1500 
 31 H       -5.4590    -6.0600    -1.0330 H     1 <1>   0.0800 
 32 H       -5.8380    -4.3850    -0.7210 H     1 <1>   0.0800 
 33 H        3.2990     4.6000     2.2410 H     1 <1>   0.0800 
 34 H        2.3630     5.8850     1.5280 H     1 <1>   0.0800 
 35 H        3.6610     5.1450     0.6190 H     1 <1>   0.0800 
 36 H       -2.5440    -4.9090     1.9010 H     1 <1>   0.0800 
 37 H       -1.8970    -6.3740     1.2300 H     1 <1>   0.0800 
 38 H       -6.1340    -5.9410     1.2510 H     1 <1>   0.0800 
 39 H       -5.1520    -4.5400     1.5530 H     1 <1>   0.0800 
 40 H       -4.1120    -6.6140     2.4840 H     1 <1>   0.0800 
 41 H       -4.0800    -7.2970     0.8780 H     1 <1>   0.0800 
@<TRIPOS>BOND
  1   1   2  1   
  2   1   3  1   
  3   2   4  2   
  4   2   5  1   
  5   3   6  2   
  6   3   7  1   
  7   4   6  1   
  8   5   8  am  
  9   5  24  1   
 10   7   9  ar  
 11   7  10  ar  
 12   8  11  2   
 13   8  12  1   
 14   9  13  ar  
 15   9  25  1   
 16  10  14  ar  
 17  10  26  1   
 18  12  15  1   
 19  12  27  1   
 20  12  28  1   
 21  13  16  ar  
 22  13  29  1   
 23  14  16  ar  
 24  14  30  1   
 25  15  17  am  
 26  15  18  1   
 27  16  19  1   
 28  17  20  2   
 29  17  21  1   
 30  18  22  1   
 31  18  31  1   
 32  18  32  1   
 33  19  33  1   
 34  19  34  1   
 35  19  35  1   
 36  21  23  1   
 37  21  36  1   
 38  21  37  1   
 39  22  23  1   
 40  22  38  1   
 41  22  39  1   
 42  23  40  1   
 43  23  41  1   
@<TRIPOS>SUBSTRUCTURE
  1 ****   1 GROUP 4 **** **** 0

# MOE 2024.06 (io_trps.svl 2023.06)
