@<TRIPOS>MOLECULE
NONAME
57 60 1 0 0 
SMALL
USER_CHARGES


@<TRIPOS>ATOM
  1 O       -0.5760     0.9090     1.3620 O.2   1 <1>  -0.5700 
  2 C       -1.4400     1.6440     0.9220 C.2   1 <1>   0.5440 
  3 N       -2.7550     1.2190     0.9160 N.am  1 <1>  -0.6600 
  4 C       -1.0660     2.9430     0.4170 C.ar  1 <1>   0.0860 
  5 C       -3.8190     1.9730     0.1860 C.3   1 <1>   0.2200 
  6 C       -3.1280    -0.0470     1.6220 C.3   1 <1>   0.0600 
  7 C       -0.5830     3.1170    -0.9020 C.ar  1 <1>   0.0000 
  8 C       -1.1950     4.0690     1.1820 C.ar  1 <1>  -0.1500 
  9 C       -4.7580     2.7170     1.1310 C.3   1 <1>  -0.1600 
 10 C       -4.7420     1.1050    -0.6710 C.3   1 <1>  -0.1600 
 11 C       -0.3090     4.4320    -1.3400 C.ar  1 <1>   0.3100 
 12 C       -0.3720     2.0500    -1.8010 C.ar  1 <1>  -0.1500 
 13 C       -0.8900     5.3260     0.6590 C.ar  1 <1>   0.3920 
 14 C       -6.0110     2.9840     0.2860 C.3   1 <1>  -0.0800 
 15 C       -5.9950     1.9700    -0.8640 C.3   1 <1>  -0.0800 
 16 N       -0.4700     5.5250    -0.5580 N.ar  1 <1>  -0.6200 
 17 C        0.1490     4.6220    -2.6540 C.ar  1 <1>  -0.1500 
 18 C        0.0760     2.2690    -3.0760 C.ar  1 <1>  -0.1500 
 19 O       -1.0610     6.3720     1.4900 O.3   1 <1>  -0.3630 
 20 C       -7.3500     2.7740     1.0100 C.3   1 <1>  -0.1600 
 21 C       -7.3330     1.2180    -0.7790 C.3   1 <1>  -0.1600 
 22 C        0.3380     3.5700    -3.5100 C.ar  1 <1>  -0.1500 
 23 C       -0.7520     7.6890     1.0770 C.3   1 <1>   0.0400 
 24 C       -8.2860     2.1600    -0.0360 C.3   1 <1>   0.4230 
 25 N       -8.8230     3.2120    -0.9590 N.4   1 <1>  -0.9590 
 26 C       -9.6470     4.2430    -0.2480 C.3   1 <1>   0.2630 
 27 C       -9.6460     2.6390    -2.0730 C.3   1 <1>   0.2630 
 28 H       -3.3720     2.6970    -0.4730 H     1 <1>   0.0800 
 29 H       -4.1100     0.0300     2.0500 H     1 <1>   0.0800 
 30 H       -2.4310    -0.2520     2.4170 H     1 <1>   0.0800 
 31 H       -3.1030    -0.8680     0.9270 H     1 <1>   0.0800 
 32 H       -1.5390     4.0090     2.1970 H     1 <1>   0.1500 
 33 H       -4.9890     2.0980     1.9780 H     1 <1>   0.0800 
 34 H       -4.3120     3.6340     1.4750 H     1 <1>   0.0800 
 35 H       -4.2790     0.8630    -1.6120 H     1 <1>   0.0800 
 36 H       -4.9950     0.1970    -0.1590 H     1 <1>   0.0800 
 37 H       -0.5620     1.0410    -1.4730 H     1 <1>   0.1500 
 38 H       -5.9610     3.9790    -0.1250 H     1 <1>   0.0800 
 39 H       -5.9230     2.5030    -1.7980 H     1 <1>   0.0800 
 40 H        0.3490     5.6290    -2.9690 H     1 <1>   0.1500 
 41 H        0.2350     1.4470    -3.7540 H     1 <1>   0.1500 
 42 H       -7.7100     3.6730     1.4730 H     1 <1>   0.0800 
 43 H       -7.2230     2.0440     1.7910 H     1 <1>   0.0800 
 44 H       -7.2140     0.3410    -0.1670 H     1 <1>   0.0800 
 45 H       -7.6780     0.8880    -1.7410 H     1 <1>   0.0800 
 46 H        0.6900     3.7310    -4.5150 H     1 <1>   0.1500 
 47 H       -0.9530     8.3560     1.8950 H     1 <1>   0.0800 
 48 H       -1.3670     7.9410     0.2310 H     1 <1>   0.0800 
 49 H        0.2890     7.7330     0.8090 H     1 <1>   0.0800 
 50 H       -9.0960     1.6180     0.4290 H     1 <1>   0.0800 
 51 H       -8.0000     3.6780    -1.3680 H     1 <1>   0.4500 
 52 H      -10.4660     3.7740     0.2720 H     1 <1>   0.0800 
 53 H      -10.0480     4.9520    -0.9540 H     1 <1>   0.0800 
 54 H       -9.0490     4.7860     0.4650 H     1 <1>   0.0800 
 55 H      -10.4680     2.0660    -1.6750 H     1 <1>   0.0800 
 56 H       -9.0490     1.9980    -2.7010 H     1 <1>   0.0800 
 57 H      -10.0450     3.4300    -2.6870 H     1 <1>   0.0800 
@<TRIPOS>BOND
  1   1   2  2   
  2   2   3  am  
  3   2   4  1   
  4   3   5  1   
  5   3   6  1   
  6   4   7  ar  
  7   4   8  ar  
  8   5   9  1   
  9   5  10  1   
 10   5  28  1   
 11   6  29  1   
 12   6  30  1   
 13   6  31  1   
 14   7  11  ar  
 15   7  12  ar  
 16   8  13  ar  
 17   8  32  1   
 18   9  14  1   
 19   9  33  1   
 20   9  34  1   
 21  10  15  1   
 22  10  35  1   
 23  10  36  1   
 24  11  16  ar  
 25  11  17  ar  
 26  12  18  ar  
 27  12  37  1   
 28  13  16  ar  
 29  13  19  1   
 30  14  15  1   
 31  14  20  1   
 32  14  38  1   
 33  15  21  1   
 34  15  39  1   
 35  17  22  ar  
 36  17  40  1   
 37  18  22  ar  
 38  18  41  1   
 39  19  23  1   
 40  20  24  1   
 41  20  42  1   
 42  20  43  1   
 43  21  24  1   
 44  21  44  1   
 45  21  45  1   
 46  22  46  1   
 47  23  47  1   
 48  23  48  1   
 49  23  49  1   
 50  24  25  1   
 51  24  50  1   
 52  25  26  1   
 53  25  27  1   
 54  25  51  1   
 55  26  52  1   
 56  26  53  1   
 57  26  54  1   
 58  27  55  1   
 59  27  56  1   
 60  27  57  1   
@<TRIPOS>SUBSTRUCTURE
  1 ****   5 GROUP 4 **** **** 0

# MOE 2024.06 (io_trps.svl 2023.06)
