@<TRIPOS>MOLECULE
NONAME
61 65 1 0 0 
SMALL
USER_CHARGES


@<TRIPOS>ATOM
  1 O       -1.5700     0.4320     1.7760 O.2   1 <1>  -0.5700 
  2 C       -2.1800     0.5770     0.7430 C.2   1 <1>   0.5770 
  3 N       -2.5540    -0.5170    -0.0110 N.am  1 <1>  -0.6600 
  4 C       -2.5420     1.9960     0.3000 C.3   1 <1>   0.0530 
  5 C       -2.1690    -1.8910     0.4020 C.3   1 <1>   0.1400 
  6 C       -3.3720    -0.4640    -1.2470 C.3   1 <1>   0.1400 
  7 C       -2.1630     3.1590     1.2630 C.3   1 <1>   0.0000 
  8 C       -4.0240     2.3860     0.5550 C.3   1 <1>   0.0000 
  9 C       -3.4480    -2.6730     0.7030 C.3   1 <1>  -0.1600 
 10 C       -4.6770    -1.2210    -0.9850 C.3   1 <1>  -0.1600 
 11 C       -3.5120     3.8150     0.8710 C.3   1 <1>   0.0000 
 12 C       -4.3960    -2.6490    -0.4970 C.3   1 <1>   0.4230 
 13 N       -5.6580    -3.2980    -0.0850 N.4   1 <1>  -0.9060 
 14 C       -6.6080    -3.6480    -1.1800 C.3   1 <1>   0.4230 
 15 C       -7.9020    -4.2150    -0.5940 C.3   1 <1>  -0.0800 
 16 C       -6.0820    -4.8960    -1.8790 C.3   1 <1>   0.1200 
 17 C       -7.5630    -5.6980    -0.3650 C.3   1 <1>   0.1200 
 18 C       -8.4910    -3.5080     0.6460 C.3   1 <1>  -0.0170 
 19 O       -6.2960    -5.8830    -0.9250 O.3   1 <1>  -0.5600 
 20 C       -9.8160    -4.1460     1.0470 C.ar  1 <1>  -0.1440 
 21 C      -11.0230    -3.8950     0.3500 C.ar  1 <1>   0.0000 
 22 C       -9.8690    -5.0020     2.1100 C.ar  1 <1>  -0.1500 
 23 C      -12.1870    -4.5780     0.7840 C.ar  1 <1>   0.3100 
 24 C      -11.1510    -3.0090    -0.7470 C.ar  1 <1>  -0.1500 
 25 C      -11.0770    -5.6140     2.4640 C.ar  1 <1>   0.1600 
 26 N      -12.1930    -5.4300     1.8380 N.ar  1 <1>  -0.6200 
 27 C      -13.3950    -4.3700     0.1000 C.ar  1 <1>  -0.1500 
 28 C      -12.3450    -2.8270    -1.3890 C.ar  1 <1>  -0.1500 
 29 C      -13.4820    -3.5170    -0.9650 C.ar  1 <1>  -0.1500 
 30 H       -2.2340     2.2130    -0.7090 H     1 <1>   0.0000 
 31 H       -1.6110    -2.3590    -0.3910 H     1 <1>   0.0800 
 32 H       -1.5390    -1.8730     1.2770 H     1 <1>   0.0800 
 33 H       -3.5870     0.5490    -1.5370 H     1 <1>   0.0800 
 34 H       -2.8230    -0.9240    -2.0520 H     1 <1>   0.0800 
 35 H       -2.1410     2.8830     2.3030 H     1 <1>   0.0000 
 36 H       -1.3010     3.7210     0.9500 H     1 <1>   0.0000 
 37 H       -4.6490     2.3340    -0.3180 H     1 <1>   0.0000 
 38 H       -4.4460     1.8970     1.4170 H     1 <1>   0.0000 
 39 H       -3.9110    -2.2270     1.5660 H     1 <1>   0.0800 
 40 H       -3.1770    -3.6860     0.9430 H     1 <1>   0.0800 
 41 H       -5.2410    -1.2390    -1.9000 H     1 <1>   0.0800 
 42 H       -5.2370    -0.6740    -0.2460 H     1 <1>   0.0800 
 43 H       -3.4350     4.4330    -0.0070 H     1 <1>   0.0000 
 44 H       -4.0210     4.2890     1.6910 H     1 <1>   0.0000 
 45 H       -3.9390    -3.2080    -1.2990 H     1 <1>   0.0800 
 46 H       -6.1130    -2.7210     0.6260 H     1 <1>   0.4500 
 47 H       -5.4290    -4.2050     0.3530 H     1 <1>   0.4500 
 48 H       -6.7790    -2.8220    -1.8500 H     1 <1>   0.0800 
 49 H       -8.6450    -4.1900    -1.3730 H     1 <1>   0.0800 
 50 H       -5.0380    -4.8550    -2.1340 H     1 <1>   0.0800 
 51 H       -6.6620    -5.1370    -2.7550 H     1 <1>   0.0800 
 52 H       -8.2630    -6.3480    -0.8660 H     1 <1>   0.0800 
 53 H       -7.5110    -5.9630     0.6770 H     1 <1>   0.0800 
 54 H       -8.6450    -2.4610     0.4510 H     1 <1>   0.0800 
 55 H       -7.8130    -3.5820     1.4780 H     1 <1>   0.0800 
 56 H       -9.0030    -5.2370     2.7010 H     1 <1>   0.1500 
 57 H      -10.2990    -2.4570    -1.0890 H     1 <1>   0.1500 
 58 H      -11.0770    -6.2830     3.3090 H     1 <1>   0.1500 
 59 H      -14.2580    -4.9090     0.4480 H     1 <1>   0.1500 
 60 H      -12.4310    -2.1510    -2.2240 H     1 <1>   0.1500 
 61 H      -14.4160    -3.3670    -1.4790 H     1 <1>   0.1500 
@<TRIPOS>BOND
  1   1   2  2   
  2   2   3  am  
  3   2   4  1   
  4   3   5  1   
  5   3   6  1   
  6   4   7  1   
  7   4   8  1   
  8   4  30  1   
  9   5   9  1   
 10   5  31  1   
 11   5  32  1   
 12   6  10  1   
 13   6  33  1   
 14   6  34  1   
 15   7  11  1   
 16   7  35  1   
 17   7  36  1   
 18   8  11  1   
 19   8  37  1   
 20   8  38  1   
 21   9  12  1   
 22   9  39  1   
 23   9  40  1   
 24  10  12  1   
 25  10  41  1   
 26  10  42  1   
 27  11  43  1   
 28  11  44  1   
 29  12  13  1   
 30  12  45  1   
 31  13  14  1   
 32  13  46  1   
 33  13  47  1   
 34  14  15  1   
 35  14  16  1   
 36  14  48  1   
 37  15  17  1   
 38  15  18  1   
 39  15  49  1   
 40  16  19  1   
 41  16  50  1   
 42  16  51  1   
 43  17  19  1   
 44  17  52  1   
 45  17  53  1   
 46  18  20  1   
 47  18  54  1   
 48  18  55  1   
 49  20  21  ar  
 50  20  22  ar  
 51  21  23  ar  
 52  21  24  ar  
 53  22  25  ar  
 54  22  56  1   
 55  23  26  ar  
 56  23  27  ar  
 57  24  28  ar  
 58  24  57  1   
 59  25  26  ar  
 60  25  58  1   
 61  27  29  ar  
 62  27  59  1   
 63  28  29  ar  
 64  28  60  1   
 65  29  61  1   
@<TRIPOS>SUBSTRUCTURE
  1 ****  13 GROUP 4 **** **** 0

# MOE 2024.06 (io_trps.svl 2023.06)
