@<TRIPOS>MOLECULE
NONAME
45 46 1 0 0 
SMALL
USER_CHARGES


@<TRIPOS>ATOM
  1 N       -0.2090    -0.9520     0.3360 N.ar  1 <1>  -0.6200 
  2 C        0.3620    -2.1090     0.1080 C.ar  1 <1>   0.4100 
  3 C        0.2580     0.0630    -0.3660 C.ar  1 <1>   0.4760 
  4 N       -0.1430    -3.1410     0.8350 N.pl3 1 <1>  -0.8690 
  5 C        1.3910    -2.2440    -0.8030 C.ar  1 <1>  -0.1500 
  6 N        1.2260     0.0530    -1.2670 N.ar  1 <1>  -0.6200 
  7 C       -0.3900     1.4030    -0.1190 C.3   1 <1>  -0.0970 
  8 C       -0.4520    -4.4770     0.2560 C.3   1 <1>   0.2090 
  9 C        1.7910    -1.1210    -1.4730 C.ar  1 <1>   0.1600 
 10 C       -1.9680    -4.7980     0.3350 C.3   1 <1>   0.1900 
 11 N       -2.1950    -6.2720     0.1490 N.3   1 <1>  -0.8100 
 12 C       -2.7160    -3.9130    -0.6980 C.3   1 <1>  -0.1600 
 13 C       -1.7820    -7.0440     1.3590 C.3   1 <1>   0.1100 
 14 C       -3.5920    -6.6620    -0.1960 C.3   1 <1>   0.1100 
 15 C       -4.1270    -3.4730    -0.2670 C.3   1 <1>  -0.2400 
 16 C       -1.9160    -8.5770     1.1800 C.3   1 <1>   0.3430 
 17 C       -3.7790    -8.1890    -0.3720 C.3   1 <1>   0.3430 
 18 N       -2.4910    -8.9220    -0.1600 N.4   1 <1>  -0.9590 
 19 C       -2.5950   -10.3900    -0.4030 C.3   1 <1>   0.2630 
 20 H       -0.8340    -2.8010     1.5090 H     1 <1>   0.4000 
 21 H        1.8580    -3.1940    -0.9650 H     1 <1>   0.1500 
 22 H       -1.0730     1.3460     0.7090 H     1 <1>   0.0800 
 23 H       -0.9270     1.7050    -0.9980 H     1 <1>   0.0800 
 24 H        0.3660     2.1320     0.1010 H     1 <1>   0.0800 
 25 H        0.1250    -5.1990     0.7990 H     1 <1>   0.0800 
 26 H       -0.1410    -4.5120    -0.7740 H     1 <1>   0.0800 
 27 H        2.5890    -1.1720    -2.1930 H     1 <1>   0.1500 
 28 H       -2.3060    -4.5240     1.3210 H     1 <1>   0.0800 
 29 H       -2.7330    -4.3910    -1.6610 H     1 <1>   0.0800 
 30 H       -2.1650    -2.9990    -0.8360 H     1 <1>   0.0800 
 31 H       -2.3820    -6.7400     2.2010 H     1 <1>   0.0800 
 32 H       -0.7600    -6.8350     1.6130 H     1 <1>   0.0800 
 33 H       -3.8870    -6.1990    -1.1200 H     1 <1>   0.0800 
 34 H       -4.2640    -6.3190     0.5730 H     1 <1>   0.0800 
 35 H       -4.8130    -4.2920    -0.1890 H     1 <1>   0.0800 
 36 H       -4.5210    -2.7810    -0.9920 H     1 <1>   0.0800 
 37 H       -4.0830    -2.9670     0.6810 H     1 <1>   0.0800 
 38 H       -2.5420    -8.9710     1.9630 H     1 <1>   0.0800 
 39 H       -0.9410    -9.0250     1.2840 H     1 <1>   0.0800 
 40 H       -4.1510    -8.3810    -1.3650 H     1 <1>   0.0800 
 41 H       -4.5210    -8.5370     0.3280 H     1 <1>   0.0800 
 42 H       -1.8420    -8.4820    -0.8340 H     1 <1>   0.4500 
 43 H       -3.2750   -10.8390     0.3020 H     1 <1>   0.0800 
 44 H       -1.6290   -10.8560    -0.2970 H     1 <1>   0.0800 
 45 H       -2.9580   -10.5780    -1.4010 H     1 <1>   0.0800 
@<TRIPOS>BOND
  1   1   2  ar  
  2   1   3  ar  
  3   2   4  1   
  4   2   5  ar  
  5   3   6  ar  
  6   3   7  1   
  7   4   8  1   
  8   4  20  1   
  9   5   9  ar  
 10   5  21  1   
 11   6   9  ar  
 12   7  22  1   
 13   7  23  1   
 14   7  24  1   
 15   8  10  1   
 16   8  25  1   
 17   8  26  1   
 18   9  27  1   
 19  10  11  1   
 20  10  12  1   
 21  10  28  1   
 22  11  13  1   
 23  11  14  1   
 24  12  15  1   
 25  12  29  1   
 26  12  30  1   
 27  13  16  1   
 28  13  31  1   
 29  13  32  1   
 30  14  17  1   
 31  14  33  1   
 32  14  34  1   
 33  15  35  1   
 34  15  36  1   
 35  15  37  1   
 36  16  18  1   
 37  16  38  1   
 38  16  39  1   
 39  17  18  1   
 40  17  40  1   
 41  17  41  1   
 42  18  19  1   
 43  18  42  1   
 44  19  43  1   
 45  19  44  1   
 46  19  45  1   
@<TRIPOS>SUBSTRUCTURE
  1 ****   8 GROUP 4 **** **** 0

# MOE 2024.06 (io_trps.svl 2023.06)
