@<TRIPOS>MOLECULE
NONAME
46 49 1 0 0 
SMALL
USER_CHARGES


@<TRIPOS>ATOM
  1 O       -0.5320     4.4920     1.4450 O.2   1 <1>  -0.5700 
  2 C       -0.4940     3.5370     0.6930 C.2   1 <1>   0.7160 
  3 N       -1.6720     2.9270     0.3190 N.am  1 <1>  -0.6600 
  4 C        0.7770     3.0840     0.1920 C.2   1 <1>  -0.0860 
  5 C       -2.9750     3.2470     0.9830 C.3   1 <1>   0.1400 
  6 C       -1.8150     2.0930    -0.9060 C.3   1 <1>   0.1400 
  7 C        1.7340     3.7320    -0.5020 C.2   1 <1>  -0.0400 
  8 C        1.3400     1.8230     0.3130 C.2   1 <1>   0.1080 
  9 C       -3.9040     4.0130     0.0220 C.3   1 <1>   0.1440 
 10 C       -2.7140     2.8170    -1.9150 C.3   1 <1>  -0.1600 
 11 O        2.7480     2.9550    -0.7960 O.3   1 <1>  -0.0190 
 12 C        1.7760     5.1770    -0.9600 C.3   1 <1>  -0.0600 
 13 N        2.4740     1.7790    -0.2780 N.2   1 <1>  -0.4100 
 14 C        0.7350     0.6460     1.0490 C.3   1 <1>  -0.0590 
 15 C       -5.2660     4.2300     0.6560 C.ar  1 <1>   0.1670 
 16 C       -4.0660     3.2260    -1.2990 C.3   1 <1>  -0.1600 
 17 C       -3.4180     5.4670    -0.2240 C.3   1 <1>  -0.1600 
 18 N       -5.9890     3.3010     1.2450 N.ar  1 <1>  -0.6200 
 19 C       -5.6750     5.5250     0.5430 C.ar  1 <1>  -0.1430 
 20 C       -4.6610     6.3730    -0.1800 C.3   1 <1>  -0.0170 
 21 C       -7.1480     3.7320     1.7220 C.ar  1 <1>   0.4770 
 22 C       -6.8950     5.8600     1.0740 C.ar  1 <1>   0.1600 
 23 N       -7.6480     4.9600     1.6720 N.ar  1 <1>  -0.6200 
 24 C       -8.0110     2.6980     2.4030 C.3   1 <1>  -0.0970 
 25 H       -2.8200     3.8220     1.8790 H     1 <1>   0.0800 
 26 H       -3.4480     2.3250     1.2730 H     1 <1>   0.0800 
 27 H       -2.2560     1.1480    -0.6370 H     1 <1>   0.0800 
 28 H       -0.8580     1.8990    -1.3600 H     1 <1>   0.0800 
 29 H       -2.8890     2.1690    -2.7560 H     1 <1>   0.0800 
 30 H       -2.1950     3.6840    -2.2820 H     1 <1>   0.0800 
 31 H        0.8910     5.7000    -0.6450 H     1 <1>   0.0800 
 32 H        1.8440     5.2180    -2.0320 H     1 <1>   0.0800 
 33 H        2.6340     5.6650    -0.5360 H     1 <1>   0.0800 
 34 H        0.2030     0.9840     1.9200 H     1 <1>   0.0800 
 35 H        1.5140    -0.0270     1.3610 H     1 <1>   0.0800 
 36 H        0.0600     0.1170     0.4030 H     1 <1>   0.0800 
 37 H       -4.6320     3.8080    -2.0060 H     1 <1>   0.0800 
 38 H       -4.6320     2.3330    -1.0940 H     1 <1>   0.0800 
 39 H       -2.8800     5.5790    -1.1480 H     1 <1>   0.0800 
 40 H       -2.7640     5.7640     0.5780 H     1 <1>   0.0800 
 41 H       -5.0110     6.5870    -1.1750 H     1 <1>   0.0800 
 42 H       -4.4610     7.2920     0.3450 H     1 <1>   0.0800 
 43 H       -7.2600     6.8700     1.0100 H     1 <1>   0.1500 
 44 H       -7.4050     1.8900     2.7690 H     1 <1>   0.0800 
 45 H       -8.7240     2.3140     1.6990 H     1 <1>   0.0800 
 46 H       -8.5330     3.1430     3.2290 H     1 <1>   0.0800 
@<TRIPOS>BOND
  1   1   2  2   
  2   2   3  am  
  3   2   4  1   
  4   3   5  1   
  5   3   6  1   
  6   4   7  2   
  7   4   8  1   
  8   5   9  1   
  9   5  25  1   
 10   5  26  1   
 11   6  10  1   
 12   6  27  1   
 13   6  28  1   
 14   7  11  1   
 15   7  12  1   
 16   8  13  2   
 17   8  14  1   
 18   9  15  1   
 19   9  16  1   
 20   9  17  1   
 21  10  16  1   
 22  10  29  1   
 23  10  30  1   
 24  11  13  1   
 25  12  31  1   
 26  12  32  1   
 27  12  33  1   
 28  14  34  1   
 29  14  35  1   
 30  14  36  1   
 31  15  18  ar  
 32  15  19  ar  
 33  16  37  1   
 34  16  38  1   
 35  17  20  1   
 36  17  39  1   
 37  17  40  1   
 38  18  21  ar  
 39  19  20  1   
 40  19  22  ar  
 41  20  41  1   
 42  20  42  1   
 43  21  23  ar  
 44  21  24  1   
 45  22  23  ar  
 46  22  43  1   
 47  24  44  1   
 48  24  45  1   
 49  24  46  1   
@<TRIPOS>SUBSTRUCTURE
  1 ****   5 GROUP 4 **** **** 0

# MOE 2024.06 (io_trps.svl 2023.06)
