@<TRIPOS>MOLECULE
NONAME
40 42 1 0 0 
SMALL
USER_CHARGES


@<TRIPOS>ATOM
  1 O       -0.7600     0.2570     0.9040 O.2   1 <1>  -0.5700 
  2 C       -1.6140     0.9920     0.4410 C.2   1 <1>   0.6160 
  3 N       -2.7310     0.4240    -0.1450 N.am  1 <1>  -0.6600 
  4 C       -1.4330     2.4210     0.5420 C.2   1 <1>   0.0140 
  5 C       -4.0410     1.1430    -0.1770 C.3   1 <1>   0.2200 
  6 C       -2.7120    -1.0300    -0.4930 C.3   1 <1>   0.0600 
  7 C       -1.0520     3.0210     1.7170 C.2   1 <1>  -0.0410 
  8 C       -1.6340     3.2700    -0.5920 C.2   1 <1>  -0.1500 
  9 C       -5.1640     0.4260     0.5700 C.3   1 <1>  -0.1600 
 10 C       -4.5910     1.3400    -1.5870 C.3   1 <1>  -0.1600 
 11 N       -0.9090     4.3820     1.8170 N.am  1 <1>  -0.5390 
 12 C       -1.4880     4.6190    -0.4800 C.2   1 <1>  -0.1360 
 13 C       -6.4500     1.0380     0.0010 C.3   1 <1>  -0.0800 
 14 C       -6.0860     1.6130    -1.3810 C.3   1 <1>  -0.0800 
 15 C       -1.1250     5.2160     0.7570 C.2   1 <1>   0.6160 
 16 C       -6.9910     2.2110     0.8300 C.3   1 <1>  -0.1600 
 17 C       -6.4330     3.1090    -1.3320 C.3   1 <1>  -0.1600 
 18 O       -1.0030     6.4170     0.9180 O.2   1 <1>  -0.5700 
 19 C       -7.4430     3.2310    -0.2020 C.3   1 <1>   0.2000 
 20 O       -7.4100     4.4990     0.3330 O.3   1 <1>  -0.6800 
 21 H       -3.9370     2.1150     0.2750 H     1 <1>   0.0800 
 22 H       -3.3930    -1.2450    -1.2960 H     1 <1>   0.0800 
 23 H       -2.9860    -1.6110     0.3710 H     1 <1>   0.0800 
 24 H       -1.7220    -1.3220    -0.7990 H     1 <1>   0.0800 
 25 H       -0.8560     2.4260     2.5960 H     1 <1>   0.1500 
 26 H       -1.8920     2.8070    -1.5280 H     1 <1>   0.1500 
 27 H       -5.1660    -0.6230     0.3410 H     1 <1>   0.0800 
 28 H       -5.0810     0.5550     1.6350 H     1 <1>   0.0800 
 29 H       -4.0990     2.1430    -2.1060 H     1 <1>   0.0800 
 30 H       -4.4840     0.4380    -2.1590 H     1 <1>   0.0800 
 31 H       -0.6220     4.8520     2.6780 H     1 <1>   0.3700 
 32 H       -1.6310     5.2880    -1.3070 H     1 <1>   0.1500 
 33 H       -7.2150     0.2850    -0.1010 H     1 <1>   0.0800 
 34 H       -6.6690     1.1310    -2.1480 H     1 <1>   0.0800 
 35 H       -6.2080     2.6310     1.4370 H     1 <1>   0.0800 
 36 H       -7.8080     1.9040     1.4590 H     1 <1>   0.0800 
 37 H       -6.8500     3.4460    -2.2640 H     1 <1>   0.0800 
 38 H       -5.5570     3.6880    -1.0980 H     1 <1>   0.0800 
 39 H       -8.4420     3.0190    -0.5480 H     1 <1>   0.0800 
 40 H       -6.5140     4.7030     0.6580 H     1 <1>   0.4000 
@<TRIPOS>BOND
  1   1   2  2   
  2   2   3  am  
  3   2   4  1   
  4   3   5  1   
  5   3   6  1   
  6   4   7  2   
  7   4   8  1   
  8   5   9  1   
  9   5  10  1   
 10   5  21  1   
 11   6  22  1   
 12   6  23  1   
 13   6  24  1   
 14   7  11  1   
 15   7  25  1   
 16   8  12  2   
 17   8  26  1   
 18   9  13  1   
 19   9  27  1   
 20   9  28  1   
 21  10  14  1   
 22  10  29  1   
 23  10  30  1   
 24  11  15  am  
 25  11  31  1   
 26  12  15  1   
 27  12  32  1   
 28  13  14  1   
 29  13  16  1   
 30  13  33  1   
 31  14  17  1   
 32  14  34  1   
 33  15  18  2   
 34  16  19  1   
 35  16  35  1   
 36  16  36  1   
 37  17  19  1   
 38  17  37  1   
 39  17  38  1   
 40  19  20  1   
 41  19  39  1   
 42  20  40  1   
@<TRIPOS>SUBSTRUCTURE
  1 ****   5 GROUP 4 **** **** 0

# MOE 2024.06 (io_trps.svl 2023.06)
