@<TRIPOS>MOLECULE
NONAME
46 48 1 0 0 
SMALL
USER_CHARGES


@<TRIPOS>ATOM
  1 F        1.0490     0.0780     1.2530 F     1 <1>  -0.1900 
  2 C        1.8450    -0.8560     0.8100 C.ar  1 <1>   0.1900 
  3 C        1.6120    -2.1610     1.1940 C.ar  1 <1>  -0.1500 
  4 C        2.8830    -0.5100    -0.0270 C.ar  1 <1>  -0.1500 
  5 C        2.4440    -3.1660     0.7180 C.ar  1 <1>  -0.1440 
  6 C        3.7180    -1.5120    -0.4890 C.ar  1 <1>  -0.1500 
  7 C        3.5120    -2.8370    -0.1200 C.ar  1 <1>  -0.1430 
  8 C        2.1570    -4.5990     1.1280 C.3   1 <1>   0.4870 
  9 C        4.4890    -3.8790    -0.6530 C.3   1 <1>  -0.0970 
 10 N        1.4110    -5.2640     0.0270 N.4   1 <1>  -0.9590 
 11 C        1.3500    -6.7460     0.2460 C.3   1 <1>   0.5660 
 12 C        0.0470    -4.6710    -0.1740 C.3   1 <1>   0.3430 
 13 C        2.7680    -7.2860     0.1170 C.ar  1 <1>  -0.1430 
 14 C        0.3750    -7.4830    -0.7140 C.3   1 <1>   0.2000 
 15 C       -0.7710    -5.4670    -1.2040 C.3   1 <1>   0.1200 
 16 C        3.4720    -7.2110    -1.0800 C.ar  1 <1>  -0.1500 
 17 C        3.3750    -7.8590     1.2260 C.ar  1 <1>  -0.1500 
 18 O       -0.8550    -6.8050    -0.8140 O.3   1 <1>  -0.5600 
 19 C        0.1050    -8.9100    -0.2080 C.3   1 <1>   0.1200 
 20 C        4.7690    -7.6870    -1.1570 C.ar  1 <1>  -0.1500 
 21 C        4.6720    -8.3330     1.1460 C.ar  1 <1>  -0.1500 
 22 O       -0.1850    -8.8910     1.1550 O.3   1 <1>  -0.6800 
 23 C        5.3700    -8.2450    -0.0440 C.ar  1 <1>  -0.1500 
 24 H        0.7890    -2.3620     1.8580 H     1 <1>   0.1500 
 25 H        3.0350     0.5180    -0.3060 H     1 <1>   0.1500 
 26 H        4.5370    -1.2470    -1.1370 H     1 <1>   0.1500 
 27 H        1.5770    -4.6160     2.0370 H     1 <1>   0.0800 
 28 H        3.0880    -5.1090     1.3140 H     1 <1>   0.0800 
 29 H        5.4130    -3.4110    -0.9440 H     1 <1>   0.0800 
 30 H        4.0800    -4.3670    -1.5180 H     1 <1>   0.0800 
 31 H        4.7300    -4.6150     0.0930 H     1 <1>   0.0800 
 32 H        1.9650    -5.1080    -0.8190 H     1 <1>   0.4500 
 33 H        1.0040    -6.9300     1.2490 H     1 <1>   0.0800 
 34 H       -0.4940    -4.6720     0.7580 H     1 <1>   0.0800 
 35 H        0.1370    -3.6490    -0.5040 H     1 <1>   0.0800 
 36 H        0.7890    -7.5420    -1.7040 H     1 <1>   0.0800 
 37 H       -0.3310    -5.4120    -2.1850 H     1 <1>   0.0800 
 38 H       -1.7750    -5.0800    -1.2560 H     1 <1>   0.0800 
 39 H        3.0320    -6.7890    -1.9670 H     1 <1>   0.1500 
 40 H        2.8480    -7.9480     2.1620 H     1 <1>   0.1500 
 41 H        0.9720    -9.5330    -0.3500 H     1 <1>   0.0800 
 42 H       -0.7300    -9.3400    -0.7360 H     1 <1>   0.0800 
 43 H        5.3160    -7.6300    -2.0840 H     1 <1>   0.1500 
 44 H        5.1410    -8.7770     2.0090 H     1 <1>   0.1500 
 45 H       -0.5860    -9.7420     1.4340 H     1 <1>   0.4000 
 46 H        6.3800    -8.6170    -0.1050 H     1 <1>   0.1500 
@<TRIPOS>BOND
  1   1   2  1   
  2   2   3  ar  
  3   2   4  ar  
  4   3   5  ar  
  5   3  24  1   
  6   4   6  ar  
  7   4  25  1   
  8   5   7  ar  
  9   5   8  1   
 10   6   7  ar  
 11   6  26  1   
 12   7   9  1   
 13   8  10  1   
 14   8  27  1   
 15   8  28  1   
 16   9  29  1   
 17   9  30  1   
 18   9  31  1   
 19  10  11  1   
 20  10  12  1   
 21  10  32  1   
 22  11  13  1   
 23  11  14  1   
 24  11  33  1   
 25  12  15  1   
 26  12  34  1   
 27  12  35  1   
 28  13  16  ar  
 29  13  17  ar  
 30  14  18  1   
 31  14  19  1   
 32  14  36  1   
 33  15  18  1   
 34  15  37  1   
 35  15  38  1   
 36  16  20  ar  
 37  16  39  1   
 38  17  21  ar  
 39  17  40  1   
 40  19  22  1   
 41  19  41  1   
 42  19  42  1   
 43  20  23  ar  
 44  20  43  1   
 45  21  23  ar  
 46  21  44  1   
 47  22  45  1   
 48  23  46  1   
@<TRIPOS>SUBSTRUCTURE
  1 ****  10 GROUP 4 **** **** 0

# MOE 2024.06 (io_trps.svl 2023.06)
