@<TRIPOS>MOLECULE
NONAME
52 54 1 0 0 
SMALL
USER_CHARGES


@<TRIPOS>ATOM
  1 O       -1.4720    -0.5660    -1.5730 O.2   1 <1>  -0.5700 
  2 C       -1.5390    -0.9170    -0.4170 C.2   1 <1>   0.5440 
  3 N       -1.5640     0.0680     0.5090 N.am  1 <1>  -0.8000 
  4 C       -1.5780    -2.3240    -0.0560 C.ar  1 <1>   0.0860 
  5 C       -0.9880    -3.2840    -0.8770 C.ar  1 <1>  -0.1500 
  6 C       -2.2040    -2.7780     1.1050 C.ar  1 <1>  -0.1500 
  7 C       -1.0230    -4.6300    -0.5640 C.ar  1 <1>  -0.1500 
  8 C       -2.2460    -4.1230     1.4260 C.ar  1 <1>  -0.1500 
  9 C       -1.6630    -5.0620     0.5880 C.ar  1 <1>  -0.1430 
 10 C       -1.7400    -6.5410     0.9160 C.3   1 <1>   0.4860 
 11 N       -2.7100    -7.1760    -0.0170 N.4   1 <1>  -0.9590 
 12 C       -2.7520    -8.6770     0.1520 C.3   1 <1>   0.3430 
 13 C       -4.0920    -6.5890     0.1290 C.3   1 <1>   0.3430 
 14 C       -3.8800    -9.3530    -0.6610 C.3   1 <1>   0.3430 
 15 C       -5.1430    -7.3460    -0.7160 C.3   1 <1>   0.2000 
 16 O       -5.0980    -8.7110    -0.4020 O.3   1 <1>  -0.5600 
 17 C       -3.9790   -10.8180    -0.2610 C.ar  1 <1>  -0.1430 
 18 C       -6.5770    -6.8210    -0.4810 C.3   1 <1>  -0.0800 
 19 C       -3.3080   -11.7810    -1.0020 C.ar  1 <1>  -0.1500 
 20 C       -4.7160   -11.2130     0.8490 C.ar  1 <1>  -0.1500 
 21 C       -7.0580    -6.9910     0.9710 C.3   1 <1>  -0.2400 
 22 C       -7.5710    -7.5090    -1.4300 C.3   1 <1>  -0.2400 
 23 C       -3.3650   -13.1140    -0.6350 C.ar  1 <1>  -0.1500 
 24 C       -4.7720   -12.5450     1.2160 C.ar  1 <1>  -0.1500 
 25 C       -4.0950   -13.4970     0.4760 C.ar  1 <1>  -0.1500 
 26 H       -1.4960     1.0340     0.1830 H     1 <1>   0.3700 
 27 H       -1.4520    -0.0800     1.5100 H     1 <1>   0.3700 
 28 H       -0.4940    -2.9560    -1.7780 H     1 <1>   0.1500 
 29 H       -2.6720    -2.0650     1.7620 H     1 <1>   0.1500 
 30 H       -0.5420    -5.3260    -1.2310 H     1 <1>   0.1500 
 31 H       -2.7400    -4.4250     2.3360 H     1 <1>   0.1500 
 32 H       -2.0590    -6.6770     1.9370 H     1 <1>   0.0800 
 33 H       -0.7640    -6.9840     0.8000 H     1 <1>   0.0800 
 34 H       -2.3920    -6.9550    -0.9690 H     1 <1>   0.4500 
 35 H       -1.8090    -9.1110    -0.1370 H     1 <1>   0.0800 
 36 H       -2.9150    -8.9200     1.1890 H     1 <1>   0.0800 
 37 H       -4.3950    -6.6340     1.1610 H     1 <1>   0.0800 
 38 H       -4.0850    -5.5520    -0.1660 H     1 <1>   0.0800 
 39 H       -3.6830    -9.2820    -1.7160 H     1 <1>   0.0800 
 40 H       -4.9090    -7.2360    -1.7610 H     1 <1>   0.0800 
 41 H       -6.5900    -5.7700    -0.7140 H     1 <1>   0.0800 
 42 H       -2.7380   -11.5110    -1.8740 H     1 <1>   0.1500 
 43 H       -5.2590   -10.4880     1.4310 H     1 <1>   0.1500 
 44 H       -7.0470    -8.0300     1.2550 H     1 <1>   0.0800 
 45 H       -8.0690    -6.6320     1.0690 H     1 <1>   0.0800 
 46 H       -6.4480    -6.4360     1.6590 H     1 <1>   0.0800 
 47 H       -7.6230    -8.5650    -1.2270 H     1 <1>   0.0800 
 48 H       -7.2760    -7.3740    -2.4550 H     1 <1>   0.0800 
 49 H       -8.5570    -7.0930    -1.3080 H     1 <1>   0.0800 
 50 H       -2.8440   -13.8580    -1.2140 H     1 <1>   0.1500 
 51 H       -5.3470   -12.8450     2.0760 H     1 <1>   0.1500 
 52 H       -4.1400   -14.5340     0.7600 H     1 <1>   0.1500 
@<TRIPOS>BOND
  1   1   2  2   
  2   2   3  am  
  3   2   4  1   
  4   3  26  1   
  5   3  27  1   
  6   4   5  ar  
  7   4   6  ar  
  8   5   7  ar  
  9   5  28  1   
 10   6   8  ar  
 11   6  29  1   
 12   7   9  ar  
 13   7  30  1   
 14   8   9  ar  
 15   8  31  1   
 16   9  10  1   
 17  10  11  1   
 18  10  32  1   
 19  10  33  1   
 20  11  12  1   
 21  11  13  1   
 22  11  34  1   
 23  12  14  1   
 24  12  35  1   
 25  12  36  1   
 26  13  15  1   
 27  13  37  1   
 28  13  38  1   
 29  14  16  1   
 30  14  17  1   
 31  14  39  1   
 32  15  16  1   
 33  15  18  1   
 34  15  40  1   
 35  17  19  ar  
 36  17  20  ar  
 37  18  21  1   
 38  18  22  1   
 39  18  41  1   
 40  19  23  ar  
 41  19  42  1   
 42  20  24  ar  
 43  20  43  1   
 44  21  44  1   
 45  21  45  1   
 46  21  46  1   
 47  22  47  1   
 48  22  48  1   
 49  22  49  1   
 50  23  25  ar  
 51  23  50  1   
 52  24  25  ar  
 53  24  51  1   
 54  25  52  1   
@<TRIPOS>SUBSTRUCTURE
  1 ****  11 GROUP 4 **** **** 0

# MOE 2024.06 (io_trps.svl 2023.06)
