@<TRIPOS>MOLECULE
NONAME
45 47 1 0 0 
SMALL
USER_CHARGES


@<TRIPOS>ATOM
  1 O       -0.2760     0.2590     0.4990 O.2   1 <1>  -0.5700 
  2 C       -1.2900     0.9360     0.5580 C.2   1 <1>   0.6300 
  3 N       -2.4980     0.2800     0.7450 N.am  1 <1>  -0.6600 
  4 C       -1.1990     2.3760     0.4370 C.2   1 <1>   0.4500 
  5 C       -2.6030    -1.2140     0.8070 C.3   1 <1>   0.1400 
  6 C       -3.8310     0.9570     0.7790 C.3   1 <1>   0.1400 
  7 N       -1.4500     3.1840     1.4500 N.2   1 <1>  -0.6210 
  8 C       -0.8460     2.8610    -0.8770 C.2   1 <1>   0.6300 
  9 C       -3.6330    -1.7340    -0.2120 C.3   1 <1>   0.3440 
 10 C       -4.7970     0.3240    -0.2490 C.3   1 <1>   0.2000 
 11 C       -1.2940     4.5200     1.2230 C.2   1 <1>   0.0210 
 12 O       -0.7330     2.1750    -1.8840 O.2   1 <1>  -0.5700 
 13 N       -0.6850     4.2100    -1.0380 N.am  1 <1>  -0.5390 
 14 O       -4.8540    -1.0620    -0.0440 O.3   1 <1>  -0.5600 
 15 C       -3.8480    -3.2360    -0.0410 C.ar  1 <1>  -0.1440 
 16 C       -6.2360     0.8840    -0.1590 C.3   1 <1>  -0.0800 
 17 C       -0.9180     5.0450     0.0250 C.2   1 <1>  -0.0410 
 18 C       -4.7870    -3.7360     0.8510 C.ar  1 <1>  -0.1500 
 19 C       -3.0810    -4.1250    -0.7810 C.ar  1 <1>  -0.1500 
 20 C       -7.1700     0.2000    -1.1720 C.3   1 <1>  -0.2400 
 21 C       -6.2850     2.4040    -0.3950 C.3   1 <1>  -0.2400 
 22 C       -4.9560    -5.1020     1.0020 C.ar  1 <1>  -0.1500 
 23 C       -3.2490    -5.4910    -0.6310 C.ar  1 <1>  -0.1500 
 24 C       -4.1860    -5.9810     0.2610 C.ar  1 <1>  -0.1500 
 25 H       -1.6530    -1.6760     0.6060 H     1 <1>   0.0800 
 26 H       -2.9070    -1.5080     1.7950 H     1 <1>   0.0800 
 27 H       -4.2500     0.8590     1.7650 H     1 <1>   0.0800 
 28 H       -3.7260     2.0050     0.5700 H     1 <1>   0.0800 
 29 H       -3.2830    -1.5390    -1.2100 H     1 <1>   0.0800 
 30 H       -4.4200     0.4960    -1.2430 H     1 <1>   0.0800 
 31 H       -1.4850     5.1630     2.0670 H     1 <1>   0.1500 
 32 H       -0.4110     4.5260    -1.9710 H     1 <1>   0.3700 
 33 H       -6.6100     0.6870     0.8310 H     1 <1>   0.0800 
 34 H       -0.7960     6.1060    -0.1260 H     1 <1>   0.1500 
 35 H       -5.3920    -3.0600     1.4290 H     1 <1>   0.1500 
 36 H       -2.3470    -3.7600    -1.4780 H     1 <1>   0.1500 
 37 H       -6.8180     0.3540    -2.1770 H     1 <1>   0.0800 
 38 H       -8.1670     0.5930    -1.0910 H     1 <1>   0.0800 
 39 H       -7.2150    -0.8590    -0.9870 H     1 <1>   0.0800 
 40 H       -5.8540     2.6550    -1.3480 H     1 <1>   0.0800 
 41 H       -5.7600     2.9350     0.3780 H     1 <1>   0.0800 
 42 H       -7.3060     2.7470    -0.3840 H     1 <1>   0.0800 
 43 H       -5.6880    -5.4790     1.6940 H     1 <1>   0.1500 
 44 H       -2.6500    -6.1730    -1.2090 H     1 <1>   0.1500 
 45 H       -4.3180    -7.0420     0.3770 H     1 <1>   0.1500 
@<TRIPOS>BOND
  1   1   2  2   
  2   2   3  am  
  3   2   4  1   
  4   3   5  1   
  5   3   6  1   
  6   4   7  2   
  7   4   8  1   
  8   5   9  1   
  9   5  25  1   
 10   5  26  1   
 11   6  10  1   
 12   6  27  1   
 13   6  28  1   
 14   7  11  1   
 15   8  12  2   
 16   8  13  am  
 17   9  14  1   
 18   9  15  1   
 19   9  29  1   
 20  10  14  1   
 21  10  16  1   
 22  10  30  1   
 23  11  17  2   
 24  11  31  1   
 25  13  17  1   
 26  13  32  1   
 27  15  18  ar  
 28  15  19  ar  
 29  16  20  1   
 30  16  21  1   
 31  16  33  1   
 32  17  34  1   
 33  18  22  ar  
 34  18  35  1   
 35  19  23  ar  
 36  19  36  1   
 37  20  37  1   
 38  20  38  1   
 39  20  39  1   
 40  21  40  1   
 41  21  41  1   
 42  21  42  1   
 43  22  24  ar  
 44  22  43  1   
 45  23  24  ar  
 46  23  44  1   
 47  24  45  1   
@<TRIPOS>SUBSTRUCTURE
  1 ****   3 GROUP 4 **** **** 0

# MOE 2024.06 (io_trps.svl 2023.06)
