@<TRIPOS>MOLECULE
NONAME
57 59 1 0 0 
SMALL
USER_CHARGES


@<TRIPOS>ATOM
  1 CL       0.0260    -2.2660    -1.6990 Cl    1 <1>  -0.1770 
  2 C       -1.2010    -1.9560    -0.4920 C.ar  1 <1>   0.1770 
  3 C       -1.5050    -0.6550    -0.1120 C.ar  1 <1>   0.0820 
  4 C       -1.8510    -3.0360     0.0740 C.ar  1 <1>  -0.1500 
  5 O       -0.8620     0.3850    -0.6930 O.3   1 <1>  -0.3630 
  6 C       -2.4840    -0.4460     0.8490 C.ar  1 <1>  -0.1500 
  7 C       -2.8360    -2.8270     1.0320 C.ar  1 <1>  -0.1430 
  8 C       -0.1470     1.2970     0.1120 C.3   1 <1>   0.2000 
  9 C       -3.1400    -1.5260     1.4180 C.ar  1 <1>  -0.1500 
 10 C       -3.5690    -4.0070     1.6550 C.3   1 <1>   0.4870 
 11 C        0.1620     2.5150    -0.7540 C.3   1 <1>  -0.2400 
 12 C        1.1350     0.6220     0.6020 C.3   1 <1>  -0.2400 
 13 N       -4.7510    -4.3740     0.8450 N.4   1 <1>  -0.9590 
 14 C       -4.4320    -5.0280    -0.4720 C.3   1 <1>   0.3430 
 15 C       -5.7860    -3.3200     0.7190 C.3   1 <1>   0.3430 
 16 C       -5.6940    -5.3140    -1.3240 C.3   1 <1>   0.2000 
 17 C       -7.1020    -3.9160     0.1840 C.3   1 <1>  -0.1600 
 18 O       -5.5320    -6.5350    -1.9570 O.3   1 <1>  -0.6800 
 19 C       -6.9820    -5.3290    -0.4710 C.3   1 <1>  -0.1060 
 20 C       -6.7870    -6.4420     0.5730 C.2   1 <1>   0.9060 
 21 C       -8.2290    -5.6250    -1.3470 C.3   1 <1>  -0.0170 
 22 O       -6.6480    -7.6000     0.1720 O.co2 1 <1>  -0.9000 
 23 O       -6.5360    -6.1370     1.7480 O.co2 1 <1>  -0.9000 
 24 C       -9.5490    -5.3570    -0.6320 C.ar  1 <1>  -0.1430 
 25 C      -10.3130    -4.2460    -0.9560 C.ar  1 <1>  -0.1500 
 26 C       -9.9990    -6.2240     0.3520 C.ar  1 <1>  -0.1500 
 27 C      -11.5060    -3.9990    -0.2980 C.ar  1 <1>  -0.1500 
 28 C      -11.1900    -5.9780     1.0120 C.ar  1 <1>  -0.1500 
 29 C      -11.9450    -4.8650     0.6880 C.ar  1 <1>  -0.1500 
 30 H       -1.5740    -4.0260    -0.2420 H     1 <1>   0.1500 
 31 H       -2.7390     0.5560     1.1440 H     1 <1>   0.1500 
 32 H       -0.7620     1.5920     0.9440 H     1 <1>   0.0800 
 33 H       -3.8910    -1.3400     2.1680 H     1 <1>   0.1500 
 34 H       -3.8850    -3.7470     2.6520 H     1 <1>   0.0800 
 35 H       -2.9040    -4.8520     1.7290 H     1 <1>   0.0800 
 36 H        0.7570     2.2290    -1.6030 H     1 <1>   0.0800 
 37 H        0.7060     3.2460    -0.1830 H     1 <1>   0.0800 
 38 H       -0.7530     2.9630    -1.0970 H     1 <1>   0.0800 
 39 H        1.7210     0.2830    -0.2340 H     1 <1>   0.0800 
 40 H        0.9020    -0.2140     1.2360 H     1 <1>   0.0800 
 41 H        1.7220     1.3200     1.1710 H     1 <1>   0.0800 
 42 H       -5.2540    -5.1200     1.3970 H     1 <1>   0.4500 
 43 H       -3.7720    -4.3990    -1.0430 H     1 <1>   0.0800 
 44 H       -3.9360    -5.9660    -0.2830 H     1 <1>   0.0800 
 45 H       -5.9720    -2.8690     1.6800 H     1 <1>   0.0800 
 46 H       -5.4340    -2.5550     0.0460 H     1 <1>   0.0800 
 47 H       -5.7690    -4.5700    -2.0980 H     1 <1>   0.0800 
 48 H       -7.8050    -3.9690     0.9990 H     1 <1>   0.0800 
 49 H       -7.5100    -3.2180    -0.5240 H     1 <1>   0.0800 
 50 H       -5.8800    -7.2430    -1.3320 H     1 <1>   0.4000 
 51 H       -8.1880    -5.0260    -2.2390 H     1 <1>   0.0800 
 52 H       -8.2170    -6.6540    -1.6680 H     1 <1>   0.0800 
 53 H       -9.9860    -3.5670    -1.7220 H     1 <1>   0.1500 
 54 H       -9.4210    -7.0970     0.6120 H     1 <1>   0.1500 
 55 H      -12.0940    -3.1360    -0.5540 H     1 <1>   0.1500 
 56 H      -11.5240    -6.6570     1.7760 H     1 <1>   0.1500 
 57 H      -12.8700    -4.6750     1.2020 H     1 <1>   0.1500 
@<TRIPOS>BOND
  1   1   2  1   
  2   2   3  ar  
  3   2   4  ar  
  4   3   5  1   
  5   3   6  ar  
  6   4   7  ar  
  7   4  30  1   
  8   5   8  1   
  9   6   9  ar  
 10   6  31  1   
 11   7   9  ar  
 12   7  10  1   
 13   8  11  1   
 14   8  12  1   
 15   8  32  1   
 16   9  33  1   
 17  10  13  1   
 18  10  34  1   
 19  10  35  1   
 20  11  36  1   
 21  11  37  1   
 22  11  38  1   
 23  12  39  1   
 24  12  40  1   
 25  12  41  1   
 26  13  14  1   
 27  13  15  1   
 28  13  42  1   
 29  14  16  1   
 30  14  43  1   
 31  14  44  1   
 32  15  17  1   
 33  15  45  1   
 34  15  46  1   
 35  16  18  1   
 36  16  19  1   
 37  16  47  1   
 38  17  19  1   
 39  17  48  1   
 40  17  49  1   
 41  18  50  1   
 42  19  20  1   
 43  19  21  1   
 44  20  22  ar  
 45  20  23  ar  
 46  21  24  1   
 47  21  51  1   
 48  21  52  1   
 49  24  25  ar  
 50  24  26  ar  
 51  25  27  ar  
 52  25  53  1   
 53  26  28  ar  
 54  26  54  1   
 55  27  29  ar  
 56  27  55  1   
 57  28  29  ar  
 58  28  56  1   
 59  29  57  1   
@<TRIPOS>SUBSTRUCTURE
  1 ****  15 GROUP 4 **** **** 0

# MOE 2024.06 (io_trps.svl 2023.06)
