@<TRIPOS>MOLECULE
NONAME
48 50 1 0 0 
SMALL
USER_CHARGES


@<TRIPOS>ATOM
  1 O       -0.7840    -0.2420    -0.8560 O.co2 1 <1>  -0.9030 
  2 C       -1.3120     0.8430    -0.5630 C.2   1 <1>   0.9770 
  3 O       -0.5990     1.8360    -0.3520 O.co2 1 <1>  -0.9030 
  4 C       -2.7600     0.9370    -0.4710 C.ar  1 <1>  -0.1870 
  5 C       -3.5580    -0.1750    -0.7240 C.ar  1 <1>  -0.1170 
  6 C       -3.3990     2.1450    -0.1280 C.ar  1 <1>  -0.1580 
  7 C       -4.9330    -0.0650    -0.6340 C.ar  1 <1>   0.3020 
  8 C       -4.7720     2.2510    -0.0370 C.ar  1 <1>  -0.1170 
  9 N       -5.9420    -0.9790    -0.8220 N.pl3 1 <1>  -0.7040 
 10 C       -5.5440     1.1250    -0.2970 C.ar  1 <1>   0.3020 
 11 C       -7.1130    -0.4020    -0.5860 C.cat 1 <1>   1.0680 
 12 N       -6.9190     0.9010    -0.2920 N.pl3 1 <1>  -0.7680 
 13 N       -8.2760    -1.0800    -0.6340 N.pl3 1 <1>  -0.5970 
 14 C       -7.9040     2.0050    -0.1940 C.3   1 <1>   0.2670 
 15 C       -8.3870    -2.3710    -1.3750 C.3   1 <1>   0.1600 
 16 C       -9.5190    -0.7580     0.1230 C.3   1 <1>   0.1600 
 17 C       -8.5950    -3.5700    -0.4330 C.3   1 <1>  -0.1140 
 18 C       -9.8660    -1.8880     1.0980 C.3   1 <1>  -0.1680 
 19 C       -8.9390    -4.7600    -1.3350 C.2   1 <1>   0.9030 
 20 C       -9.8500    -3.2630     0.4190 C.3   1 <1>   0.1920 
 21 C       -7.2840    -3.9550     0.3350 C.3   1 <1>  -0.1680 
 22 O       -8.5610    -4.7420    -2.5120 O.co2 1 <1>  -0.9030 
 23 O       -9.5740    -5.7090    -0.8620 O.co2 1 <1>  -0.9030 
 24 O      -10.0100    -4.2310     1.3820 O.3   1 <1>  -0.6840 
 25 C       -6.8760    -3.1680     1.5940 C.3   1 <1>  -0.1680 
 26 C       -5.4520    -3.5280     2.0260 C.3   1 <1>  -0.2470 
 27 H       -3.1020    -1.1150    -0.9870 H     1 <1>   0.1420 
 28 H       -2.7750     3.0040     0.0680 H     1 <1>   0.1420 
 29 H       -5.2290     3.1850     0.2310 H     1 <1>   0.1420 
 30 H       -5.8300    -1.9800    -0.9750 H     1 <1>   0.4440 
 31 H       -7.4850     2.9090    -0.6010 H     1 <1>   0.0710 
 32 H       -8.1630     2.1730     0.8370 H     1 <1>   0.0710 
 33 H       -8.7910     1.7670    -0.7540 H     1 <1>   0.0710 
 34 H       -9.2330    -2.3040    -2.0410 H     1 <1>   0.0710 
 35 H       -7.5270    -2.5410    -1.9990 H     1 <1>   0.0710 
 36 H       -9.4070     0.1450     0.6920 H     1 <1>   0.0710 
 37 H      -10.3290    -0.6260    -0.5750 H     1 <1>   0.0710 
 38 H      -10.8500    -1.7140     1.4930 H     1 <1>   0.0710 
 39 H       -9.1860    -1.8660     1.9260 H     1 <1>   0.0710 
 40 H      -10.7140    -3.3270    -0.2220 H     1 <1>   0.0710 
 41 H       -7.3900    -4.9810     0.6490 H     1 <1>   0.0710 
 42 H       -6.4710    -3.9530    -0.3700 H     1 <1>   0.0710 
 43 H       -9.9600    -5.0970     0.8910 H     1 <1>   0.3940 
 44 H       -6.9280    -2.1110     1.4440 H     1 <1>   0.0710 
 45 H       -7.5510    -3.4220     2.3940 H     1 <1>   0.0710 
 46 H       -4.7420    -3.2610     1.2630 H     1 <1>   0.0710 
 47 H       -5.3770    -4.5850     2.2140 H     1 <1>   0.0710 
 48 H       -5.1980    -3.0020     2.9290 H     1 <1>   0.0710 
@<TRIPOS>BOND
  1   1   2  ar  
  2   2   3  ar  
  3   2   4  1   
  4   4   5  ar  
  5   4   6  ar  
  6   5   7  ar  
  7   5  27  1   
  8   6   8  ar  
  9   6  28  1   
 10   7   9  1   
 11   7  10  ar  
 12   8  10  ar  
 13   8  29  1   
 14   9  11  ar  
 15   9  30  1   
 16  10  12  1   
 17  11  12  ar  
 18  11  13  ar  
 19  12  14  1   
 20  13  15  1   
 21  13  16  1   
 22  14  31  1   
 23  14  32  1   
 24  14  33  1   
 25  15  17  1   
 26  15  34  1   
 27  15  35  1   
 28  16  18  1   
 29  16  36  1   
 30  16  37  1   
 31  17  19  1   
 32  17  20  1   
 33  17  21  1   
 34  18  20  1   
 35  18  38  1   
 36  18  39  1   
 37  19  22  ar  
 38  19  23  ar  
 39  20  24  1   
 40  20  40  1   
 41  21  25  1   
 42  21  41  1   
 43  21  42  1   
 44  24  43  1   
 45  25  26  1   
 46  25  44  1   
 47  25  45  1   
 48  26  46  1   
 49  26  47  1   
 50  26  48  1   
@<TRIPOS>SUBSTRUCTURE
  1 ****   9 GROUP 4 **** **** 0

# MOE 2024.06 (io_trps.svl 2023.06)
