@<TRIPOS>MOLECULE
NONAME
53 57 1 0 0 
SMALL
USER_CHARGES


@<TRIPOS>ATOM
  1 S        1.7180    -0.0370     1.6680 S.3   1 <1>  -0.0800 
  2 C        3.3090    -0.6890     1.3480 C.2   1 <1>   0.2280 
  3 C        2.4630     1.4600     2.1470 C.2   1 <1>  -0.1100 
  4 N        4.2690     0.1180     1.5710 N.2   1 <1>  -0.5650 
  5 C        3.7950     1.3450     2.0280 C.2   1 <1>   0.0460 
  6 C        4.7980     2.4430     2.3530 C.3   1 <1>   0.3210 
  7 N        5.1550     3.2050     1.1280 N.am  1 <1>  -0.6600 
  8 C        4.5930     4.4080     0.8400 C.2   1 <1>   0.5690 
  9 C        6.0020     2.5410     0.1010 C.3   1 <1>   0.2200 
 10 O        3.8790     5.0030     1.6130 O.2   1 <1>  -0.5700 
 11 C        4.8930     5.0010    -0.5220 C.3   1 <1>  -0.0190 
 12 C        7.3730     3.2530    -0.0010 C.3   1 <1>   0.2090 
 13 C        5.2320     2.5490    -1.2370 C.3   1 <1>  -0.1600 
 14 C        6.3270     5.5530    -0.4950 C.3   1 <1>   0.2090 
 15 C        4.6740     3.9400    -1.6290 C.3   1 <1>  -0.1600 
 16 N        7.3710     4.5230    -0.8070 N.pl3 1 <1>  -0.8380 
 17 C        8.5750     4.9530    -1.3430 C.ar  1 <1>   0.4100 
 18 N        9.0460     6.0990    -0.8830 N.ar  1 <1>  -0.6200 
 19 C        9.2480     4.1980    -2.3150 C.ar  1 <1>   0.1600 
 20 C       10.2220     6.4690    -1.4190 C.ar  1 <1>   0.3960 
 21 N       10.4010     4.5220    -2.8600 N.ar  1 <1>  -0.6200 
 22 C       10.8870     7.7150    -1.0200 C.2   1 <1>   0.5440 
 23 C       10.8530     5.6750    -2.3840 C.ar  1 <1>   0.1600 
 24 O       11.6670     8.2380    -1.8010 O.2   1 <1>  -0.5700 
 25 N       10.7170     8.3430     0.2030 N.am  1 <1>  -0.6600 
 26 C       11.4950     9.5390     0.6000 C.3   1 <1>   0.1400 
 27 C        9.8830     7.8650     1.3320 C.3   1 <1>   0.1400 
 28 C       11.4090     9.5700     2.1200 C.3   1 <1>  -0.1600 
 29 C       10.0800     8.8940     2.4410 C.3   1 <1>  -0.1600 
 30 H        3.3570    -1.7040     0.9920 H     1 <1>   0.1500 
 31 H        1.8290     2.2700     2.4620 H     1 <1>   0.1500 
 32 H        5.6820     2.0110     2.7870 H     1 <1>   0.0800 
 33 H        4.3650     3.1090     3.0790 H     1 <1>   0.0800 
 34 H        6.1790     1.5210     0.3970 H     1 <1>   0.0800 
 35 H        4.2220     5.8250    -0.6800 H     1 <1>   0.0800 
 36 H        8.0650     2.5650    -0.4520 H     1 <1>   0.0800 
 37 H        7.7350     3.4640     0.9910 H     1 <1>   0.0800 
 38 H        5.8730     2.1830    -2.0190 H     1 <1>   0.0800 
 39 H        4.4130     1.8550    -1.1490 H     1 <1>   0.0800 
 40 H        6.5350     5.9960     0.4650 H     1 <1>   0.0800 
 41 H        6.3980     6.3360    -1.2310 H     1 <1>   0.0800 
 42 H        3.6170     3.8440    -1.8090 H     1 <1>   0.0800 
 43 H        5.1290     4.2760    -2.5450 H     1 <1>   0.0800 
 44 H        8.7810     3.2880    -2.6410 H     1 <1>   0.1500 
 45 H       11.7920     6.0180    -2.7830 H     1 <1>   0.1500 
 46 H       12.5160     9.4700     0.2610 H     1 <1>   0.0800 
 47 H       11.0320    10.4120     0.1740 H     1 <1>   0.0800 
 48 H        8.8470     7.8070     1.0460 H     1 <1>   0.0800 
 49 H       10.2310     6.8960     1.6450 H     1 <1>   0.0800 
 50 H       12.2220     8.9940     2.5260 H     1 <1>   0.0800 
 51 H       11.4640    10.5740     2.5020 H     1 <1>   0.0800 
 52 H        9.2830     9.6150     2.3910 H     1 <1>   0.0800 
 53 H       10.0760     8.4370     3.4150 H     1 <1>   0.0800 
@<TRIPOS>BOND
  1   1   2  1   
  2   1   3  1   
  3   2   4  2   
  4   2  30  1   
  5   3   5  2   
  6   3  31  1   
  7   4   5  1   
  8   5   6  1   
  9   6   7  1   
 10   6  32  1   
 11   6  33  1   
 12   7   8  am  
 13   7   9  1   
 14   8  10  2   
 15   8  11  1   
 16   9  12  1   
 17   9  13  1   
 18   9  34  1   
 19  11  14  1   
 20  11  15  1   
 21  11  35  1   
 22  12  16  1   
 23  12  36  1   
 24  12  37  1   
 25  13  15  1   
 26  13  38  1   
 27  13  39  1   
 28  14  16  1   
 29  14  40  1   
 30  14  41  1   
 31  15  42  1   
 32  15  43  1   
 33  16  17  1   
 34  17  18  ar  
 35  17  19  ar  
 36  18  20  ar  
 37  19  21  ar  
 38  19  44  1   
 39  20  22  1   
 40  20  23  ar  
 41  21  23  ar  
 42  22  24  2   
 43  22  25  am  
 44  23  45  1   
 45  25  26  1   
 46  25  27  1   
 47  26  28  1   
 48  26  46  1   
 49  26  47  1   
 50  27  29  1   
 51  27  48  1   
 52  27  49  1   
 53  28  29  1   
 54  28  50  1   
 55  28  51  1   
 56  29  52  1   
 57  29  53  1   
@<TRIPOS>SUBSTRUCTURE
  1 ****  16 GROUP 4 **** **** 0

# MOE 2024.06 (io_trps.svl 2023.06)
