@<TRIPOS>MOLECULE
NONAME
58 61 1 0 0 
SMALL
USER_CHARGES


@<TRIPOS>ATOM
  1 O       -0.8660    -0.3080     1.3590 O.2   1 <1>  -0.5700 
  2 C       -1.2630     0.1070     0.2940 C.2   1 <1>   0.5690 
  3 N       -2.1280    -0.6280    -0.4470 N.am  1 <1>  -0.7300 
  4 C       -0.7600     1.4680    -0.2170 C.3   1 <1>   0.0610 
  5 C       -2.8930    -1.7900     0.0530 C.3   1 <1>   0.2840 
  6 C       -0.7820     2.5410     0.9050 C.3   1 <1>   0.1900 
  7 C       -1.6890     2.1610    -1.2660 C.3   1 <1>  -0.1600 
  8 C        0.6740     1.2160    -0.7700 C.3   1 <1>  -0.0220 
  9 C       -4.3630    -1.4030     0.1510 C.ar  1 <1>   0.1660 
 10 N       -0.8460     3.7600     0.1120 N.3   1 <1>  -0.8100 
 11 C       -2.1450     2.5750     1.6310 C.3   1 <1>  -0.1600 
 12 C       -2.0780     3.4770    -0.5790 C.3   1 <1>   0.1900 
 13 C        1.4930     2.4570    -1.1240 C.2   1 <1>  -0.2880 
 14 N       -4.9900    -1.1450    -0.9910 N.ar  1 <1>  -0.6200 
 15 C       -4.9640    -1.3220     1.4000 C.ar  1 <1>  -0.1500 
 16 C       -0.7330     5.0530     0.8230 C.3   1 <1>   0.2900 
 17 C       -3.0630     3.1780     0.5600 C.3   1 <1>  -0.1600 
 18 C        2.6420     2.8950    -0.5920 C.2   1 <1>  -0.2760 
 19 C       -6.2650    -0.8050    -0.8810 C.ar  1 <1>   0.1600 
 20 C       -6.2910    -0.9640     1.4970 C.ar  1 <1>  -0.1500 
 21 C       -0.7030     6.2350    -0.1380 C.2   1 <1>   0.2980 
 22 C        3.2880     4.1810    -1.0820 C.3   1 <1>  -0.1020 
 23 C        3.4400     2.2400     0.5270 C.3   1 <1>  -0.1020 
 24 C       -6.9510    -0.7010     0.3170 C.ar  1 <1>  -0.1500 
 25 O        0.2980     6.3340    -0.9800 O.3   1 <1>  -0.0190 
 26 N       -1.5690     7.1690    -0.2060 N.2   1 <1>  -0.5650 
 27 N        0.0470     7.4240    -1.6390 N.2   1 <1>  -0.4100 
 28 C       -1.0420     7.8930    -1.1800 C.2   1 <1>   0.3350 
 29 C       -1.7160     9.1560    -1.6590 C.3   1 <1>  -0.0590 
 30 H       -2.5350    -0.2350    -1.2980 H     1 <1>   0.3700 
 31 H       -2.7850    -2.6090    -0.6350 H     1 <1>   0.0800 
 32 H       -2.5190    -2.1000     1.0130 H     1 <1>   0.0800 
 33 H        0.0720     2.4920     1.5600 H     1 <1>   0.0800 
 34 H       -2.5730     1.6110    -1.5240 H     1 <1>   0.0800 
 35 H       -1.1590     2.3830    -2.1750 H     1 <1>   0.0800 
 36 H        1.2100     0.6330    -0.0480 H     1 <1>   0.0800 
 37 H        0.5970     0.6050    -1.6520 H     1 <1>   0.0800 
 38 H       -2.4850     1.6130     1.9640 H     1 <1>   0.0800 
 39 H       -2.0860     3.2150     2.4920 H     1 <1>   0.0800 
 40 H       -2.3900     4.2520    -1.2600 H     1 <1>   0.0800 
 41 H        1.0140     3.0180    -1.9080 H     1 <1>   0.1500 
 42 H       -4.3980    -1.5330     2.2890 H     1 <1>   0.1500 
 43 H       -1.5470     5.1920     1.5100 H     1 <1>   0.0800 
 44 H        0.1840     5.0570     1.3850 H     1 <1>   0.0800 
 45 H       -3.5260     4.0840     0.9070 H     1 <1>   0.0800 
 46 H       -3.8310     2.4900     0.2500 H     1 <1>   0.0800 
 47 H       -6.7940    -0.5970    -1.7960 H     1 <1>   0.1500 
 48 H       -6.7880    -0.8930     2.4500 H     1 <1>   0.1500 
 49 H        3.3660     4.8870    -0.2750 H     1 <1>   0.0800 
 50 H        2.7010     4.6300    -1.8630 H     1 <1>   0.0800 
 51 H        4.2710     3.9800    -1.4680 H     1 <1>   0.0800 
 52 H        3.5460     2.9260     1.3480 H     1 <1>   0.0800 
 53 H        4.4200     1.9770     0.1710 H     1 <1>   0.0800 
 54 H        2.9720     1.3520     0.9010 H     1 <1>   0.0800 
 55 H       -7.9880    -0.4170     0.3220 H     1 <1>   0.1500 
 56 H       -1.7960     9.8510    -0.8450 H     1 <1>   0.0800 
 57 H       -2.6980     8.9220    -2.0240 H     1 <1>   0.0800 
 58 H       -1.1410     9.6020    -2.4500 H     1 <1>   0.0800 
@<TRIPOS>BOND
  1   1   2  2   
  2   2   3  am  
  3   2   4  1   
  4   3   5  1   
  5   3  30  1   
  6   4   6  1   
  7   4   7  1   
  8   4   8  1   
  9   5   9  1   
 10   5  31  1   
 11   5  32  1   
 12   6  10  1   
 13   6  11  1   
 14   6  33  1   
 15   7  12  1   
 16   7  34  1   
 17   7  35  1   
 18   8  13  1   
 19   8  36  1   
 20   8  37  1   
 21   9  14  ar  
 22   9  15  ar  
 23  10  12  1   
 24  10  16  1   
 25  11  17  1   
 26  11  38  1   
 27  11  39  1   
 28  12  17  1   
 29  12  40  1   
 30  13  18  2   
 31  13  41  1   
 32  14  19  ar  
 33  15  20  ar  
 34  15  42  1   
 35  16  21  1   
 36  16  43  1   
 37  16  44  1   
 38  17  45  1   
 39  17  46  1   
 40  18  22  1   
 41  18  23  1   
 42  19  24  ar  
 43  19  47  1   
 44  20  24  ar  
 45  20  48  1   
 46  21  25  1   
 47  21  26  2   
 48  22  49  1   
 49  22  50  1   
 50  22  51  1   
 51  23  52  1   
 52  23  53  1   
 53  23  54  1   
 54  24  55  1   
 55  25  27  1   
 56  26  28  1   
 57  27  28  2   
 58  28  29  1   
 59  29  56  1   
 60  29  57  1   
 61  29  58  1   
@<TRIPOS>SUBSTRUCTURE
  1 ****  12 GROUP 4 **** **** 0

# MOE 2024.06 (io_trps.svl 2023.06)
