@<TRIPOS>MOLECULE
STOCK7S-72507
41 42 1 0 0 
SMALL
USER_CHARGES


@<TRIPOS>ATOM
  1 S       -0.3530    -0.1860     0.8290 S.o2  1 <1>   1.0900 
  2 O       -0.6470     1.1810     1.1900 O.2   1 <1>  -0.6500 
  3 O        0.8010    -0.8480     1.3880 O.2   1 <1>  -0.6500 
  4 C       -1.7900    -1.1900     1.2140 C.3   1 <1>  -0.0550 
  5 C       -0.2180    -0.2750    -0.9470 C.3   1 <1>  -0.1350 
  6 C       -3.1220    -0.6250     0.6760 C.3   1 <1>  -0.1600 
  7 C       -4.3200    -1.5320     0.9900 C.3   1 <1>   0.4690 
  8 N       -5.5460    -0.8080     0.5690 N.pl3 1 <1>  -0.8690 
  9 C       -4.2340    -2.9060     0.3090 C.2   1 <1>   0.2980 
 10 C       -6.4920    -0.2550     1.3690 C.2   1 <1>  -0.0500 
 11 O       -4.9930    -3.8630     0.7820 O.3   1 <1>  -0.0190 
 12 N       -3.4900    -3.2390    -0.6770 N.2   1 <1>  -0.5650 
 13 C       -7.6410     0.3830     0.9500 C.2   1 <1>   0.0290 
 14 N       -4.7110    -4.8880     0.0370 N.2   1 <1>  -0.4100 
 15 C       -3.8430    -4.5080    -0.8100 C.2   1 <1>   0.3350 
 16 C       -8.5630     0.9190     1.9120 C.2   1 <1>   0.7060 
 17 C       -8.0030     0.5590    -0.4260 C.2   1 <1>   0.5410 
 18 C       -3.2370    -5.3790    -1.8840 C.3   1 <1>  -0.0590 
 19 O       -8.3700     0.8640     3.1120 O.2   1 <1>  -0.5700 
 20 O       -9.7030     1.5200     1.5270 O.3   1 <1>  -0.2270 
 21 O       -7.3100     0.1820    -1.3580 O.2   1 <1>  -0.5700 
 22 C       -9.2330     1.2120    -0.7280 C.2   1 <1>  -0.1360 
 23 C      -10.0410     1.6690     0.2420 C.2   1 <1>  -0.0620 
 24 C      -11.3670     2.3740     0.0330 C.3   1 <1>  -0.1020 
 25 H       -1.6280    -2.1790     0.8290 H     1 <1>   0.0800 
 26 H       -1.8650    -1.2760     2.2820 H     1 <1>   0.0800 
 27 H       -1.0720     0.1690    -1.4180 H     1 <1>   0.0800 
 28 H       -0.1330    -1.2950    -1.2680 H     1 <1>   0.0800 
 29 H        0.6560     0.2550    -1.2710 H     1 <1>   0.0800 
 30 H       -3.2920     0.3390     1.1250 H     1 <1>   0.0800 
 31 H       -3.0620    -0.4930    -0.3890 H     1 <1>   0.0800 
 32 H       -4.3640    -1.6890     2.0540 H     1 <1>   0.0800 
 33 H       -5.6780    -0.7720    -0.4600 H     1 <1>   0.4000 
 34 H       -6.3160    -0.3330     2.4330 H     1 <1>   0.1500 
 35 H       -3.4490    -4.9590    -2.8490 H     1 <1>   0.0800 
 36 H       -3.6510    -6.3690    -1.8320 H     1 <1>   0.0800 
 37 H       -2.1730    -5.4340    -1.7470 H     1 <1>   0.0800 
 38 H       -9.4640     1.3110    -1.7730 H     1 <1>   0.1500 
 39 H      -11.3310     3.3580     0.4670 H     1 <1>   0.0800 
 40 H      -12.1570     1.8180     0.5050 H     1 <1>   0.0800 
 41 H      -11.5890     2.4670    -1.0150 H     1 <1>   0.0800 
@<TRIPOS>BOND
  1   1   2  2   
  2   1   3  2   
  3   1   4  1   
  4   1   5  1   
  5   4   6  1   
  6   4  25  1   
  7   4  26  1   
  8   5  27  1   
  9   5  28  1   
 10   5  29  1   
 11   6   7  1   
 12   6  30  1   
 13   6  31  1   
 14   7   8  1   
 15   7   9  1   
 16   7  32  1   
 17   8  10  1   
 18   8  33  1   
 19   9  11  1   
 20   9  12  2   
 21  10  13  2   
 22  10  34  1   
 23  11  14  1   
 24  12  15  1   
 25  13  16  1   
 26  13  17  1   
 27  14  15  2   
 28  15  18  1   
 29  16  19  2   
 30  16  20  1   
 31  17  21  2   
 32  17  22  1   
 33  18  35  1   
 34  18  36  1   
 35  18  37  1   
 36  20  23  1   
 37  22  23  2   
 38  22  38  1   
 39  23  24  1   
 40  24  39  1   
 41  24  40  1   
 42  24  41  1   
@<TRIPOS>SUBSTRUCTURE
  1 ****   8 GROUP 4 **** **** 0

# MOE 2024.06 (io_trps.svl 2023.06)
