@<TRIPOS>MOLECULE
NONAME
50 54 1 0 0 
SMALL
USER_CHARGES


@<TRIPOS>ATOM
  1 O       -3.0000     2.2180     1.9870 O.2   1 <1>  -0.5700 
  2 C       -3.0250     1.9750     0.7950 C.2   1 <1>   0.5440 
  3 N       -4.0810     1.2550     0.2760 N.am  1 <1>  -0.6600 
  4 C       -1.9480     2.4410    -0.0480 C.ar  1 <1>   0.0860 
  5 C       -5.2740     0.8970     1.0930 C.3   1 <1>   0.1400 
  6 C       -4.0920     0.6560    -1.0890 C.3   1 <1>   0.1400 
  7 C       -0.6520     1.9330     0.0120 C.ar  1 <1>  -0.1440 
  8 C       -2.2040     3.4400    -0.9840 C.ar  1 <1>   0.1600 
  9 C       -5.3360    -0.6220     1.2460 C.3   1 <1>  -0.1600 
 10 C       -4.1380    -0.8670    -0.9590 C.3   1 <1>  -0.1600 
 11 C        0.2710     2.4550    -0.8700 C.ar  1 <1>  -0.1500 
 12 C       -0.2620     0.8490     1.0070 C.3   1 <1>  -0.0970 
 13 N       -1.3320     3.9440    -1.8430 N.ar  1 <1>  -0.6200 
 14 C       -5.3330    -1.3250    -0.1180 C.3   1 <1>   0.4600 
 15 C       -0.1120     3.4410    -1.7630 C.ar  1 <1>   0.1600 
 16 O       -6.4860    -0.9450    -0.8390 O.3   1 <1>  -0.5600 
 17 C       -5.3160    -2.8410     0.0440 C.2   1 <1>  -0.3320 
 18 C       -7.6930    -1.6140    -0.5610 C.3   1 <1>   0.1200 
 19 N       -4.3010    -3.5910     0.5710 N.pl3 1 <1>   0.0330 
 20 C       -6.3260    -3.6550    -0.3200 C.2   1 <1>  -0.1810 
 21 C       -7.5960    -3.1070    -0.9210 C.3   1 <1>   0.0210 
 22 C       -4.6810    -4.9100     0.5280 C.ar  1 <1>  -0.1520 
 23 C       -5.9540    -4.9840    -0.0330 C.ar  1 <1>   0.0000 
 24 C       -4.0120    -6.0660     0.9370 C.ar  1 <1>  -0.1500 
 25 C       -6.5700    -6.2290    -0.1910 C.ar  1 <1>  -0.1500 
 26 C       -4.6290    -7.2850     0.7760 C.ar  1 <1>  -0.1500 
 27 C       -5.9090    -7.3670     0.2120 C.ar  1 <1>  -0.1500 
 28 H       -6.1600     1.2540     0.5960 H     1 <1>   0.0800 
 29 H       -5.2280     1.3610     2.0640 H     1 <1>   0.0800 
 30 H       -3.2200     0.9400    -1.6510 H     1 <1>   0.0800 
 31 H       -4.9620     1.0050    -1.6200 H     1 <1>   0.0800 
 32 H       -3.2030     3.8400    -1.0200 H     1 <1>   0.1500 
 33 H       -6.2070    -0.9030     1.8060 H     1 <1>   0.0800 
 34 H       -4.4800    -0.9380     1.8130 H     1 <1>   0.0800 
 35 H       -3.2240    -1.2000    -0.5050 H     1 <1>   0.0800 
 36 H       -4.2020    -1.3170    -1.9330 H     1 <1>   0.0800 
 37 H        1.2880     2.1080    -0.8730 H     1 <1>   0.1500 
 38 H       -0.8960    -0.0110     0.8850 H     1 <1>   0.0800 
 39 H       -0.3750     1.2190     2.0110 H     1 <1>   0.0800 
 40 H        0.7590     0.5450     0.8670 H     1 <1>   0.0800 
 41 H        0.6230     3.8370    -2.4450 H     1 <1>   0.1500 
 42 H       -8.4690    -1.1430    -1.1370 H     1 <1>   0.0800 
 43 H       -7.9180    -1.4960     0.4840 H     1 <1>   0.0800 
 44 H       -3.4090    -3.2480     0.9380 H     1 <1>   0.2700 
 45 H       -7.5770    -3.2280    -1.9880 H     1 <1>   0.0800 
 46 H       -8.4480    -3.6300    -0.5280 H     1 <1>   0.0800 
 47 H       -3.0300    -5.9950     1.3690 H     1 <1>   0.1500 
 48 H       -7.5500    -6.2760    -0.6260 H     1 <1>   0.1500 
 49 H       -4.1350    -8.1900     1.0830 H     1 <1>   0.1500 
 50 H       -6.3690    -8.3320     0.0960 H     1 <1>   0.1500 
@<TRIPOS>BOND
  1   1   2  2   
  2   2   3  am  
  3   2   4  1   
  4   3   5  1   
  5   3   6  1   
  6   4   7  ar  
  7   4   8  ar  
  8   5   9  1   
  9   5  28  1   
 10   5  29  1   
 11   6  10  1   
 12   6  30  1   
 13   6  31  1   
 14   7  11  ar  
 15   7  12  1   
 16   8  13  ar  
 17   8  32  1   
 18   9  14  1   
 19   9  33  1   
 20   9  34  1   
 21  10  14  1   
 22  10  35  1   
 23  10  36  1   
 24  11  15  ar  
 25  11  37  1   
 26  12  38  1   
 27  12  39  1   
 28  12  40  1   
 29  13  15  ar  
 30  14  16  1   
 31  14  17  1   
 32  15  41  1   
 33  16  18  1   
 34  17  19  1   
 35  17  20  2   
 36  18  21  1   
 37  18  42  1   
 38  18  43  1   
 39  19  22  1   
 40  19  44  1   
 41  20  21  1   
 42  20  23  1   
 43  21  45  1   
 44  21  46  1   
 45  22  23  ar  
 46  22  24  ar  
 47  23  25  ar  
 48  24  26  ar  
 49  24  47  1   
 50  25  27  ar  
 51  25  48  1   
 52  26  27  ar  
 53  26  49  1   
 54  27  50  1   
@<TRIPOS>SUBSTRUCTURE
  1 ****  10 GROUP 4 **** **** 0

# MOE 2024.06 (io_trps.svl 2023.06)
