@<TRIPOS>MOLECULE
NONAME
50 52 1 0 0 
SMALL
USER_CHARGES


@<TRIPOS>ATOM
  1 O        0.6720     0.7690     1.6180 O.2   1 <1>  -0.5700 
  2 C        1.6740     0.4000     1.0460 C.2   1 <1>   0.7150 
  3 N        1.9270    -0.9310     1.1460 N.am  1 <1>  -0.7300 
  4 C        2.4820     1.3480     0.3360 C.2   1 <1>  -0.2370 
  5 C        3.1360    -1.7700     0.9200 C.3   1 <1>   0.1400 
  6 N        3.4560     1.0720    -0.5600 N.pl3 1 <1>   0.3140 
  7 C        2.4310     2.7030     0.3850 C.2   1 <1>  -0.1500 
  8 C        4.3220    -1.0690     0.2410 C.3   1 <1>   0.2000 
  9 N        4.0190     2.1730    -1.0620 N.2   1 <1>  -0.7070 
 10 C        3.9270    -0.2520    -0.9860 C.3   1 <1>   0.0960 
 11 C        3.3980     3.1950    -0.4890 C.2   1 <1>   0.2030 
 12 O        5.2300    -2.0450    -0.1510 O.3   1 <1>  -0.6800 
 13 C        3.6240     4.6310    -0.6930 C.2   1 <1>   0.7160 
 14 O        2.8140     5.4200    -0.2290 O.2   1 <1>  -0.5700 
 15 N        4.7130     5.1630    -1.3770 N.am  1 <1>  -0.6600 
 16 C        4.8070     6.6180    -1.6730 C.3   1 <1>   0.1400 
 17 C        5.8580     4.3420    -1.8580 C.3   1 <1>   0.0600 
 18 C        5.6380     7.3130    -0.5920 C.3   1 <1>  -0.1600 
 19 C        5.7600     8.8190    -0.8690 C.3   1 <1>  -0.1600 
 20 C        6.5370     9.5530     0.2350 C.3   1 <1>  -0.0800 
 21 C        6.6230    11.0570    -0.0110 C.3   1 <1>  -0.1600 
 22 C        8.0000     9.1300     0.3610 C.3   1 <1>  -0.1600 
 23 C        7.7910    11.5260     0.8560 C.3   1 <1>  -0.1600 
 24 C        8.7090    10.3110     1.0300 C.3   1 <1>  -0.1600 
 25 H        1.1890    -1.4040     1.6730 H     1 <1>   0.3700 
 26 H        2.8370    -2.6080     0.3150 H     1 <1>   0.0800 
 27 H        3.4680    -2.1500     1.8720 H     1 <1>   0.0800 
 28 H        1.7690     3.3100     0.9810 H     1 <1>   0.1500 
 29 H        4.8370    -0.4410     0.9500 H     1 <1>   0.0800 
 30 H        4.7840    -0.1060    -1.6190 H     1 <1>   0.0800 
 31 H        3.1460    -0.7350    -1.5430 H     1 <1>   0.0800 
 32 H        4.8610    -2.6310    -0.8410 H     1 <1>   0.4000 
 33 H        3.8210     7.0510    -1.7070 H     1 <1>   0.0800 
 34 H        5.2580     6.7600    -2.6400 H     1 <1>   0.0800 
 35 H        6.1830     3.6750    -1.0790 H     1 <1>   0.0800 
 36 H        6.6860     4.9690    -2.1370 H     1 <1>   0.0800 
 37 H        5.5530     3.7620    -2.7120 H     1 <1>   0.0800 
 38 H        6.6170     6.8710    -0.5570 H     1 <1>   0.0800 
 39 H        5.1590     7.1650     0.3610 H     1 <1>   0.0800 
 40 H        4.7720     9.2440    -0.9330 H     1 <1>   0.0800 
 41 H        6.2470     8.9730    -1.8170 H     1 <1>   0.0800 
 42 H        6.0500     9.3940     1.1840 H     1 <1>   0.0800 
 43 H        5.7060    11.5600     0.2420 H     1 <1>   0.0800 
 44 H        6.8550    11.2450    -1.0450 H     1 <1>   0.0800 
 45 H        8.4190     8.9770    -0.6190 H     1 <1>   0.0800 
 46 H        8.1080     8.2260     0.9350 H     1 <1>   0.0800 
 47 H        7.4220    11.8350     1.8190 H     1 <1>   0.0800 
 48 H        8.3070    12.3530     0.3990 H     1 <1>   0.0800 
 49 H        9.6700    10.4810     0.5740 H     1 <1>   0.0800 
 50 H        8.8520    10.1120     2.0780 H     1 <1>   0.0800 
@<TRIPOS>BOND
  1   1   2  2   
  2   2   3  am  
  3   2   4  1   
  4   3   5  1   
  5   3  25  1   
  6   4   6  1   
  7   4   7  2   
  8   5   8  1   
  9   5  26  1   
 10   5  27  1   
 11   6   9  1   
 12   6  10  1   
 13   7  11  1   
 14   7  28  1   
 15   8  10  1   
 16   8  12  1   
 17   8  29  1   
 18   9  11  2   
 19  10  30  1   
 20  10  31  1   
 21  11  13  1   
 22  12  32  1   
 23  13  14  2   
 24  13  15  am  
 25  15  16  1   
 26  15  17  1   
 27  16  18  1   
 28  16  33  1   
 29  16  34  1   
 30  17  35  1   
 31  17  36  1   
 32  17  37  1   
 33  18  19  1   
 34  18  38  1   
 35  18  39  1   
 36  19  20  1   
 37  19  40  1   
 38  19  41  1   
 39  20  21  1   
 40  20  22  1   
 41  20  42  1   
 42  21  23  1   
 43  21  43  1   
 44  21  44  1   
 45  22  24  1   
 46  22  45  1   
 47  22  46  1   
 48  23  24  1   
 49  23  47  1   
 50  23  48  1   
 51  24  49  1   
 52  24  50  1   
@<TRIPOS>SUBSTRUCTURE
  1 ****  13 GROUP 4 **** **** 0

# MOE 2024.06 (io_trps.svl 2023.06)
