@<TRIPOS>MOLECULE
NONAME
60 63 1 0 0 
SMALL
USER_CHARGES


@<TRIPOS>ATOM
  1 O       -1.4530    -0.3360     0.0870 O.2   1 <1>  -0.5700 
  2 C       -2.1470    -1.3340     0.0760 C.2   1 <1>   0.7160 
  3 N       -1.6580    -2.4900    -0.5060 N.am  1 <1>  -0.6600 
  4 C       -3.4630    -1.2860     0.6560 C.2   1 <1>  -0.0860 
  5 C       -0.2090    -2.6360    -0.9290 C.3   1 <1>   0.2200 
  6 C       -2.6370    -3.4490    -1.1140 C.3   1 <1>   0.1400 
  7 C       -4.4960    -0.4510     0.4190 C.2   1 <1>  -0.0400 
  8 C       -4.0050    -2.1140     1.6290 C.2   1 <1>   0.1080 
  9 C        0.1760    -4.1340    -1.1490 C.3   1 <1>   0.0000 
 10 C        0.7880    -1.8950     0.0060 C.3   1 <1>   0.3430 
 11 C       -2.0990    -4.0300    -2.4210 C.3   1 <1>  -0.1600 
 12 O       -5.5520    -0.7500     1.1360 O.3   1 <1>  -0.0190 
 13 C       -4.5850     0.7300    -0.5280 C.3   1 <1>  -0.0600 
 14 N       -5.2160    -1.7840     1.8740 N.2   1 <1>  -0.4100 
 15 C       -3.3040    -3.2470     2.3490 C.3   1 <1>  -0.0590 
 16 C        1.6690    -4.2470    -1.5990 C.3   1 <1>  -0.1600 
 17 C       -0.7320    -4.7240    -2.2720 C.3   1 <1>  -0.1600 
 18 C       -0.0520    -5.0010     0.1340 C.3   1 <1>   0.1200 
 19 N        2.1350    -2.5440     0.1140 N.4   1 <1>  -0.9590 
 20 C        2.5750    -3.0780    -1.1920 C.3   1 <1>   0.3430 
 21 O        0.8240    -4.7040     1.1770 O.3   1 <1>  -0.6800 
 22 C        3.1300    -1.6120     0.7470 C.3   1 <1>   0.4860 
 23 C        3.7730    -0.6320    -0.2420 C.ar  1 <1>   0.1670 
 24 N        2.9630     0.0930    -1.0040 N.ar  1 <1>  -0.6200 
 25 C        5.1570    -0.5520    -0.2990 C.ar  1 <1>  -0.1500 
 26 C        3.5540     0.9330    -1.8420 C.ar  1 <1>   0.1600 
 27 C        5.7550     0.3200    -1.1820 C.ar  1 <1>  -0.1500 
 28 C        4.9260     1.0840    -1.9740 C.ar  1 <1>  -0.1440 
 29 C        5.5160     2.0750    -2.9640 C.3   1 <1>  -0.0970 
 30 H       -0.1220    -2.1450    -1.8840 H     1 <1>   0.0800 
 31 H       -2.8490    -4.2440    -0.4220 H     1 <1>   0.0800 
 32 H       -3.5670    -2.9460    -1.3240 H     1 <1>   0.0800 
 33 H        0.3520    -1.8420     0.9890 H     1 <1>   0.0800 
 34 H        0.8940    -0.8860    -0.3580 H     1 <1>   0.0800 
 35 H       -2.8140    -4.7290    -2.8220 H     1 <1>   0.0800 
 36 H       -2.0170    -3.2260    -3.1330 H     1 <1>   0.0800 
 37 H       -3.6560     0.8740    -1.0480 H     1 <1>   0.0800 
 38 H       -4.8100     1.6220     0.0280 H     1 <1>   0.0800 
 39 H       -5.3660     0.5630    -1.2470 H     1 <1>   0.0800 
 40 H       -2.2390    -3.1110     2.3290 H     1 <1>   0.0800 
 41 H       -3.5570    -4.1830     1.8880 H     1 <1>   0.0800 
 42 H       -3.6280    -3.2720     3.3740 H     1 <1>   0.0800 
 43 H        1.7510    -4.3130    -2.6680 H     1 <1>   0.0800 
 44 H        2.0950    -5.1600    -1.2200 H     1 <1>   0.0800 
 45 H       -0.2590    -4.6520    -3.2360 H     1 <1>   0.0800 
 46 H       -0.8920    -5.7760    -2.1010 H     1 <1>   0.0800 
 47 H        0.0930    -6.0420    -0.1050 H     1 <1>   0.0800 
 48 H       -1.0510    -4.8870     0.5110 H     1 <1>   0.0800 
 49 H        1.9720    -3.3660     0.7280 H     1 <1>   0.4500 
 50 H        2.5150    -2.2940    -1.9310 H     1 <1>   0.0800 
 51 H        3.5980    -3.4130    -1.1400 H     1 <1>   0.0800 
 52 H        0.6680    -5.3250     1.9230 H     1 <1>   0.4000 
 53 H        2.6450    -1.0450     1.5250 H     1 <1>   0.0800 
 54 H        3.9130    -2.1920     1.2040 H     1 <1>   0.0800 
 55 H        5.7750    -1.1590     0.3380 H     1 <1>   0.1500 
 56 H        2.9090     1.5380    -2.4570 H     1 <1>   0.1500 
 57 H        6.8280     0.4040    -1.2460 H     1 <1>   0.1500 
 58 H        6.3960     1.6650    -3.4260 H     1 <1>   0.0800 
 59 H        5.7840     2.9840    -2.4550 H     1 <1>   0.0800 
 60 H        4.8070     2.3110    -3.7380 H     1 <1>   0.0800 
@<TRIPOS>BOND
  1   1   2  2   
  2   2   3  am  
  3   2   4  1   
  4   3   5  1   
  5   3   6  1   
  6   4   7  2   
  7   4   8  1   
  8   5   9  1   
  9   5  10  1   
 10   5  30  1   
 11   6  11  1   
 12   6  31  1   
 13   6  32  1   
 14   7  12  1   
 15   7  13  1   
 16   8  14  2   
 17   8  15  1   
 18   9  16  1   
 19   9  17  1   
 20   9  18  1   
 21  10  19  1   
 22  10  33  1   
 23  10  34  1   
 24  11  17  1   
 25  11  35  1   
 26  11  36  1   
 27  12  14  1   
 28  13  37  1   
 29  13  38  1   
 30  13  39  1   
 31  15  40  1   
 32  15  41  1   
 33  15  42  1   
 34  16  20  1   
 35  16  43  1   
 36  16  44  1   
 37  17  45  1   
 38  17  46  1   
 39  18  21  1   
 40  18  47  1   
 41  18  48  1   
 42  19  20  1   
 43  19  22  1   
 44  19  49  1   
 45  20  50  1   
 46  20  51  1   
 47  21  52  1   
 48  22  23  1   
 49  22  53  1   
 50  22  54  1   
 51  23  24  ar  
 52  23  25  ar  
 53  24  26  ar  
 54  25  27  ar  
 55  25  55  1   
 56  26  28  ar  
 57  26  56  1   
 58  27  28  ar  
 59  27  57  1   
 60  28  29  1   
 61  29  58  1   
 62  29  59  1   
 63  29  60  1   
@<TRIPOS>SUBSTRUCTURE
  1 ****  10 GROUP 4 **** **** 0

# MOE 2024.06 (io_trps.svl 2023.06)
