@<TRIPOS>MOLECULE
NONAME
52 54 1 0 0 
SMALL
USER_CHARGES


@<TRIPOS>ATOM
  1 S       -0.0980    -0.4220    -0.6540 S.3   1 <1>  -0.4600 
  2 C       -1.2680     0.6010     0.2940 C.3   1 <1>   0.2510 
  3 C       -1.1120    -1.9200    -0.8310 C.3   1 <1>   0.2510 
  4 C       -2.4780    -0.2940     0.4230 C.2   1 <1>   0.1080 
  5 C       -2.4040    -1.5510    -0.1390 C.2   1 <1>  -0.1810 
  6 N       -3.6150    -0.0610     0.9960 N.2   1 <1>  -0.7070 
  7 C       -3.5980    -2.1350     0.1170 C.2   1 <1>  -0.0880 
  8 N       -4.3200    -1.2050     0.8160 N.pl3 1 <1>   0.3140 
  9 N       -3.9900    -3.4360    -0.2900 N.am  1 <1>  -0.4940 
 10 C       -5.7100    -1.2700     1.2880 C.3   1 <1>   0.0160 
 11 C       -4.8070    -4.3530     0.3100 C.2   1 <1>   0.5690 
 12 O       -5.3800    -4.1520     1.3520 O.2   1 <1>  -0.5700 
 13 C       -4.9810    -5.6960    -0.3910 C.3   1 <1>  -0.0990 
 14 C       -5.9710    -6.6700     0.2940 C.3   1 <1>  -0.0800 
 15 C       -5.8600    -8.0830    -0.3100 C.3   1 <1>  -0.1600 
 16 C       -7.4300    -6.1540     0.3000 C.3   1 <1>  -0.1600 
 17 C       -7.0670    -8.9840    -0.0010 C.3   1 <1>   0.5030 
 18 C       -8.4290    -6.9130    -0.5910 C.3   1 <1>   0.5030 
 19 N       -8.3320    -8.3670    -0.4170 N.4   1 <1>  -0.9060 
 20 C       -6.9500   -10.2940    -0.7760 C.3   1 <1>  -0.2400 
 21 C       -7.1770    -9.2960     1.4920 C.3   1 <1>  -0.2400 
 22 C       -8.2340    -6.5920    -2.0750 C.3   1 <1>  -0.2400 
 23 C       -9.8570    -6.5350    -0.2010 C.3   1 <1>  -0.2400 
 24 H       -1.4820     1.4910    -0.2680 H     1 <1>   0.0800 
 25 H       -0.8310     0.8270     1.2490 H     1 <1>   0.0800 
 26 H       -0.6010    -2.7280    -0.3390 H     1 <1>   0.0800 
 27 H       -1.2440    -2.1100    -1.8810 H     1 <1>   0.0800 
 28 H       -3.5040    -3.7690    -1.1210 H     1 <1>   0.3700 
 29 H       -6.0940    -0.2730     1.3920 H     1 <1>   0.0800 
 30 H       -5.7310    -1.7640     2.2400 H     1 <1>   0.0800 
 31 H       -6.3040    -1.8120     0.5780 H     1 <1>   0.0800 
 32 H       -4.0110    -6.1590    -0.4270 H     1 <1>   0.0800 
 33 H       -5.2960    -5.5130    -1.4020 H     1 <1>   0.0800 
 34 H       -5.6610    -6.7440     1.3250 H     1 <1>   0.0800 
 35 H       -4.9680    -8.5490     0.0720 H     1 <1>   0.0800 
 36 H       -5.7280    -8.0230    -1.3750 H     1 <1>   0.0800 
 37 H       -7.4590    -5.1110     0.0360 H     1 <1>   0.0800 
 38 H       -7.7830    -6.1940     1.3160 H     1 <1>   0.0800 
 39 H       -9.0310    -8.6370     0.2760 H     1 <1>   0.4500 
 40 H       -8.6140    -8.7980    -1.2980 H     1 <1>   0.4500 
 41 H       -6.8930   -10.1150    -1.8350 H     1 <1>   0.0800 
 42 H       -7.7810   -10.9460    -0.5710 H     1 <1>   0.0800 
 43 H       -6.0520   -10.8110    -0.4850 H     1 <1>   0.0800 
 44 H       -7.3230    -8.4070     2.0780 H     1 <1>   0.0800 
 45 H       -6.2690    -9.7620     1.8340 H     1 <1>   0.0800 
 46 H       -7.9850    -9.9790     1.6890 H     1 <1>   0.0800 
 47 H       -7.2530    -6.8480    -2.4230 H     1 <1>   0.0800 
 48 H       -8.3630    -5.5350    -2.2350 H     1 <1>   0.0800 
 49 H       -8.9620    -7.1010    -2.6810 H     1 <1>   0.0800 
 50 H      -10.0530    -6.7680     0.8310 H     1 <1>   0.0800 
 51 H      -10.5790    -7.0390    -0.8200 H     1 <1>   0.0800 
 52 H      -10.0010    -5.4760    -0.3280 H     1 <1>   0.0800 
@<TRIPOS>BOND
  1   1   2  1   
  2   1   3  1   
  3   2   4  1   
  4   2  24  1   
  5   2  25  1   
  6   3   5  1   
  7   3  26  1   
  8   3  27  1   
  9   4   5  1   
 10   4   6  2   
 11   5   7  2   
 12   6   8  1   
 13   7   8  1   
 14   7   9  1   
 15   8  10  1   
 16   9  11  am  
 17   9  28  1   
 18  10  29  1   
 19  10  30  1   
 20  10  31  1   
 21  11  12  2   
 22  11  13  1   
 23  13  14  1   
 24  13  32  1   
 25  13  33  1   
 26  14  15  1   
 27  14  16  1   
 28  14  34  1   
 29  15  17  1   
 30  15  35  1   
 31  15  36  1   
 32  16  18  1   
 33  16  37  1   
 34  16  38  1   
 35  17  19  1   
 36  17  20  1   
 37  17  21  1   
 38  18  19  1   
 39  18  22  1   
 40  18  23  1   
 41  19  39  1   
 42  19  40  1   
 43  20  41  1   
 44  20  42  1   
 45  20  43  1   
 46  21  44  1   
 47  21  45  1   
 48  21  46  1   
 49  22  47  1   
 50  22  48  1   
 51  22  49  1   
 52  23  50  1   
 53  23  51  1   
 54  23  52  1   
@<TRIPOS>SUBSTRUCTURE
  1 ****  11 GROUP 4 **** **** 0

# MOE 2024.06 (io_trps.svl 2023.06)
