@<TRIPOS>MOLECULE
NONAME
49 52 1 0 0 
SMALL
USER_CHARGES


@<TRIPOS>ATOM
  1 O       -1.2960     0.6070     2.1000 O.2   1 <1>  -0.5700 
  2 C       -2.1990     1.1230     1.4620 C.2   1 <1>   0.7150 
  3 N       -3.4160     0.4670     1.3910 N.am  1 <1>  -0.6600 
  4 C       -1.9850     2.4040     0.8170 C.2   1 <1>   0.0550 
  5 C       -4.4020     0.6680     0.2930 C.3   1 <1>   0.1400 
  6 C       -3.7490    -0.6690     2.2970 C.3   1 <1>   0.1400 
  7 O       -0.8270     2.6910     0.2270 O.3   1 <1>  -0.2800 
  8 C       -2.8050     3.4850     0.6850 C.2   1 <1>  -0.1500 
  9 C       -4.5030    -0.6110    -0.5410 C.3   1 <1>  -0.1600 
 10 C       -3.8460    -1.9630     1.4860 C.3   1 <1>  -0.1600 
 11 C       -0.8830     3.9050    -0.2730 C.2   1 <1>  -0.0400 
 12 C       -2.0920     4.4540    -0.0210 C.2   1 <1>  -0.1500 
 13 C       -4.8430    -1.8430     0.3210 C.3   1 <1>   0.4240 
 14 C        0.3410     4.4460    -0.9920 C.3   1 <1>   0.3000 
 15 O       -6.0730    -1.5630     0.9560 O.3   1 <1>  -0.5600 
 16 C       -4.9120    -3.1570    -0.5110 C.ar  1 <1>  -0.1430 
 17 O       -0.0040     5.5830    -1.7050 O.3   1 <1>  -0.6800 
 18 C       -7.2430    -1.8320     0.2560 C.3   1 <1>   0.1200 
 19 C       -3.7970    -3.6710    -1.1880 C.ar  1 <1>   0.0830 
 20 C       -6.1120    -3.8620    -0.5980 C.ar  1 <1>  -0.1430 
 21 C       -7.3570    -3.3390     0.0890 C.3   1 <1>  -0.0170 
 22 O       -2.6230    -2.9880    -1.1370 O.3   1 <1>  -0.3630 
 23 C       -3.8980    -4.8600    -1.9080 C.ar  1 <1>  -0.1500 
 24 C       -6.2000    -5.0450    -1.3130 C.ar  1 <1>  -0.1500 
 25 C       -1.4020    -3.5350    -1.5810 C.3   1 <1>   0.0400 
 26 C       -5.0940    -5.5450    -1.9670 C.ar  1 <1>  -0.1500 
 27 H       -4.1070     1.4760    -0.3500 H     1 <1>   0.0800 
 28 H       -5.3610     0.9070     0.7210 H     1 <1>   0.0800 
 29 H       -4.6890    -0.4670     2.7810 H     1 <1>   0.0800 
 30 H       -3.0010    -0.7780     3.0650 H     1 <1>   0.0800 
 31 H       -3.8080     3.5960     1.0570 H     1 <1>   0.1500 
 32 H       -3.5590    -0.7510    -1.0300 H     1 <1>   0.0800 
 33 H       -5.2360    -0.4920    -1.3150 H     1 <1>   0.0800 
 34 H       -4.1490    -2.7710     2.1250 H     1 <1>   0.0800 
 35 H       -2.8620    -2.1930     1.1300 H     1 <1>   0.0800 
 36 H       -2.4510     5.4330    -0.2880 H     1 <1>   0.1500 
 37 H        0.7190     3.7160    -1.6860 H     1 <1>   0.0800 
 38 H        1.1120     4.7040    -0.2870 H     1 <1>   0.0800 
 39 H       -0.7600     5.3770    -2.2860 H     1 <1>   0.4000 
 40 H       -7.2140    -1.3340    -0.6970 H     1 <1>   0.0800 
 41 H       -8.0680    -1.4520     0.8320 H     1 <1>   0.0800 
 42 H       -8.2300    -3.5650    -0.4950 H     1 <1>   0.0800 
 43 H       -7.4630    -3.8020     1.0540 H     1 <1>   0.0800 
 44 H       -3.0580    -5.2690    -2.4340 H     1 <1>   0.1500 
 45 H       -7.1320    -5.5810    -1.3650 H     1 <1>   0.1500 
 46 H       -0.6180    -2.8420    -1.3320 H     1 <1>   0.0800 
 47 H       -1.4460    -3.6690    -2.6470 H     1 <1>   0.0800 
 48 H       -1.2350    -4.4710    -1.0780 H     1 <1>   0.0800 
 49 H       -5.1650    -6.4640    -2.5220 H     1 <1>   0.1500 
@<TRIPOS>BOND
  1   1   2  2   
  2   2   3  am  
  3   2   4  1   
  4   3   5  1   
  5   3   6  1   
  6   4   7  1   
  7   4   8  2   
  8   5   9  1   
  9   5  27  1   
 10   5  28  1   
 11   6  10  1   
 12   6  29  1   
 13   6  30  1   
 14   7  11  1   
 15   8  12  1   
 16   8  31  1   
 17   9  13  1   
 18   9  32  1   
 19   9  33  1   
 20  10  13  1   
 21  10  34  1   
 22  10  35  1   
 23  11  12  2   
 24  11  14  1   
 25  12  36  1   
 26  13  15  1   
 27  13  16  1   
 28  14  17  1   
 29  14  37  1   
 30  14  38  1   
 31  15  18  1   
 32  16  19  ar  
 33  16  20  ar  
 34  17  39  1   
 35  18  21  1   
 36  18  40  1   
 37  18  41  1   
 38  19  22  1   
 39  19  23  ar  
 40  20  21  1   
 41  20  24  ar  
 42  21  42  1   
 43  21  43  1   
 44  22  25  1   
 45  23  26  ar  
 46  23  44  1   
 47  24  26  ar  
 48  24  45  1   
 49  25  46  1   
 50  25  47  1   
 51  25  48  1   
 52  26  49  1   
@<TRIPOS>SUBSTRUCTURE
  1 ****   9 GROUP 4 **** **** 0

# MOE 2024.06 (io_trps.svl 2023.06)
