@<TRIPOS>MOLECULE
NONAME
38 39 1 0 0 
SMALL
USER_CHARGES


@<TRIPOS>ATOM
  1 CL      -1.8480    -0.9660     3.2100 Cl    1 <1>  -0.1770 
  2 C       -2.2870    -1.3270     1.5560 C.ar  1 <1>   0.1770 
  3 C       -2.6580    -0.3180     0.6730 C.ar  1 <1>   0.0830 
  4 C       -2.2680    -2.6500     1.1550 C.ar  1 <1>  -0.1500 
  5 O       -2.7030     0.9810     1.0370 O.3   1 <1>  -0.3630 
  6 C       -3.0240    -0.6550    -0.6210 C.ar  1 <1>  -0.1500 
  7 C       -2.6380    -2.9860    -0.1420 C.ar  1 <1>  -0.1430 
  8 C       -1.4710     1.6620     1.1270 C.3   1 <1>   0.0400 
  9 C       -3.0110    -1.9800    -1.0260 C.ar  1 <1>  -0.1500 
 10 C       -2.6470    -4.4380    -0.5860 C.3   1 <1>   0.4870 
 11 N       -3.7630    -5.1390     0.0900 N.4   1 <1>  -0.9590 
 12 C       -3.6710    -6.6380    -0.1070 C.3   1 <1>   0.3430 
 13 C       -5.0960    -4.6040    -0.3270 C.3   1 <1>   0.3430 
 14 C       -5.0290    -7.3640    -0.0360 C.3   1 <1>   0.2000 
 15 C       -6.1810    -5.1700     0.5930 C.3   1 <1>  -0.1600 
 16 O       -5.6100    -7.3200    -1.2920 O.3   1 <1>  -0.6800 
 17 C       -5.9660    -6.6640     0.9530 C.3   1 <1>  -0.1860 
 18 C       -7.2660    -7.4290     1.0430 C.2   1 <1>   0.9060 
 19 O       -7.6410    -7.8060     2.1500 O.co2 1 <1>  -0.9000 
 20 O       -7.8700    -7.6600    -0.0110 O.co2 1 <1>  -0.9000 
 21 H       -1.9660    -3.3960     1.8680 H     1 <1>   0.1500 
 22 H       -3.3170     0.1270    -1.3010 H     1 <1>   0.1500 
 23 H       -1.6730     2.6870     1.3840 H     1 <1>   0.0800 
 24 H       -0.9740     1.6120     0.1750 H     1 <1>   0.0800 
 25 H       -0.8670     1.2080     1.8910 H     1 <1>   0.0800 
 26 H       -3.2980    -2.2130    -2.0390 H     1 <1>   0.1500 
 27 H       -1.7080    -4.8950    -0.3200 H     1 <1>   0.0800 
 28 H       -2.7670    -4.4990    -1.6550 H     1 <1>   0.0800 
 29 H       -3.7050    -4.9480     1.0960 H     1 <1>   0.4500 
 30 H       -3.2350    -6.8640    -1.0650 H     1 <1>   0.0800 
 31 H       -3.0290    -7.0480     0.6540 H     1 <1>   0.0800 
 32 H       -5.1130    -3.5270    -0.2810 H     1 <1>   0.0800 
 33 H       -5.3020    -4.9070    -1.3420 H     1 <1>   0.0800 
 34 H       -4.9010    -8.4020     0.2220 H     1 <1>   0.0800 
 35 H       -6.2480    -4.5880     1.4950 H     1 <1>   0.0800 
 36 H       -7.1240    -5.0600     0.0830 H     1 <1>   0.0800 
 37 H       -6.5820    -7.5470    -1.1490 H     1 <1>   0.4000 
 38 H       -5.5140    -6.7170     1.9260 H     1 <1>   0.0800 
@<TRIPOS>BOND
  1   1   2  1   
  2   2   3  ar  
  3   2   4  ar  
  4   3   5  1   
  5   3   6  ar  
  6   4   7  ar  
  7   4  21  1   
  8   5   8  1   
  9   6   9  ar  
 10   6  22  1   
 11   7   9  ar  
 12   7  10  1   
 13   8  23  1   
 14   8  24  1   
 15   8  25  1   
 16   9  26  1   
 17  10  11  1   
 18  10  27  1   
 19  10  28  1   
 20  11  12  1   
 21  11  13  1   
 22  11  29  1   
 23  12  14  1   
 24  12  30  1   
 25  12  31  1   
 26  13  15  1   
 27  13  32  1   
 28  13  33  1   
 29  14  16  1   
 30  14  17  1   
 31  14  34  1   
 32  15  17  1   
 33  15  35  1   
 34  15  36  1   
 35  16  37  1   
 36  17  18  1   
 37  17  38  1   
 38  18  19  ar  
 39  18  20  ar  
@<TRIPOS>SUBSTRUCTURE
  1 ****  11 GROUP 4 **** **** 0

# MOE 2024.06 (io_trps.svl 2023.06)
