@<TRIPOS>MOLECULE
NONAME
52 54 1 0 0 
SMALL
USER_CHARGES


@<TRIPOS>ATOM
  1 S       -0.6920     0.1310     0.1440 S.o2  1 <1>   1.2040 
  2 O       -0.6300     0.7850    -1.1440 O.2   1 <1>  -0.6500 
  3 O       -1.7390     0.4710     1.0790 O.2   1 <1>  -0.6500 
  4 C       -0.6600    -1.6660    -0.0920 C.ar  1 <1>  -0.0090 
  5 C        0.8630     0.4290     0.9610 C.3   1 <1>  -0.1350 
  6 C       -0.2650    -2.2270    -1.3010 C.ar  1 <1>  -0.1500 
  7 C       -1.0050    -2.5330     0.9370 C.ar  1 <1>  -0.1500 
  8 C       -0.2180    -3.5990    -1.4790 C.ar  1 <1>  -0.1500 
  9 C       -0.9570    -3.9060     0.7720 C.ar  1 <1>  -0.1500 
 10 C       -0.5650    -4.4510    -0.4420 C.ar  1 <1>  -0.1430 
 11 C       -0.5200    -5.9580    -0.6470 C.3   1 <1>   0.4860 
 12 N       -1.8460    -6.5620    -0.3540 N.4   1 <1>  -0.9590 
 13 C       -1.8880    -8.0720    -0.4290 C.3   1 <1>   0.3430 
 14 C       -3.0100    -5.8950    -0.9940 C.3   1 <1>   0.3430 
 15 C       -3.3320    -8.6810    -0.3040 C.3   1 <1>   0.4230 
 16 C       -4.3200    -6.3780    -0.3380 C.3   1 <1>  -0.1600 
 17 N       -3.3740   -10.0500     0.3320 N.4   1 <1>  -0.9590 
 18 C       -4.2220    -7.7040     0.4890 C.3   1 <1>  -0.1060 
 19 C       -4.7480   -10.6220     0.3700 C.3   1 <1>   0.3430 
 20 C       -2.3780   -11.0510    -0.1480 C.3   1 <1>   0.2630 
 21 C       -3.4780    -7.5010     1.8250 C.2   1 <1>   0.9060 
 22 C       -5.6560    -8.2650     0.6840 C.3   1 <1>  -0.1600 
 23 C       -5.6620    -9.7140     1.1920 C.3   1 <1>  -0.1600 
 24 O       -2.9810    -6.3980     2.0630 O.co2 1 <1>  -0.9000 
 25 O       -3.1250    -8.5020     2.4550 O.co2 1 <1>  -0.9000 
 26 H        1.6790     0.1090     0.3420 H     1 <1>   0.0800 
 27 H        0.9050    -0.1000     1.8930 H     1 <1>   0.0800 
 28 H        0.9760     1.4770     1.1590 H     1 <1>   0.0800 
 29 H        0.0060    -1.5770    -2.1180 H     1 <1>   0.1500 
 30 H       -1.3250    -2.1310     1.8850 H     1 <1>   0.1500 
 31 H        0.0940    -3.9860    -2.4350 H     1 <1>   0.1500 
 32 H       -1.2360    -4.5370     1.6040 H     1 <1>   0.1500 
 33 H        0.2240    -6.3770     0.0110 H     1 <1>   0.0800 
 34 H       -0.2360    -6.1730    -1.6640 H     1 <1>   0.0800 
 35 H       -2.0110    -6.3310     0.6650 H     1 <1>   0.4500 
 36 H       -1.4550    -8.3990    -1.3580 H     1 <1>   0.0800 
 37 H       -1.2940    -8.4590     0.3830 H     1 <1>   0.0800 
 38 H       -2.9390    -4.8240    -0.8780 H     1 <1>   0.0800 
 39 H       -3.0220    -6.1170    -2.0480 H     1 <1>   0.0800 
 40 H       -3.7370    -8.7640    -1.2970 H     1 <1>   0.0800 
 41 H       -4.6810    -5.5940     0.3080 H     1 <1>   0.0800 
 42 H       -5.0500    -6.4730    -1.1220 H     1 <1>   0.0800 
 43 H       -3.1680    -9.8230     1.3460 H     1 <1>   0.4500 
 44 H       -5.1340   -10.7210    -0.6320 H     1 <1>   0.0800 
 45 H       -4.7260   -11.5990     0.8250 H     1 <1>   0.0800 
 46 H       -2.5420   -11.2790    -1.1880 H     1 <1>   0.0800 
 47 H       -2.4700   -11.9620     0.4230 H     1 <1>   0.0800 
 48 H       -1.3750   -10.6790    -0.0200 H     1 <1>   0.0800 
 49 H       -6.1930    -7.6420     1.3810 H     1 <1>   0.0800 
 50 H       -6.1910    -8.2400    -0.2500 H     1 <1>   0.0800 
 51 H       -6.6660   -10.1000     1.1550 H     1 <1>   0.0800 
 52 H       -5.3550    -9.7450     2.2240 H     1 <1>   0.0800 
@<TRIPOS>BOND
  1   1   2  2   
  2   1   3  2   
  3   1   4  1   
  4   1   5  1   
  5   4   6  ar  
  6   4   7  ar  
  7   5  26  1   
  8   5  27  1   
  9   5  28  1   
 10   6   8  ar  
 11   6  29  1   
 12   7   9  ar  
 13   7  30  1   
 14   8  10  ar  
 15   8  31  1   
 16   9  10  ar  
 17   9  32  1   
 18  10  11  1   
 19  11  12  1   
 20  11  33  1   
 21  11  34  1   
 22  12  13  1   
 23  12  14  1   
 24  12  35  1   
 25  13  15  1   
 26  13  36  1   
 27  13  37  1   
 28  14  16  1   
 29  14  38  1   
 30  14  39  1   
 31  15  17  1   
 32  15  18  1   
 33  15  40  1   
 34  16  18  1   
 35  16  41  1   
 36  16  42  1   
 37  17  19  1   
 38  17  20  1   
 39  17  43  1   
 40  18  21  1   
 41  18  22  1   
 42  19  23  1   
 43  19  44  1   
 44  19  45  1   
 45  20  46  1   
 46  20  47  1   
 47  20  48  1   
 48  21  24  ar  
 49  21  25  ar  
 50  22  23  1   
 51  22  49  1   
 52  22  50  1   
 53  23  51  1   
 54  23  52  1   
@<TRIPOS>SUBSTRUCTURE
  1 ****  12 GROUP 4 **** **** 0

# MOE 2024.06 (io_trps.svl 2023.06)
