@<TRIPOS>MOLECULE
NONAME
56 58 1 0 0 
SMALL
USER_CHARGES


@<TRIPOS>ATOM
  1 O       -0.2730     0.5280    -0.6600 O.3   1 <1>  -0.5600 
  2 C       -0.2620     1.5960    -1.5460 C.3   1 <1>   0.1200 
  3 C       -1.5420     0.4280    -0.0820 C.3   1 <1>   0.1200 
  4 C       -1.0420     2.6660    -0.7900 C.3   1 <1>   0.4230 
  5 C       -2.1740     1.8270    -0.2030 C.3   1 <1>  -0.0800 
  6 N       -0.1990     3.1640     0.3300 N.4   1 <1>  -0.9060 
  7 C       -3.4150     1.8250    -1.1180 C.3   1 <1>  -0.0170 
  8 C        0.8710     4.1030    -0.0560 C.3   1 <1>   0.4230 
  9 C       -4.5360     0.9960    -0.5140 C.ar  1 <1>  -0.1430 
 10 C        1.8440     4.2230     1.1160 C.3   1 <1>  -0.1600 
 11 C        0.2680     5.4680    -0.3990 C.3   1 <1>  -0.1600 
 12 C       -4.8370    -0.2730    -0.9680 C.ar  1 <1>  -0.1500 
 13 C       -5.3160     1.4710     0.5220 C.ar  1 <1>  -0.1500 
 14 C        3.0160     5.1660     0.7900 C.3   1 <1>   0.0000 
 15 C        1.3520     6.4810    -0.8100 C.3   1 <1>   0.0000 
 16 C       -5.8630    -0.9890    -0.3740 C.ar  1 <1>   0.1600 
 17 C       -6.3210     0.6740     1.0450 C.ar  1 <1>   0.1600 
 18 C        2.4880     6.5180     0.2450 C.3   1 <1>  -0.1600 
 19 C        4.0000     4.4870    -0.1810 C.3   1 <1>  -0.2400 
 20 C        3.7970     5.4430     2.0860 C.3   1 <1>  -0.2400 
 21 C        1.8770     6.1640    -2.2230 C.3   1 <1>  -0.2400 
 22 C        0.7160     7.8790    -0.8800 C.3   1 <1>  -0.2400 
 23 N       -6.6080    -0.5460     0.6240 N.ar  1 <1>  -0.6200 
 24 H        0.7530     1.8700    -1.7730 H     1 <1>   0.0800 
 25 H       -0.7680     1.2940    -2.4480 H     1 <1>   0.0800 
 26 H       -2.0950    -0.3260    -0.6160 H     1 <1>   0.0800 
 27 H       -1.4260     0.1200     0.9440 H     1 <1>   0.0800 
 28 H       -1.3920     3.4670    -1.4210 H     1 <1>   0.0800 
 29 H       -2.4750     2.1870     0.7650 H     1 <1>   0.0800 
 30 H       -0.7720     3.5880     1.0640 H     1 <1>   0.4500 
 31 H        0.2390     2.3190     0.7270 H     1 <1>   0.4500 
 32 H       -3.1700     1.4360    -2.0920 H     1 <1>   0.0800 
 33 H       -3.7720     2.8320    -1.2540 H     1 <1>   0.0800 
 34 H        1.4040     3.7190    -0.9110 H     1 <1>   0.0800 
 35 H        1.3180     4.6100     1.9720 H     1 <1>   0.0800 
 36 H        2.2370     3.2540     1.3710 H     1 <1>   0.0800 
 37 H       -0.4400     5.3810    -1.2030 H     1 <1>   0.0800 
 38 H       -0.2480     5.8490     0.4650 H     1 <1>   0.0800 
 39 H       -4.2900    -0.7200    -1.7790 H     1 <1>   0.1500 
 40 H       -5.1620     2.4530     0.9300 H     1 <1>   0.1500 
 41 H       -6.0840    -1.9780    -0.7400 H     1 <1>   0.1500 
 42 H       -6.9210     1.0590     1.8530 H     1 <1>   0.1500 
 43 H        3.3120     7.0980    -0.1350 H     1 <1>   0.0800 
 44 H        2.1100     7.0680     1.0900 H     1 <1>   0.0800 
 45 H        4.7610     5.1830    -0.4890 H     1 <1>   0.0800 
 46 H        3.5240     4.1020    -1.0590 H     1 <1>   0.0800 
 47 H        4.4920     3.6590     0.3000 H     1 <1>   0.0800 
 48 H        4.6300     6.0960     1.8900 H     1 <1>   0.0800 
 49 H        4.1810     4.5300     2.5080 H     1 <1>   0.0800 
 50 H        3.1730     5.9140     2.8250 H     1 <1>   0.0800 
 51 H        2.7070     6.8070    -2.4650 H     1 <1>   0.0800 
 52 H        1.1100     6.3350    -2.9580 H     1 <1>   0.0800 
 53 H        2.1980     5.1500    -2.3330 H     1 <1>   0.0800 
 54 H        1.4490     8.6120    -1.1710 H     1 <1>   0.0800 
 55 H        0.3150     8.1740     0.0750 H     1 <1>   0.0800 
 56 H       -0.0840     7.9050    -1.5990 H     1 <1>   0.0800 
@<TRIPOS>BOND
  1   1   2  1   
  2   1   3  1   
  3   2   4  1   
  4   2  24  1   
  5   2  25  1   
  6   3   5  1   
  7   3  26  1   
  8   3  27  1   
  9   4   5  1   
 10   4   6  1   
 11   4  28  1   
 12   5   7  1   
 13   5  29  1   
 14   6   8  1   
 15   6  30  1   
 16   6  31  1   
 17   7   9  1   
 18   7  32  1   
 19   7  33  1   
 20   8  10  1   
 21   8  11  1   
 22   8  34  1   
 23   9  12  ar  
 24   9  13  ar  
 25  10  14  1   
 26  10  35  1   
 27  10  36  1   
 28  11  15  1   
 29  11  37  1   
 30  11  38  1   
 31  12  16  ar  
 32  12  39  1   
 33  13  17  ar  
 34  13  40  1   
 35  14  18  1   
 36  14  19  1   
 37  14  20  1   
 38  15  18  1   
 39  15  21  1   
 40  15  22  1   
 41  16  23  ar  
 42  16  41  1   
 43  17  23  ar  
 44  17  42  1   
 45  18  43  1   
 46  18  44  1   
 47  19  45  1   
 48  19  46  1   
 49  19  47  1   
 50  20  48  1   
 51  20  49  1   
 52  20  50  1   
 53  21  51  1   
 54  21  52  1   
 55  21  53  1   
 56  22  54  1   
 57  22  55  1   
 58  22  56  1   
@<TRIPOS>SUBSTRUCTURE
  1 ****   4 GROUP 4 **** **** 0

# MOE 2024.06 (io_trps.svl 2023.06)
