@<TRIPOS>MOLECULE
NONAME
55 59 1 0 0 
SMALL
USER_CHARGES


@<TRIPOS>ATOM
  1 S       -0.4870    -0.1540    -1.1430 S.o2  1 <1>   1.3330 
  2 O       -0.1700    -1.5550    -1.3060 O.2   1 <1>  -0.6500 
  3 O       -0.9100     0.5930    -2.3060 O.2   1 <1>  -0.6500 
  4 N       -1.6960    -0.0030     0.0430 N.am  1 <1>  -0.8490 
  5 C        0.9360     0.6680    -0.4130 C.3   1 <1>  -0.0550 
  6 C       -3.0660     0.0290    -0.4750 C.3   1 <1>   0.1960 
  7 C       -1.5870    -0.8550     1.2350 C.3   1 <1>   0.1960 
  8 C        0.6850     2.1020     0.0920 C.3   1 <1>  -0.0800 
  9 C       -3.5290    -1.3740    -0.8640 C.3   1 <1>  -0.1600 
 10 C       -2.0750    -2.2870     0.9880 C.3   1 <1>  -0.1600 
 11 C        0.4080     3.1190    -1.0150 C.3   1 <1>  -0.1600 
 12 C        1.8990     2.6820     0.8130 C.3   1 <1>  -0.1600 
 13 C       -3.4570    -2.3240     0.3350 C.3   1 <1>   0.4600 
 14 C        0.8260     4.4780    -0.4460 C.3   1 <1>  -0.1600 
 15 C        1.6610     4.1900     0.8060 C.3   1 <1>  -0.1600 
 16 O       -4.3660    -1.8890     1.3250 O.3   1 <1>  -0.5600 
 17 C       -3.7960    -3.7470    -0.0800 C.2   1 <1>  -0.3320 
 18 C       -5.7160    -2.2710     1.1990 C.3   1 <1>   0.1200 
 19 N       -3.0660    -4.5320    -0.9290 N.pl3 1 <1>   0.0330 
 20 C       -4.8790    -4.4290     0.3420 C.2   1 <1>  -0.1810 
 21 C       -5.8760    -3.7990     1.2810 C.3   1 <1>   0.0210 
 22 C       -3.7050    -5.7440    -1.0370 C.ar  1 <1>  -0.1520 
 23 C       -4.8500    -5.7120    -0.2440 C.ar  1 <1>   0.0000 
 24 C       -3.3740    -6.8850    -1.7710 C.ar  1 <1>  -0.1500 
 25 C       -5.6790    -6.8360    -0.1810 C.ar  1 <1>  -0.1500 
 26 C       -4.1990    -7.9840    -1.7000 C.ar  1 <1>  -0.1500 
 27 C       -5.3520    -7.9600    -0.9040 C.ar  1 <1>  -0.1500 
 28 H        1.7300     0.6860    -1.1340 H     1 <1>   0.0800 
 29 H        1.2750     0.0800     0.4160 H     1 <1>   0.0800 
 30 H       -3.1320     0.6900    -1.3230 H     1 <1>   0.0800 
 31 H       -3.7190     0.4210     0.2880 H     1 <1>   0.0800 
 32 H       -2.1910    -0.4220     2.0160 H     1 <1>   0.0800 
 33 H       -0.5700    -0.8730     1.5850 H     1 <1>   0.0800 
 34 H       -0.1470     2.1070     0.7770 H     1 <1>   0.0800 
 35 H       -2.9070    -1.7430    -1.6570 H     1 <1>   0.0800 
 36 H       -4.5310    -1.3380    -1.2450 H     1 <1>   0.0800 
 37 H       -2.1210    -2.8180     1.9210 H     1 <1>   0.0800 
 38 H       -1.3680    -2.8090     0.3770 H     1 <1>   0.0800 
 39 H       -0.6280     3.1150    -1.3090 H     1 <1>   0.0800 
 40 H        1.0130     2.8980    -1.8790 H     1 <1>   0.0800 
 41 H        2.7960     2.4650     0.2570 H     1 <1>   0.0800 
 42 H        2.0000     2.2980     1.8140 H     1 <1>   0.0800 
 43 H       -0.0420     5.0580    -0.1830 H     1 <1>   0.0800 
 44 H        1.4010     5.0260    -1.1740 H     1 <1>   0.0800 
 45 H        2.5890     4.7360     0.8020 H     1 <1>   0.0800 
 46 H        1.0970     4.4680     1.6800 H     1 <1>   0.0800 
 47 H       -6.0880    -1.9080     0.2580 H     1 <1>   0.0800 
 48 H       -6.2660    -1.7980     1.9930 H     1 <1>   0.0800 
 49 H       -2.1930    -4.2730    -1.4020 H     1 <1>   0.2700 
 50 H       -6.8760    -4.0750     0.9980 H     1 <1>   0.0800 
 51 H       -5.6950    -4.1360     2.2850 H     1 <1>   0.0800 
 52 H       -2.4870    -6.8940    -2.3790 H     1 <1>   0.1500 
 53 H       -6.5580    -6.8020     0.4340 H     1 <1>   0.1500 
 54 H       -3.9650    -8.8740    -2.2560 H     1 <1>   0.1500 
 55 H       -5.9790    -8.8320    -0.8660 H     1 <1>   0.1500 
@<TRIPOS>BOND
  1   1   2  2   
  2   1   3  2   
  3   1   4  am  
  4   1   5  1   
  5   4   6  1   
  6   4   7  1   
  7   5   8  1   
  8   5  28  1   
  9   5  29  1   
 10   6   9  1   
 11   6  30  1   
 12   6  31  1   
 13   7  10  1   
 14   7  32  1   
 15   7  33  1   
 16   8  11  1   
 17   8  12  1   
 18   8  34  1   
 19   9  13  1   
 20   9  35  1   
 21   9  36  1   
 22  10  13  1   
 23  10  37  1   
 24  10  38  1   
 25  11  14  1   
 26  11  39  1   
 27  11  40  1   
 28  12  15  1   
 29  12  41  1   
 30  12  42  1   
 31  13  16  1   
 32  13  17  1   
 33  14  15  1   
 34  14  43  1   
 35  14  44  1   
 36  15  45  1   
 37  15  46  1   
 38  16  18  1   
 39  17  19  1   
 40  17  20  2   
 41  18  21  1   
 42  18  47  1   
 43  18  48  1   
 44  19  22  1   
 45  19  49  1   
 46  20  21  1   
 47  20  23  1   
 48  21  50  1   
 49  21  51  1   
 50  22  23  ar  
 51  22  24  ar  
 52  23  25  ar  
 53  24  26  ar  
 54  24  52  1   
 55  25  27  ar  
 56  25  53  1   
 57  26  27  ar  
 58  26  54  1   
 59  27  55  1   
@<TRIPOS>SUBSTRUCTURE
  1 ****  13 GROUP 4 **** **** 0

# MOE 2024.06 (io_trps.svl 2023.06)
