@<TRIPOS>MOLECULE
NONAME
45 47 1 0 0 
SMALL
USER_CHARGES


@<TRIPOS>ATOM
  1 CL       1.1920     2.4150     2.9520 Cl    1 <1>  -0.1770 
  2 C        0.6700     2.4160     1.2830 C.ar  1 <1>   0.1770 
  3 C        1.5540     2.1250     0.2490 C.ar  1 <1>  -0.1440 
  4 C       -0.6620     2.6980     1.0380 C.ar  1 <1>  -0.1500 
  5 C        1.0520     2.0950    -1.0490 C.ar  1 <1>  -0.1500 
  6 C        3.0310     1.8330     0.5130 C.3   1 <1>   0.3640 
  7 C       -1.1400     2.6810    -0.2590 C.ar  1 <1>  -0.1500 
  8 C       -0.2810     2.3740    -1.3010 C.ar  1 <1>  -0.1500 
  9 N        3.2830     0.4350     0.0870 N.am  1 <1>  -0.7300 
 10 C        3.9700     2.8290    -0.2290 C.3   1 <1>   0.2610 
 11 C        4.3800     0.0440    -0.5970 C.2   1 <1>   0.5690 
 12 O        5.2900     2.3090    -0.3110 O.3   1 <1>  -0.5600 
 13 C        3.9720     4.2290     0.4140 C.2   1 <1>   0.5690 
 14 O        4.5370    -1.1110    -0.8970 O.2   1 <1>  -0.5700 
 15 C        5.4100     1.0940    -1.0210 C.3   1 <1>   0.1810 
 16 O        3.3440     4.3990     1.4350 O.2   1 <1>  -0.5700 
 17 N        4.6500     5.2770    -0.1670 N.am  1 <1>  -0.6600 
 18 C        4.7430     6.6060     0.5360 C.3   1 <1>   0.3210 
 19 C        5.4470     5.1720    -1.4240 C.3   1 <1>   0.0600 
 20 C        6.1800     7.0660     0.7880 C.2   1 <1>   0.3350 
 21 N        6.8150     6.9140     1.8830 N.2   1 <1>  -0.4100 
 22 N        6.8890     7.6940    -0.1470 N.2   1 <1>  -0.5650 
 23 O        7.9930     7.4340     1.7200 O.3   1 <1>  -0.0190 
 24 C        7.9750     7.8820     0.4890 C.2   1 <1>   0.2980 
 25 C        9.2120     8.5710    -0.0570 C.3   1 <1>   0.0200 
 26 C       10.3890     7.5990    -0.2150 C.3   1 <1>  -0.2400 
 27 H       -1.3160     2.9270     1.8610 H     1 <1>   0.1500 
 28 H        1.6930     1.8470    -1.8770 H     1 <1>   0.1500 
 29 H        3.2490     1.8970     1.5640 H     1 <1>   0.0800 
 30 H       -2.1750     2.9000    -0.4570 H     1 <1>   0.1500 
 31 H       -0.6550     2.3500    -2.3110 H     1 <1>   0.1500 
 32 H        2.6120    -0.2730     0.3880 H     1 <1>   0.3700 
 33 H        3.6150     2.9460    -1.2340 H     1 <1>   0.0800 
 34 H        5.2990     1.3010    -2.0690 H     1 <1>   0.0800 
 35 H        6.3990     0.7110    -0.8460 H     1 <1>   0.0800 
 36 H        4.2460     7.3490    -0.0600 H     1 <1>   0.0800 
 37 H        4.2410     6.5680     1.4860 H     1 <1>   0.0800 
 38 H        5.4020     6.1010    -1.9680 H     1 <1>   0.0800 
 39 H        5.0760     4.3900    -2.0600 H     1 <1>   0.0800 
 40 H        6.4750     4.9640    -1.1800 H     1 <1>   0.0800 
 41 H        8.9750     9.0020    -1.0140 H     1 <1>   0.0800 
 42 H        9.4860     9.3690     0.6090 H     1 <1>   0.0800 
 43 H       10.1210     6.8010    -0.8850 H     1 <1>   0.0800 
 44 H       10.6540     7.1750     0.7370 H     1 <1>   0.0800 
 45 H       11.2440     8.1140    -0.6150 H     1 <1>   0.0800 
@<TRIPOS>BOND
  1   1   2  1   
  2   2   3  ar  
  3   2   4  ar  
  4   3   5  ar  
  5   3   6  1   
  6   4   7  ar  
  7   4  27  1   
  8   5   8  ar  
  9   5  28  1   
 10   6   9  1   
 11   6  10  1   
 12   6  29  1   
 13   7   8  ar  
 14   7  30  1   
 15   8  31  1   
 16   9  11  am  
 17   9  32  1   
 18  10  12  1   
 19  10  13  1   
 20  10  33  1   
 21  11  14  2   
 22  11  15  1   
 23  12  15  1   
 24  13  16  2   
 25  13  17  am  
 26  15  34  1   
 27  15  35  1   
 28  17  18  1   
 29  17  19  1   
 30  18  20  1   
 31  18  36  1   
 32  18  37  1   
 33  19  38  1   
 34  19  39  1   
 35  19  40  1   
 36  20  21  2   
 37  20  22  1   
 38  21  23  1   
 39  22  24  2   
 40  23  24  1   
 41  24  25  1   
 42  25  26  1   
 43  25  41  1   
 44  25  42  1   
 45  26  43  1   
 46  26  44  1   
 47  26  45  1   
@<TRIPOS>SUBSTRUCTURE
  1 ****  13 GROUP 4 **** **** 0

# MOE 2024.06 (io_trps.svl 2023.06)
