@<TRIPOS>MOLECULE
NONAME
56 59 1 0 0 
SMALL
USER_CHARGES


@<TRIPOS>ATOM
  1 S       -0.5690    -0.1170    -1.2390 S.o2  1 <1>   1.4470 
  2 O       -1.9810    -0.2430    -1.5280 O.2   1 <1>  -0.6500 
  3 O        0.3850    -0.2050    -2.3240 O.2   1 <1>  -0.6500 
  4 N       -0.3420     1.4050    -0.5220 N.am  1 <1>  -0.8490 
  5 C       -0.1270    -1.2760     0.0860 C.ar  1 <1>  -0.0090 
  6 C       -0.9790     2.4620    -1.3150 C.3   1 <1>   0.1960 
  7 C        1.0770     1.6960    -0.2900 C.3   1 <1>   0.1960 
  8 C        0.8180    -2.2760    -0.1140 C.ar  1 <1>  -0.1500 
  9 C       -0.7270    -1.1900     1.3380 C.ar  1 <1>  -0.1500 
 10 C       -0.8980     3.7970    -0.5730 C.3   1 <1>  -0.1600 
 11 C        1.2220     2.9970     0.4970 C.3   1 <1>  -0.1600 
 12 C        1.1570    -3.1580     0.8990 C.ar  1 <1>  -0.1500 
 13 C       -0.3950    -2.0670     2.3560 C.ar  1 <1>  -0.1500 
 14 C        0.5530     4.1420    -0.2570 C.3   1 <1>   0.2890 
 15 C        0.5490    -3.0520     2.1370 C.ar  1 <1>  -0.1500 
 16 N        0.5870     5.3580     0.5760 N.pl3 1 <1>  -0.8690 
 17 C        1.6220     6.2550     0.5940 C.ar  1 <1>   0.4100 
 18 N        2.6070     6.0860    -0.2800 N.ar  1 <1>  -0.6200 
 19 C        1.6120     7.2930     1.5220 C.ar  1 <1>  -0.1500 
 20 C        3.5950     6.9630    -0.2250 C.ar  1 <1>   0.1600 
 21 C        2.6450     8.1980     1.5590 C.ar  1 <1>  -0.1500 
 22 C        3.6850     8.0450     0.6460 C.ar  1 <1>   0.0860 
 23 C        4.8190     8.9370     0.5880 C.2   1 <1>   0.5440 
 24 O        5.9290     8.4700     0.4170 O.2   1 <1>  -0.5700 
 25 N        4.6880    10.3060     0.7080 N.am  1 <1>  -0.6600 
 26 C        3.4630    11.0610     0.3040 C.3   1 <1>   0.1400 
 27 C        5.8670    11.1930     0.9510 C.3   1 <1>   0.1400 
 28 C        3.7880    12.0680    -0.8140 C.3   1 <1>   0.1200 
 29 C        6.0510    12.1790    -0.2120 C.3   1 <1>   0.1200 
 30 O        4.8650    12.8840    -0.4510 O.3   1 <1>  -0.5600 
 31 H       -2.0170     2.2230    -1.4770 H     1 <1>   0.0800 
 32 H       -0.4980     2.5380    -2.2780 H     1 <1>   0.0800 
 33 H        1.5980     1.7780    -1.2320 H     1 <1>   0.0800 
 34 H        1.5280     0.8960     0.2740 H     1 <1>   0.0800 
 35 H        1.2960    -2.3670    -1.0760 H     1 <1>   0.1500 
 36 H       -1.4640    -0.4240     1.5130 H     1 <1>   0.1500 
 37 H       -1.4700     3.7220     0.3340 H     1 <1>   0.0800 
 38 H       -1.3220     4.5700    -1.1870 H     1 <1>   0.0800 
 39 H        2.2650     3.2200     0.6260 H     1 <1>   0.0800 
 40 H        0.7730     2.8730     1.4660 H     1 <1>   0.0800 
 41 H        1.8910    -3.9260     0.7230 H     1 <1>   0.1500 
 42 H       -0.8720    -1.9830     3.3180 H     1 <1>   0.1500 
 43 H        1.0790     4.3160    -1.1820 H     1 <1>   0.0800 
 44 H        0.8090    -3.7370     2.9260 H     1 <1>   0.1500 
 45 H       -0.0310     5.3270     1.3860 H     1 <1>   0.4000 
 46 H        0.7890     7.3740     2.2050 H     1 <1>   0.1500 
 47 H        4.4050     6.8230    -0.9230 H     1 <1>   0.1500 
 48 H        2.6630     9.0010     2.2750 H     1 <1>   0.1500 
 49 H        3.0770    11.5920     1.1560 H     1 <1>   0.0800 
 50 H        2.7000    10.3900    -0.0480 H     1 <1>   0.0800 
 51 H        6.7650    10.6130     1.0730 H     1 <1>   0.0800 
 52 H        5.7100    11.7460     1.8600 H     1 <1>   0.0800 
 53 H        2.9420    12.7050    -0.9990 H     1 <1>   0.0800 
 54 H        4.0390    11.5530    -1.7250 H     1 <1>   0.0800 
 55 H        6.3320    11.6550    -1.1090 H     1 <1>   0.0800 
 56 H        6.8180    12.8950     0.0260 H     1 <1>   0.0800 
@<TRIPOS>BOND
  1   1   2  2   
  2   1   3  2   
  3   1   4  am  
  4   1   5  1   
  5   4   6  1   
  6   4   7  1   
  7   5   8  ar  
  8   5   9  ar  
  9   6  10  1   
 10   6  31  1   
 11   6  32  1   
 12   7  11  1   
 13   7  33  1   
 14   7  34  1   
 15   8  12  ar  
 16   8  35  1   
 17   9  13  ar  
 18   9  36  1   
 19  10  14  1   
 20  10  37  1   
 21  10  38  1   
 22  11  14  1   
 23  11  39  1   
 24  11  40  1   
 25  12  15  ar  
 26  12  41  1   
 27  13  15  ar  
 28  13  42  1   
 29  14  16  1   
 30  14  43  1   
 31  15  44  1   
 32  16  17  1   
 33  16  45  1   
 34  17  18  ar  
 35  17  19  ar  
 36  18  20  ar  
 37  19  21  ar  
 38  19  46  1   
 39  20  22  ar  
 40  20  47  1   
 41  21  22  ar  
 42  21  48  1   
 43  22  23  1   
 44  23  24  2   
 45  23  25  am  
 46  25  26  1   
 47  25  27  1   
 48  26  28  1   
 49  26  49  1   
 50  26  50  1   
 51  27  29  1   
 52  27  51  1   
 53  27  52  1   
 54  28  30  1   
 55  28  53  1   
 56  28  54  1   
 57  29  30  1   
 58  29  55  1   
 59  29  56  1   
@<TRIPOS>SUBSTRUCTURE
  1 ****  14 GROUP 4 **** **** 0

# MOE 2024.06 (io_trps.svl 2023.06)
