@<TRIPOS>MOLECULE
NONAME
55 57 1 0 0 
SMALL
USER_CHARGES


@<TRIPOS>ATOM
  1 O       -2.2310     0.5390     2.1790 O.2   1 <1>  -0.5700 
  2 C       -2.1750     1.0950     1.1100 C.2   1 <1>   0.5690 
  3 N       -2.2540     0.4110    -0.0730 N.am  1 <1>  -0.6600 
  4 C       -1.9840     2.6010     1.1320 C.3   1 <1>  -0.0990 
  5 C       -2.3260    -1.0930    -0.0630 C.3   1 <1>   0.3640 
  6 C       -2.3290     1.0720    -1.4160 C.3   1 <1>   0.1400 
  7 C       -0.4940     2.9590     1.0960 C.3   1 <1>  -0.0170 
  8 C       -0.9350    -1.7350    -0.1910 C.ar  1 <1>  -0.1440 
  9 C       -3.2950    -1.6600    -1.1500 C.3   1 <1>   0.2000 
 10 C       -2.4890     0.0630    -2.5610 C.3   1 <1>   0.1200 
 11 C       -0.3110     4.4650     1.0140 C.ar  1 <1>  -0.1440 
 12 C       -0.8030    -3.0680     0.1800 C.ar  1 <1>  -0.1500 
 13 C        0.1950    -1.0630    -0.6480 C.ar  1 <1>  -0.1500 
 14 O       -3.5260    -0.8110    -2.2520 O.3   1 <1>  -0.5600 
 15 C       -4.6700    -1.9870    -0.5540 C.3   1 <1>   0.1200 
 16 C       -0.1010     5.0810    -0.2110 C.ar  1 <1>  -0.1500 
 17 C       -0.3550     5.2370     2.1650 C.ar  1 <1>  -0.1500 
 18 C        0.4140    -3.7180     0.0820 C.ar  1 <1>  -0.1500 
 19 C        1.4140    -1.7110    -0.7470 C.ar  1 <1>  -0.1500 
 20 O       -4.5830    -3.1080     0.2670 O.3   1 <1>  -0.6800 
 21 C        0.0670     6.4540    -0.2930 C.ar  1 <1>   0.0820 
 22 C       -0.2040     6.6110     2.0920 C.ar  1 <1>  -0.1500 
 23 C        1.5250    -3.0400    -0.3850 C.ar  1 <1>  -0.1500 
 24 O        0.3070     6.9780    -1.5210 O.3   1 <1>  -0.3620 
 25 C       -0.0110     7.2310     0.8690 C.ar  1 <1>   0.0820 
 26 C        1.5590     7.6030    -1.7030 C.3   1 <1>   0.0400 
 27 O        0.0870     8.5830     0.8610 O.3   1 <1>  -0.3630 
 28 C       -0.9600     9.2790     0.2210 C.3   1 <1>   0.0400 
 29 H       -2.5000     3.0650     0.3140 H     1 <1>   0.0800 
 30 H       -2.4150     2.9850     2.0380 H     1 <1>   0.0800 
 31 H       -2.7040    -1.4090     0.8940 H     1 <1>   0.0800 
 32 H       -3.1780     1.7330    -1.4330 H     1 <1>   0.0800 
 33 H       -1.4440     1.6590    -1.5820 H     1 <1>   0.0800 
 34 H       -0.0240     2.4900     0.2500 H     1 <1>   0.0800 
 35 H       -0.0130     2.5810     1.9820 H     1 <1>   0.0800 
 36 H       -2.8830    -2.5680    -1.5530 H     1 <1>   0.0800 
 37 H       -1.5880    -0.5030    -2.7240 H     1 <1>   0.0800 
 38 H       -2.7460     0.5730    -3.4730 H     1 <1>   0.0800 
 39 H       -1.6550    -3.6090     0.5550 H     1 <1>   0.1500 
 40 H        0.1460    -0.0280    -0.9260 H     1 <1>   0.1500 
 41 H       -5.3820    -2.1990    -1.3330 H     1 <1>   0.0800 
 42 H       -5.0210    -1.1620     0.0420 H     1 <1>   0.0800 
 43 H       -0.0570     4.5040    -1.1160 H     1 <1>   0.1500 
 44 H       -0.5090     4.7710     3.1230 H     1 <1>   0.1500 
 45 H        0.4980    -4.7510     0.3730 H     1 <1>   0.1500 
 46 H        2.2790    -1.1790    -1.1030 H     1 <1>   0.1500 
 47 H       -4.5780    -3.9270    -0.2660 H     1 <1>   0.4000 
 48 H       -0.2430     7.2110     2.9830 H     1 <1>   0.1500 
 49 H        2.4730    -3.5440    -0.4620 H     1 <1>   0.1500 
 50 H        1.6680     7.8410    -2.7460 H     1 <1>   0.0800 
 51 H        2.3350     6.9240    -1.3960 H     1 <1>   0.0800 
 52 H        1.5990     8.5030    -1.1180 H     1 <1>   0.0800 
 53 H       -0.8090    10.3320     0.3780 H     1 <1>   0.0800 
 54 H       -1.8960     8.9710     0.6520 H     1 <1>   0.0800 
 55 H       -0.9430     9.0590    -0.8310 H     1 <1>   0.0800 
@<TRIPOS>BOND
  1   1   2  2   
  2   2   3  am  
  3   2   4  1   
  4   3   5  1   
  5   3   6  1   
  6   4   7  1   
  7   4  29  1   
  8   4  30  1   
  9   5   8  1   
 10   5   9  1   
 11   5  31  1   
 12   6  10  1   
 13   6  32  1   
 14   6  33  1   
 15   7  11  1   
 16   7  34  1   
 17   7  35  1   
 18   8  12  ar  
 19   8  13  ar  
 20   9  14  1   
 21   9  15  1   
 22   9  36  1   
 23  10  14  1   
 24  10  37  1   
 25  10  38  1   
 26  11  16  ar  
 27  11  17  ar  
 28  12  18  ar  
 29  12  39  1   
 30  13  19  ar  
 31  13  40  1   
 32  15  20  1   
 33  15  41  1   
 34  15  42  1   
 35  16  21  ar  
 36  16  43  1   
 37  17  22  ar  
 38  17  44  1   
 39  18  23  ar  
 40  18  45  1   
 41  19  23  ar  
 42  19  46  1   
 43  20  47  1   
 44  21  24  1   
 45  21  25  ar  
 46  22  25  ar  
 47  22  48  1   
 48  23  49  1   
 49  24  26  1   
 50  25  27  1   
 51  26  50  1   
 52  26  51  1   
 53  26  52  1   
 54  27  28  1   
 55  28  53  1   
 56  28  54  1   
 57  28  55  1   
@<TRIPOS>SUBSTRUCTURE
  1 ****   4 GROUP 4 **** **** 0

# MOE 2024.06 (io_trps.svl 2023.06)
