@<TRIPOS>MOLECULE
NONAME
48 50 1 0 0 
SMALL
USER_CHARGES


@<TRIPOS>ATOM
  1 S        2.3280    -1.1300     1.2360 S.3   1 <1>  -0.4600 
  2 C        1.4530    -0.2100     2.5530 C.3   1 <1>   0.1310 
  3 C        1.2760    -0.9160    -0.2290 C.3   1 <1>   0.1650 
  4 C        1.1770     1.2450     2.1810 C.2   1 <1>   0.5690 
  5 C        2.0400    -0.0520    -1.2350 C.3   1 <1>  -0.1950 
  6 O        0.0180     1.5540     2.0330 O.2   1 <1>  -0.5700 
  7 N        2.1880     2.1670     2.0480 N.am  1 <1>  -0.6600 
  8 C        1.8340     1.4300    -1.3040 C.3   1 <1>  -0.2000 
  9 C        1.3360     0.5480    -2.4120 C.3   1 <1>  -0.2000 
 10 C        1.8530     3.5890     1.6700 C.3   1 <1>   0.2810 
 11 C        3.6330     1.7710     1.9810 C.3   1 <1>   0.1400 
 12 C        2.9340     4.2860     0.8210 C.2   1 <1>   0.5690 
 13 C        1.5620     4.3710     2.9570 C.3   1 <1>  -0.2400 
 14 C        4.5960     2.9640     2.0700 C.3   1 <1>   0.1400 
 15 O        2.5770     5.0800    -0.0190 O.2   1 <1>  -0.5700 
 16 N        4.2630     3.9960     1.0550 N.am  1 <1>  -0.4770 
 17 C        5.3350     4.5600     0.3410 C.ar  1 <1>   0.1170 
 18 C        5.4060     4.4500    -1.0410 C.ar  1 <1>  -0.1500 
 19 C        6.3570     5.2240     1.0100 C.ar  1 <1>  -0.1500 
 20 C        6.4750     4.9750    -1.7470 C.ar  1 <1>   0.0820 
 21 C        7.4290     5.7560     0.3160 C.ar  1 <1>  -0.1500 
 22 O        6.4590     4.8100    -3.0940 O.3   1 <1>  -0.3620 
 23 C        7.4930     5.6320    -1.0610 C.ar  1 <1>  -0.1500 
 24 C        7.4460     5.3940    -3.9150 C.3   1 <1>   0.0400 
 25 H        2.0590    -0.2650     3.4370 H     1 <1>   0.0800 
 26 H        0.5260    -0.7260     2.7270 H     1 <1>   0.0800 
 27 H        0.3480    -0.4640     0.0740 H     1 <1>   0.0800 
 28 H        1.0940    -1.8980    -0.6280 H     1 <1>   0.0800 
 29 H        3.0310    -0.4290    -1.4190 H     1 <1>   0.1000 
 30 H        2.6820     2.0660    -1.4890 H     1 <1>   0.1000 
 31 H        1.0950     1.9010    -0.6800 H     1 <1>   0.1000 
 32 H        0.2730     0.4170    -2.5180 H     1 <1>   0.1000 
 33 H        1.8440     0.5830    -3.3600 H     1 <1>   0.1000 
 34 H        0.9550     3.5860     1.0760 H     1 <1>   0.0800 
 35 H        3.8110     1.2660     1.0470 H     1 <1>   0.0800 
 36 H        3.8590     1.0830     2.7770 H     1 <1>   0.0800 
 37 H        2.4280     4.4020     3.5910 H     1 <1>   0.0800 
 38 H        0.7430     3.9180     3.4870 H     1 <1>   0.0800 
 39 H        1.2850     5.3790     2.7070 H     1 <1>   0.0800 
 40 H        5.6000     2.6120     1.9080 H     1 <1>   0.0800 
 41 H        4.5490     3.4000     3.0520 H     1 <1>   0.0800 
 42 H        4.6190     3.9540    -1.5770 H     1 <1>   0.1500 
 43 H        6.3090     5.3300     2.0780 H     1 <1>   0.1500 
 44 H        8.2130     6.2690     0.8460 H     1 <1>   0.1500 
 45 H        8.3350     6.0510    -1.5780 H     1 <1>   0.1500 
 46 H        7.2070     5.1640    -4.9370 H     1 <1>   0.0800 
 47 H        8.4030     4.9760    -3.6600 H     1 <1>   0.0800 
 48 H        7.4360     6.4590    -3.7670 H     1 <1>   0.0800 
@<TRIPOS>BOND
  1   1   2  1   
  2   1   3  1   
  3   2   4  1   
  4   2  25  1   
  5   2  26  1   
  6   3   5  1   
  7   3  27  1   
  8   3  28  1   
  9   4   6  2   
 10   4   7  am  
 11   5   8  1   
 12   5   9  1   
 13   5  29  1   
 14   7  10  1   
 15   7  11  1   
 16   8   9  1   
 17   8  30  1   
 18   8  31  1   
 19   9  32  1   
 20   9  33  1   
 21  10  12  1   
 22  10  13  1   
 23  10  34  1   
 24  11  14  1   
 25  11  35  1   
 26  11  36  1   
 27  12  15  2   
 28  12  16  am  
 29  13  37  1   
 30  13  38  1   
 31  13  39  1   
 32  14  16  1   
 33  14  40  1   
 34  14  41  1   
 35  16  17  1   
 36  17  18  ar  
 37  17  19  ar  
 38  18  20  ar  
 39  18  42  1   
 40  19  21  ar  
 41  19  43  1   
 42  20  22  1   
 43  20  23  ar  
 44  21  23  ar  
 45  21  44  1   
 46  22  24  1   
 47  23  45  1   
 48  24  46  1   
 49  24  47  1   
 50  24  48  1   
@<TRIPOS>SUBSTRUCTURE
  1 ****  16 GROUP 4 **** **** 0

# MOE 2024.06 (io_trps.svl 2023.06)
