@<TRIPOS>MOLECULE
NONAME
49 51 1 0 0 
SMALL
USER_CHARGES


@<TRIPOS>ATOM
  1 O       -0.4550     0.3420    -0.3630 O.2   1 <1>  -0.5700 
  2 C       -0.1690     1.4880    -0.6250 C.2   1 <1>   0.5690 
  3 N       -0.9630     2.5320    -0.2050 N.am  1 <1>  -0.6600 
  4 C        1.0820     1.7170    -1.4690 C.3   1 <1>   0.0440 
  5 C       -2.0510     2.2940     0.7900 C.3   1 <1>   0.1400 
  6 C       -0.9340     3.9140    -0.7780 C.3   1 <1>   0.1400 
  7 C        2.3680     1.2780    -0.7660 C.ar  1 <1>  -0.1440 
  8 C       -3.4400     2.4700     0.1370 C.3   1 <1>   0.0000 
  9 C       -2.2890     4.6290    -0.6320 C.3   1 <1>  -0.1600 
 10 C        3.0330     2.0830     0.1560 C.ar  1 <1>  -0.1430 
 11 C        2.8840     0.0260    -1.0690 C.ar  1 <1>  -0.1500 
 12 C       -4.5110     2.6010     1.2370 C.3   1 <1>   0.2000 
 13 C       -3.4510     3.6550    -0.8810 C.3   1 <1>  -0.1600 
 14 C       -3.9100     1.1880    -0.5690 C.3   1 <1>  -0.1600 
 15 C        4.2050     1.6250     0.7380 C.ar  1 <1>  -0.1500 
 16 C        2.5090     3.4530     0.5590 C.3   1 <1>  -0.0970 
 17 C        4.0520    -0.4300    -0.4840 C.ar  1 <1>  -0.1430 
 18 O       -4.6190     3.8910     1.7250 O.3   1 <1>  -0.6800 
 19 C       -5.8300     2.1470     0.6090 C.3   1 <1>  -0.1600 
 20 C       -5.4400     1.2820    -0.5980 C.3   1 <1>  -0.1600 
 21 C        4.7140     0.3800     0.4210 C.ar  1 <1>  -0.1500 
 22 C        4.5940    -1.8040    -0.8330 C.3   1 <1>  -0.0970 
 23 H        0.9620     1.1510    -2.3740 H     1 <1>   0.0800 
 24 H        1.1800     2.7400    -1.7640 H     1 <1>   0.0800 
 25 H       -1.9630     1.3150     1.2300 H     1 <1>   0.0800 
 26 H       -1.9380     3.0070     1.5880 H     1 <1>   0.0800 
 27 H       -0.1660     4.4920    -0.2950 H     1 <1>   0.0800 
 28 H       -0.7060     3.8490    -1.8280 H     1 <1>   0.0800 
 29 H       -2.3680     5.0490     0.3560 H     1 <1>   0.0800 
 30 H       -2.3350     5.4450    -1.3320 H     1 <1>   0.0800 
 31 H        2.3660    -0.6090    -1.7660 H     1 <1>   0.1500 
 32 H       -4.2710     1.9540     2.0640 H     1 <1>   0.0800 
 33 H       -3.3310     3.2730    -1.8800 H     1 <1>   0.0800 
 34 H       -4.3890     4.1790    -0.8670 H     1 <1>   0.0800 
 35 H       -3.4840     1.0650    -1.5500 H     1 <1>   0.0800 
 36 H       -3.6290     0.3290     0.0180 H     1 <1>   0.0800 
 37 H        4.7320     2.2350     1.4500 H     1 <1>   0.1500 
 38 H        3.1630     3.9210     1.2730 H     1 <1>   0.0800 
 39 H        1.5400     3.3520     1.0130 H     1 <1>   0.0800 
 40 H        2.4390     4.0940    -0.3000 H     1 <1>   0.0800 
 41 H       -4.8120     4.4990     0.9890 H     1 <1>   0.4000 
 42 H       -6.3950     1.5730     1.3220 H     1 <1>   0.0800 
 43 H       -6.4180     2.9860     0.2810 H     1 <1>   0.0800 
 44 H       -5.8890     0.3040    -0.5500 H     1 <1>   0.0800 
 45 H       -5.7560     1.7650    -1.5060 H     1 <1>   0.0800 
 46 H        5.6250     0.0450     0.8840 H     1 <1>   0.1500 
 47 H        5.2470    -2.1620    -0.0590 H     1 <1>   0.0800 
 48 H        5.1420    -1.7540    -1.7560 H     1 <1>   0.0800 
 49 H        3.7850    -2.5030    -0.9450 H     1 <1>   0.0800 
@<TRIPOS>BOND
  1   1   2  2   
  2   2   3  am  
  3   2   4  1   
  4   3   5  1   
  5   3   6  1   
  6   4   7  1   
  7   4  23  1   
  8   4  24  1   
  9   5   8  1   
 10   5  25  1   
 11   5  26  1   
 12   6   9  1   
 13   6  27  1   
 14   6  28  1   
 15   7  10  ar  
 16   7  11  ar  
 17   8  12  1   
 18   8  13  1   
 19   8  14  1   
 20   9  13  1   
 21   9  29  1   
 22   9  30  1   
 23  10  15  ar  
 24  10  16  1   
 25  11  17  ar  
 26  11  31  1   
 27  12  18  1   
 28  12  19  1   
 29  12  32  1   
 30  13  33  1   
 31  13  34  1   
 32  14  20  1   
 33  14  35  1   
 34  14  36  1   
 35  15  21  ar  
 36  15  37  1   
 37  16  38  1   
 38  16  39  1   
 39  16  40  1   
 40  17  21  ar  
 41  17  22  1   
 42  18  41  1   
 43  19  20  1   
 44  19  42  1   
 45  19  43  1   
 46  20  44  1   
 47  20  45  1   
 48  21  46  1   
 49  22  47  1   
 50  22  48  1   
 51  22  49  1   
@<TRIPOS>SUBSTRUCTURE
  1 ****   2 GROUP 4 **** **** 0

# MOE 2024.06 (io_trps.svl 2023.06)
