@<TRIPOS>MOLECULE
NONAME
54 57 1 0 0 
SMALL
USER_CHARGES


@<TRIPOS>ATOM
  1 O       -2.4780    -0.0640     2.3620 O.2   1 <1>  -0.5700 
  2 C       -2.1010    -1.0730     1.8040 C.2   1 <1>   0.6900 
  3 N       -2.5560    -1.5480     0.6080 N.am  1 <1>  -0.4770 
  4 N       -1.1910    -1.9000     2.3420 N.am  1 <1>  -0.7300 
  5 C       -3.5290    -0.9900    -0.2310 C.ar  1 <1>   0.1170 
  6 C       -1.9420    -2.8680     0.3310 C.3   1 <1>   0.1400 
  7 C       -1.0430    -3.1320     1.5520 C.3   1 <1>   0.1400 
  8 C       -3.3020     0.1870    -0.9470 C.ar  1 <1>  -0.1430 
  9 C       -4.7530    -1.6300    -0.3570 C.ar  1 <1>  -0.1500 
 10 C       -4.2970     0.6870    -1.7700 C.ar  1 <1>  -0.1500 
 11 C       -1.9790     0.9350    -0.8400 C.3   1 <1>  -0.0970 
 12 C       -5.7660    -1.1360    -1.1690 C.ar  1 <1>   0.0860 
 13 C       -5.5090     0.0330    -1.8820 C.ar  1 <1>  -0.1500 
 14 C       -7.0420    -1.8180    -1.2560 C.2   1 <1>   0.5440 
 15 O       -7.0700    -2.9920    -1.5780 O.2   1 <1>  -0.5700 
 16 N       -8.2260    -1.1740    -0.9640 N.am  1 <1>  -0.6600 
 17 C       -9.5310    -1.8440    -1.2390 C.3   1 <1>   0.1400 
 18 C       -8.2680     0.1270    -0.2290 C.3   1 <1>   0.1400 
 19 C      -10.6490    -0.8080    -1.3700 C.3   1 <1>  -0.1600 
 20 C       -9.4860     0.1600     0.6900 C.3   1 <1>  -0.1600 
 21 C      -10.7930     0.0740    -0.1160 C.3   1 <1>   0.4180 
 22 O      -11.1090     1.3560    -0.6020 O.3   1 <1>  -0.5600 
 23 C      -11.9230    -0.4630     0.7620 C.2   1 <1>  -0.2880 
 24 C      -11.7750     2.2400     0.2580 C.3   1 <1>   0.1200 
 25 C      -13.0030     0.2400     1.1130 C.2   1 <1>  -0.2760 
 26 C      -13.1450     1.6810     0.6610 C.3   1 <1>  -0.0220 
 27 C      -14.1490    -0.3010     1.9480 C.3   1 <1>  -0.1020 
 28 H       -0.9440    -1.8180     3.3280 H     1 <1>   0.3700 
 29 H       -1.3620    -2.8200    -0.5730 H     1 <1>   0.0800 
 30 H       -2.7000    -3.6260     0.2380 H     1 <1>   0.0800 
 31 H       -1.3910    -3.9840     2.1100 H     1 <1>   0.0800 
 32 H       -0.0170    -3.2750     1.2570 H     1 <1>   0.0800 
 33 H       -4.9350    -2.5330     0.1960 H     1 <1>   0.1500 
 34 H       -4.1320     1.5910    -2.3290 H     1 <1>   0.1500 
 35 H       -1.1550     0.2550    -0.9560 H     1 <1>   0.0800 
 36 H       -1.9060     1.4040     0.1260 H     1 <1>   0.0800 
 37 H       -1.9000     1.6950    -1.5950 H     1 <1>   0.0800 
 38 H       -6.2740     0.4270    -2.5290 H     1 <1>   0.1500 
 39 H       -9.7500    -2.5270    -0.4360 H     1 <1>   0.0800 
 40 H       -9.4580    -2.4130    -2.1510 H     1 <1>   0.0800 
 41 H       -8.3250     0.9360    -0.9380 H     1 <1>   0.0800 
 42 H       -7.3750     0.2490     0.3610 H     1 <1>   0.0800 
 43 H      -11.5780    -1.3090    -1.5710 H     1 <1>   0.0800 
 44 H      -10.4220    -0.1940    -2.2240 H     1 <1>   0.0800 
 45 H       -9.4680     1.0460     1.2940 H     1 <1>   0.0800 
 46 H       -9.4170    -0.6780     1.3600 H     1 <1>   0.0800 
 47 H      -11.7650    -1.4820     1.0620 H     1 <1>   0.1500 
 48 H      -11.8920     3.1760    -0.2590 H     1 <1>   0.0800 
 49 H      -11.1670     2.4000     1.1290 H     1 <1>   0.0800 
 50 H      -13.8230     1.7380    -0.1720 H     1 <1>   0.0800 
 51 H      -13.5390     2.2850     1.4580 H     1 <1>   0.0800 
 52 H      -14.2510     0.2690     2.8540 H     1 <1>   0.0800 
 53 H      -13.9730    -1.3290     2.2090 H     1 <1>   0.0800 
 54 H      -15.0690    -0.2420     1.3940 H     1 <1>   0.0800 
@<TRIPOS>BOND
  1   1   2  2   
  2   2   3  am  
  3   2   4  am  
  4   3   5  1   
  5   3   6  1   
  6   4   7  1   
  7   4  28  1   
  8   5   8  ar  
  9   5   9  ar  
 10   6   7  1   
 11   6  29  1   
 12   6  30  1   
 13   7  31  1   
 14   7  32  1   
 15   8  10  ar  
 16   8  11  1   
 17   9  12  ar  
 18   9  33  1   
 19  10  13  ar  
 20  10  34  1   
 21  11  35  1   
 22  11  36  1   
 23  11  37  1   
 24  12  13  ar  
 25  12  14  1   
 26  13  38  1   
 27  14  15  2   
 28  14  16  am  
 29  16  17  1   
 30  16  18  1   
 31  17  19  1   
 32  17  39  1   
 33  17  40  1   
 34  18  20  1   
 35  18  41  1   
 36  18  42  1   
 37  19  21  1   
 38  19  43  1   
 39  19  44  1   
 40  20  21  1   
 41  20  45  1   
 42  20  46  1   
 43  21  22  1   
 44  21  23  1   
 45  22  24  1   
 46  23  25  2   
 47  23  47  1   
 48  24  26  1   
 49  24  48  1   
 50  24  49  1   
 51  25  26  1   
 52  25  27  1   
 53  26  50  1   
 54  26  51  1   
 55  27  52  1   
 56  27  53  1   
 57  27  54  1   
@<TRIPOS>SUBSTRUCTURE
  1 ****  18 GROUP 4 **** **** 0

# MOE 2024.06 (io_trps.svl 2023.06)
