@<TRIPOS>MOLECULE
NONAME
46 49 1 0 0 
SMALL
USER_CHARGES


@<TRIPOS>ATOM
  1 O        0.1720     0.3130    -0.1320 O.3   1 <1>  -0.5600 
  2 C       -0.2060     1.6220     0.1840 C.3   1 <1>   0.2950 
  3 C        1.5510     0.0980    -0.0560 C.3   1 <1>   0.2000 
  4 C       -1.7360     1.6840     0.1310 C.3   1 <1>  -0.1950 
  5 C        0.4410     2.6250    -0.8000 C.3   1 <1>   0.2090 
  6 C        2.2840     0.9950    -1.0830 C.3   1 <1>   0.2090 
  7 C        1.7780    -1.4010    -0.2900 C.3   1 <1>  -0.1600 
  8 C       -2.4950     2.6800     0.9520 C.3   1 <1>  -0.2000 
  9 C       -2.5700     1.2150     1.2800 C.3   1 <1>  -0.2000 
 10 N        1.9260     2.4420    -0.9340 N.pl3 1 <1>  -0.8220 
 11 C        3.2400    -1.8300    -0.0880 C.3   1 <1>  -0.1600 
 12 C        2.7050     3.1390     0.0030 C.2   1 <1>   0.2710 
 13 C        3.3920    -3.3480    -0.2350 C.3   1 <1>  -0.1600 
 14 N        2.4050     3.2650     1.2630 N.2   1 <1>  -0.3380 
 15 N        3.8690     3.7470    -0.2870 N.pl3 1 <1>   0.3340 
 16 C        4.8470    -3.7790    -0.0370 C.3   1 <1>  -0.2400 
 17 N        3.3790     3.9640     1.8440 N.2   1 <1>  -0.3380 
 18 C        4.2520     4.2500     0.9170 C.2   1 <1>   0.1410 
 19 C        4.6430     3.9280    -1.4330 C.2   1 <1>  -0.1810 
 20 C        5.4730     4.9690     1.0010 C.2   1 <1>  -0.1050 
 21 C        5.8130     4.6150    -1.3590 C.2   1 <1>  -0.1500 
 22 C        6.2400     5.1490    -0.1110 C.2   1 <1>  -0.1500 
 23 H        0.1250     1.8340     1.1860 H     1 <1>   0.0800 
 24 H        1.8750     0.3540     0.9400 H     1 <1>   0.0800 
 25 H       -2.1100     1.4800    -0.8570 H     1 <1>   0.1000 
 26 H        0.2300     3.6250    -0.4640 H     1 <1>   0.0800 
 27 H       -0.0120     2.5050    -1.7680 H     1 <1>   0.0800 
 28 H        2.0290     0.6710    -2.0770 H     1 <1>   0.0800 
 29 H        3.3460     0.8790    -0.9630 H     1 <1>   0.0800 
 30 H        1.1600    -1.9420     0.4070 H     1 <1>   0.0800 
 31 H        1.4600    -1.6550    -1.2860 H     1 <1>   0.0800 
 32 H       -1.9600     3.3260     1.6270 H     1 <1>   0.1000 
 33 H       -3.3590     3.1570     0.5230 H     1 <1>   0.1000 
 34 H       -3.4760     0.6750     1.0670 H     1 <1>   0.1000 
 35 H       -2.0710     0.8480     2.1610 H     1 <1>   0.1000 
 36 H        3.8710    -1.3450    -0.8120 H     1 <1>   0.0800 
 37 H        3.5670    -1.5340     0.8960 H     1 <1>   0.0800 
 38 H        2.7740    -3.8460     0.4940 H     1 <1>   0.0800 
 39 H        3.0620    -3.6520    -1.2140 H     1 <1>   0.0800 
 40 H        5.1910    -3.5030     0.9440 H     1 <1>   0.0800 
 41 H        5.4820    -3.3130    -0.7710 H     1 <1>   0.0800 
 42 H        4.9320    -4.8460    -0.1410 H     1 <1>   0.0800 
 43 H        4.2500     3.4990    -2.3370 H     1 <1>   0.1500 
 44 H        5.7550     5.3550     1.9650 H     1 <1>   0.1500 
 45 H        6.4360     4.7740    -2.2240 H     1 <1>   0.1500 
 46 H        7.1710     5.6900    -0.0750 H     1 <1>   0.1500 
@<TRIPOS>BOND
  1   1   2  1   
  2   1   3  1   
  3   2   4  1   
  4   2   5  1   
  5   2  23  1   
  6   3   6  1   
  7   3   7  1   
  8   3  24  1   
  9   4   8  1   
 10   4   9  1   
 11   4  25  1   
 12   5  10  1   
 13   5  26  1   
 14   5  27  1   
 15   6  10  1   
 16   6  28  1   
 17   6  29  1   
 18   7  11  1   
 19   7  30  1   
 20   7  31  1   
 21   8   9  1   
 22   8  32  1   
 23   8  33  1   
 24   9  34  1   
 25   9  35  1   
 26  10  12  1   
 27  11  13  1   
 28  11  36  1   
 29  11  37  1   
 30  12  14  2   
 31  12  15  1   
 32  13  16  1   
 33  13  38  1   
 34  13  39  1   
 35  14  17  1   
 36  15  18  1   
 37  15  19  1   
 38  16  40  1   
 39  16  41  1   
 40  16  42  1   
 41  17  18  2   
 42  18  20  1   
 43  19  21  2   
 44  19  43  1   
 45  20  22  2   
 46  20  44  1   
 47  21  22  1   
 48  21  45  1   
 49  22  46  1   
@<TRIPOS>SUBSTRUCTURE
  1 ****  10 GROUP 4 **** **** 0

# MOE 2024.06 (io_trps.svl 2023.06)
