@<TRIPOS>MOLECULE
NONAME
41 44 1 0 0 
SMALL
USER_CHARGES


@<TRIPOS>ATOM
  1 O        0.1120    -0.2560    -0.5480 O.2   1 <1>  -0.5700 
  2 C        1.1750    -0.7580    -0.2500 C.2   1 <1>   0.5440 
  3 N        2.2850     0.0270    -0.0260 N.am  1 <1>  -0.4940 
  4 C        1.2800    -2.1920    -0.1590 C.ar  1 <1>   0.0860 
  5 C        2.3850     1.4400     0.0570 C.2   1 <1>  -0.0880 
  6 C        0.5580    -3.0310    -0.9860 C.ar  1 <1>   0.1600 
  7 C        2.1010    -2.8320     0.7520 C.ar  1 <1>   0.1600 
  8 N        3.5500     2.1400     0.1790 N.pl3 1 <1>   0.3140 
  9 C        1.3940     2.3630     0.0350 C.2   1 <1>  -0.1500 
 10 N        0.6570    -4.3430    -0.9460 N.ar  1 <1>  -0.6200 
 11 N        2.2290    -4.1370     0.8160 N.ar  1 <1>  -0.6200 
 12 N        3.3160     3.4750     0.2330 N.2   1 <1>  -0.7070 
 13 C        4.9200     1.5470     0.2350 C.3   1 <1>   0.1760 
 14 C        2.0280     3.5910     0.1460 C.2   1 <1>   0.1390 
 15 C        1.4910    -4.8290    -0.0400 C.ar  1 <1>   0.5880 
 16 C        6.0120     2.4760     0.7710 C.3   1 <1>  -0.1600 
 17 C        5.4370     1.1440    -1.1480 C.3   1 <1>  -0.1600 
 18 C        1.6220    -6.3450     0.0170 C.3   1 <1>  -0.0680 
 19 C        7.3150     1.8460     0.2800 C.3   1 <1>  -0.1600 
 20 C        6.9660     1.1230    -1.0280 C.3   1 <1>  -0.1600 
 21 C        0.4170    -7.2210     0.2120 C.3   1 <1>  -0.2000 
 22 C        1.4320    -7.0970     1.3040 C.3   1 <1>  -0.2000 
 23 H        3.1690    -0.4770     0.0260 H     1 <1>   0.3700 
 24 H       -0.1190    -2.5980    -1.7050 H     1 <1>   0.1500 
 25 H        2.6690    -2.2480     1.4560 H     1 <1>   0.1500 
 26 H        0.3340     2.2060    -0.0510 H     1 <1>   0.1500 
 27 H        4.8850     0.6770     0.8650 H     1 <1>   0.0800 
 28 H        1.5170     4.5390     0.1590 H     1 <1>   0.1500 
 29 H        5.9810     2.5590     1.8430 H     1 <1>   0.0800 
 30 H        5.9160     3.4540     0.3310 H     1 <1>   0.0800 
 31 H        5.1550     1.8990    -1.8640 H     1 <1>   0.0800 
 32 H        5.0510     0.1920    -1.4630 H     1 <1>   0.0800 
 33 H        2.3830    -6.6980    -0.6540 H     1 <1>   0.1000 
 34 H        7.6660     1.1300     1.0040 H     1 <1>   0.0800 
 35 H        8.0780     2.5910     0.1320 H     1 <1>   0.0800 
 36 H        7.4110     1.6250    -1.8700 H     1 <1>   0.0800 
 37 H        7.3330     0.1110    -0.9970 H     1 <1>   0.0800 
 38 H        0.3560    -8.1380    -0.3460 H     1 <1>   0.1000 
 39 H       -0.5430    -6.7490     0.3370 H     1 <1>   0.1000 
 40 H        1.1760    -6.5410     2.1900 H     1 <1>   0.1000 
 41 H        2.0820    -7.9290     1.5120 H     1 <1>   0.1000 
@<TRIPOS>BOND
  1   1   2  2   
  2   2   3  am  
  3   2   4  1   
  4   3   5  1   
  5   3  23  1   
  6   4   6  ar  
  7   4   7  ar  
  8   5   8  1   
  9   5   9  2   
 10   6  10  ar  
 11   6  24  1   
 12   7  11  ar  
 13   7  25  1   
 14   8  12  1   
 15   8  13  1   
 16   9  14  1   
 17   9  26  1   
 18  10  15  ar  
 19  11  15  ar  
 20  12  14  2   
 21  13  16  1   
 22  13  17  1   
 23  13  27  1   
 24  14  28  1   
 25  15  18  1   
 26  16  19  1   
 27  16  29  1   
 28  16  30  1   
 29  17  20  1   
 30  17  31  1   
 31  17  32  1   
 32  18  21  1   
 33  18  22  1   
 34  18  33  1   
 35  19  20  1   
 36  19  34  1   
 37  19  35  1   
 38  20  36  1   
 39  20  37  1   
 40  21  22  1   
 41  21  38  1   
 42  21  39  1   
 43  22  40  1   
 44  22  41  1   
@<TRIPOS>SUBSTRUCTURE
  1 ****   3 GROUP 4 **** **** 0

# MOE 2024.06 (io_trps.svl 2023.06)
