@<TRIPOS>MOLECULE
NONAME
45 47 1 0 0 
SMALL
USER_CHARGES


@<TRIPOS>ATOM
  1 S       -0.1270    -0.1450    -0.3980 S.o2  1 <1>   1.2040 
  2 O        0.3930    -1.0910    -1.3580 O.2   1 <1>  -0.6500 
  3 O       -0.3480     1.2310    -0.7840 O.2   1 <1>  -0.6500 
  4 C       -1.6410    -0.8150     0.3330 C.ar  1 <1>  -0.0090 
  5 C        0.9870    -0.1330     0.9930 C.3   1 <1>  -0.1350 
  6 C       -1.7920    -2.1800     0.5260 C.ar  1 <1>  -0.1500 
  7 C       -2.6770     0.0180     0.7390 C.ar  1 <1>  -0.1500 
  8 C       -2.9330    -2.7340     1.1020 C.ar  1 <1>   0.0860 
  9 C       -3.8200    -0.5000     1.3220 C.ar  1 <1>  -0.1500 
 10 C       -3.0450    -4.1680     1.2760 C.2   1 <1>   0.5440 
 11 C       -3.9420    -1.8630     1.5040 C.ar  1 <1>  -0.1500 
 12 O       -2.1930    -4.7650     1.9040 O.2   1 <1>  -0.5700 
 13 N       -4.0840    -4.8800     0.7240 N.am  1 <1>  -0.6600 
 14 C       -4.9610    -4.3820    -0.3680 C.3   1 <1>   0.1400 
 15 C       -4.1750    -6.3600     0.8190 C.3   1 <1>   0.1400 
 16 C       -5.8900    -5.5530    -0.6800 C.3   1 <1>   0.2000 
 17 C       -5.0320    -6.7870    -0.3790 C.3   1 <1>  -0.0800 
 18 O       -6.9570    -5.5020     0.2040 O.3   1 <1>  -0.6800 
 19 C       -5.8230    -8.0890    -0.1490 C.3   1 <1>   0.0200 
 20 C       -4.9300    -9.3090     0.0050 C.2   1 <1>  -0.0400 
 21 O       -5.4790   -10.4480     0.3330 O.3   1 <1>  -0.0190 
 22 C       -3.6090    -9.5170    -0.1280 C.2   1 <1>  -0.1500 
 23 N       -4.6000   -11.4030     0.4310 N.2   1 <1>  -0.4100 
 24 C       -3.4640   -10.8710     0.1590 C.2   1 <1>   0.1080 
 25 C       -2.1510   -11.6220     0.1540 C.3   1 <1>  -0.0590 
 26 H        1.1220    -1.1270     1.3740 H     1 <1>   0.0800 
 27 H        0.6020     0.4900     1.7770 H     1 <1>   0.0800 
 28 H        1.9430     0.2490     0.6920 H     1 <1>   0.0800 
 29 H       -1.0030    -2.8480     0.2190 H     1 <1>   0.1500 
 30 H       -2.5900     1.0830     0.5970 H     1 <1>   0.1500 
 31 H       -4.6110     0.1620     1.6350 H     1 <1>   0.1500 
 32 H       -4.8280    -2.2650     1.9660 H     1 <1>   0.1500 
 33 H       -5.5160    -3.5070    -0.0770 H     1 <1>   0.0800 
 34 H       -4.3550    -4.1550    -1.2280 H     1 <1>   0.0800 
 35 H       -3.1960    -6.8070     0.7860 H     1 <1>   0.0800 
 36 H       -4.6500    -6.6220     1.7490 H     1 <1>   0.0800 
 37 H       -6.2760    -5.5320    -1.6850 H     1 <1>   0.0800 
 38 H       -4.3740    -6.9330    -1.2170 H     1 <1>   0.0800 
 39 H       -6.6120    -5.4020     1.1140 H     1 <1>   0.4000 
 40 H       -6.4840    -8.2560    -0.9810 H     1 <1>   0.0800 
 41 H       -6.4300    -8.0000     0.7340 H     1 <1>   0.0800 
 42 H       -2.8170    -8.8410    -0.3900 H     1 <1>   0.1500 
 43 H       -1.7100   -11.5810    -0.8240 H     1 <1>   0.0800 
 44 H       -2.3170   -12.6510     0.4190 H     1 <1>   0.0800 
 45 H       -1.4780   -11.1840     0.8670 H     1 <1>   0.0800 
@<TRIPOS>BOND
  1   1   2  2   
  2   1   3  2   
  3   1   4  1   
  4   1   5  1   
  5   4   6  ar  
  6   4   7  ar  
  7   5  26  1   
  8   5  27  1   
  9   5  28  1   
 10   6   8  ar  
 11   6  29  1   
 12   7   9  ar  
 13   7  30  1   
 14   8  10  1   
 15   8  11  ar  
 16   9  11  ar  
 17   9  31  1   
 18  10  12  2   
 19  10  13  am  
 20  11  32  1   
 21  13  14  1   
 22  13  15  1   
 23  14  16  1   
 24  14  33  1   
 25  14  34  1   
 26  15  17  1   
 27  15  35  1   
 28  15  36  1   
 29  16  17  1   
 30  16  18  1   
 31  16  37  1   
 32  17  19  1   
 33  17  38  1   
 34  18  39  1   
 35  19  20  1   
 36  19  40  1   
 37  19  41  1   
 38  20  21  1   
 39  20  22  2   
 40  21  23  1   
 41  22  24  1   
 42  22  42  1   
 43  23  24  2   
 44  24  25  1   
 45  25  43  1   
 46  25  44  1   
 47  25  45  1   
@<TRIPOS>SUBSTRUCTURE
  1 ****  13 GROUP 4 **** **** 0

# MOE 2024.06 (io_trps.svl 2023.06)
