@<TRIPOS>MOLECULE
NONAME
57 59 1 0 0 
SMALL
USER_CHARGES


@<TRIPOS>ATOM
  1 O        0.2700     0.0330     1.4170 O.2   1 <1>  -0.5700 
  2 C        1.0530    -0.3670     0.5890 C.2   1 <1>   0.5690 
  3 N        1.9300     0.4420    -0.0770 N.am  1 <1>  -0.4940 
  4 C        1.0900    -1.8570     0.2750 C.3   1 <1>  -0.0990 
  5 C        2.0740     1.8500    -0.0060 C.2   1 <1>  -0.0880 
  6 C       -0.2130    -2.6120     0.6230 C.3   1 <1>  -0.0800 
  7 N        3.2720     2.4980     0.0300 N.pl3 1 <1>   0.3140 
  8 C        1.1250     2.8180     0.0260 C.2   1 <1>  -0.1810 
  9 C       -0.0470    -4.1280     0.4310 C.3   1 <1>  -0.1600 
 10 C       -1.4110    -2.1210    -0.2110 C.3   1 <1>  -0.1600 
 11 N        3.1150     3.8380     0.0800 N.2   1 <1>  -0.7070 
 12 C        4.6170     1.8910     0.0750 C.3   1 <1>   0.0960 
 13 C        1.8310     4.0150     0.0820 C.2   1 <1>   0.1390 
 14 C       -0.3860     2.6980     0.0050 C.3   1 <1>  -0.0590 
 15 C       -1.3390    -4.8800     0.7580 C.3   1 <1>   0.3430 
 16 C       -2.6830    -2.8920     0.1360 C.3   1 <1>   0.3430 
 17 C        5.1340     1.5920    -1.3400 C.3   1 <1>  -0.1600 
 18 N       -2.4600    -4.3500    -0.0750 N.4   1 <1>  -0.9590 
 19 C        6.5160     0.9290    -1.3010 C.3   1 <1>  -0.2400 
 20 C       -3.7110    -5.1270     0.1400 C.3   1 <1>   0.4860 
 21 C       -3.4810    -6.5490    -0.3310 C.ar  1 <1>  -0.1440 
 22 C       -3.3220    -7.5730     0.5920 C.ar  1 <1>  -0.1500 
 23 C       -3.4210    -6.8360    -1.6880 C.ar  1 <1>  -0.1500 
 24 C       -3.0910    -8.8680     0.1620 C.ar  1 <1>  -0.1500 
 25 C       -3.1900    -8.1320    -2.1150 C.ar  1 <1>  -0.1500 
 26 C       -3.0230    -9.1470    -1.1910 C.ar  1 <1>  -0.1500 
 27 H        2.6000    -0.0310    -0.6810 H     1 <1>   0.3700 
 28 H        1.9010    -2.2790     0.8420 H     1 <1>   0.0800 
 29 H        1.3120    -1.9890    -0.7680 H     1 <1>   0.0800 
 30 H       -0.4290    -2.4330     1.6660 H     1 <1>   0.0800 
 31 H        0.7320    -4.4900     1.0810 H     1 <1>   0.0800 
 32 H        0.2480    -4.3510    -0.5800 H     1 <1>   0.0800 
 33 H       -1.2050    -2.2190    -1.2620 H     1 <1>   0.0800 
 34 H       -1.5910    -1.0780    -0.0150 H     1 <1>   0.0800 
 35 H        4.5680     0.9930     0.6610 H     1 <1>   0.0800 
 36 H        5.2770     2.5830     0.5670 H     1 <1>   0.0800 
 37 H        1.3720     4.9880     0.1220 H     1 <1>   0.1500 
 38 H       -0.6800     1.7820    -0.4720 H     1 <1>   0.0800 
 39 H       -0.8180     3.5210    -0.5340 H     1 <1>   0.0800 
 40 H       -0.7620     2.7000     1.0130 H     1 <1>   0.0800 
 41 H       -1.5710    -4.7570     1.8040 H     1 <1>   0.0800 
 42 H       -1.1970    -5.9320     0.5640 H     1 <1>   0.0800 
 43 H       -3.4930    -2.5460    -0.4870 H     1 <1>   0.0800 
 44 H       -2.9420    -2.7060     1.1660 H     1 <1>   0.0800 
 45 H        5.2010     2.5160    -1.8900 H     1 <1>   0.0800 
 46 H        4.4450     0.9440    -1.8520 H     1 <1>   0.0800 
 47 H       -2.1920    -4.5010    -1.0540 H     1 <1>   0.4500 
 48 H        7.2280     1.5750    -0.8160 H     1 <1>   0.0800 
 49 H        6.8600     0.7380    -2.3020 H     1 <1>   0.0800 
 50 H        6.4760    -0.0050    -0.7690 H     1 <1>   0.0800 
 51 H       -4.5200    -4.6940    -0.4270 H     1 <1>   0.0800 
 52 H       -3.9820    -5.1210     1.1830 H     1 <1>   0.0800 
 53 H       -3.3770    -7.3830     1.6500 H     1 <1>   0.1500 
 54 H       -3.5570    -6.0660    -2.4280 H     1 <1>   0.1500 
 55 H       -2.9670    -9.6640     0.8780 H     1 <1>   0.1500 
 56 H       -3.1430    -8.3570    -3.1680 H     1 <1>   0.1500 
 57 H       -2.8440   -10.1550    -1.5250 H     1 <1>   0.1500 
@<TRIPOS>BOND
  1   1   2  2   
  2   2   3  am  
  3   2   4  1   
  4   3   5  1   
  5   3  27  1   
  6   4   6  1   
  7   4  28  1   
  8   4  29  1   
  9   5   7  1   
 10   5   8  2   
 11   6   9  1   
 12   6  10  1   
 13   6  30  1   
 14   7  11  1   
 15   7  12  1   
 16   8  13  1   
 17   8  14  1   
 18   9  15  1   
 19   9  31  1   
 20   9  32  1   
 21  10  16  1   
 22  10  33  1   
 23  10  34  1   
 24  11  13  2   
 25  12  17  1   
 26  12  35  1   
 27  12  36  1   
 28  13  37  1   
 29  14  38  1   
 30  14  39  1   
 31  14  40  1   
 32  15  18  1   
 33  15  41  1   
 34  15  42  1   
 35  16  18  1   
 36  16  43  1   
 37  16  44  1   
 38  17  19  1   
 39  17  45  1   
 40  17  46  1   
 41  18  20  1   
 42  18  47  1   
 43  19  48  1   
 44  19  49  1   
 45  19  50  1   
 46  20  21  1   
 47  20  51  1   
 48  20  52  1   
 49  21  22  ar  
 50  21  23  ar  
 51  22  24  ar  
 52  22  53  1   
 53  23  25  ar  
 54  23  54  1   
 55  24  26  ar  
 56  24  55  1   
 57  25  26  ar  
 58  25  56  1   
 59  26  57  1   
@<TRIPOS>SUBSTRUCTURE
  1 ****   6 GROUP 4 **** **** 0

# MOE 2024.06 (io_trps.svl 2023.06)
