@<TRIPOS>MOLECULE
NONAME
50 53 1 0 0 
SMALL
USER_CHARGES


@<TRIPOS>ATOM
  1 O       -2.6650     0.7570     2.5820 O.2   1 <1>  -0.5700 
  2 C       -2.5950     1.0430     1.4030 C.2   1 <1>   0.5440 
  3 N       -2.9380     0.0940     0.4700 N.am  1 <1>  -0.6600 
  4 C       -2.1570     2.3570     0.9870 C.ar  1 <1>   0.0860 
  5 C       -3.3280     0.3850    -0.9300 C.3   1 <1>   0.1400 
  6 C       -3.3080    -1.3010     0.8280 C.3   1 <1>   0.1400 
  7 C       -2.8990     3.5240     1.2990 C.ar  1 <1>   0.1660 
  8 C       -1.0090     2.5110     0.2530 C.ar  1 <1>  -0.1500 
  9 C       -4.3860    -0.6710    -1.2470 C.3   1 <1>   0.2000 
 10 C       -3.9600    -1.8950    -0.4330 C.3   1 <1>  -0.0800 
 11 N       -2.5700     4.7230     0.9220 N.ar  1 <1>  -0.6200 
 12 C       -4.1740     3.4110     2.1180 C.3   1 <1>  -0.0970 
 13 C       -0.6170     3.7890    -0.1660 C.ar  1 <1>   0.0000 
 14 O       -5.6010    -0.2310    -0.7500 O.3   1 <1>  -0.6800 
 15 C       -2.9810    -2.7730    -1.2370 C.3   1 <1>  -0.0170 
 16 C       -1.4360     4.8780     0.1930 C.ar  1 <1>   0.3100 
 17 C        0.5470     4.0290    -0.9240 C.ar  1 <1>  -0.1500 
 18 C       -2.6270    -4.0550    -0.5010 C.ar  1 <1>   0.1670 
 19 C       -1.0610     6.1630    -0.2250 C.ar  1 <1>  -0.1500 
 20 C        0.8920     5.2950    -1.3190 C.ar  1 <1>  -0.1440 
 21 N       -1.4790    -4.0600     0.1590 N.ar  1 <1>  -0.6200 
 22 C       -3.4960    -5.1350    -0.5530 C.ar  1 <1>  -0.1500 
 23 C        0.0740     6.3730    -0.9630 C.ar  1 <1>  -0.1500 
 24 C        2.1430     5.5610    -2.1350 C.3   1 <1>  -0.0970 
 25 C       -1.1880    -5.1830     0.7960 C.ar  1 <1>   0.1600 
 26 C       -3.1800    -6.2990     0.1150 C.ar  1 <1>  -0.1500 
 27 C       -1.9880    -6.3120     0.8060 C.ar  1 <1>  -0.1500 
 28 H       -3.7160     1.3820    -1.0490 H     1 <1>   0.0800 
 29 H       -2.4710     0.2520    -1.5670 H     1 <1>   0.0800 
 30 H       -2.4350    -1.8460     1.1410 H     1 <1>   0.0800 
 31 H       -4.0130    -1.2820     1.6420 H     1 <1>   0.0800 
 32 H       -0.4050     1.6590    -0.0030 H     1 <1>   0.1500 
 33 H       -4.4990    -0.8580    -2.3010 H     1 <1>   0.0800 
 34 H       -4.8140    -2.4950    -0.1700 H     1 <1>   0.0800 
 35 H       -4.8490     2.7100     1.6630 H     1 <1>   0.0800 
 36 H       -4.6670     4.3650     2.1830 H     1 <1>   0.0800 
 37 H       -3.9400     3.0810     3.1140 H     1 <1>   0.0800 
 38 H       -5.4790     0.0260     0.1870 H     1 <1>   0.4000 
 39 H       -2.0770    -2.2270    -1.4490 H     1 <1>   0.0800 
 40 H       -3.4270    -3.0370    -2.1790 H     1 <1>   0.0800 
 41 H        1.1640     3.1880    -1.1860 H     1 <1>   0.1500 
 42 H       -1.6970     6.9810     0.0570 H     1 <1>   0.1500 
 43 H       -4.4130    -5.0680    -1.1080 H     1 <1>   0.1500 
 44 H        0.3450     7.3680    -1.2740 H     1 <1>   0.1500 
 45 H        2.7940     6.2290    -1.6000 H     1 <1>   0.0800 
 46 H        1.8790     6.0120    -3.0750 H     1 <1>   0.0800 
 47 H        2.6770     4.6480    -2.3320 H     1 <1>   0.0800 
 48 H       -0.2580    -5.2050     1.3390 H     1 <1>   0.1500 
 49 H       -3.8310    -7.1550     0.0960 H     1 <1>   0.1500 
 50 H       -1.6800    -7.1870     1.3490 H     1 <1>   0.1500 
@<TRIPOS>BOND
  1   1   2  2   
  2   2   3  am  
  3   2   4  1   
  4   3   5  1   
  5   3   6  1   
  6   4   7  ar  
  7   4   8  ar  
  8   5   9  1   
  9   5  28  1   
 10   5  29  1   
 11   6  10  1   
 12   6  30  1   
 13   6  31  1   
 14   7  11  ar  
 15   7  12  1   
 16   8  13  ar  
 17   8  32  1   
 18   9  10  1   
 19   9  14  1   
 20   9  33  1   
 21  10  15  1   
 22  10  34  1   
 23  11  16  ar  
 24  12  35  1   
 25  12  36  1   
 26  12  37  1   
 27  13  16  ar  
 28  13  17  ar  
 29  14  38  1   
 30  15  18  1   
 31  15  39  1   
 32  15  40  1   
 33  16  19  ar  
 34  17  20  ar  
 35  17  41  1   
 36  18  21  ar  
 37  18  22  ar  
 38  19  23  ar  
 39  19  42  1   
 40  20  23  ar  
 41  20  24  1   
 42  21  25  ar  
 43  22  26  ar  
 44  22  43  1   
 45  23  44  1   
 46  24  45  1   
 47  24  46  1   
 48  24  47  1   
 49  25  27  ar  
 50  25  48  1   
 51  26  27  ar  
 52  26  49  1   
 53  27  50  1   
@<TRIPOS>SUBSTRUCTURE
  1 ****   3 GROUP 4 **** **** 0

# MOE 2024.06 (io_trps.svl 2023.06)
