@<TRIPOS>MOLECULE
NONAME
48 52 1 0 0 
SMALL
USER_CHARGES


@<TRIPOS>ATOM
  1 S        0.6000    -2.9060    -1.5580 S.3   1 <1>  -0.0800 
  2 C       -0.7670    -2.8190    -0.4460 C.ar  1 <1>   0.2970 
  3 C       -0.3330    -2.1390    -2.8470 C.2   1 <1>  -0.1100 
  4 N       -0.7260    -3.2550     0.7940 N.ar  1 <1>  -0.5670 
  5 C       -1.8450    -2.2410    -1.0660 C.ar  1 <1>   0.0000 
  6 C       -1.5790    -1.8570    -2.4270 C.2   1 <1>  -0.1500 
  7 C       -1.8690    -3.0840     1.4300 C.ar  1 <1>   0.4770 
  8 C       -2.9880    -2.1280    -0.2780 C.ar  1 <1>   0.4100 
  9 N       -2.9950    -2.5520     0.9750 N.ar  1 <1>  -0.6200 
 10 C       -1.9110    -3.5510     2.8660 C.3   1 <1>  -0.0960 
 11 N       -4.1520    -1.6010    -0.7860 N.pl3 1 <1>  -0.8380 
 12 C       -4.9740    -2.4660    -1.6820 C.3   1 <1>   0.2090 
 13 C       -5.0770    -0.8320     0.0890 C.3   1 <1>   0.2090 
 14 C       -6.4030    -2.4030    -1.1320 C.3   1 <1>   0.2800 
 15 C       -6.3250    -1.7110     0.2220 C.3   1 <1>  -0.0800 
 16 O       -7.2270    -1.5330    -1.8260 O.3   1 <1>  -0.5600 
 17 C       -7.2690    -3.6620    -1.0800 C.3   1 <1>  -0.1600 
 18 C       -7.7240    -1.0640     0.3180 C.3   1 <1>  -0.0800 
 19 C       -8.3370    -1.5380    -1.0090 C.3   1 <1>   0.2000 
 20 C       -8.6650    -3.0370    -0.9660 C.3   1 <1>  -0.1600 
 21 C       -7.7250     0.4660     0.4360 C.3   1 <1>   0.1400 
 22 N       -9.1090     0.9600     0.6080 N.am  1 <1>  -0.7300 
 23 C       -9.7360     1.1360     1.8020 C.2   1 <1>   0.5690 
 24 O       -9.1990     0.8680     2.8490 O.2   1 <1>  -0.5700 
 25 C      -11.1640     1.6870     1.8130 C.3   1 <1>   0.1810 
 26 O      -11.4070     2.5680     0.7480 O.3   1 <1>  -0.6800 
 27 H        0.1670    -1.9820    -3.7870 H     1 <1>   0.1500 
 28 H       -2.3510    -1.3830    -3.0070 H     1 <1>   0.1500 
 29 H       -2.7490    -4.2080     3.0050 H     1 <1>   0.0800 
 30 H       -2.0190    -2.7010     3.5130 H     1 <1>   0.0800 
 31 H       -1.0090    -4.0750     3.1210 H     1 <1>   0.0800 
 32 H       -4.9430    -2.1070    -2.6950 H     1 <1>   0.0800 
 33 H       -4.6080    -3.4770    -1.6410 H     1 <1>   0.0800 
 34 H       -4.6410    -0.6170     1.0500 H     1 <1>   0.0800 
 35 H       -5.2950     0.0940    -0.4110 H     1 <1>   0.0800 
 36 H       -6.1600    -2.4280     1.0070 H     1 <1>   0.0800 
 37 H       -7.1690    -4.2210    -1.9940 H     1 <1>   0.0800 
 38 H       -7.0190    -4.2870    -0.2410 H     1 <1>   0.0800 
 39 H       -8.2620    -1.4720     1.1560 H     1 <1>   0.0800 
 40 H       -9.1220    -0.9170    -1.4060 H     1 <1>   0.0800 
 41 H       -9.1720    -3.3110    -0.0580 H     1 <1>   0.0800 
 42 H       -9.2760    -3.3040    -1.8110 H     1 <1>   0.0800 
 43 H       -7.2990     0.9150    -0.4450 H     1 <1>   0.0800 
 44 H       -7.1390     0.7610     1.2910 H     1 <1>   0.0800 
 45 H       -9.6200     1.2170    -0.2410 H     1 <1>   0.3700 
 46 H      -11.3430     2.2130     2.7340 H     1 <1>   0.0800 
 47 H      -11.8600     0.8720     1.7350 H     1 <1>   0.0800 
 48 H      -10.8340     3.3570     0.8300 H     1 <1>   0.4000 
@<TRIPOS>BOND
  1   1   2  1   
  2   1   3  1   
  3   2   4  ar  
  4   2   5  ar  
  5   3   6  2   
  6   3  27  1   
  7   4   7  ar  
  8   5   6  1   
  9   5   8  ar  
 10   6  28  1   
 11   7   9  ar  
 12   7  10  1   
 13   8   9  ar  
 14   8  11  1   
 15  10  29  1   
 16  10  30  1   
 17  10  31  1   
 18  11  12  1   
 19  11  13  1   
 20  12  14  1   
 21  12  32  1   
 22  12  33  1   
 23  13  15  1   
 24  13  34  1   
 25  13  35  1   
 26  14  15  1   
 27  14  16  1   
 28  14  17  1   
 29  15  18  1   
 30  15  36  1   
 31  16  19  1   
 32  17  20  1   
 33  17  37  1   
 34  17  38  1   
 35  18  19  1   
 36  18  21  1   
 37  18  39  1   
 38  19  20  1   
 39  19  40  1   
 40  20  41  1   
 41  20  42  1   
 42  21  22  1   
 43  21  43  1   
 44  21  44  1   
 45  22  23  am  
 46  22  45  1   
 47  23  24  2   
 48  23  25  1   
 49  25  26  1   
 50  25  46  1   
 51  25  47  1   
 52  26  48  1   
@<TRIPOS>SUBSTRUCTURE
  1 ****  13 GROUP 4 **** **** 0

# MOE 2024.06 (io_trps.svl 2023.06)
