@<TRIPOS>MOLECULE
NONAME
41 43 1 0 0 
SMALL
USER_CHARGES


@<TRIPOS>ATOM
  1 CL      -0.4380    -0.2130    -1.7150 Cl    1 <1>  -0.1770 
  2 C       -1.6430    -0.9580    -0.6960 C.ar  1 <1>   0.1770 
  3 C       -2.5720    -0.1730    -0.0350 C.ar  1 <1>   0.1600 
  4 C       -1.6660    -2.3260    -0.5580 C.ar  1 <1>  -0.1500 
  5 N       -3.5180    -0.6580     0.7590 N.ar  1 <1>  -0.6200 
  6 C       -2.6500    -2.8670     0.2590 C.ar  1 <1>   0.0860 
  7 C       -3.5200    -1.9780     0.8910 C.ar  1 <1>   0.1600 
  8 C       -2.7710    -4.2930     0.4590 C.2   1 <1>   0.5440 
  9 O       -1.7780    -4.9490     0.7040 O.2   1 <1>  -0.5700 
 10 N       -3.9860    -4.9310     0.3620 N.am  1 <1>  -0.6600 
 11 C       -5.1430    -4.4420    -0.4380 C.3   1 <1>   0.1400 
 12 C       -4.1710    -6.3690     0.6720 C.3   1 <1>   0.1400 
 13 C       -6.1020    -5.6340    -0.5640 C.3   1 <1>   0.2000 
 14 C       -5.2050    -6.8560    -0.3440 C.3   1 <1>  -0.0800 
 15 O       -7.0530    -5.5830     0.4610 O.3   1 <1>  -0.5600 
 16 C       -5.9500    -8.1290     0.0970 C.3   1 <1>   0.0200 
 17 C       -8.1920    -4.8300     0.1810 C.3   1 <1>   0.0400 
 18 C       -5.0590    -9.3590     0.1390 C.2   1 <1>  -0.0400 
 19 O       -5.5620   -10.4830     0.5790 O.3   1 <1>  -0.0190 
 20 C       -3.7800    -9.5910    -0.1980 C.2   1 <1>  -0.1500 
 21 N       -4.6900   -11.4490     0.5570 N.2   1 <1>  -0.4100 
 22 C       -3.6060   -10.9400     0.0950 C.2   1 <1>   0.1080 
 23 C       -2.3190   -11.7100    -0.1010 C.3   1 <1>  -0.0590 
 24 H       -2.5300     0.8950    -0.1670 H     1 <1>   0.1500 
 25 H       -0.9500    -2.9540    -1.0590 H     1 <1>   0.1500 
 26 H       -4.2650    -2.3940     1.5490 H     1 <1>   0.1500 
 27 H       -5.6230    -3.6070     0.0400 H     1 <1>   0.0800 
 28 H       -4.7940    -4.1510    -1.4130 H     1 <1>   0.0800 
 29 H       -3.2460    -6.9140     0.5950 H     1 <1>   0.0800 
 30 H       -4.5560    -6.4590     1.6740 H     1 <1>   0.0800 
 31 H       -6.6040    -5.6690    -1.5160 H     1 <1>   0.0800 
 32 H       -4.6910    -7.0570    -1.2680 H     1 <1>   0.0800 
 33 H       -6.7600    -8.3210    -0.5840 H     1 <1>   0.0800 
 34 H       -6.3770    -7.9820     1.0750 H     1 <1>   0.0800 
 35 H       -8.8290    -4.8570     1.0480 H     1 <1>   0.0800 
 36 H       -8.7070    -5.2640    -0.6580 H     1 <1>   0.0800 
 37 H       -7.9120    -3.8130    -0.0290 H     1 <1>   0.0800 
 38 H       -3.0330    -8.9320    -0.5990 H     1 <1>   0.1500 
 39 H       -1.5310   -11.2530     0.4690 H     1 <1>   0.0800 
 40 H       -2.0510   -11.7120    -1.1410 H     1 <1>   0.0800 
 41 H       -2.4450   -12.7250     0.2290 H     1 <1>   0.0800 
@<TRIPOS>BOND
  1   1   2  1   
  2   2   3  ar  
  3   2   4  ar  
  4   3   5  ar  
  5   3  24  1   
  6   4   6  ar  
  7   4  25  1   
  8   5   7  ar  
  9   6   7  ar  
 10   6   8  1   
 11   7  26  1   
 12   8   9  2   
 13   8  10  am  
 14  10  11  1   
 15  10  12  1   
 16  11  13  1   
 17  11  27  1   
 18  11  28  1   
 19  12  14  1   
 20  12  29  1   
 21  12  30  1   
 22  13  14  1   
 23  13  15  1   
 24  13  31  1   
 25  14  16  1   
 26  14  32  1   
 27  15  17  1   
 28  16  18  1   
 29  16  33  1   
 30  16  34  1   
 31  17  35  1   
 32  17  36  1   
 33  17  37  1   
 34  18  19  1   
 35  18  20  2   
 36  19  21  1   
 37  20  22  1   
 38  20  38  1   
 39  21  22  2   
 40  22  23  1   
 41  23  39  1   
 42  23  40  1   
 43  23  41  1   
@<TRIPOS>SUBSTRUCTURE
  1 ****  10 GROUP 4 **** **** 0

# MOE 2024.06 (io_trps.svl 2023.06)
