@<TRIPOS>MOLECULE
NONAME
55 58 1 0 0 
SMALL
USER_CHARGES


@<TRIPOS>ATOM
  1 S        0.4520    -0.5490     2.3000 S.o2  1 <1>   1.5000 
  2 O        0.9800    -1.8550     2.6380 O.2   1 <1>  -0.6500 
  3 O       -0.3030     0.1770     3.2960 O.2   1 <1>  -0.6500 
  4 N       -0.5720    -0.7830     0.9650 N.am  1 <1>  -0.8490 
  5 C        1.8140     0.4720     1.6430 C.2   1 <1>   0.0780 
  6 C       -1.3530    -2.0310     1.0400 C.3   1 <1>   0.1960 
  7 C       -1.3270     0.4240     0.5460 C.3   1 <1>   0.1960 
  8 O        1.6000     1.3260     0.6500 O.3   1 <1>  -0.2800 
  9 C        3.1160     0.5490     2.0030 C.2   1 <1>  -0.1500 
 10 C       -2.3330    -2.0520    -0.1480 C.3   1 <1>   0.4230 
 11 C       -2.8490     0.2740     0.7210 C.3   1 <1>  -0.1600 
 12 C        2.7260     1.9490     0.3330 C.2   1 <1>   0.1410 
 13 C        3.7050     1.4950     1.1600 C.2   1 <1>  -0.1500 
 14 N       -2.9040    -3.3690    -0.5810 N.4   1 <1>  -0.9590 
 15 C       -3.4550    -1.0350     0.1250 C.3   1 <1>  -0.1060 
 16 C        2.7260     2.9120    -0.7510 C.2   1 <1>   0.2880 
 17 C       -3.6380    -3.2290    -1.8700 C.3   1 <1>   0.3430 
 18 C       -1.9510    -4.5090    -0.5780 C.3   1 <1>   0.2630 
 19 C       -4.4660    -1.6080     1.1340 C.2   1 <1>   0.9060 
 20 C       -4.1510    -0.7840    -1.2320 C.3   1 <1>  -0.1600 
 21 N        1.8230     2.9110    -1.7040 N.2   1 <1>  -0.7070 
 22 C        3.6500     3.9540    -0.9510 C.2   1 <1>  -0.1810 
 23 C       -4.6890    -2.1090    -1.8090 C.3   1 <1>  -0.1600 
 24 O       -5.4340    -0.9230     1.4560 O.co2 1 <1>  -0.9000 
 25 O       -4.3250    -2.7710     1.5450 O.co2 1 <1>  -0.9000 
 26 N        2.1600     3.9250    -2.5120 N.pl3 1 <1>   0.3000 
 27 C        3.2610     4.5740    -2.0850 C.2   1 <1>  -0.3320 
 28 C        4.8290     4.3040    -0.0590 C.3   1 <1>  -0.0590 
 29 C        3.8450     5.7620    -2.8320 C.3   1 <1>  -0.0600 
 30 H       -0.6710    -2.8590     0.9900 H     1 <1>   0.0800 
 31 H       -1.8880    -2.0790     1.9760 H     1 <1>   0.0800 
 32 H       -0.9950     1.2920     1.0920 H     1 <1>   0.0800 
 33 H       -1.1130     0.6100    -0.4930 H     1 <1>   0.0800 
 34 H        3.6200    -0.0050     2.7760 H     1 <1>   0.1500 
 35 H       -1.7610    -1.6810    -0.9810 H     1 <1>   0.0800 
 36 H       -3.0420     0.3050     1.7810 H     1 <1>   0.0800 
 37 H       -3.3460     1.1350     0.3090 H     1 <1>   0.0800 
 38 H        4.7420     1.7740     1.1810 H     1 <1>   0.1500 
 39 H       -3.6180    -3.5300     0.1810 H     1 <1>   0.4500 
 40 H       -2.9340    -3.0050    -2.6530 H     1 <1>   0.0800 
 41 H       -4.1280    -4.1580    -2.1120 H     1 <1>   0.0800 
 42 H       -1.1380    -4.3200    -1.2590 H     1 <1>   0.0800 
 43 H       -2.4570    -5.4130    -0.8750 H     1 <1>   0.0800 
 44 H       -1.5540    -4.6560     0.4130 H     1 <1>   0.0800 
 45 H       -4.9740    -0.1000    -1.0930 H     1 <1>   0.0800 
 46 H       -3.4600    -0.3340    -1.9250 H     1 <1>   0.0800 
 47 H       -5.0740    -1.9360    -2.7980 H     1 <1>   0.0800 
 48 H       -5.5160    -2.4490    -1.2090 H     1 <1>   0.0800 
 49 H        1.6180     4.1550    -3.3540 H     1 <1>   0.2700 
 50 H        4.5180     4.3240     0.9700 H     1 <1>   0.0800 
 51 H        5.2220     5.2720    -0.3050 H     1 <1>   0.0800 
 52 H        5.6100     3.5770    -0.1810 H     1 <1>   0.0800 
 53 H        4.7500     6.1060    -2.3650 H     1 <1>   0.0800 
 54 H        3.1400     6.5740    -2.8450 H     1 <1>   0.0800 
 55 H        4.0760     5.4850    -3.8450 H     1 <1>   0.0800 
@<TRIPOS>BOND
  1   1   2  2   
  2   1   3  2   
  3   1   4  am  
  4   1   5  1   
  5   4   6  1   
  6   4   7  1   
  7   5   8  1   
  8   5   9  2   
  9   6  10  1   
 10   6  30  1   
 11   6  31  1   
 12   7  11  1   
 13   7  32  1   
 14   7  33  1   
 15   8  12  1   
 16   9  13  1   
 17   9  34  1   
 18  10  14  1   
 19  10  15  1   
 20  10  35  1   
 21  11  15  1   
 22  11  36  1   
 23  11  37  1   
 24  12  13  2   
 25  12  16  1   
 26  13  38  1   
 27  14  17  1   
 28  14  18  1   
 29  14  39  1   
 30  15  19  1   
 31  15  20  1   
 32  16  21  2   
 33  16  22  1   
 34  17  23  1   
 35  17  40  1   
 36  17  41  1   
 37  18  42  1   
 38  18  43  1   
 39  18  44  1   
 40  19  24  ar  
 41  19  25  ar  
 42  20  23  1   
 43  20  45  1   
 44  20  46  1   
 45  21  26  1   
 46  22  27  2   
 47  22  28  1   
 48  23  47  1   
 49  23  48  1   
 50  26  27  1   
 51  26  49  1   
 52  27  29  1   
 53  28  50  1   
 54  28  51  1   
 55  28  52  1   
 56  29  53  1   
 57  29  54  1   
 58  29  55  1   
@<TRIPOS>SUBSTRUCTURE
  1 ****   7 GROUP 4 **** **** 0

# MOE 2024.06 (io_trps.svl 2023.06)
