@<TRIPOS>MOLECULE
NONAME
46 47 1 0 0 
SMALL
USER_CHARGES


@<TRIPOS>ATOM
  1 N        0.5390    -2.5430    -0.3380 N.ar  1 <1>  -0.6200 
  2 C       -0.0540    -2.7280    -1.5000 C.ar  1 <1>   0.4100 
  3 C        1.2860    -1.4570    -0.2410 C.ar  1 <1>   0.4760 
  4 N       -0.8550    -3.8320    -1.6640 N.pl3 1 <1>  -0.8690 
  5 C        0.1340    -1.8470    -2.5450 C.ar  1 <1>  -0.1500 
  6 N        1.5280    -0.5550    -1.1720 N.ar  1 <1>  -0.6200 
  7 C        1.9540    -1.2170     1.0920 C.3   1 <1>  -0.0970 
  8 C       -1.7580    -4.4640    -0.6310 C.3   1 <1>   0.2890 
  9 C        0.9410    -0.7640    -2.3320 C.ar  1 <1>   0.1600 
 10 C       -3.0610    -3.6400    -0.3770 C.3   1 <1>   0.0000 
 11 C       -1.0140    -4.8670     0.6710 C.3   1 <1>   0.3430 
 12 C       -3.7910    -3.3710    -1.7080 C.3   1 <1>  -0.2400 
 13 C       -2.8020    -2.2830     0.3060 C.3   1 <1>  -0.2400 
 14 C       -4.0240    -4.4420     0.5200 C.3   1 <1>  -0.2400 
 15 N        0.3860    -5.3120     0.3990 N.4   1 <1>  -0.9590 
 16 C        0.5470    -6.5530    -0.3860 C.3   1 <1>   0.3430 
 17 C        1.2590    -5.4060     1.5810 C.3   1 <1>   0.3430 
 18 C        1.9810    -6.9960    -0.1140 C.3   1 <1>  -0.1600 
 19 C        2.4790    -6.1510     1.0630 C.3   1 <1>  -0.1600 
 20 H       -1.2940    -3.8730    -2.5880 H     1 <1>   0.4000 
 21 H       -0.3400    -2.0060    -3.4930 H     1 <1>   0.1500 
 22 H        1.3540    -1.6160     1.8880 H     1 <1>   0.0800 
 23 H        2.0810    -0.1620     1.2540 H     1 <1>   0.0800 
 24 H        2.9180    -1.6880     1.0980 H     1 <1>   0.0800 
 25 H       -2.0850    -5.3930    -1.0640 H     1 <1>   0.0800 
 26 H        1.1150    -0.0490    -3.1190 H     1 <1>   0.1500 
 27 H       -1.5640    -5.6370     1.1840 H     1 <1>   0.0800 
 28 H       -0.9810    -4.0020     1.3110 H     1 <1>   0.0800 
 29 H       -3.2070    -2.7350    -2.3490 H     1 <1>   0.0800 
 30 H       -4.7300    -2.8750    -1.5320 H     1 <1>   0.0800 
 31 H       -3.9940    -4.2910    -2.2290 H     1 <1>   0.0800 
 32 H       -2.2040    -1.6430    -0.3170 H     1 <1>   0.0800 
 33 H       -2.3000    -2.4000     1.2490 H     1 <1>   0.0800 
 34 H       -3.7310    -1.7720     0.4900 H     1 <1>   0.0800 
 35 H       -4.2430    -5.4030     0.0880 H     1 <1>   0.0800 
 36 H       -4.9570    -3.9140     0.6330 H     1 <1>   0.0800 
 37 H       -3.6200    -4.5890     1.5060 H     1 <1>   0.0800 
 38 H        0.7450    -4.5310    -0.1920 H     1 <1>   0.4500 
 39 H        0.3780    -6.3730    -1.4360 H     1 <1>   0.0800 
 40 H       -0.1380    -7.3050    -0.0310 H     1 <1>   0.0800 
 41 H        0.7750    -5.9860     2.3500 H     1 <1>   0.0800 
 42 H        1.5150    -4.4300     1.9640 H     1 <1>   0.0800 
 43 H        2.5920    -6.8320    -0.9850 H     1 <1>   0.0800 
 44 H        1.9980    -8.0460     0.1220 H     1 <1>   0.0800 
 45 H        2.9220    -6.7530     1.8380 H     1 <1>   0.0800 
 46 H        3.2090    -5.4370     0.7230 H     1 <1>   0.0800 
@<TRIPOS>BOND
  1   1   2  ar  
  2   1   3  ar  
  3   2   4  1   
  4   2   5  ar  
  5   3   6  ar  
  6   3   7  1   
  7   4   8  1   
  8   4  20  1   
  9   5   9  ar  
 10   5  21  1   
 11   6   9  ar  
 12   7  22  1   
 13   7  23  1   
 14   7  24  1   
 15   8  10  1   
 16   8  11  1   
 17   8  25  1   
 18   9  26  1   
 19  10  12  1   
 20  10  13  1   
 21  10  14  1   
 22  11  15  1   
 23  11  27  1   
 24  11  28  1   
 25  12  29  1   
 26  12  30  1   
 27  12  31  1   
 28  13  32  1   
 29  13  33  1   
 30  13  34  1   
 31  14  35  1   
 32  14  36  1   
 33  14  37  1   
 34  15  16  1   
 35  15  17  1   
 36  15  38  1   
 37  16  18  1   
 38  16  39  1   
 39  16  40  1   
 40  17  19  1   
 41  17  41  1   
 42  17  42  1   
 43  18  19  1   
 44  18  43  1   
 45  18  44  1   
 46  19  45  1   
 47  19  46  1   
@<TRIPOS>SUBSTRUCTURE
  1 ****   1 GROUP 4 **** **** 0

# MOE 2024.06 (io_trps.svl 2023.06)
