@<TRIPOS>MOLECULE
NONAME
45 47 1 0 0 
SMALL
USER_CHARGES


@<TRIPOS>ATOM
  1 O        0.7780     2.1180    -1.5840 O.co2 1 <1>  -0.9000 
  2 C        1.4200     1.8770    -0.5520 C.2   1 <1>   0.9470 
  3 O        0.8890     1.9710     0.5640 O.co2 1 <1>  -0.9000 
  4 C        2.9370     1.6710    -0.6320 C.3   1 <1>  -0.2420 
  5 C        3.7700     0.4180    -0.7610 C.3   1 <1>  -0.2420 
  6 C        3.6540     2.6060     0.3240 C.3   1 <1>   0.2350 
  7 C        3.5540     1.3070    -1.9590 C.3   1 <1>  -0.2000 
  8 C        3.3710    -1.0570    -0.8570 C.2   1 <1>   0.9470 
  9 C        4.9980     0.5830     0.1170 C.3   1 <1>   0.2350 
 10 N        5.0100     2.0150     0.5310 N.am  1 <1>  -0.6600 
 11 O        3.3890    -1.6210    -1.9600 O.co2 1 <1>  -0.9000 
 12 O        3.1970    -1.7000     0.1870 O.co2 1 <1>  -0.9000 
 13 C        6.1340     2.6290     1.0270 C.2   1 <1>   0.5690 
 14 O        7.1690     1.9990     1.1170 O.2   1 <1>  -0.5700 
 15 C        6.1390     4.1130     1.5220 C.3   1 <1>   0.3410 
 16 O        5.5810     5.0090     0.5580 O.3   1 <1>  -0.3630 
 17 C        5.2700     4.2710     2.7810 C.3   1 <1>  -0.2400 
 18 C        7.5550     4.6180     1.8850 C.3   1 <1>  -0.2400 
 19 C        6.2810     5.3420    -0.5610 C.ar  1 <1>   0.0830 
 20 C        6.8580     6.6110    -0.7020 C.ar  1 <1>   0.0830 
 21 C        6.4270     4.4100    -1.5790 C.ar  1 <1>  -0.1500 
 22 O        6.7360     7.6110     0.2130 O.3   1 <1>  -0.3630 
 23 C        7.6130     6.8970    -1.8280 C.ar  1 <1>  -0.1500 
 24 C        7.1720     4.7120    -2.7060 C.ar  1 <1>  -0.1500 
 25 C        5.4560     7.8980     0.7340 C.3   1 <1>   0.0400 
 26 C        7.7720     5.9530    -2.8280 C.ar  1 <1>  -0.1500 
 27 H        3.1320     2.6290     1.2640 H     1 <1>   0.0800 
 28 H        3.7010     3.5940    -0.0960 H     1 <1>   0.0800 
 29 H        4.3740     1.8800    -2.3460 H     1 <1>   0.1000 
 30 H        2.9000     0.9470    -2.7350 H     1 <1>   0.1000 
 31 H        5.8920     0.3260    -0.4250 H     1 <1>   0.0800 
 32 H        4.9160    -0.0380     0.9920 H     1 <1>   0.0800 
 33 H        5.6080     3.5910     3.5420 H     1 <1>   0.0800 
 34 H        4.2420     4.0490     2.5690 H     1 <1>   0.0800 
 35 H        5.3350     5.2730     3.1620 H     1 <1>   0.0800 
 36 H        7.9450     4.0480     2.7090 H     1 <1>   0.0800 
 37 H        7.5330     5.6560     2.1620 H     1 <1>   0.0800 
 38 H        8.2260     4.4850     1.0550 H     1 <1>   0.0800 
 39 H        5.9610     3.4450    -1.5020 H     1 <1>   0.1500 
 40 H        8.0710     7.8650    -1.9180 H     1 <1>   0.1500 
 41 H        7.2810     3.9760    -3.4840 H     1 <1>   0.1500 
 42 H        5.4520     8.9180     1.0710 H     1 <1>   0.0800 
 43 H        5.2590     7.2410     1.5610 H     1 <1>   0.0800 
 44 H        4.7200     7.7610    -0.0400 H     1 <1>   0.0800 
 45 H        8.3580     6.1860    -3.7000 H     1 <1>   0.1500 
@<TRIPOS>BOND
  1   1   2  ar  
  2   2   3  ar  
  3   2   4  1   
  4   4   5  1   
  5   4   6  1   
  6   4   7  1   
  7   5   7  1   
  8   5   8  1   
  9   5   9  1   
 10   6  10  1   
 11   6  27  1   
 12   6  28  1   
 13   7  29  1   
 14   7  30  1   
 15   8  11  ar  
 16   8  12  ar  
 17   9  10  1   
 18   9  31  1   
 19   9  32  1   
 20  10  13  am  
 21  13  14  2   
 22  13  15  1   
 23  15  16  1   
 24  15  17  1   
 25  15  18  1   
 26  16  19  1   
 27  17  33  1   
 28  17  34  1   
 29  17  35  1   
 30  18  36  1   
 31  18  37  1   
 32  18  38  1   
 33  19  20  ar  
 34  19  21  ar  
 35  20  22  1   
 36  20  23  ar  
 37  21  24  ar  
 38  21  39  1   
 39  22  25  1   
 40  23  26  ar  
 41  23  40  1   
 42  24  26  ar  
 43  24  41  1   
 44  25  42  1   
 45  25  43  1   
 46  25  44  1   
 47  26  45  1   
@<TRIPOS>SUBSTRUCTURE
  1 ****  10 GROUP 4 **** **** 0

# MOE 2024.06 (io_trps.svl 2023.06)
