@<TRIPOS>MOLECULE
NONAME
43 45 1 0 0 
SMALL
USER_CHARGES


@<TRIPOS>ATOM
  1 O       -0.6400     0.4890    -0.5200 O.co2 1 <1>  -0.9000 
  2 C       -0.8730     1.0630     0.5550 C.2   1 <1>   0.9060 
  3 O       -0.8380     0.5050     1.6510 O.co2 1 <1>  -0.9000 
  4 C       -1.2660     2.5450     0.4620 C.3   1 <1>   0.3170 
  5 N       -1.9090     2.8760    -0.8890 N.4   1 <1>  -0.9590 
  6 C        0.0170     3.3650     0.7140 C.3   1 <1>   0.1100 
  7 C       -1.9700     4.3410    -1.1760 C.3   1 <1>   0.3430 
  8 C       -3.2210     2.1830    -1.0100 C.3   1 <1>   0.2630 
  9 N       -0.1570     4.8160     0.4630 N.3   1 <1>  -0.8100 
 10 C       -0.6200     5.0380    -0.9220 C.3   1 <1>   0.1100 
 11 C        1.1050     5.5400     0.7330 C.3   1 <1>   0.2900 
 12 C        0.8980     7.0470     0.7810 C.2   1 <1>  -0.0400 
 13 O        1.9290     7.8320     0.5480 O.3   1 <1>  -0.2800 
 14 C       -0.1980     7.7900     1.0400 C.2   1 <1>  -0.1500 
 15 C        1.5440     9.0990     0.6490 C.2   1 <1>   0.0870 
 16 C        0.2160     9.1190     0.9510 C.2   1 <1>  -0.1500 
 17 C        2.5120    10.1530     0.4320 C.ar  1 <1>   0.0530 
 18 C        2.5250    11.3520     1.1610 C.ar  1 <1>   0.0730 
 19 C        3.4880     9.9740    -0.5500 C.ar  1 <1>  -0.1500 
 20 C        1.5770    11.6170     2.2040 C.1   1 <1>   0.4840 
 21 C        3.4870    12.3170     0.8810 C.ar  1 <1>  -0.1500 
 22 C        4.4390    10.9380    -0.8180 C.ar  1 <1>  -0.1500 
 23 N        0.8180    11.8520     3.0230 N.1   1 <1>  -0.5570 
 24 C        4.4390    12.1180    -0.1010 C.ar  1 <1>  -0.1500 
 25 H       -1.9590     2.7460     1.2570 H     1 <1>   0.0800 
 26 H       -1.2650     2.3820    -1.5370 H     1 <1>   0.4500 
 27 H        0.8040     2.9760     0.0880 H     1 <1>   0.0800 
 28 H        0.3130     3.2090     1.7390 H     1 <1>   0.0800 
 29 H       -2.7080     4.7990    -0.5380 H     1 <1>   0.0800 
 30 H       -2.2660     4.4990    -2.1990 H     1 <1>   0.0800 
 31 H       -3.9090     2.5520    -0.2680 H     1 <1>   0.0800 
 32 H       -3.0870     1.1210    -0.8620 H     1 <1>   0.0800 
 33 H       -3.6390     2.3400    -1.9900 H     1 <1>   0.0800 
 34 H       -0.7450     6.0920    -1.0980 H     1 <1>   0.0800 
 35 H        0.1110     4.6710    -1.6220 H     1 <1>   0.0800 
 36 H        1.8290     5.3040    -0.0290 H     1 <1>   0.0800 
 37 H        1.5070     5.2300     1.6820 H     1 <1>   0.0800 
 38 H       -1.1910     7.4500     1.2760 H     1 <1>   0.1500 
 39 H       -0.4230     9.9710     1.1010 H     1 <1>   0.1500 
 40 H        3.4970     9.0580    -1.1150 H     1 <1>   0.1500 
 41 H        3.4950    13.2390     1.4380 H     1 <1>   0.1500 
 42 H        5.1780    10.7710    -1.5830 H     1 <1>   0.1500 
 43 H        5.1770    12.8760    -0.3060 H     1 <1>   0.1500 
@<TRIPOS>BOND
  1   1   2  ar  
  2   2   3  ar  
  3   2   4  1   
  4   4   5  1   
  5   4   6  1   
  6   4  25  1   
  7   5   7  1   
  8   5   8  1   
  9   5  26  1   
 10   6   9  1   
 11   6  27  1   
 12   6  28  1   
 13   7  10  1   
 14   7  29  1   
 15   7  30  1   
 16   8  31  1   
 17   8  32  1   
 18   8  33  1   
 19   9  10  1   
 20   9  11  1   
 21  10  34  1   
 22  10  35  1   
 23  11  12  1   
 24  11  36  1   
 25  11  37  1   
 26  12  13  1   
 27  12  14  2   
 28  13  15  1   
 29  14  16  1   
 30  14  38  1   
 31  15  16  2   
 32  15  17  1   
 33  16  39  1   
 34  17  18  ar  
 35  17  19  ar  
 36  18  20  1   
 37  18  21  ar  
 38  19  22  ar  
 39  19  40  1   
 40  20  23  3   
 41  21  24  ar  
 42  21  41  1   
 43  22  24  ar  
 44  22  42  1   
 45  24  43  1   
@<TRIPOS>SUBSTRUCTURE
  1 ****  12 GROUP 4 **** **** 0

# MOE 2024.06 (io_trps.svl 2023.06)
