@<TRIPOS>MOLECULE
NONAME
55 57 1 0 0 
SMALL
USER_CHARGES


@<TRIPOS>ATOM
  1 O       -0.7310     1.5950    -0.4850 O.2   1 <1>  -0.5700 
  2 C       -1.8120     1.4940     0.0620 C.2   1 <1>   0.5440 
  3 N       -2.5640     0.3560    -0.1600 N.am  1 <1>  -0.6600 
  4 C       -2.2650     2.5800     0.9100 C.ar  1 <1>   0.0860 
  5 C       -3.9940     0.3410    -0.5970 C.3   1 <1>   0.2200 
  6 C       -1.8500    -0.9240    -0.4350 C.3   1 <1>   0.0600 
  7 C       -2.3840     3.8720     0.4060 C.ar  1 <1>  -0.1500 
  8 C       -2.5780     2.3780     2.2550 C.ar  1 <1>  -0.1500 
  9 C       -4.3230     1.3960    -1.6530 C.3   1 <1>  -0.1600 
 10 C       -4.9880     0.5370     0.5490 C.3   1 <1>  -0.1600 
 11 C       -2.8580     4.9050     1.1970 C.ar  1 <1>   0.0830 
 12 C       -3.0360     3.4110     3.0540 C.ar  1 <1>  -0.1500 
 13 C       -5.8040     1.7430    -1.4420 C.3   1 <1>  -0.0800 
 14 C       -6.0800     1.4960     0.0450 C.3   1 <1>  -0.0800 
 15 O       -3.0350     6.1360     0.6810 O.3   1 <1>  -0.3630 
 16 C       -3.1870     4.6790     2.5230 C.ar  1 <1>  -0.1500 
 17 C       -6.1080     3.2240    -1.6780 C.3   1 <1>  -0.1600 
 18 C       -6.0870     2.8830     0.7180 C.3   1 <1>  -0.1600 
 19 C       -1.8610     6.8480     0.3590 C.3   1 <1>   0.1200 
 20 C       -5.6730     3.8740    -0.3700 C.3   1 <1>   0.4230 
 21 C       -2.2660     8.2140    -0.1860 C.3   1 <1>  -0.2400 
 22 N       -6.1780     5.2600    -0.1520 N.4   1 <1>  -0.9590 
 23 C       -7.6680     5.4070    -0.1170 C.3   1 <1>   0.2630 
 24 C       -5.5840     6.1960    -1.1550 C.3   1 <1>   0.2630 
 25 H       -4.2100    -0.6170    -1.0400 H     1 <1>   0.0800 
 26 H       -2.3680    -1.7430     0.0330 H     1 <1>   0.0800 
 27 H       -0.8480    -0.8830    -0.0440 H     1 <1>   0.0800 
 28 H       -1.7980    -1.0900    -1.4970 H     1 <1>   0.0800 
 29 H       -2.1060     4.0550    -0.6160 H     1 <1>   0.1500 
 30 H       -2.4540     1.3930     2.6710 H     1 <1>   0.1500 
 31 H       -3.7100     2.2660    -1.5290 H     1 <1>   0.0800 
 32 H       -4.1580     1.0040    -2.6420 H     1 <1>   0.0800 
 33 H       -5.4310    -0.4160     0.7800 H     1 <1>   0.0800 
 34 H       -4.5160     0.8950     1.4400 H     1 <1>   0.0800 
 35 H       -3.2690     3.2280     4.0900 H     1 <1>   0.1500 
 36 H       -6.4190     1.1040    -2.0560 H     1 <1>   0.0800 
 37 H       -7.0490     1.0380     0.1660 H     1 <1>   0.0800 
 38 H       -3.5440     5.4890     3.1340 H     1 <1>   0.1500 
 39 H       -7.1650     3.3350    -1.8340 H     1 <1>   0.0800 
 40 H       -5.5690     3.6050    -2.5270 H     1 <1>   0.0800 
 41 H       -5.4100     2.9360     1.5490 H     1 <1>   0.0800 
 42 H       -7.0810     3.0750     1.0720 H     1 <1>   0.0800 
 43 H       -1.2700     6.9520     1.2540 H     1 <1>   0.0800 
 44 H       -1.3030     6.2930    -0.3770 H     1 <1>   0.0800 
 45 H       -4.5990     3.9020    -0.3800 H     1 <1>   0.0800 
 46 H       -2.8340     8.7540     0.5500 H     1 <1>   0.0800 
 47 H       -2.8430     8.1050    -1.0860 H     1 <1>   0.0800 
 48 H       -1.3840     8.7830    -0.4170 H     1 <1>   0.0800 
 49 H       -5.7980     5.5420     0.7660 H     1 <1>   0.4500 
 50 H       -8.0970     5.1120    -1.0600 H     1 <1>   0.0800 
 51 H       -7.9350     6.4330     0.0750 H     1 <1>   0.0800 
 52 H       -8.0920     4.7960     0.6620 H     1 <1>   0.0800 
 53 H       -5.9510     5.9690    -2.1430 H     1 <1>   0.0800 
 54 H       -4.5100     6.1070    -1.1580 H     1 <1>   0.0800 
 55 H       -5.8410     7.2140    -0.9140 H     1 <1>   0.0800 
@<TRIPOS>BOND
  1   1   2  2   
  2   2   3  am  
  3   2   4  1   
  4   3   5  1   
  5   3   6  1   
  6   4   7  ar  
  7   4   8  ar  
  8   5   9  1   
  9   5  10  1   
 10   5  25  1   
 11   6  26  1   
 12   6  27  1   
 13   6  28  1   
 14   7  11  ar  
 15   7  29  1   
 16   8  12  ar  
 17   8  30  1   
 18   9  13  1   
 19   9  31  1   
 20   9  32  1   
 21  10  14  1   
 22  10  33  1   
 23  10  34  1   
 24  11  15  1   
 25  11  16  ar  
 26  12  16  ar  
 27  12  35  1   
 28  13  14  1   
 29  13  17  1   
 30  13  36  1   
 31  14  18  1   
 32  14  37  1   
 33  15  19  1   
 34  16  38  1   
 35  17  20  1   
 36  17  39  1   
 37  17  40  1   
 38  18  20  1   
 39  18  41  1   
 40  18  42  1   
 41  19  21  1   
 42  19  43  1   
 43  19  44  1   
 44  20  22  1   
 45  20  45  1   
 46  21  46  1   
 47  21  47  1   
 48  21  48  1   
 49  22  23  1   
 50  22  24  1   
 51  22  49  1   
 52  23  50  1   
 53  23  51  1   
 54  23  52  1   
 55  24  53  1   
 56  24  54  1   
 57  24  55  1   
@<TRIPOS>SUBSTRUCTURE
  1 ****   7 GROUP 4 **** **** 0

# MOE 2024.06 (io_trps.svl 2023.06)
