@<TRIPOS>MOLECULE
NONAME
44 45 1 0 0 
SMALL
USER_CHARGES


@<TRIPOS>ATOM
  1 F       -0.0360     1.2910    -2.2360 F     1 <1>  -0.3400 
  2 C        0.3230     2.2970    -1.4420 C.3   1 <1>   0.9600 
  3 F       -0.0210     3.3850    -2.1250 F     1 <1>  -0.3400 
  4 O        1.7480     2.3150    -1.3910 O.3   1 <1>  -0.3630 
  5 C       -0.4580     2.2590    -0.0910 C.3   1 <1>   0.6000 
  6 C        2.4290     1.4710    -0.5810 C.ar  1 <1>   0.0830 
  7 F       -0.0290     3.1860     0.7650 F     1 <1>  -0.3400 
  8 F       -0.3100     1.1050     0.5630 F     1 <1>  -0.3400 
  9 C        3.2140     1.9830     0.4660 C.ar  1 <1>   0.0860 
 10 C        2.3520     0.1030    -0.8130 C.ar  1 <1>  -0.1500 
 11 C        3.3740     3.4030     0.7320 C.2   1 <1>   0.5440 
 12 C        3.8640     1.0560     1.2840 C.ar  1 <1>  -0.1500 
 13 C        3.0160    -0.7840     0.0110 C.ar  1 <1>  -0.1500 
 14 O        3.5450     3.7940     1.8700 O.2   1 <1>  -0.5700 
 15 N        3.3610     4.3160    -0.2890 N.am  1 <1>  -0.7300 
 16 C        3.7700    -0.3050     1.0660 C.ar  1 <1>  -0.1500 
 17 C        3.3260     5.7970    -0.2040 C.3   1 <1>   0.2200 
 18 C        4.4220     6.3500     0.7240 C.3   1 <1>  -0.0170 
 19 C        1.9130     6.2110     0.2100 C.3   1 <1>  -0.2400 
 20 C        4.9040     7.7190     0.2680 C.ar  1 <1>   0.1670 
 21 N        4.0880     8.7420     0.4700 N.ar  1 <1>  -0.6200 
 22 C        6.1520     7.8370    -0.3280 C.ar  1 <1>  -0.1500 
 23 C        4.5210     9.9250     0.0710 C.ar  1 <1>   0.1670 
 24 C        6.5970     9.0730    -0.7420 C.ar  1 <1>  -0.1500 
 25 C        5.7500    10.1400    -0.5320 C.ar  1 <1>  -0.1500 
 26 C        3.5780    11.0840     0.3120 C.3   1 <1>  -0.0970 
 27 H       -1.5090     2.4130    -0.2380 H     1 <1>   0.0800 
 28 H        1.7780    -0.2840    -1.6360 H     1 <1>   0.1500 
 29 H        4.4560     1.4180     2.1080 H     1 <1>   0.1500 
 30 H        2.9490    -1.8450    -0.1660 H     1 <1>   0.1500 
 31 H        3.1310     3.9520    -1.2160 H     1 <1>   0.3700 
 32 H        4.2840    -0.9930     1.7160 H     1 <1>   0.1500 
 33 H        3.5140     6.1780    -1.1940 H     1 <1>   0.0800 
 34 H        5.2550     5.6730     0.7310 H     1 <1>   0.0800 
 35 H        4.0520     6.4230     1.7310 H     1 <1>   0.0800 
 36 H        1.6900     5.8430     1.1960 H     1 <1>   0.0800 
 37 H        1.1910     5.8270    -0.4860 H     1 <1>   0.0800 
 38 H        1.8330     7.2830     0.2240 H     1 <1>   0.0800 
 39 H        6.7720     6.9710    -0.4670 H     1 <1>   0.1500 
 40 H        7.5590     9.2000    -1.2070 H     1 <1>   0.1500 
 41 H        6.0450    11.1280    -0.8340 H     1 <1>   0.1500 
 42 H        3.3650    11.1570     1.3630 H     1 <1>   0.0800 
 43 H        2.6580    10.9100    -0.2150 H     1 <1>   0.0800 
 44 H        4.0040    12.0100    -0.0230 H     1 <1>   0.0800 
@<TRIPOS>BOND
  1   1   2  1   
  2   2   3  1   
  3   2   4  1   
  4   2   5  1   
  5   4   6  1   
  6   5   7  1   
  7   5   8  1   
  8   5  27  1   
  9   6   9  ar  
 10   6  10  ar  
 11   9  11  1   
 12   9  12  ar  
 13  10  13  ar  
 14  10  28  1   
 15  11  14  2   
 16  11  15  am  
 17  12  16  ar  
 18  12  29  1   
 19  13  16  ar  
 20  13  30  1   
 21  15  17  1   
 22  15  31  1   
 23  16  32  1   
 24  17  18  1   
 25  17  19  1   
 26  17  33  1   
 27  18  20  1   
 28  18  34  1   
 29  18  35  1   
 30  19  36  1   
 31  19  37  1   
 32  19  38  1   
 33  20  21  ar  
 34  20  22  ar  
 35  21  23  ar  
 36  22  24  ar  
 37  22  39  1   
 38  23  25  ar  
 39  23  26  1   
 40  24  25  ar  
 41  24  40  1   
 42  25  41  1   
 43  26  42  1   
 44  26  43  1   
 45  26  44  1   
@<TRIPOS>SUBSTRUCTURE
  1 ****  15 GROUP 4 **** **** 0

# MOE 2024.06 (io_trps.svl 2023.06)
