@<TRIPOS>MOLECULE
NONAME
65 68 1 0 0 
SMALL
USER_CHARGES


@<TRIPOS>ATOM
  1 O        0.9400     0.6590    -1.7180 O.3   1 <1>  -0.5600 
  2 C        2.1140    -0.1160    -1.7350 C.3   1 <1>   0.2000 
  3 C        1.1430     2.0330    -1.5790 C.3   1 <1>   0.1200 
  4 C        2.9820     0.1290    -0.4670 C.3   1 <1>   0.5660 
  5 C        1.7200    -1.5990    -1.8340 C.3   1 <1>   0.1200 
  6 C        1.8200     2.3230    -0.2320 C.3   1 <1>   0.3430 
  7 N        3.1090     1.5690    -0.0760 N.4   1 <1>  -0.9590 
  8 C        4.3870    -0.4260    -0.6520 C.ar  1 <1>  -0.1430 
  9 O        1.2340    -2.0530    -0.6100 O.3   1 <1>  -0.6800 
 10 C        3.6660     1.6990     1.2960 C.3   1 <1>   0.4870 
 11 C        4.8660    -1.3690     0.2460 C.ar  1 <1>  -0.1500 
 12 C        5.2010    -0.0170    -1.7030 C.ar  1 <1>  -0.1500 
 13 C        3.8380     3.1720     1.6020 C.ar  1 <1>  -0.1430 
 14 C        6.1400    -1.8950     0.1110 C.ar  1 <1>   0.0830 
 15 C        6.4720    -0.5430    -1.8480 C.ar  1 <1>  -0.1500 
 16 C        4.8440     3.8860     0.9640 C.ar  1 <1>   0.0830 
 17 C        2.9930     3.8130     2.4970 C.ar  1 <1>  -0.1500 
 18 O        6.5210    -2.8210     1.0220 O.3   1 <1>  -0.3620 
 19 C        6.9600    -1.4600    -0.9350 C.ar  1 <1>   0.0830 
 20 O        5.6630     3.2040     0.1240 O.3   1 <1>  -0.3630 
 21 C        4.9750     5.2510     1.2000 C.ar  1 <1>  -0.1500 
 22 C        3.1380     5.1670     2.7380 C.ar  1 <1>  -0.1500 
 23 C        6.8080    -4.1160     0.5350 C.3   1 <1>   0.0400 
 24 O        8.2330    -1.8890    -1.1090 O.3   1 <1>  -0.3630 
 25 C        7.0130     3.6130    -0.0280 C.3   1 <1>   0.2000 
 26 C        4.1250     5.8860     2.0870 C.ar  1 <1>  -0.1500 
 27 C        9.1650    -1.5260    -0.1140 C.3   1 <1>   0.0400 
 28 C        7.1580     4.3410    -1.3660 C.3   1 <1>  -0.1600 
 29 C        7.8950     2.3620    -0.1220 C.3   1 <1>  -0.1600 
 30 C        7.6190     3.2720    -2.3540 C.3   1 <1>  -0.1600 
 31 C        8.5250     2.3760    -1.5180 C.3   1 <1>  -0.1600 
 32 H        2.6550     0.1530    -2.6230 H     1 <1>   0.0800 
 33 H        1.7370     2.3880    -2.4040 H     1 <1>   0.0800 
 34 H        0.1790     2.5100    -1.6180 H     1 <1>   0.0800 
 35 H        2.5100    -0.4020     0.3430 H     1 <1>   0.0800 
 36 H        2.5740    -2.2010    -2.0930 H     1 <1>   0.0800 
 37 H        0.9560    -1.7290    -2.5820 H     1 <1>   0.0800 
 38 H        1.1380     2.0420     0.5540 H     1 <1>   0.0800 
 39 H        2.0030     3.3820    -0.1460 H     1 <1>   0.0800 
 40 H        3.8250     1.9940    -0.6800 H     1 <1>   0.4500 
 41 H        0.7650    -2.9080    -0.7200 H     1 <1>   0.4000 
 42 H        3.0050     1.2460     2.0150 H     1 <1>   0.0800 
 43 H        4.6270     1.2120     1.3530 H     1 <1>   0.0800 
 44 H        4.2580    -1.7230     1.0620 H     1 <1>   0.1500 
 45 H        4.8680     0.7100    -2.4250 H     1 <1>   0.1500 
 46 H        7.0990    -0.2390    -2.6670 H     1 <1>   0.1500 
 47 H        2.2180     3.2720     3.0140 H     1 <1>   0.1500 
 48 H        5.7290     5.8320     0.7010 H     1 <1>   0.1500 
 49 H        2.4840     5.6670     3.4340 H     1 <1>   0.1500 
 50 H        6.9580    -4.7660     1.3780 H     1 <1>   0.0800 
 51 H        7.6990    -4.0850    -0.0650 H     1 <1>   0.0800 
 52 H        5.9750    -4.4600    -0.0520 H     1 <1>   0.0800 
 53 H        7.3070     4.2240     0.8090 H     1 <1>   0.0800 
 54 H        4.2310     6.9420     2.2730 H     1 <1>   0.1500 
 55 H       10.1360    -1.8680    -0.4220 H     1 <1>   0.0800 
 56 H        8.8940    -1.9880     0.8180 H     1 <1>   0.0800 
 57 H        9.1670    -0.4550    -0.0130 H     1 <1>   0.0800 
 58 H        6.2490     4.8250    -1.6770 H     1 <1>   0.0800 
 59 H        7.9340     5.0800    -1.2730 H     1 <1>   0.0800 
 60 H        8.6670     2.3880     0.6280 H     1 <1>   0.0800 
 61 H        7.3060     1.4730     0.0170 H     1 <1>   0.0800 
 62 H        6.7700     2.7080    -2.7000 H     1 <1>   0.0800 
 63 H        8.1350     3.6950    -3.1990 H     1 <1>   0.0800 
 64 H        9.5040     2.8220    -1.4610 H     1 <1>   0.0800 
 65 H        8.6230     1.3890    -1.9340 H     1 <1>   0.0800 
@<TRIPOS>BOND
  1   1   2  1   
  2   1   3  1   
  3   2   4  1   
  4   2   5  1   
  5   2  32  1   
  6   3   6  1   
  7   3  33  1   
  8   3  34  1   
  9   4   7  1   
 10   4   8  1   
 11   4  35  1   
 12   5   9  1   
 13   5  36  1   
 14   5  37  1   
 15   6   7  1   
 16   6  38  1   
 17   6  39  1   
 18   7  10  1   
 19   7  40  1   
 20   8  11  ar  
 21   8  12  ar  
 22   9  41  1   
 23  10  13  1   
 24  10  42  1   
 25  10  43  1   
 26  11  14  ar  
 27  11  44  1   
 28  12  15  ar  
 29  12  45  1   
 30  13  16  ar  
 31  13  17  ar  
 32  14  18  1   
 33  14  19  ar  
 34  15  19  ar  
 35  15  46  1   
 36  16  20  1   
 37  16  21  ar  
 38  17  22  ar  
 39  17  47  1   
 40  18  23  1   
 41  19  24  1   
 42  20  25  1   
 43  21  26  ar  
 44  21  48  1   
 45  22  26  ar  
 46  22  49  1   
 47  23  50  1   
 48  23  51  1   
 49  23  52  1   
 50  24  27  1   
 51  25  28  1   
 52  25  29  1   
 53  25  53  1   
 54  26  54  1   
 55  27  55  1   
 56  27  56  1   
 57  27  57  1   
 58  28  30  1   
 59  28  58  1   
 60  28  59  1   
 61  29  31  1   
 62  29  60  1   
 63  29  61  1   
 64  30  31  1   
 65  30  62  1   
 66  30  63  1   
 67  31  64  1   
 68  31  65  1   
@<TRIPOS>SUBSTRUCTURE
  1 ****   8 GROUP 4 **** **** 0

# MOE 2024.06 (io_trps.svl 2023.06)
