@<TRIPOS>MOLECULE
NONAME
56 59 1 0 0 
SMALL
USER_CHARGES


@<TRIPOS>ATOM
  1 S       -1.0370    -0.8460     0.9660 S.3   1 <1>  -0.0800 
  2 C       -0.8140     0.0170    -0.5560 C.2   1 <1>   0.3250 
  3 C       -2.1810    -1.9080     0.2040 C.2   1 <1>  -0.1400 
  4 N       -1.5410    -0.4750    -1.4990 N.2   1 <1>  -0.5650 
  5 C        0.0950     1.1430    -0.6150 C.ar  1 <1>   0.0530 
  6 C       -2.2980    -1.5460    -1.0800 C.2   1 <1>   0.0770 
  7 C       -2.8290    -2.9950     1.0250 C.3   1 <1>   0.5230 
  8 C        0.0610     2.0010    -1.7150 C.ar  1 <1>  -0.1500 
  9 C        1.0270     1.4260     0.3890 C.ar  1 <1>  -0.1500 
 10 N       -4.1360    -2.4870     1.4990 N.4   1 <1>  -0.9590 
 11 C        0.9090     3.0980    -1.8130 C.ar  1 <1>   0.0830 
 12 C        1.8750     2.5150     0.3010 C.ar  1 <1>  -0.1500 
 13 C       -5.1350    -3.5660     1.7660 C.3   1 <1>   0.3430 
 14 C       -4.0720    -1.4560     2.5700 C.3   1 <1>   0.3430 
 15 O        0.9110     3.9610    -2.8590 O.3   1 <1>  -0.3630 
 16 C        1.8150     3.3510    -0.7980 C.ar  1 <1>  -0.1500 
 17 C       -6.5770    -3.0640     1.5260 C.3   1 <1>   0.1400 
 18 C       -4.9650    -0.2670     2.1990 C.3   1 <1>  -0.1600 
 19 C        0.0320     3.7930    -3.9500 C.3   1 <1>   0.0400 
 20 N       -6.6070    -1.6660     0.9790 N.am  1 <1>  -0.6600 
 21 C       -6.4530    -0.5980     2.0050 C.3   1 <1>   0.1400 
 22 C       -6.6000    -1.3480    -0.3650 C.2   1 <1>   0.5690 
 23 O       -6.6510    -0.1910    -0.7110 O.2   1 <1>  -0.5700 
 24 C       -6.4500    -2.4420    -1.4490 C.3   1 <1>   0.2610 
 25 O       -5.3720    -3.3150    -1.1880 O.3   1 <1>  -0.5600 
 26 C       -6.1530    -1.9410    -2.8620 C.3   1 <1>  -0.1600 
 27 C       -5.0790    -4.0330    -2.3490 C.3   1 <1>   0.1200 
 28 C       -5.4240    -3.1080    -3.5120 C.3   1 <1>  -0.1600 
 29 H       -2.9360    -2.0140    -1.8130 H     1 <1>   0.1500 
 30 H       -2.1990    -3.2820     1.8510 H     1 <1>   0.0800 
 31 H       -2.9870    -3.8530     0.3920 H     1 <1>   0.0800 
 32 H       -0.6470     1.7900    -2.4930 H     1 <1>   0.1500 
 33 H        1.1050     0.7940     1.2530 H     1 <1>   0.1500 
 34 H       -4.5400    -1.9950     0.6830 H     1 <1>   0.4500 
 35 H        2.5840     2.7150     1.0860 H     1 <1>   0.1500 
 36 H       -4.9610    -4.3880     1.0910 H     1 <1>   0.0800 
 37 H       -5.0340    -3.9410     2.7720 H     1 <1>   0.0800 
 38 H       -4.3870    -1.8760     3.5110 H     1 <1>   0.0800 
 39 H       -3.0600    -1.1040     2.6840 H     1 <1>   0.0800 
 40 H        2.4690     4.2000    -0.8780 H     1 <1>   0.1500 
 41 H       -7.1270    -3.1010     2.4510 H     1 <1>   0.0800 
 42 H       -7.0740    -3.7360     0.8470 H     1 <1>   0.0800 
 43 H       -4.8880     0.4670     2.9820 H     1 <1>   0.0800 
 44 H       -4.5880     0.2010     1.3060 H     1 <1>   0.0800 
 45 H        0.2150     4.5870    -4.6510 H     1 <1>   0.0800 
 46 H       -0.9810     3.8450    -3.5940 H     1 <1>   0.0800 
 47 H        0.2290     2.8420    -4.4140 H     1 <1>   0.0800 
 48 H       -6.9780     0.2890     1.6860 H     1 <1>   0.0800 
 49 H       -6.8940    -0.9130     2.9360 H     1 <1>   0.0800 
 50 H       -7.3480    -3.0340    -1.4660 H     1 <1>   0.0800 
 51 H       -7.0550    -1.6700    -3.3820 H     1 <1>   0.0800 
 52 H       -5.5050    -1.0820    -2.8220 H     1 <1>   0.0800 
 53 H       -4.0380    -4.3090    -2.3430 H     1 <1>   0.0800 
 54 H       -5.6950    -4.9170    -2.3650 H     1 <1>   0.0800 
 55 H       -4.5350    -2.7760    -4.0200 H     1 <1>   0.0800 
 56 H       -6.0540    -3.6220    -4.2180 H     1 <1>   0.0800 
@<TRIPOS>BOND
  1   1   2  1   
  2   1   3  1   
  3   2   4  2   
  4   2   5  1   
  5   3   6  2   
  6   3   7  1   
  7   4   6  1   
  8   5   8  ar  
  9   5   9  ar  
 10   6  29  1   
 11   7  10  1   
 12   7  30  1   
 13   7  31  1   
 14   8  11  ar  
 15   8  32  1   
 16   9  12  ar  
 17   9  33  1   
 18  10  13  1   
 19  10  14  1   
 20  10  34  1   
 21  11  15  1   
 22  11  16  ar  
 23  12  16  ar  
 24  12  35  1   
 25  13  17  1   
 26  13  36  1   
 27  13  37  1   
 28  14  18  1   
 29  14  38  1   
 30  14  39  1   
 31  15  19  1   
 32  16  40  1   
 33  17  20  1   
 34  17  41  1   
 35  17  42  1   
 36  18  21  1   
 37  18  43  1   
 38  18  44  1   
 39  19  45  1   
 40  19  46  1   
 41  19  47  1   
 42  20  21  1   
 43  20  22  am  
 44  21  48  1   
 45  21  49  1   
 46  22  23  2   
 47  22  24  1   
 48  24  25  1   
 49  24  26  1   
 50  24  50  1   
 51  25  27  1   
 52  26  28  1   
 53  26  51  1   
 54  26  52  1   
 55  27  28  1   
 56  27  53  1   
 57  27  54  1   
 58  28  55  1   
 59  28  56  1   
@<TRIPOS>SUBSTRUCTURE
  1 ****   6 GROUP 4 **** **** 0

# MOE 2024.06 (io_trps.svl 2023.06)
