@<TRIPOS>MOLECULE
NONAME
38 40 1 0 0 
SMALL
USER_CHARGES


@<TRIPOS>ATOM
  1 O       -1.4760    -0.3190    -0.4320 O.2   1 <1>  -0.5700 
  2 C       -2.0730     0.5100     0.2280 C.2   1 <1>   0.5440 
  3 N       -3.0550     0.0790     1.0900 N.am  1 <1>  -0.6600 
  4 C       -1.7550     1.9060     0.0600 C.ar  1 <1>   0.0860 
  5 C       -3.1520    -1.3670     1.4570 C.3   1 <1>   0.3200 
  6 C       -4.2810     0.8810     1.4020 C.3   1 <1>   0.1400 
  7 C       -1.5790     2.4680    -1.1880 C.ar  1 <1>   0.1600 
  8 C       -1.5910     2.7720     1.1230 C.ar  1 <1>   0.1600 
  9 C       -3.9940    -2.1120     0.4370 C.2   1 <1>   0.0060 
 10 C       -5.1930     1.0020     0.1750 C.3   1 <1>   0.1200 
 11 N       -1.3050     3.7420    -1.3740 N.ar  1 <1>  -0.6200 
 12 N       -1.3180     4.0500     0.9780 N.ar  1 <1>  -0.6200 
 13 N       -5.1670    -2.6150     0.6600 N.2   1 <1>  -0.5650 
 14 N       -3.5600    -2.2880    -0.8280 N.pl3 1 <1>   0.0330 
 15 O       -6.3220     1.7260     0.5220 O.3   1 <1>  -0.6800 
 16 C       -1.1960     4.4700    -0.2730 C.ar  1 <1>   0.5880 
 17 C       -5.5120    -3.1560    -0.5250 C.2   1 <1>   0.0770 
 18 C       -4.5440    -2.9630    -1.4480 C.2   1 <1>  -0.3020 
 19 C       -0.8840     5.9480    -0.4660 C.3   1 <1>  -0.0680 
 20 C       -1.7410     7.0130     0.1580 C.3   1 <1>  -0.2000 
 21 C       -1.7550     6.8200    -1.3260 C.3   1 <1>  -0.2000 
 22 H       -3.5950    -1.4690     2.4320 H     1 <1>   0.0800 
 23 H       -2.1680    -1.8030     1.4950 H     1 <1>   0.0800 
 24 H       -4.0040     1.8660     1.7310 H     1 <1>   0.0800 
 25 H       -4.8260     0.4040     2.1980 H     1 <1>   0.0800 
 26 H       -1.6680     1.8410    -2.0600 H     1 <1>   0.1500 
 27 H       -1.6890     2.3940     2.1270 H     1 <1>   0.1500 
 28 H       -5.5100     0.0370    -0.1810 H     1 <1>   0.0800 
 29 H       -4.6960     1.5350    -0.6160 H     1 <1>   0.0800 
 30 H       -2.6680    -1.9310    -1.1990 H     1 <1>   0.2700 
 31 H       -6.9570     1.1590     1.0050 H     1 <1>   0.4000 
 32 H       -6.4540    -3.6640    -0.6550 H     1 <1>   0.1500 
 33 H       -4.5020    -3.2610    -2.4800 H     1 <1>   0.1500 
 34 H        0.1750     6.1230    -0.4990 H     1 <1>   0.1000 
 35 H       -1.2580     7.8820     0.5690 H     1 <1>   0.1000 
 36 H       -2.6010     6.7090     0.7290 H     1 <1>   0.1000 
 37 H       -2.6240     6.3800    -1.7850 H     1 <1>   0.1000 
 38 H       -1.2810     7.5520    -1.9560 H     1 <1>   0.1000 
@<TRIPOS>BOND
  1   1   2  2   
  2   2   3  am  
  3   2   4  1   
  4   3   5  1   
  5   3   6  1   
  6   4   7  ar  
  7   4   8  ar  
  8   5   9  1   
  9   5  22  1   
 10   5  23  1   
 11   6  10  1   
 12   6  24  1   
 13   6  25  1   
 14   7  11  ar  
 15   7  26  1   
 16   8  12  ar  
 17   8  27  1   
 18   9  13  2   
 19   9  14  1   
 20  10  15  1   
 21  10  28  1   
 22  10  29  1   
 23  11  16  ar  
 24  12  16  ar  
 25  13  17  1   
 26  14  18  1   
 27  14  30  1   
 28  15  31  1   
 29  16  19  1   
 30  17  18  2   
 31  17  32  1   
 32  18  33  1   
 33  19  20  1   
 34  19  21  1   
 35  19  34  1   
 36  20  21  1   
 37  20  35  1   
 38  20  36  1   
 39  21  37  1   
 40  21  38  1   
@<TRIPOS>SUBSTRUCTURE
  1 ****   2 GROUP 4 **** **** 0

# MOE 2024.06 (io_trps.svl 2023.06)
