@<TRIPOS>MOLECULE
NONAME
38 39 1 0 0 
SMALL
USER_CHARGES


@<TRIPOS>ATOM
  1 N       -1.2220    -0.4970     0.6760 N.ar  1 <1>  -0.6200 
  2 C       -1.7700    -1.6800     0.4610 C.ar  1 <1>   0.4100 
  3 C       -0.0400    -0.3780     0.0790 C.ar  1 <1>   0.1600 
  4 N       -3.0450    -1.8980     1.0070 N.pl3 1 <1>  -0.8380 
  5 C       -1.1370    -2.7020    -0.3150 C.ar  1 <1>   0.4100 
  6 C        0.5560    -1.3660    -0.6860 C.ar  1 <1>   0.1600 
  7 C       -3.2920    -1.3740     2.3780 C.3   1 <1>   0.1290 
  8 C       -4.1880    -1.6750     0.0770 C.3   1 <1>   0.1290 
  9 N        0.0270    -2.5620    -0.9170 N.ar  1 <1>  -0.6200 
 10 N       -1.7710    -3.9190    -0.4600 N.pl3 1 <1>  -0.8690 
 11 C       -2.1850    -4.2800    -1.8230 C.3   1 <1>   0.4690 
 12 C       -3.6830    -4.5720    -1.8480 C.2   1 <1>   0.0060 
 13 C       -1.3500    -5.4640    -2.3010 C.3   1 <1>  -0.2400 
 14 N       -4.4950    -4.0460    -2.6990 N.2   1 <1>  -0.5650 
 15 N       -4.3360    -5.3830    -0.9960 N.pl3 1 <1>   0.3140 
 16 C       -5.6630    -4.5800    -2.3310 C.2   1 <1>   0.3660 
 17 N       -5.6240    -5.3800    -1.3200 N.2   1 <1>  -0.7070 
 18 C       -3.8520    -6.1860     0.1550 C.3   1 <1>   0.0960 
 19 C       -4.2400    -5.5400     1.4930 C.3   1 <1>  -0.2400 
 20 H        0.4730     0.5580     0.2090 H     1 <1>   0.1500 
 21 H        1.5150    -1.1690    -1.1320 H     1 <1>   0.1500 
 22 H       -2.4270    -1.5490     2.9960 H     1 <1>   0.0800 
 23 H       -4.1400    -1.8710     2.8150 H     1 <1>   0.0800 
 24 H       -3.4780    -0.3140     2.3390 H     1 <1>   0.0800 
 25 H       -3.8740    -1.8030    -0.9450 H     1 <1>   0.0800 
 26 H       -4.5690    -0.6740     0.1930 H     1 <1>   0.0800 
 27 H       -4.9730    -2.3810     0.2860 H     1 <1>   0.0800 
 28 H       -2.6080    -3.8450     0.1290 H     1 <1>   0.4000 
 29 H       -1.9990    -3.4490    -2.4850 H     1 <1>   0.0800 
 30 H       -1.4770    -6.3180    -1.6650 H     1 <1>   0.0800 
 31 H       -0.3120    -5.1850    -2.3120 H     1 <1>   0.0800 
 32 H       -1.6440    -5.7280    -3.3000 H     1 <1>   0.0800 
 33 H       -6.5710    -4.3420    -2.8620 H     1 <1>   0.1500 
 34 H       -2.7860    -6.2950     0.1010 H     1 <1>   0.0800 
 35 H       -4.2940    -7.1630     0.0850 H     1 <1>   0.0800 
 36 H       -3.7880    -4.5700     1.5940 H     1 <1>   0.0800 
 37 H       -3.9010    -6.1570     2.3050 H     1 <1>   0.0800 
 38 H       -5.3090    -5.4440     1.5620 H     1 <1>   0.0800 
@<TRIPOS>BOND
  1   1   2  ar  
  2   1   3  ar  
  3   2   4  1   
  4   2   5  ar  
  5   3   6  ar  
  6   3  20  1   
  7   4   7  1   
  8   4   8  1   
  9   5   9  ar  
 10   5  10  1   
 11   6   9  ar  
 12   6  21  1   
 13   7  22  1   
 14   7  23  1   
 15   7  24  1   
 16   8  25  1   
 17   8  26  1   
 18   8  27  1   
 19  10  11  1   
 20  10  28  1   
 21  11  12  1   
 22  11  13  1   
 23  11  29  1   
 24  12  14  2   
 25  12  15  1   
 26  13  30  1   
 27  13  31  1   
 28  13  32  1   
 29  14  16  1   
 30  15  17  1   
 31  15  18  1   
 32  16  17  2   
 33  16  33  1   
 34  18  19  1   
 35  18  34  1   
 36  18  35  1   
 37  19  36  1   
 38  19  37  1   
 39  19  38  1   
@<TRIPOS>SUBSTRUCTURE
  1 ****  10 GROUP 4 **** **** 0

# MOE 2024.06 (io_trps.svl 2023.06)
