@<TRIPOS>MOLECULE
NONAME
61 65 1 0 0 
SMALL
USER_CHARGES


@<TRIPOS>ATOM
  1 O       -3.4170    -1.5810    -1.4620 O.2   1 <1>  -0.5700 
  2 C       -2.7560    -0.9430    -0.6850 C.2   1 <1>   0.5950 
  3 C       -3.0040     0.4180    -0.3100 C.2   1 <1>  -0.0860 
  4 C       -1.5670    -1.6180    -0.0060 C.3   1 <1>  -0.0990 
  5 C       -4.0510     1.3140    -0.6370 C.2   1 <1>  -0.0860 
  6 C       -2.1780     1.1240     0.4960 C.2   1 <1>  -0.0400 
  7 C       -0.4190    -0.6350     0.3320 C.3   1 <1>  -0.1600 
  8 C       -3.7290     2.4690     0.0070 C.2   1 <1>  -0.0400 
  9 C       -5.1930     1.0170    -1.4640 C.2   1 <1>   0.7160 
 10 O       -2.6160     2.3390     0.6890 O.3   1 <1>  -0.2800 
 11 C       -0.8940     0.6100     1.1100 C.3   1 <1>   0.0200 
 12 C       -4.4460     3.8020     0.0370 C.3   1 <1>  -0.0600 
 13 O       -5.2870     1.5290    -2.5640 O.2   1 <1>  -0.5700 
 14 N       -6.1960     0.1880    -1.0120 N.am  1 <1>  -0.6600 
 15 C       -7.1230    -0.5020    -1.9450 C.3   1 <1>   0.1400 
 16 C       -6.4010    -0.1620     0.4180 C.3   1 <1>   0.1400 
 17 C       -6.9370    -2.0130    -1.7960 C.3   1 <1>  -0.1600 
 18 C       -6.2310    -1.6700     0.6060 C.3   1 <1>  -0.1600 
 19 C       -7.1310    -2.4780    -0.3410 C.3   1 <1>   0.4240 
 20 O       -8.4470    -2.1610     0.0480 O.3   1 <1>  -0.5600 
 21 C       -6.8360    -3.9860    -0.1860 C.ar  1 <1>  -0.1430 
 22 C       -9.4520    -3.0660    -0.2910 C.3   1 <1>   0.1200 
 23 C       -7.8220    -4.8780     0.2130 C.ar  1 <1>  -0.1430 
 24 C       -5.5650    -4.4830    -0.4480 C.ar  1 <1>  -0.1500 
 25 C       -9.2240    -4.3650     0.4770 C.3   1 <1>  -0.0170 
 26 C       -7.5340    -6.2250     0.3710 C.ar  1 <1>  -0.1500 
 27 C       -5.2630    -5.8260    -0.3050 C.ar  1 <1>   0.0820 
 28 C       -6.2550    -6.7170     0.1280 C.ar  1 <1>   0.0820 
 29 O       -3.9780    -6.1690    -0.5990 O.3   1 <1>  -0.3620 
 30 O       -5.9500    -8.0350     0.3180 O.3   1 <1>  -0.3620 
 31 C       -3.7050    -7.3710    -1.2850 C.3   1 <1>   0.0400 
 32 C       -6.8060    -8.8990     1.0320 C.3   1 <1>   0.0400 
 33 H       -1.1970    -2.3940    -0.6510 H     1 <1>   0.0800 
 34 H       -1.9230    -2.0830     0.8950 H     1 <1>   0.0800 
 35 H        0.0210    -0.3030    -0.5940 H     1 <1>   0.0800 
 36 H        0.3470    -1.1420     0.8920 H     1 <1>   0.0800 
 37 H       -1.0760     0.3640     2.1420 H     1 <1>   0.0800 
 38 H       -0.1400     1.3760     1.0700 H     1 <1>   0.0800 
 39 H       -5.3310     3.7670    -0.5730 H     1 <1>   0.0800 
 40 H       -3.7960     4.5700    -0.3410 H     1 <1>   0.0800 
 41 H       -4.7240     4.0450     1.0460 H     1 <1>   0.0800 
 42 H       -6.9220    -0.2130    -2.9630 H     1 <1>   0.0800 
 43 H       -8.1360    -0.2240    -1.7080 H     1 <1>   0.0800 
 44 H       -7.3980     0.1270     0.7060 H     1 <1>   0.0800 
 45 H       -5.7080     0.3660     1.0500 H     1 <1>   0.0800 
 46 H       -5.9430    -2.2570    -2.1210 H     1 <1>   0.0800 
 47 H       -7.6130    -2.5340    -2.4450 H     1 <1>   0.0800 
 48 H       -6.4600    -1.9400     1.6200 H     1 <1>   0.0800 
 49 H       -5.2030    -1.9180     0.4360 H     1 <1>   0.0800 
 50 H       -9.4340    -3.2350    -1.3530 H     1 <1>   0.0800 
 51 H      -10.3960    -2.6280    -0.0200 H     1 <1>   0.0800 
 52 H       -4.7780    -3.8270    -0.7760 H     1 <1>   0.1500 
 53 H       -9.9520    -5.0920     0.1650 H     1 <1>   0.0800 
 54 H       -9.3530    -4.1850     1.5290 H     1 <1>   0.0800 
 55 H       -8.3240    -6.8790     0.6860 H     1 <1>   0.1500 
 56 H       -2.7550    -7.2680    -1.7770 H     1 <1>   0.0800 
 57 H       -4.4800    -7.5480    -2.0090 H     1 <1>   0.0800 
 58 H       -3.6600    -8.1740    -0.5720 H     1 <1>   0.0800 
 59 H       -6.2980    -9.8370     1.1640 H     1 <1>   0.0800 
 60 H       -7.7060    -9.0490     0.4630 H     1 <1>   0.0800 
 61 H       -7.0210    -8.4630     1.9920 H     1 <1>   0.0800 
@<TRIPOS>BOND
  1   1   2  2   
  2   2   3  1   
  3   2   4  1   
  4   3   5  1   
  5   3   6  2   
  6   4   7  1   
  7   4  33  1   
  8   4  34  1   
  9   5   8  2   
 10   5   9  1   
 11   6  10  1   
 12   6  11  1   
 13   7  11  1   
 14   7  35  1   
 15   7  36  1   
 16   8  10  1   
 17   8  12  1   
 18   9  13  2   
 19   9  14  am  
 20  11  37  1   
 21  11  38  1   
 22  12  39  1   
 23  12  40  1   
 24  12  41  1   
 25  14  15  1   
 26  14  16  1   
 27  15  17  1   
 28  15  42  1   
 29  15  43  1   
 30  16  18  1   
 31  16  44  1   
 32  16  45  1   
 33  17  19  1   
 34  17  46  1   
 35  17  47  1   
 36  18  19  1   
 37  18  48  1   
 38  18  49  1   
 39  19  20  1   
 40  19  21  1   
 41  20  22  1   
 42  21  23  ar  
 43  21  24  ar  
 44  22  25  1   
 45  22  50  1   
 46  22  51  1   
 47  23  25  1   
 48  23  26  ar  
 49  24  27  ar  
 50  24  52  1   
 51  25  53  1   
 52  25  54  1   
 53  26  28  ar  
 54  26  55  1   
 55  27  28  ar  
 56  27  29  1   
 57  28  30  1   
 58  29  31  1   
 59  30  32  1   
 60  31  56  1   
 61  31  57  1   
 62  31  58  1   
 63  32  59  1   
 64  32  60  1   
 65  32  61  1   
@<TRIPOS>SUBSTRUCTURE
  1 ****  18 GROUP 4 **** **** 0

# MOE 2024.06 (io_trps.svl 2023.06)
