@<TRIPOS>MOLECULE
NONAME
50 52 1 0 0 
SMALL
USER_CHARGES


@<TRIPOS>ATOM
  1 O       -2.7060     0.7710     3.2860 O.2   1 <1>  -0.5700 
  2 C       -2.5930     1.3680     2.2410 C.2   1 <1>   0.5690 
  3 N       -3.0360     0.8220     1.0650 N.am  1 <1>  -0.6600 
  4 C       -1.9540     2.7510     2.2780 C.3   1 <1>   0.0440 
  5 C       -2.9580     1.4390    -0.2840 C.3   1 <1>   0.1400 
  6 C       -3.4730    -0.5920     0.9590 C.3   1 <1>   0.1400 
  7 C       -0.7590     2.8890     1.3390 C.ar  1 <1>  -0.1440 
  8 C       -3.7390     0.4850    -1.1850 C.3   1 <1>   0.2000 
  9 C       -3.5320    -0.8910    -0.5480 C.3   1 <1>  -0.0800 
 10 C       -0.6730     3.9520     0.4550 C.ar  1 <1>  -0.1500 
 11 C        0.2480     1.9370     1.3480 C.ar  1 <1>  -0.1500 
 12 O       -5.0850     0.8000    -1.0950 O.3   1 <1>  -0.6800 
 13 C       -2.2280    -1.5370    -1.0610 C.3   1 <1>  -0.0170 
 14 C        0.3970     4.0530    -0.4170 C.ar  1 <1>  -0.1500 
 15 C        1.3170     2.0390     0.4760 C.ar  1 <1>  -0.1500 
 16 C       -2.0710    -2.9710    -0.5780 C.ar  1 <1>   0.1670 
 17 C        1.4010     3.0960    -0.4190 C.ar  1 <1>  -0.1430 
 18 N       -1.3400    -3.1570     0.5080 N.ar  1 <1>  -0.6200 
 19 C       -2.6820    -4.0090    -1.2790 C.ar  1 <1>   0.1600 
 20 C        2.5720     3.2200    -1.3920 C.3   1 <1>   0.0630 
 21 C       -1.2660    -4.4330     0.8470 C.ar  1 <1>   0.1600 
 22 N       -2.6100    -5.2860    -0.9440 N.ar  1 <1>  -0.6200 
 23 C        2.6240     2.0160    -2.3390 C.3   1 <1>  -0.2400 
 24 C        3.8960     3.3770    -0.6380 C.3   1 <1>  -0.2400 
 25 C       -1.8800    -5.4630     0.1450 C.ar  1 <1>   0.1600 
 26 H       -2.7090     3.4740     2.0340 H     1 <1>   0.0800 
 27 H       -1.6260     2.9510     3.2810 H     1 <1>   0.0800 
 28 H       -3.3710     2.4330    -0.2980 H     1 <1>   0.0800 
 29 H       -1.9290     1.4700    -0.5990 H     1 <1>   0.0800 
 30 H       -2.7910    -1.2380     1.4860 H     1 <1>   0.0800 
 31 H       -4.4500    -0.6890     1.4000 H     1 <1>   0.0800 
 32 H       -3.4460     0.5430    -2.2190 H     1 <1>   0.0800 
 33 H       -4.3540    -1.5470    -0.7780 H     1 <1>   0.0800 
 34 H       -1.4370     4.7090     0.4360 H     1 <1>   0.1500 
 35 H        0.2030     1.1060     2.0320 H     1 <1>   0.1500 
 36 H       -5.3260     0.8780    -0.1500 H     1 <1>   0.4000 
 37 H       -1.3750    -0.9620    -0.7420 H     1 <1>   0.0800 
 38 H       -2.2290    -1.5400    -2.1360 H     1 <1>   0.0800 
 39 H        0.4430     4.8850    -1.0970 H     1 <1>   0.1500 
 40 H        2.0840     1.2870     0.5000 H     1 <1>   0.1500 
 41 H       -3.2590    -3.7720    -2.1560 H     1 <1>   0.1500 
 42 H        2.4300     4.1020    -1.9930 H     1 <1>   0.0800 
 43 H       -0.6910    -4.6750     1.7230 H     1 <1>   0.1500 
 44 H        2.8150     1.1090    -1.7950 H     1 <1>   0.0800 
 45 H        3.4030     2.1500    -3.0680 H     1 <1>   0.0800 
 46 H        1.6850     1.9160    -2.8540 H     1 <1>   0.0800 
 47 H        4.1130     2.5000    -0.0560 H     1 <1>   0.0800 
 48 H        3.8390     4.2220     0.0260 H     1 <1>   0.0800 
 49 H        4.7030     3.5400    -1.3300 H     1 <1>   0.0800 
 50 H       -1.7620    -6.4720     0.4990 H     1 <1>   0.1500 
@<TRIPOS>BOND
  1   1   2  2   
  2   2   3  am  
  3   2   4  1   
  4   3   5  1   
  5   3   6  1   
  6   4   7  1   
  7   4  26  1   
  8   4  27  1   
  9   5   8  1   
 10   5  28  1   
 11   5  29  1   
 12   6   9  1   
 13   6  30  1   
 14   6  31  1   
 15   7  10  ar  
 16   7  11  ar  
 17   8   9  1   
 18   8  12  1   
 19   8  32  1   
 20   9  13  1   
 21   9  33  1   
 22  10  14  ar  
 23  10  34  1   
 24  11  15  ar  
 25  11  35  1   
 26  12  36  1   
 27  13  16  1   
 28  13  37  1   
 29  13  38  1   
 30  14  17  ar  
 31  14  39  1   
 32  15  17  ar  
 33  15  40  1   
 34  16  18  ar  
 35  16  19  ar  
 36  17  20  1   
 37  18  21  ar  
 38  19  22  ar  
 39  19  41  1   
 40  20  23  1   
 41  20  24  1   
 42  20  42  1   
 43  21  25  ar  
 44  21  43  1   
 45  22  25  ar  
 46  23  44  1   
 47  23  45  1   
 48  23  46  1   
 49  24  47  1   
 50  24  48  1   
 51  24  49  1   
 52  25  50  1   
@<TRIPOS>SUBSTRUCTURE
  1 ****   3 GROUP 4 **** **** 0

# MOE 2024.06 (io_trps.svl 2023.06)
