@<TRIPOS>MOLECULE
NONAME
51 55 1 0 0 
SMALL
USER_CHARGES


@<TRIPOS>ATOM
  1 O       -0.7970     0.5660     1.2700 O.2   1 <1>  -0.5700 
  2 C       -1.8180     1.1080     0.8690 C.2   1 <1>   0.7160 
  3 N       -3.0120     0.4280     1.0690 N.am  1 <1>  -0.6600 
  4 C       -1.7140     2.4070     0.2030 C.2   1 <1>   0.2030 
  5 C       -4.2420     0.6420     0.2600 C.3   1 <1>   0.1400 
  6 C       -3.1540    -0.6210     2.1160 C.3   1 <1>   0.1400 
  7 N       -2.6700     3.3010    -0.0010 N.2   1 <1>  -0.7070 
  8 C       -0.5050     2.8950    -0.3120 C.2   1 <1>  -0.1500 
  9 C       -4.6370    -0.6760    -0.4110 C.3   1 <1>  -0.1600 
 10 C       -3.5260    -1.9480     1.4560 C.3   1 <1>  -0.1600 
 11 N       -2.0880     4.3280    -0.6280 N.pl3 1 <1>   0.3140 
 12 C       -0.7730     4.1070    -0.8330 C.2   1 <1>  -0.3320 
 13 C       -4.7920    -1.8140     0.6050 C.3   1 <1>   0.4600 
 14 C       -2.8510     5.5220    -1.0100 C.3   1 <1>   0.0160 
 15 C        0.1800     5.0730    -1.5160 C.3   1 <1>  -0.0600 
 16 O       -5.8410    -1.5020     1.4980 O.3   1 <1>  -0.5600 
 17 C       -5.1020    -3.1340    -0.0920 C.2   1 <1>  -0.3320 
 18 C       -7.1620    -1.7500     1.0810 C.3   1 <1>   0.1200 
 19 N       -4.2620    -3.8350    -0.9120 N.pl3 1 <1>   0.0330 
 20 C       -6.2720    -3.7930     0.0160 C.2   1 <1>  -0.1810 
 21 C       -7.4020    -3.2520     0.8550 C.3   1 <1>   0.0210 
 22 C       -4.9220    -4.9680    -1.3260 C.ar  1 <1>  -0.1520 
 23 C       -6.1920    -4.9720    -0.7550 C.ar  1 <1>   0.0000 
 24 C       -4.5100    -6.0080    -2.1630 C.ar  1 <1>  -0.1500 
 25 C       -7.0670    -6.0300    -1.0200 C.ar  1 <1>  -0.1500 
 26 C       -5.3820    -7.0420    -2.4160 C.ar  1 <1>  -0.1500 
 27 C       -6.6600    -7.0530    -1.8450 C.ar  1 <1>  -0.1500 
 28 H       -4.0840     1.3780    -0.5050 H     1 <1>   0.0800 
 29 H       -5.0330     0.9850     0.9040 H     1 <1>   0.0800 
 30 H       -3.9280    -0.3250     2.8050 H     1 <1>   0.0800 
 31 H       -2.2410    -0.7340     2.6740 H     1 <1>   0.0800 
 32 H        0.4320     2.3680    -0.2730 H     1 <1>   0.1500 
 33 H       -3.8700    -0.9360    -1.1160 H     1 <1>   0.0800 
 34 H       -5.5450    -0.5490    -0.9680 H     1 <1>   0.0800 
 35 H       -3.6850    -2.7000     2.2070 H     1 <1>   0.0800 
 36 H       -2.7030    -2.2640     0.8440 H     1 <1>   0.0800 
 37 H       -3.8720     5.4020    -0.6990 H     1 <1>   0.0800 
 38 H       -2.8100     5.6410    -2.0760 H     1 <1>   0.0800 
 39 H       -2.4260     6.3810    -0.5260 H     1 <1>   0.0800 
 40 H        1.1700     4.6540    -1.5480 H     1 <1>   0.0800 
 41 H        0.2200     6.0020    -0.9760 H     1 <1>   0.0800 
 42 H       -0.1430     5.2650    -2.5240 H     1 <1>   0.0800 
 43 H       -7.3440    -1.2020     0.1730 H     1 <1>   0.0800 
 44 H       -7.8220    -1.3790     1.8450 H     1 <1>   0.0800 
 45 H       -3.3050    -3.5800    -1.1720 H     1 <1>   0.2700 
 46 H       -8.3410    -3.3980     0.3530 H     1 <1>   0.0800 
 47 H       -7.4310    -3.7650     1.7990 H     1 <1>   0.0800 
 48 H       -3.5270    -5.9930    -2.5970 H     1 <1>   0.1500 
 49 H       -8.0440    -6.0250    -0.5740 H     1 <1>   0.1500 
 50 H       -5.0890    -7.8550    -3.0570 H     1 <1>   0.1500 
 51 H       -7.3220    -7.8740    -2.0580 H     1 <1>   0.1500 
@<TRIPOS>BOND
  1   1   2  2   
  2   2   3  am  
  3   2   4  1   
  4   3   5  1   
  5   3   6  1   
  6   4   7  2   
  7   4   8  1   
  8   5   9  1   
  9   5  28  1   
 10   5  29  1   
 11   6  10  1   
 12   6  30  1   
 13   6  31  1   
 14   7  11  1   
 15   8  12  2   
 16   8  32  1   
 17   9  13  1   
 18   9  33  1   
 19   9  34  1   
 20  10  13  1   
 21  10  35  1   
 22  10  36  1   
 23  11  12  1   
 24  11  14  1   
 25  12  15  1   
 26  13  16  1   
 27  13  17  1   
 28  14  37  1   
 29  14  38  1   
 30  14  39  1   
 31  15  40  1   
 32  15  41  1   
 33  15  42  1   
 34  16  18  1   
 35  17  19  1   
 36  17  20  2   
 37  18  21  1   
 38  18  43  1   
 39  18  44  1   
 40  19  22  1   
 41  19  45  1   
 42  20  21  1   
 43  20  23  1   
 44  21  46  1   
 45  21  47  1   
 46  22  23  ar  
 47  22  24  ar  
 48  23  25  ar  
 49  24  26  ar  
 50  24  48  1   
 51  25  27  ar  
 52  25  49  1   
 53  26  27  ar  
 54  26  50  1   
 55  27  51  1   
@<TRIPOS>SUBSTRUCTURE
  1 ****   9 GROUP 4 **** **** 0

# MOE 2024.06 (io_trps.svl 2023.06)
