@<TRIPOS>MOLECULE
NONAME
57 60 1 0 0 
SMALL
USER_CHARGES


@<TRIPOS>ATOM
  1 O       -0.6590     0.7240    -2.0050 O.2   1 <1>  -0.5700 
  2 C       -1.5620     1.0680    -1.2770 C.2   1 <1>   0.5690 
  3 N       -2.7960     0.4670    -1.3250 N.am  1 <1>  -0.6600 
  4 C       -1.3060     2.2050    -0.2990 C.3   1 <1>  -0.0990 
  5 C       -3.9940     0.8790    -0.5430 C.3   1 <1>   0.1400 
  6 C       -3.0350    -0.7490    -2.1520 C.3   1 <1>   0.1400 
  7 C        0.1740     2.5850    -0.1650 C.3   1 <1>   0.0210 
  8 C       -4.3780    -0.2510     0.4140 C.3   1 <1>  -0.1600 
  9 C       -3.4120    -1.9140    -1.2320 C.3   1 <1>  -0.1600 
 10 C        0.3310     3.7480     0.7950 C.2   1 <1>   0.1080 
 11 C       -4.6170    -1.5800    -0.3320 C.3   1 <1>   0.4240 
 12 N        0.3020     3.5860     2.0810 N.2   1 <1>  -0.7070 
 13 C        0.5080     5.0840     0.4360 C.2   1 <1>  -0.1810 
 14 O       -5.6640    -1.3450    -1.2500 O.3   1 <1>  -0.5600 
 15 C       -4.9510    -2.7560     0.6330 C.ar  1 <1>  -0.1440 
 16 N        0.4680     4.8220     2.5820 N.pl3 1 <1>   0.3000 
 17 C        0.5940     5.7490     1.6100 C.2   1 <1>  -0.3320 
 18 C        0.5810     5.6250    -0.9820 C.3   1 <1>  -0.0590 
 19 C       -6.9710    -1.4620    -0.7920 C.3   1 <1>   0.1200 
 20 C       -4.0420    -3.2090     1.5990 C.ar  1 <1>   0.0820 
 21 C       -6.1910    -3.3900     0.5510 C.ar  1 <1>  -0.1440 
 22 C        0.7920     7.2260     1.9070 C.3   1 <1>  -0.0600 
 23 C       -7.2230    -2.9230    -0.4540 C.3   1 <1>  -0.0160 
 24 O       -2.8380    -2.5900     1.7110 O.3   1 <1>  -0.3630 
 25 C       -4.3770    -4.2760     2.4320 C.ar  1 <1>  -0.1500 
 26 C       -6.5110    -4.4490     1.3830 C.ar  1 <1>  -0.1500 
 27 C       -1.8400    -3.0030     2.6180 C.3   1 <1>   0.0400 
 28 C       -5.6050    -4.8940     2.3230 C.ar  1 <1>  -0.1500 
 29 H       -1.6600     1.9140     0.6720 H     1 <1>   0.0800 
 30 H       -1.8610     3.0650    -0.6230 H     1 <1>   0.0800 
 31 H       -4.8050     1.0720    -1.2250 H     1 <1>   0.0800 
 32 H       -3.8130     1.7810     0.0120 H     1 <1>   0.0800 
 33 H       -2.1550    -1.0070    -2.7170 H     1 <1>   0.0800 
 34 H       -3.8310    -0.5520    -2.8490 H     1 <1>   0.0800 
 35 H        0.5790     2.8460    -1.1260 H     1 <1>   0.0800 
 36 H        0.7310     1.7440     0.2100 H     1 <1>   0.0800 
 37 H       -5.2530     0.0190     0.9730 H     1 <1>   0.0800 
 38 H       -3.5800    -0.3580     1.1220 H     1 <1>   0.0800 
 39 H       -2.5490    -2.1520    -0.6450 H     1 <1>   0.0800 
 40 H       -3.6450    -2.7820    -1.8200 H     1 <1>   0.0800 
 41 H        0.4930     5.0000     3.5930 H     1 <1>   0.2700 
 42 H       -0.2870     5.3160    -1.5350 H     1 <1>   0.0800 
 43 H        1.4600     5.2460    -1.4700 H     1 <1>   0.0800 
 44 H        0.6220     6.6970    -0.9840 H     1 <1>   0.0800 
 45 H       -7.6280    -1.1380    -1.5790 H     1 <1>   0.0800 
 46 H       -7.1080    -0.8320     0.0690 H     1 <1>   0.0800 
 47 H        0.8900     7.7900     0.9990 H     1 <1>   0.0800 
 48 H        1.6830     7.3680     2.4920 H     1 <1>   0.0800 
 49 H       -0.0510     7.6080     2.4550 H     1 <1>   0.0800 
 50 H       -7.1560    -3.5170    -1.3480 H     1 <1>   0.0800 
 51 H       -8.2130    -3.0260    -0.0490 H     1 <1>   0.0800 
 52 H       -3.6960    -4.6420     3.1750 H     1 <1>   0.1500 
 53 H       -7.4690    -4.9330     1.3040 H     1 <1>   0.1500 
 54 H       -0.9870    -2.3620     2.4890 H     1 <1>   0.0800 
 55 H       -1.5690    -4.0210     2.3990 H     1 <1>   0.0800 
 56 H       -2.2190    -2.9100     3.6200 H     1 <1>   0.0800 
 57 H       -5.8570    -5.7180     2.9680 H     1 <1>   0.1500 
@<TRIPOS>BOND
  1   1   2  2   
  2   2   3  am  
  3   2   4  1   
  4   3   5  1   
  5   3   6  1   
  6   4   7  1   
  7   4  29  1   
  8   4  30  1   
  9   5   8  1   
 10   5  31  1   
 11   5  32  1   
 12   6   9  1   
 13   6  33  1   
 14   6  34  1   
 15   7  10  1   
 16   7  35  1   
 17   7  36  1   
 18   8  11  1   
 19   8  37  1   
 20   8  38  1   
 21   9  11  1   
 22   9  39  1   
 23   9  40  1   
 24  10  12  2   
 25  10  13  1   
 26  11  14  1   
 27  11  15  1   
 28  12  16  1   
 29  13  17  2   
 30  13  18  1   
 31  14  19  1   
 32  15  20  ar  
 33  15  21  ar  
 34  16  17  1   
 35  16  41  1   
 36  17  22  1   
 37  18  42  1   
 38  18  43  1   
 39  18  44  1   
 40  19  23  1   
 41  19  45  1   
 42  19  46  1   
 43  20  24  1   
 44  20  25  ar  
 45  21  23  1   
 46  21  26  ar  
 47  22  47  1   
 48  22  48  1   
 49  22  49  1   
 50  23  50  1   
 51  23  51  1   
 52  24  27  1   
 53  25  28  ar  
 54  25  52  1   
 55  26  28  ar  
 56  26  53  1   
 57  27  54  1   
 58  27  55  1   
 59  27  56  1   
 60  28  57  1   
@<TRIPOS>SUBSTRUCTURE
  1 ****   8 GROUP 4 **** **** 0

# MOE 2024.06 (io_trps.svl 2023.06)
