@<TRIPOS>MOLECULE
NONAME
36 37 1 0 0 
SMALL
USER_CHARGES


@<TRIPOS>ATOM
  1 O        1.6920    -2.0290     1.0600 O.3   1 <1>  -0.0190 
  2 N        0.7170    -2.7290     0.5540 N.2   1 <1>  -0.4100 
  3 C        1.7270    -0.8180     0.5720 C.2   1 <1>  -0.0400 
  4 C        0.1170    -1.9540    -0.2800 C.2   1 <1>   0.1080 
  5 C        0.7260    -0.7030    -0.3140 C.2   1 <1>  -0.1500 
  6 C        2.7990     0.1470     1.0470 C.3   1 <1>   0.2900 
  7 C       -1.0870    -2.3570    -1.1090 C.3   1 <1>   0.0210 
  8 N        2.4840     1.5410     0.6740 N.3   1 <1>  -0.8100 
  9 C       -2.3770    -1.7510    -0.5450 C.3   1 <1>  -0.2400 
 10 C        3.6990     2.3910     0.7270 C.3   1 <1>   0.2530 
 11 C        1.3760     2.0790     1.4830 C.3   1 <1>   0.0300 
 12 C        3.5040     3.7920     0.1470 C.ar  1 <1>   0.1670 
 13 N        3.7430     3.9640    -1.1460 N.ar  1 <1>  -0.6200 
 14 C        3.1130     4.8270     0.9920 C.ar  1 <1>   0.1600 
 15 C        3.5480     5.2150    -1.5260 C.ar  1 <1>   0.1600 
 16 N        2.9230     6.0790     0.6140 N.ar  1 <1>  -0.6200 
 17 C        3.1490     6.2450    -0.6760 C.ar  1 <1>   0.1670 
 18 C        2.9510     7.6500    -1.2070 C.3   1 <1>  -0.0970 
 19 H        0.4500     0.1440    -0.9150 H     1 <1>   0.1500 
 20 H        3.7280    -0.1530     0.5940 H     1 <1>   0.0800 
 21 H        2.9040     0.0700     2.1150 H     1 <1>   0.0800 
 22 H       -1.1660    -3.4300    -1.1130 H     1 <1>   0.0800 
 23 H       -0.9420    -2.0300    -2.1230 H     1 <1>   0.0800 
 24 H       -2.5250    -2.0820     0.4680 H     1 <1>   0.0800 
 25 H       -3.2210    -2.0590    -1.1370 H     1 <1>   0.0800 
 26 H       -2.3200    -0.6770    -0.5530 H     1 <1>   0.0800 
 27 H        4.4810     1.9170     0.1580 H     1 <1>   0.0800 
 28 H        4.0380     2.4700     1.7450 H     1 <1>   0.0800 
 29 H        0.5300     1.4160     1.4490 H     1 <1>   0.0800 
 30 H        1.0590     3.0290     1.0880 H     1 <1>   0.0800 
 31 H        1.6780     2.2020     2.5090 H     1 <1>   0.0800 
 32 H        2.9470     4.6080     2.0310 H     1 <1>   0.1500 
 33 H        3.7120     5.4340    -2.5660 H     1 <1>   0.1500 
 34 H        3.1550     7.7010    -2.2610 H     1 <1>   0.0800 
 35 H        3.6100     8.3240    -0.6910 H     1 <1>   0.0800 
 36 H        1.9370     7.9590    -1.0330 H     1 <1>   0.0800 
@<TRIPOS>BOND
  1   1   2  1   
  2   1   3  1   
  3   2   4  2   
  4   3   5  2   
  5   3   6  1   
  6   4   5  1   
  7   4   7  1   
  8   5  19  1   
  9   6   8  1   
 10   6  20  1   
 11   6  21  1   
 12   7   9  1   
 13   7  22  1   
 14   7  23  1   
 15   8  10  1   
 16   8  11  1   
 17   9  24  1   
 18   9  25  1   
 19   9  26  1   
 20  10  12  1   
 21  10  27  1   
 22  10  28  1   
 23  11  29  1   
 24  11  30  1   
 25  11  31  1   
 26  12  13  ar  
 27  12  14  ar  
 28  13  15  ar  
 29  14  16  ar  
 30  14  32  1   
 31  15  17  ar  
 32  15  33  1   
 33  16  17  ar  
 34  17  18  1   
 35  18  34  1   
 36  18  35  1   
 37  18  36  1   
@<TRIPOS>SUBSTRUCTURE
  1 ****   8 GROUP 4 **** **** 0

# MOE 2024.06 (io_trps.svl 2023.06)
