@<TRIPOS>MOLECULE
NONAME
53 56 1 0 0 
SMALL
USER_CHARGES


@<TRIPOS>ATOM
  1 O       -0.9950     0.8140     2.5320 O.2   1 <1>  -0.5700 
  2 C       -1.9090     1.2600     1.8640 C.2   1 <1>   0.5440 
  3 N       -3.1580     0.6790     1.9670 N.am  1 <1>  -0.6600 
  4 C       -1.6470     2.3650     0.9750 C.ar  1 <1>   0.0860 
  5 C       -4.2010     0.7610     0.9070 C.3   1 <1>   0.1400 
  6 C       -3.4850    -0.2890     3.0520 C.3   1 <1>   0.1400 
  7 C       -0.5550     2.3290     0.1110 C.ar  1 <1>   0.1600 
  8 C       -2.4470     3.5050     0.9320 C.ar  1 <1>  -0.1500 
  9 C       -4.3860    -0.6230     0.2800 C.3   1 <1>  -0.1600 
 10 C       -3.6690    -1.6820     2.4480 C.3   1 <1>  -0.1600 
 11 N       -0.2260     3.2620    -0.7670 N.ar  1 <1>  -0.6200 
 12 C       -2.1180     4.4880     0.0300 C.ar  1 <1>  -0.1500 
 13 C       -4.7260    -1.6900     1.3350 C.3   1 <1>   0.4240 
 14 C       -1.0120     4.3210    -0.7970 C.ar  1 <1>   0.4100 
 15 O       -5.9300    -1.3120     1.9630 O.3   1 <1>  -0.5600 
 16 C       -4.8270    -3.0930     0.6980 C.ar  1 <1>  -0.1430 
 17 N       -0.6540     5.2590    -1.7000 N.pl3 1 <1>  -0.9000 
 18 C       -7.1240    -1.6680     1.3370 C.3   1 <1>   0.1200 
 19 C       -6.0190    -3.8050     0.7060 C.ar  1 <1>  -0.1430 
 20 C       -3.7200    -3.6730     0.0930 C.ar  1 <1>  -0.1500 
 21 C       -7.2490    -3.1880     1.3410 C.3   1 <1>  -0.0170 
 22 C       -6.0900    -5.0670     0.1390 C.ar  1 <1>  -0.1500 
 23 C       -3.7730    -4.9280    -0.4900 C.ar  1 <1>   0.0830 
 24 C       -4.9760    -5.6530    -0.4560 C.ar  1 <1>   0.0830 
 25 O       -2.5990    -5.3370    -1.0520 O.3   1 <1>  -0.3630 
 26 O       -5.0400    -6.9100    -0.9860 O.3   1 <1>  -0.3620 
 27 C       -2.5540    -6.2930    -2.0870 C.3   1 <1>   0.0400 
 28 C       -6.1300    -7.7720    -0.7430 C.3   1 <1>   0.0400 
 29 H       -3.9220     1.4590     0.1390 H     1 <1>   0.0800 
 30 H       -5.1260     1.0930     1.3480 H     1 <1>   0.0800 
 31 H       -4.3920     0.0230     3.5410 H     1 <1>   0.0800 
 32 H       -2.7030    -0.3120     3.7920 H     1 <1>   0.0800 
 33 H        0.0810     1.4610     0.1580 H     1 <1>   0.1500 
 34 H       -3.2920     3.6010     1.5910 H     1 <1>   0.1500 
 35 H       -3.4710    -0.8890    -0.2160 H     1 <1>   0.0800 
 36 H       -5.1520    -0.5890    -0.4700 H     1 <1>   0.0800 
 37 H       -3.9580    -2.3780     3.2140 H     1 <1>   0.0800 
 38 H       -2.7190    -2.0040     2.0630 H     1 <1>   0.0800 
 39 H       -2.7030     5.3840    -0.0510 H     1 <1>   0.1500 
 40 H       -0.8320     6.2420    -1.5030 H     1 <1>   0.4000 
 41 H        0.2420     5.0760    -2.1540 H     1 <1>   0.4000 
 42 H       -7.1280    -1.2820     0.3330 H     1 <1>   0.0800 
 43 H       -7.9320    -1.2230     1.8900 H     1 <1>   0.0800 
 44 H       -2.7820    -3.1510     0.0600 H     1 <1>   0.1500 
 45 H       -8.1320    -3.4720     0.7980 H     1 <1>   0.0800 
 46 H       -7.3470    -3.5360     2.3540 H     1 <1>   0.0800 
 47 H       -7.0300    -5.5820     0.1730 H     1 <1>   0.1500 
 48 H       -1.5880    -6.2370    -2.5540 H     1 <1>   0.0800 
 49 H       -3.3250    -6.0710    -2.8040 H     1 <1>   0.0800 
 50 H       -2.6960    -7.2710    -1.6630 H     1 <1>   0.0800 
 51 H       -5.8950    -8.7340    -1.1630 H     1 <1>   0.0800 
 52 H       -7.0060    -7.3710    -1.2210 H     1 <1>   0.0800 
 53 H       -6.2740    -7.8630     0.3190 H     1 <1>   0.0800 
@<TRIPOS>BOND
  1   1   2  2   
  2   2   3  am  
  3   2   4  1   
  4   3   5  1   
  5   3   6  1   
  6   4   7  ar  
  7   4   8  ar  
  8   5   9  1   
  9   5  29  1   
 10   5  30  1   
 11   6  10  1   
 12   6  31  1   
 13   6  32  1   
 14   7  11  ar  
 15   7  33  1   
 16   8  12  ar  
 17   8  34  1   
 18   9  13  1   
 19   9  35  1   
 20   9  36  1   
 21  10  13  1   
 22  10  37  1   
 23  10  38  1   
 24  11  14  ar  
 25  12  14  ar  
 26  12  39  1   
 27  13  15  1   
 28  13  16  1   
 29  14  17  1   
 30  15  18  1   
 31  16  19  ar  
 32  16  20  ar  
 33  17  40  1   
 34  17  41  1   
 35  18  21  1   
 36  18  42  1   
 37  18  43  1   
 38  19  21  1   
 39  19  22  ar  
 40  20  23  ar  
 41  20  44  1   
 42  21  45  1   
 43  21  46  1   
 44  22  24  ar  
 45  22  47  1   
 46  23  24  ar  
 47  23  25  1   
 48  24  26  1   
 49  25  27  1   
 50  26  28  1   
 51  27  48  1   
 52  27  49  1   
 53  27  50  1   
 54  28  51  1   
 55  28  52  1   
 56  28  53  1   
@<TRIPOS>SUBSTRUCTURE
  1 ****   9 GROUP 4 **** **** 0

# MOE 2024.06 (io_trps.svl 2023.06)
