@<TRIPOS>MOLECULE
NONAME
48 51 1 0 0 
SMALL
USER_CHARGES


@<TRIPOS>ATOM
  1 S       -0.1480    -0.0120    -1.7840 S.o2  1 <1>   1.5010 
  2 O        0.7800    -0.7510    -2.6140 O.2   1 <1>  -0.6500 
  3 O       -1.1190     0.8600    -2.4130 O.2   1 <1>  -0.6500 
  4 N       -1.0250    -1.1450    -0.8740 N.am  1 <1>  -0.8490 
  5 C        0.7760     0.8830    -0.5230 C.2   1 <1>  -0.0630 
  6 C       -2.1130    -0.5140    -0.1190 C.3   1 <1>   0.1960 
  7 C       -1.5450    -2.2240    -1.7200 C.3   1 <1>   0.1960 
  8 C        1.1790     2.1770    -0.3990 C.2   1 <1>  -0.3320 
  9 C        1.2760     0.2710     0.6180 C.2   1 <1>   0.1390 
 10 C       -2.7480    -1.5380     0.8220 C.3   1 <1>  -0.1600 
 11 C       -2.1700    -3.3120    -0.8470 C.3   1 <1>  -0.1600 
 12 N        1.8610     2.2740     0.7650 N.pl3 1 <1>   0.3140 
 13 C        0.9420     3.3380    -1.3560 C.3   1 <1>  -0.0600 
 14 N        1.9140     1.0900     1.3950 N.2   1 <1>  -0.7070 
 15 C       -3.2790    -2.7420     0.0370 C.3   1 <1>   0.4600 
 16 C        2.5060     3.4730     1.3450 C.3   1 <1>   0.0960 
 17 O       -4.2990    -2.3050    -0.8410 O.3   1 <1>  -0.5600 
 18 C       -3.8550    -3.8110     0.9580 C.2   1 <1>  -0.1400 
 19 C        3.9480     3.6240     0.8430 C.3   1 <1>  -0.2400 
 20 C       -5.6010    -2.1550    -0.3250 C.3   1 <1>   0.1200 
 21 S       -2.8680    -4.7350     2.0800 S.3   1 <1>  -0.0800 
 22 C       -5.1400    -4.1820     1.0410 C.2   1 <1>  -0.1810 
 23 C       -6.1710    -3.5000     0.1690 C.3   1 <1>   0.0210 
 24 C       -4.2770    -5.6340     2.6280 C.2   1 <1>  -0.1100 
 25 C       -5.3890    -5.2260     1.9860 C.2   1 <1>  -0.1500 
 26 H       -2.8580    -0.1230    -0.7950 H     1 <1>   0.0800 
 27 H       -1.7280     0.3050     0.4660 H     1 <1>   0.0800 
 28 H       -0.7430    -2.6630    -2.2900 H     1 <1>   0.0800 
 29 H       -2.2740    -1.8320    -2.4130 H     1 <1>   0.0800 
 30 H        1.1480    -0.7770     0.8390 H     1 <1>   0.1500 
 31 H       -3.5380    -1.0850     1.3890 H     1 <1>   0.0800 
 32 H       -2.0020    -1.8690     1.5210 H     1 <1>   0.0800 
 33 H       -1.3990    -3.7420    -0.2360 H     1 <1>   0.0800 
 34 H       -2.5740    -4.0930    -1.4640 H     1 <1>   0.0800 
 35 H        0.4040     3.0120    -2.2280 H     1 <1>   0.0800 
 36 H        1.8800     3.7530    -1.6780 H     1 <1>   0.0800 
 37 H        0.3660     4.1080    -0.8730 H     1 <1>   0.0800 
 38 H        2.5020     3.3670     2.4150 H     1 <1>   0.0800 
 39 H        1.9260     4.3390     1.0870 H     1 <1>   0.0800 
 40 H        4.5240     2.7570     1.1190 H     1 <1>   0.0800 
 41 H        4.4010     4.4910     1.2890 H     1 <1>   0.0800 
 42 H        3.9670     3.7350    -0.2260 H     1 <1>   0.0800 
 43 H       -6.2200    -1.7570    -1.1100 H     1 <1>   0.0800 
 44 H       -5.5690    -1.4440     0.4810 H     1 <1>   0.0800 
 45 H       -6.4100    -4.1270    -0.6700 H     1 <1>   0.0800 
 46 H       -7.0700    -3.3210     0.7300 H     1 <1>   0.0800 
 47 H       -4.1210    -6.3830     3.3840 H     1 <1>   0.1500 
 48 H       -6.3790    -5.6170     2.1390 H     1 <1>   0.1500 
@<TRIPOS>BOND
  1   1   2  2   
  2   1   3  2   
  3   1   4  am  
  4   1   5  1   
  5   4   6  1   
  6   4   7  1   
  7   5   8  2   
  8   5   9  1   
  9   6  10  1   
 10   6  26  1   
 11   6  27  1   
 12   7  11  1   
 13   7  28  1   
 14   7  29  1   
 15   8  12  1   
 16   8  13  1   
 17   9  14  2   
 18   9  30  1   
 19  10  15  1   
 20  10  31  1   
 21  10  32  1   
 22  11  15  1   
 23  11  33  1   
 24  11  34  1   
 25  12  14  1   
 26  12  16  1   
 27  13  35  1   
 28  13  36  1   
 29  13  37  1   
 30  15  17  1   
 31  15  18  1   
 32  16  19  1   
 33  16  38  1   
 34  16  39  1   
 35  17  20  1   
 36  18  21  1   
 37  18  22  2   
 38  19  40  1   
 39  19  41  1   
 40  19  42  1   
 41  20  23  1   
 42  20  43  1   
 43  20  44  1   
 44  21  24  1   
 45  22  23  1   
 46  22  25  1   
 47  23  45  1   
 48  23  46  1   
 49  24  25  2   
 50  24  47  1   
 51  25  48  1   
@<TRIPOS>SUBSTRUCTURE
  1 ****   6 GROUP 4 **** **** 0

# MOE 2024.06 (io_trps.svl 2023.06)
