@<TRIPOS>MOLECULE
NONAME
47 49 1 0 0 
SMALL
USER_CHARGES


@<TRIPOS>ATOM
  1 O       -3.0360     1.5100    -2.6890 O.2   1 <1>  -0.5700 
  2 C       -2.6300     1.4760    -1.5400 C.2   1 <1>   0.7160 
  3 N       -2.7380     0.2860    -0.8500 N.am  1 <1>  -0.6600 
  4 C       -2.1420     2.6770    -0.9280 C.2   1 <1>  -0.0860 
  5 C       -2.6830    -1.0040    -1.6000 C.3   1 <1>   0.3200 
  6 C       -2.6900     0.2320     0.6520 C.3   1 <1>   0.1400 
  7 C       -0.9560     2.9030    -0.2780 C.2   1 <1>  -0.0260 
  8 C       -2.7940     3.9100    -0.8680 C.2   1 <1>   0.1080 
  9 C       -3.5100    -2.1010    -0.9510 C.2   1 <1>  -0.3320 
 10 C       -3.8800     0.9790     1.2860 C.3   1 <1>   0.1200 
 11 N        0.1000     2.0540    -0.0350 N.2   1 <1>  -0.5760 
 12 N       -0.9730     4.2160     0.1190 N.pl3 1 <1>   0.6010 
 13 N       -2.1230     4.8240    -0.2400 N.2   1 <1>  -0.7070 
 14 C       -4.1590     4.1990    -1.4580 C.3   1 <1>  -0.0590 
 15 N       -4.7380    -1.9290    -0.4260 N.pl3 1 <1>   0.0330 
 16 C       -3.2070    -3.4060    -0.7720 C.2   1 <1>   0.0770 
 17 O       -5.0320     0.8030     0.5240 O.3   1 <1>  -0.6800 
 18 C        1.1130     2.5560     0.5960 C.2   1 <1>   0.3750 
 19 C        0.1130     4.7420     0.8010 C.2   1 <1>  -0.1690 
 20 C       -5.0990    -3.1410     0.0450 C.2   1 <1>   0.0060 
 21 N       -4.2070    -4.0550    -0.1470 N.2   1 <1>  -0.5650 
 22 C        1.1600     3.9070     1.0380 C.2   1 <1>  -0.1360 
 23 C        2.3020     1.6660     0.8810 C.3   1 <1>  -0.1790 
 24 C        0.0690     6.2020     1.2320 C.3   1 <1>  -0.1020 
 25 C       -6.4200    -3.3810     0.7410 C.3   1 <1>  -0.0600 
 26 H       -1.6560    -1.3220    -1.6630 H     1 <1>   0.0800 
 27 H       -3.0410    -0.8640    -2.6060 H     1 <1>   0.0800 
 28 H       -1.7700     0.6560     1.0090 H     1 <1>   0.0800 
 29 H       -2.7000    -0.7870     0.9960 H     1 <1>   0.0800 
 30 H       -3.6730     2.0350     1.3370 H     1 <1>   0.0800 
 31 H       -4.0690     0.6190     2.2830 H     1 <1>   0.0800 
 32 H       -4.8990     3.5670    -1.0030 H     1 <1>   0.0800 
 33 H       -4.1430     4.0210    -2.5180 H     1 <1>   0.0800 
 34 H       -4.4250     5.2260    -1.2840 H     1 <1>   0.0800 
 35 H       -5.2520    -1.0450    -0.3230 H     1 <1>   0.2700 
 36 H       -2.3090    -3.9250    -1.0620 H     1 <1>   0.1500 
 37 H       -4.8120     1.0150    -0.4100 H     1 <1>   0.4000 
 38 H        2.0410     4.2360     1.5570 H     1 <1>   0.1500 
 39 H        3.1810     2.0730     0.4160 H     1 <1>   0.0800 
 40 H        2.1310     0.6790     0.4910 H     1 <1>   0.0800 
 41 H        2.4610     1.5960     1.9410 H     1 <1>   0.0800 
 42 H       -0.7690     6.3670     1.8870 H     1 <1>   0.0800 
 43 H       -0.0460     6.8360     0.3690 H     1 <1>   0.0800 
 44 H        0.9700     6.4800     1.7470 H     1 <1>   0.0800 
 45 H       -6.5050    -2.7400     1.6000 H     1 <1>   0.0800 
 46 H       -6.4800    -4.4040     1.0650 H     1 <1>   0.0800 
 47 H       -7.2330    -3.1840     0.0660 H     1 <1>   0.0800 
@<TRIPOS>BOND
  1   1   2  2   
  2   2   3  am  
  3   2   4  1   
  4   3   5  1   
  5   3   6  1   
  6   4   7  2   
  7   4   8  1   
  8   5   9  1   
  9   5  26  1   
 10   5  27  1   
 11   6  10  1   
 12   6  28  1   
 13   6  29  1   
 14   7  11  1   
 15   7  12  1   
 16   8  13  2   
 17   8  14  1   
 18   9  15  1   
 19   9  16  2   
 20  10  17  1   
 21  10  30  1   
 22  10  31  1   
 23  11  18  2   
 24  12  13  1   
 25  12  19  1   
 26  14  32  1   
 27  14  33  1   
 28  14  34  1   
 29  15  20  1   
 30  15  35  1   
 31  16  21  1   
 32  16  36  1   
 33  17  37  1   
 34  18  22  1   
 35  18  23  1   
 36  19  22  2   
 37  19  24  1   
 38  20  21  2   
 39  20  25  1   
 40  22  38  1   
 41  23  39  1   
 42  23  40  1   
 43  23  41  1   
 44  24  42  1   
 45  24  43  1   
 46  24  44  1   
 47  25  45  1   
 48  25  46  1   
 49  25  47  1   
@<TRIPOS>SUBSTRUCTURE
  1 ****   3 GROUP 4 **** **** 0

# MOE 2024.06 (io_trps.svl 2023.06)
