@<TRIPOS>MOLECULE
NONAME
45 47 1 0 0 
SMALL
USER_CHARGES


@<TRIPOS>ATOM
  1 CL      -1.5390    -1.0460    -2.3340 Cl    1 <1>  -0.1770 
  2 C       -2.5670    -1.4220    -0.9700 C.ar  1 <1>   0.1770 
  3 C       -2.1500    -2.3380    -0.0140 C.ar  1 <1>  -0.1440 
  4 C       -3.7880    -0.7840    -0.8790 C.ar  1 <1>  -0.1500 
  5 C       -2.9960    -2.6030     1.0510 C.ar  1 <1>  -0.1500 
  6 C       -0.8040    -3.0380    -0.1220 C.3   1 <1>  -0.0960 
  7 C       -4.6380    -1.0500     0.1850 C.ar  1 <1>   0.1170 
  8 C       -4.2210    -1.9660     1.1480 C.ar  1 <1>  -0.1500 
  9 N       -5.8650    -0.3760     0.2570 N.am  1 <1>  -0.5470 
 10 C       -7.0430    -0.7080     0.8630 C.2   1 <1>   0.6900 
 11 O       -7.2000    -1.8050     1.3650 O.2   1 <1>  -0.5700 
 12 N       -8.0650     0.2070     0.8630 N.am  1 <1>  -0.6600 
 13 C       -9.4650    -0.2000     1.1840 C.3   1 <1>   0.1400 
 14 C       -7.9210     1.6640     0.6010 C.3   1 <1>   0.1400 
 15 C      -10.4170     0.1460     0.0110 C.3   1 <1>   0.0000 
 16 C       -8.8230     2.0630    -0.5710 C.3   1 <1>  -0.1600 
 17 C      -11.8800    -0.2380     0.3150 C.3   1 <1>   0.2000 
 18 C      -10.2860     1.6490    -0.3270 C.3   1 <1>  -0.1600 
 19 C      -10.1120    -0.7480    -1.2040 C.3   1 <1>  -0.1600 
 20 O      -12.2340    -0.0240     1.6360 O.3   1 <1>  -0.6800 
 21 C      -12.0320    -1.7190    -0.0380 C.3   1 <1>  -0.1600 
 22 C      -10.8330    -2.0700    -0.9280 C.3   1 <1>  -0.1600 
 23 H       -4.0710    -0.0850    -1.6430 H     1 <1>   0.1500 
 24 H       -2.7100    -3.3080     1.8130 H     1 <1>   0.1500 
 25 H       -0.6520    -3.7110     0.7020 H     1 <1>   0.0800 
 26 H       -0.0110    -2.3120    -0.1210 H     1 <1>   0.0800 
 27 H       -0.7570    -3.6020    -1.0370 H     1 <1>   0.0800 
 28 H       -4.8590    -2.1840     1.9860 H     1 <1>   0.1500 
 29 H       -5.9560     0.4390    -0.3360 H     1 <1>   0.3700 
 30 H       -9.5140    -1.2540     1.3970 H     1 <1>   0.0800 
 31 H       -9.7690     0.3270     2.0710 H     1 <1>   0.0800 
 32 H       -8.2210     2.2030     1.4850 H     1 <1>   0.0800 
 33 H       -6.9000     1.9270     0.3910 H     1 <1>   0.0800 
 34 H       -8.7730     3.1280    -0.7100 H     1 <1>   0.0800 
 35 H       -8.4570     1.6000    -1.4710 H     1 <1>   0.0800 
 36 H      -12.5430     0.3460    -0.3010 H     1 <1>   0.0800 
 37 H      -10.8790     1.8890    -1.1930 H     1 <1>   0.0800 
 38 H      -10.6760     2.2210     0.4980 H     1 <1>   0.0800 
 39 H      -10.5300    -0.3070    -2.0930 H     1 <1>   0.0800 
 40 H       -9.0590    -0.9000    -1.3640 H     1 <1>   0.0800 
 41 H      -11.8030    -0.6870     2.2070 H     1 <1>   0.4000 
 42 H      -12.0270    -2.3420     0.8390 H     1 <1>   0.0800 
 43 H      -12.9530    -1.8690    -0.5740 H     1 <1>   0.0800 
 44 H      -10.1710    -2.7340    -0.3980 H     1 <1>   0.0800 
 45 H      -11.1400    -2.5470    -1.8430 H     1 <1>   0.0800 
@<TRIPOS>BOND
  1   1   2  1   
  2   2   3  ar  
  3   2   4  ar  
  4   3   5  ar  
  5   3   6  1   
  6   4   7  ar  
  7   4  23  1   
  8   5   8  ar  
  9   5  24  1   
 10   6  25  1   
 11   6  26  1   
 12   6  27  1   
 13   7   8  ar  
 14   7   9  1   
 15   8  28  1   
 16   9  10  am  
 17   9  29  1   
 18  10  11  2   
 19  10  12  am  
 20  12  13  1   
 21  12  14  1   
 22  13  15  1   
 23  13  30  1   
 24  13  31  1   
 25  14  16  1   
 26  14  32  1   
 27  14  33  1   
 28  15  17  1   
 29  15  18  1   
 30  15  19  1   
 31  16  18  1   
 32  16  34  1   
 33  16  35  1   
 34  17  20  1   
 35  17  21  1   
 36  17  36  1   
 37  18  37  1   
 38  18  38  1   
 39  19  22  1   
 40  19  39  1   
 41  19  40  1   
 42  20  41  1   
 43  21  22  1   
 44  21  42  1   
 45  21  43  1   
 46  22  44  1   
 47  22  45  1   
@<TRIPOS>SUBSTRUCTURE
  1 ****  10 GROUP 4 **** **** 0

# MOE 2024.06 (io_trps.svl 2023.06)
