@<TRIPOS>MOLECULE
NONAME
41 42 1 0 0 
SMALL
USER_CHARGES


@<TRIPOS>ATOM
  1 S        0.4470     0.0540    -1.0230 S.o2  1 <1>   1.3330 
  2 O       -0.4850     0.3240    -2.0930 O.2   1 <1>  -0.6500 
  3 O        1.7020    -0.6000    -1.3200 O.2   1 <1>  -0.6500 
  4 N       -0.3770    -0.8920     0.1240 N.am  1 <1>  -0.8490 
  5 C        0.7730     1.5870    -0.1390 C.3   1 <1>  -0.0550 
  6 C       -0.1670    -2.3280    -0.0860 C.3   1 <1>   0.1160 
  7 C       -1.8160    -0.6090     0.1890 C.3   1 <1>   0.1160 
  8 C        1.9600     1.6120     0.8510 C.3   1 <1>  -0.0800 
  9 C        3.3260     1.4640     0.1730 C.3   1 <1>   0.2200 
 10 C        1.9800     0.5440     1.9530 C.3   1 <1>   0.1200 
 11 N        4.1390     2.6620     0.4740 N.am  1 <1>  -0.7300 
 12 C        3.9200     0.2400     0.8650 C.3   1 <1>   0.1200 
 13 O        3.3230     0.2260     2.1190 O.3   1 <1>  -0.5600 
 14 C        4.0730     3.8270    -0.2240 C.2   1 <1>   0.7150 
 15 O        3.3570     3.8850    -1.2030 O.2   1 <1>  -0.5700 
 16 C        4.8130     4.9710     0.2070 C.2   1 <1>  -0.2370 
 17 N        5.2040     5.1840     1.4820 N.pl3 1 <1>   0.3000 
 18 C        5.2520     6.0560    -0.4860 C.2   1 <1>  -0.1500 
 19 N        5.8760     6.3340     1.6310 N.2   1 <1>  -0.7070 
 20 C        5.9080     6.8720     0.4300 C.2   1 <1>   0.1080 
 21 C        6.5710     8.2260     0.0470 C.3   1 <1>   1.2010 
 22 F        6.0350     9.2650     0.6830 F     1 <1>  -0.3400 
 23 F        6.4590     8.4990    -1.2510 F     1 <1>  -0.3400 
 24 F        7.8740     8.2580     0.3110 F     1 <1>  -0.3400 
 25 H        0.9580     2.3530    -0.8680 H     1 <1>   0.0800 
 26 H       -0.1160     1.8740     0.3870 H     1 <1>   0.0800 
 27 H       -0.6950    -2.8970     0.6600 H     1 <1>   0.0800 
 28 H        0.8810    -2.5640    -0.0060 H     1 <1>   0.0800 
 29 H       -0.5130    -2.6180    -1.0640 H     1 <1>   0.0800 
 30 H       -2.2660    -1.1640     0.9950 H     1 <1>   0.0800 
 31 H       -2.2970    -0.8830    -0.7360 H     1 <1>   0.0800 
 32 H       -1.9830     0.4400     0.3650 H     1 <1>   0.0800 
 33 H        1.9150     2.5650     1.3490 H     1 <1>   0.0800 
 34 H        3.2690     1.3190    -0.8940 H     1 <1>   0.0800 
 35 H        1.4730    -0.3600     1.6740 H     1 <1>   0.0800 
 36 H        1.5870     0.9070     2.8870 H     1 <1>   0.0800 
 37 H        4.7930     2.5390     1.2450 H     1 <1>   0.3700 
 38 H        4.9900     0.2870     0.9670 H     1 <1>   0.0800 
 39 H        3.6410    -0.6650     0.3530 H     1 <1>   0.0800 
 40 H        5.0010     4.5670     2.2790 H     1 <1>   0.2700 
 41 H        5.1150     6.2450    -1.5380 H     1 <1>   0.1500 
@<TRIPOS>BOND
  1   1   2  2   
  2   1   3  2   
  3   1   4  am  
  4   1   5  1   
  5   4   6  1   
  6   4   7  1   
  7   5   8  1   
  8   5  25  1   
  9   5  26  1   
 10   6  27  1   
 11   6  28  1   
 12   6  29  1   
 13   7  30  1   
 14   7  31  1   
 15   7  32  1   
 16   8   9  1   
 17   8  10  1   
 18   8  33  1   
 19   9  11  1   
 20   9  12  1   
 21   9  34  1   
 22  10  13  1   
 23  10  35  1   
 24  10  36  1   
 25  11  14  am  
 26  11  37  1   
 27  12  13  1   
 28  12  38  1   
 29  12  39  1   
 30  14  15  2   
 31  14  16  1   
 32  16  17  1   
 33  16  18  2   
 34  17  19  1   
 35  17  40  1   
 36  18  20  1   
 37  18  41  1   
 38  19  20  2   
 39  20  21  1   
 40  21  22  1   
 41  21  23  1   
 42  21  24  1   
@<TRIPOS>SUBSTRUCTURE
  1 ****  11 GROUP 4 **** **** 0

# MOE 2024.06 (io_trps.svl 2023.06)
