@<TRIPOS>MOLECULE
NONAME
54 56 1 0 0 
SMALL
USER_CHARGES


@<TRIPOS>ATOM
  1 O        0.3470    -0.5610     0.2740 O.2   1 <1>  -0.5700 
  2 C        1.2740    -0.2820    -0.4440 C.2   1 <1>   0.5690 
  3 N        2.0020    -1.2100    -1.1170 N.am  1 <1>  -0.6600 
  4 C        1.7310     1.1550    -0.5510 C.3   1 <1>  -0.0190 
  5 C        3.2210    -0.7860    -1.8580 C.3   1 <1>   0.2200 
  6 C        1.7590    -2.6870    -0.9670 C.3   1 <1>   0.2010 
  7 C        2.9230     1.2860     0.4050 C.3   1 <1>   0.3430 
  8 C        2.0670     1.5300    -2.0160 C.3   1 <1>  -0.1600 
  9 C        4.3530    -0.4370    -0.8550 C.3   1 <1>   0.3430 
 10 C        2.8470     0.4130    -2.7550 C.3   1 <1>  -0.1600 
 11 C        2.7500    -3.3500     0.0000 C.2   1 <1>   0.5690 
 12 N        4.2380     0.9280    -0.2260 N.4   1 <1>  -0.9590 
 13 O        3.9100    -3.3890    -0.3550 O.2   1 <1>  -0.5700 
 14 N        2.3570    -3.8510     1.2200 N.am  1 <1>  -0.6600 
 15 C        5.3800     1.2220     0.6880 C.3   1 <1>   0.4860 
 16 C        3.2840    -4.6510     2.0710 C.3   1 <1>   0.0600 
 17 C        0.9920    -3.6870     1.7980 C.3   1 <1>   0.0600 
 18 C        5.6190     2.7300     0.7060 C.ar  1 <1>   0.1670 
 19 N        5.4010     3.3730    -0.4390 N.ar  1 <1>  -0.6200 
 20 C        6.0310     3.3480     1.8770 C.ar  1 <1>  -0.1500 
 21 C        5.6180     4.6810    -0.4090 C.ar  1 <1>   0.1600 
 22 C        6.2440     4.7090     1.8870 C.ar  1 <1>  -0.1500 
 23 C        6.0310     5.3920     0.7080 C.ar  1 <1>  -0.1440 
 24 C        6.2520     6.8950     0.6370 C.3   1 <1>  -0.0170 
 25 C        7.7000     7.2070     0.2530 C.3   1 <1>  -0.2400 
 26 H        0.9380     1.7850    -0.1900 H     1 <1>   0.0800 
 27 H        3.5570    -1.6030    -2.4760 H     1 <1>   0.0800 
 28 H        0.7490    -2.8580    -0.6470 H     1 <1>   0.0800 
 29 H        1.8640    -3.1570    -1.9280 H     1 <1>   0.0800 
 30 H        2.7470     0.6680     1.2720 H     1 <1>   0.0800 
 31 H        2.9710     2.3110     0.7360 H     1 <1>   0.0800 
 32 H        1.1400     1.6920    -2.5420 H     1 <1>   0.0800 
 33 H        2.6110     2.4590    -2.0480 H     1 <1>   0.0800 
 34 H        5.2880    -0.4910    -1.3870 H     1 <1>   0.0800 
 35 H        4.3780    -1.1920    -0.0880 H     1 <1>   0.0800 
 36 H        3.7340     0.8220    -3.2090 H     1 <1>   0.0800 
 37 H        2.2360     0.0420    -3.5600 H     1 <1>   0.0800 
 38 H        4.3790     1.6380    -0.9690 H     1 <1>   0.4500 
 39 H        5.1780     0.8560     1.6800 H     1 <1>   0.0800 
 40 H        6.2730     0.7470     0.3180 H     1 <1>   0.0800 
 41 H        2.8350    -5.6000     2.3070 H     1 <1>   0.0800 
 42 H        3.4880    -4.1200     2.9850 H     1 <1>   0.0800 
 43 H        4.2160    -4.8340     1.5630 H     1 <1>   0.0800 
 44 H        1.0380    -3.7280     2.8730 H     1 <1>   0.0800 
 45 H        0.3500    -4.4770     1.4480 H     1 <1>   0.0800 
 46 H        0.5700    -2.7370     1.5220 H     1 <1>   0.0800 
 47 H        6.1920     2.7830     2.7780 H     1 <1>   0.1500 
 48 H        5.4610     5.2220    -1.3280 H     1 <1>   0.1500 
 49 H        6.5680     5.2180     2.7800 H     1 <1>   0.1500 
 50 H        5.5860     7.3320    -0.0870 H     1 <1>   0.0800 
 51 H        6.0310     7.3410     1.5920 H     1 <1>   0.0800 
 52 H        7.9320     6.7850    -0.7090 H     1 <1>   0.0800 
 53 H        8.3770     6.7960     0.9820 H     1 <1>   0.0800 
 54 H        7.8490     8.2710     0.2080 H     1 <1>   0.0800 
@<TRIPOS>BOND
  1   1   2  2   
  2   2   3  am  
  3   2   4  1   
  4   3   5  1   
  5   3   6  1   
  6   4   7  1   
  7   4   8  1   
  8   4  26  1   
  9   5   9  1   
 10   5  10  1   
 11   5  27  1   
 12   6  11  1   
 13   6  28  1   
 14   6  29  1   
 15   7  12  1   
 16   7  30  1   
 17   7  31  1   
 18   8  10  1   
 19   8  32  1   
 20   8  33  1   
 21   9  12  1   
 22   9  34  1   
 23   9  35  1   
 24  10  36  1   
 25  10  37  1   
 26  11  13  2   
 27  11  14  am  
 28  12  15  1   
 29  12  38  1   
 30  14  16  1   
 31  14  17  1   
 32  15  18  1   
 33  15  39  1   
 34  15  40  1   
 35  16  41  1   
 36  16  42  1   
 37  16  43  1   
 38  17  44  1   
 39  17  45  1   
 40  17  46  1   
 41  18  19  ar  
 42  18  20  ar  
 43  19  21  ar  
 44  20  22  ar  
 45  20  47  1   
 46  21  23  ar  
 47  21  48  1   
 48  22  23  ar  
 49  22  49  1   
 50  23  24  1   
 51  24  25  1   
 52  24  50  1   
 53  24  51  1   
 54  25  52  1   
 55  25  53  1   
 56  25  54  1   
@<TRIPOS>SUBSTRUCTURE
  1 ****  12 GROUP 4 **** **** 0

# MOE 2024.06 (io_trps.svl 2023.06)
