@<TRIPOS>MOLECULE
NONAME
37 38 1 0 0 
SMALL
USER_CHARGES


@<TRIPOS>ATOM
  1 O       -0.2520     0.0430    -0.8460 O.2   1 <1>  -0.5700 
  2 C       -1.2920     0.6430    -0.7200 C.2   1 <1>   0.5690 
  3 N       -2.4770    -0.0100    -0.5220 N.am  1 <1>  -0.6600 
  4 C       -1.2390     2.1540    -0.7700 C.3   1 <1>  -0.0990 
  5 C       -3.8200     0.6020    -0.3550 C.3   1 <1>   0.1400 
  6 C       -2.5570    -1.4870    -0.4120 C.3   1 <1>   0.1400 
  7 C       -1.0730     2.7090     0.6400 C.3   1 <1>   0.1200 
  8 C       -4.7880    -0.5800    -0.3040 C.3   1 <1>   0.2000 
  9 C       -3.9500    -1.7710     0.1520 C.3   1 <1>  -0.0800 
 10 O       -1.1120     4.0910     0.5810 O.3   1 <1>  -0.6800 
 11 O       -5.8250    -0.3530     0.5850 O.3   1 <1>  -0.6800 
 12 C       -4.5290    -3.1240    -0.2900 C.3   1 <1>   0.0210 
 13 C       -3.6080    -4.2620     0.1040 C.2   1 <1>   0.1080 
 14 N       -3.3420    -4.5550     1.3380 N.2   1 <1>  -0.7070 
 15 C       -2.9470    -5.0970    -0.7900 C.2   1 <1>  -0.1500 
 16 N       -2.4940    -5.5990     1.2650 N.pl3 1 <1>   0.3000 
 17 C       -2.2380    -5.9440    -0.0150 C.2   1 <1>  -0.3320 
 18 C       -1.3170    -7.0790    -0.4230 C.3   1 <1>  -0.0600 
 19 H       -0.3980     2.4430    -1.3740 H     1 <1>   0.0800 
 20 H       -2.1320     2.5410    -1.2220 H     1 <1>   0.0800 
 21 H       -3.8470     1.1580     0.5660 H     1 <1>   0.0800 
 22 H       -4.0530     1.2430    -1.1870 H     1 <1>   0.0800 
 23 H       -2.4400    -1.9160    -1.3920 H     1 <1>   0.0800 
 24 H       -1.7860    -1.8700     0.2360 H     1 <1>   0.0800 
 25 H       -0.1320     2.4070     1.0700 H     1 <1>   0.0800 
 26 H       -1.8760     2.3830     1.2790 H     1 <1>   0.0800 
 27 H       -5.2080    -0.7450    -1.2820 H     1 <1>   0.0800 
 28 H       -3.8610    -1.7620     1.2250 H     1 <1>   0.0800 
 29 H       -0.3310     4.4390     0.1080 H     1 <1>   0.4000 
 30 H       -5.4960    -0.3800     1.5040 H     1 <1>   0.4000 
 31 H       -4.6750    -3.1350    -1.3540 H     1 <1>   0.0800 
 32 H       -5.4840    -3.2760     0.1810 H     1 <1>   0.0800 
 33 H       -3.0040    -5.0550    -1.8630 H     1 <1>   0.1500 
 34 H       -2.1090    -6.0500     2.1030 H     1 <1>   0.2700 
 35 H       -1.2770    -7.1550    -1.4950 H     1 <1>   0.0800 
 36 H       -1.6770    -8.0120    -0.0270 H     1 <1>   0.0800 
 37 H       -0.3220    -6.9000    -0.0560 H     1 <1>   0.0800 
@<TRIPOS>BOND
  1   1   2  2   
  2   2   3  am  
  3   2   4  1   
  4   3   5  1   
  5   3   6  1   
  6   4   7  1   
  7   4  19  1   
  8   4  20  1   
  9   5   8  1   
 10   5  21  1   
 11   5  22  1   
 12   6   9  1   
 13   6  23  1   
 14   6  24  1   
 15   7  10  1   
 16   7  25  1   
 17   7  26  1   
 18   8   9  1   
 19   8  11  1   
 20   8  27  1   
 21   9  12  1   
 22   9  28  1   
 23  10  29  1   
 24  11  30  1   
 25  12  13  1   
 26  12  31  1   
 27  12  32  1   
 28  13  14  2   
 29  13  15  1   
 30  14  16  1   
 31  15  17  2   
 32  15  33  1   
 33  16  17  1   
 34  16  34  1   
 35  17  18  1   
 36  18  35  1   
 37  18  36  1   
 38  18  37  1   
@<TRIPOS>SUBSTRUCTURE
  1 ****   6 GROUP 4 **** **** 0

# MOE 2024.06 (io_trps.svl 2023.06)
