@<TRIPOS>MOLECULE
NONAME
58 60 1 0 0 
SMALL
USER_CHARGES


@<TRIPOS>ATOM
  1 O       -1.1940     0.2350     0.0010 O.2   1 <1>  -0.5700 
  2 C       -2.0460     1.0580    -0.2880 C.2   1 <1>   0.5440 
  3 N       -3.3110     0.5920    -0.5780 N.am  1 <1>  -0.6600 
  4 C       -1.7490     2.4750    -0.2580 C.ar  1 <1>   0.0860 
  5 C       -3.5070    -0.8240    -0.9760 C.3   1 <1>   0.1400 
  6 C       -4.4710     1.1590     0.1730 C.3   1 <1>   0.1400 
  7 C       -0.8300     3.0000     0.6530 C.ar  1 <1>  -0.1500 
  8 C       -2.3650     3.3760    -1.1300 C.ar  1 <1>  -0.1500 
  9 C       -4.2620    -1.4720     0.2010 C.3   1 <1>   0.4230 
 10 C       -5.7390     0.2490     0.0770 C.3   1 <1>  -0.1600 
 11 C       -0.5590     4.3520     0.7040 C.ar  1 <1>  -0.1500 
 12 C       -2.0930     4.7280    -1.0810 C.ar  1 <1>  -0.1500 
 13 N       -3.5340    -2.6480     0.7960 N.4   1 <1>  -0.9590 
 14 C       -5.8280    -1.3760    -0.0810 C.3   1 <1>   0.0000 
 15 C       -1.1880     5.2420    -0.1580 C.ar  1 <1>   0.1000 
 16 C       -3.6310    -3.8120    -0.0630 C.3   1 <1>   0.3430 
 17 C       -2.1160    -2.3310     1.1730 C.3   1 <1>   0.2630 
 18 C       -6.0150    -2.9710    -0.3200 C.3   1 <1>  -0.1600 
 19 C       -7.4170    -1.2050    -0.3000 C.3   1 <1>   0.1200 
 20 N       -0.8950     6.5960    -0.0910 N.pl3 1 <1>  -0.8380 
 21 C       -5.0860    -4.1490     0.0480 C.3   1 <1>  -0.1600 
 22 O       -8.0390    -1.3400     0.9400 O.3   1 <1>  -0.6800 
 23 C        0.4890     7.0380    -0.4250 C.3   1 <1>   0.2090 
 24 C       -1.9630     7.6120    -0.2960 C.3   1 <1>   0.1290 
 25 C        1.1450     7.6880     0.7970 C.3   1 <1>   0.1200 
 26 O        2.4630     8.0200     0.5070 O.3   1 <1>  -0.6800 
 27 H       -4.1010    -0.8570    -1.8730 H     1 <1>   0.0800 
 28 H       -2.5680    -1.3030    -1.1890 H     1 <1>   0.0800 
 29 H       -4.1890     1.2710     1.2090 H     1 <1>   0.0800 
 30 H       -4.6990     2.1430    -0.2020 H     1 <1>   0.0800 
 31 H       -0.3260     2.3320     1.3290 H     1 <1>   0.1500 
 32 H       -3.0600     3.0060    -1.8620 H     1 <1>   0.1500 
 33 H       -4.1250    -0.7970     1.0240 H     1 <1>   0.0800 
 34 H       -6.3590     0.5720     0.9000 H     1 <1>   0.0800 
 35 H       -6.1450     0.6880    -0.8210 H     1 <1>   0.0800 
 36 H        0.1430     4.7350     1.4210 H     1 <1>   0.1500 
 37 H       -2.5760     5.3960    -1.7690 H     1 <1>   0.1500 
 38 H       -4.0460    -2.8760     1.6590 H     1 <1>   0.4500 
 39 H       -3.3520    -3.5770    -1.0770 H     1 <1>   0.0800 
 40 H       -3.0240    -4.6240     0.3080 H     1 <1>   0.0800 
 41 H       -1.5150    -2.1590     0.2950 H     1 <1>   0.0800 
 42 H       -1.6830    -3.1440     1.7320 H     1 <1>   0.0800 
 43 H       -2.0800    -1.4380     1.7780 H     1 <1>   0.0800 
 44 H       -6.9260    -3.3500     0.1220 H     1 <1>   0.0800 
 45 H       -6.1360    -3.0760    -1.3880 H     1 <1>   0.0800 
 46 H       -7.8740    -1.9180    -0.9710 H     1 <1>   0.0800 
 47 H       -7.7860    -0.2780    -0.7050 H     1 <1>   0.0800 
 48 H       -5.3000    -4.9880    -0.5920 H     1 <1>   0.0800 
 49 H       -5.2930    -4.4720     1.0550 H     1 <1>   0.0800 
 50 H       -9.0120    -1.2560     0.8600 H     1 <1>   0.4000 
 51 H        1.0680     6.1840    -0.7310 H     1 <1>   0.0800 
 52 H        0.4590     7.7410    -1.2380 H     1 <1>   0.0800 
 53 H       -1.7640     8.4780     0.3100 H     1 <1>   0.0800 
 54 H       -2.9170     7.2050    -0.0090 H     1 <1>   0.0800 
 55 H       -2.0010     7.9040    -1.3310 H     1 <1>   0.0800 
 56 H        1.1400     7.0140     1.6350 H     1 <1>   0.0800 
 57 H        0.6270     8.5940     1.0590 H     1 <1>   0.0800 
 58 H        3.0080     7.2150     0.4030 H     1 <1>   0.4000 
@<TRIPOS>BOND
  1   1   2  2   
  2   2   3  am  
  3   2   4  1   
  4   3   5  1   
  5   3   6  1   
  6   4   7  ar  
  7   4   8  ar  
  8   5   9  1   
  9   5  27  1   
 10   5  28  1   
 11   6  10  1   
 12   6  29  1   
 13   6  30  1   
 14   7  11  ar  
 15   7  31  1   
 16   8  12  ar  
 17   8  32  1   
 18   9  13  1   
 19   9  14  1   
 20   9  33  1   
 21  10  14  1   
 22  10  34  1   
 23  10  35  1   
 24  11  15  ar  
 25  11  36  1   
 26  12  15  ar  
 27  12  37  1   
 28  13  16  1   
 29  13  17  1   
 30  13  38  1   
 31  14  18  1   
 32  14  19  1   
 33  15  20  1   
 34  16  21  1   
 35  16  39  1   
 36  16  40  1   
 37  17  41  1   
 38  17  42  1   
 39  17  43  1   
 40  18  21  1   
 41  18  44  1   
 42  18  45  1   
 43  19  22  1   
 44  19  46  1   
 45  19  47  1   
 46  20  23  1   
 47  20  24  1   
 48  21  48  1   
 49  21  49  1   
 50  22  50  1   
 51  23  25  1   
 52  23  51  1   
 53  23  52  1   
 54  24  53  1   
 55  24  54  1   
 56  24  55  1   
 57  25  26  1   
 58  25  56  1   
 59  25  57  1   
 60  26  58  1   
@<TRIPOS>SUBSTRUCTURE
  1 ****   2 GROUP 4 **** **** 0

# MOE 2024.06 (io_trps.svl 2023.06)
