@<TRIPOS>MOLECULE
NONAME
48 50 1 0 0 
SMALL
USER_CHARGES


@<TRIPOS>ATOM
  1 O        1.0800     0.6510     0.3640 O.3   1 <1>  -0.5600 
  2 C        1.6680     1.2500    -0.7480 C.3   1 <1>   0.1200 
  3 C       -0.1930     1.1270     0.6790 C.3   1 <1>   0.1200 
  4 C        1.9050     2.7420    -0.4640 C.3   1 <1>  -0.0800 
  5 C       -0.1080     2.6150     1.0400 C.3   1 <1>  -0.1600 
  6 C        0.5760     3.4160    -0.0750 C.3   1 <1>  -0.1600 
  7 C        2.5720     3.4050    -1.6780 C.3   1 <1>   0.2090 
  8 N        2.8700     4.8310    -1.4000 N.pl3 1 <1>  -0.8690 
  9 C        3.9200     5.3880    -0.7810 C.ar  1 <1>   0.4100 
 10 N        3.8840     6.6970    -0.7010 N.ar  1 <1>  -0.6200 
 11 C        4.9790     4.6320    -0.2460 C.ar  1 <1>  -0.1500 
 12 C        4.8930     7.3090    -0.0960 C.ar  1 <1>   0.7710 
 13 C        5.9970     5.2760     0.3750 C.ar  1 <1>   0.2180 
 14 N        5.9230     6.6270     0.4350 N.ar  1 <1>  -0.1790 
 15 N        4.8900     8.6610    -0.0050 N.pl3 1 <1>  -0.8380 
 16 C        7.1940     4.5670     0.9960 C.3   1 <1>  -0.0170 
 17 C        3.7630     9.4730    -0.5440 C.3   1 <1>   0.2090 
 18 C        5.9320     9.5580     0.5670 C.3   1 <1>   0.2090 
 19 C        8.5120     4.9420     0.3040 C.3   1 <1>  -0.2400 
 20 C        4.0330    10.8960    -0.0740 C.3   1 <1>  -0.1600 
 21 C        5.5440    10.9570     0.1080 C.3   1 <1>  -0.1600 
 22 H        1.0200     1.1060    -1.5960 H     1 <1>   0.0800 
 23 H        2.6000     0.7440    -0.9300 H     1 <1>   0.0800 
 24 H       -0.5610     0.5560     1.5140 H     1 <1>   0.0800 
 25 H       -0.8400     0.9650    -0.1670 H     1 <1>   0.0800 
 26 H        2.5850     2.8030     0.3670 H     1 <1>   0.0800 
 27 H        0.4500     2.7130     1.9550 H     1 <1>   0.0800 
 28 H       -1.0970     3.0000     1.2150 H     1 <1>   0.0800 
 29 H       -0.0750     3.4550    -0.9320 H     1 <1>   0.0800 
 30 H        0.7500     4.4240     0.2620 H     1 <1>   0.0800 
 31 H        1.9180     3.3450    -2.5320 H     1 <1>   0.0800 
 32 H        3.4820     2.8870    -1.9260 H     1 <1>   0.0800 
 33 H        2.1360     5.4830    -1.6990 H     1 <1>   0.4000 
 34 H        4.9560     3.5630    -0.3380 H     1 <1>   0.1500 
 35 H        6.6360     7.1870     0.8800 H     1 <1>   0.4570 
 36 H        7.0570     3.5020     0.9210 H     1 <1>   0.0800 
 37 H        7.2540     4.8070     2.0450 H     1 <1>   0.0800 
 38 H        2.8120     9.1170    -0.1810 H     1 <1>   0.0800 
 39 H        3.7740     9.4280    -1.6210 H     1 <1>   0.0800 
 40 H        6.9170     9.3050     0.2130 H     1 <1>   0.0800 
 41 H        5.8970     9.5090     1.6430 H     1 <1>   0.0800 
 42 H        8.4660     4.7060    -0.7460 H     1 <1>   0.0800 
 43 H        9.3220     4.3790     0.7360 H     1 <1>   0.0800 
 44 H        8.7360     5.9880     0.4160 H     1 <1>   0.0800 
 45 H        3.5400    11.0530     0.8700 H     1 <1>   0.0800 
 46 H        3.6740    11.6240    -0.7800 H     1 <1>   0.0800 
 47 H        6.0170    11.1630    -0.8370 H     1 <1>   0.0800 
 48 H        5.8400    11.7100     0.8170 H     1 <1>   0.0800 
@<TRIPOS>BOND
  1   1   2  1   
  2   1   3  1   
  3   2   4  1   
  4   2  22  1   
  5   2  23  1   
  6   3   5  1   
  7   3  24  1   
  8   3  25  1   
  9   4   6  1   
 10   4   7  1   
 11   4  26  1   
 12   5   6  1   
 13   5  27  1   
 14   5  28  1   
 15   6  29  1   
 16   6  30  1   
 17   7   8  1   
 18   7  31  1   
 19   7  32  1   
 20   8   9  1   
 21   8  33  1   
 22   9  10  ar  
 23   9  11  ar  
 24  10  12  ar  
 25  11  13  ar  
 26  11  34  1   
 27  12  14  ar  
 28  12  15  1   
 29  13  14  ar  
 30  13  16  1   
 31  14  35  1   
 32  15  17  1   
 33  15  18  1   
 34  16  19  1   
 35  16  36  1   
 36  16  37  1   
 37  17  20  1   
 38  17  38  1   
 39  17  39  1   
 40  18  21  1   
 41  18  40  1   
 42  18  41  1   
 43  19  42  1   
 44  19  43  1   
 45  19  44  1   
 46  20  21  1   
 47  20  45  1   
 48  20  46  1   
 49  21  47  1   
 50  21  48  1   
@<TRIPOS>SUBSTRUCTURE
  1 ****   9 GROUP 4 **** **** 0

# MOE 2024.06 (io_trps.svl 2023.06)
