@<TRIPOS>MOLECULE
NONAME
21 21 1 0 0 
SMALL
USER_CHARGES


@<TRIPOS>ATOM
  1 S       -6.5010     1.5890     0.9120 S.o2  1 <1>   1.0900 
  2 O       -7.3150     0.5220     1.4440 O.2   1 <1>  -0.6500 
  3 O       -6.0480     2.6590     1.7620 O.2   1 <1>  -0.6500 
  4 C       -5.0340     0.8050     0.2430 C.3   1 <1>  -0.0550 
  5 C       -7.3310     2.2950    -0.5000 C.3   1 <1>  -0.1350 
  6 C       -5.3190    -0.5750    -0.3800 C.3   1 <1>   0.0000 
  7 C       -5.7240    -1.6790     0.6300 C.3   1 <1>   0.4720 
  8 C       -4.0620    -1.4380    -0.6320 C.3   1 <1>   0.4720 
  9 N       -4.8530    -2.6150    -0.1490 N.4   1 <1>  -0.8440 
 10 H       -4.3290     0.6810     1.0450 H     1 <1>   0.0800 
 11 H       -4.5760     1.4500    -0.4830 H     1 <1>   0.0800 
 12 H       -8.2290     2.7900    -0.1810 H     1 <1>   0.0800 
 13 H       -7.6010     1.5360    -1.2080 H     1 <1>   0.0800 
 14 H       -6.7060     3.0210    -0.9840 H     1 <1>   0.0800 
 15 H       -5.9720    -0.5330    -1.2350 H     1 <1>   0.0000 
 16 H       -6.7610    -1.9590     0.5950 H     1 <1>   0.0000 
 17 H       -5.3320    -1.5160     1.6180 H     1 <1>   0.0000 
 18 H       -3.2520    -1.2150     0.0390 H     1 <1>   0.0000 
 19 H       -3.7810    -1.5280    -1.6660 H     1 <1>   0.0000 
 20 H       -5.3700    -3.0860    -0.8990 H     1 <1>   0.4500 
 21 H       -4.3240    -3.2640     0.4440 H     1 <1>   0.4500 
@<TRIPOS>BOND
  1   1   2  2   
  2   1   3  2   
  3   1   4  1   
  4   1   5  1   
  5   4   6  1   
  6   4  10  1   
  7   4  11  1   
  8   5  12  1   
  9   5  13  1   
 10   5  14  1   
 11   6   7  1   
 12   6   8  1   
 13   6  15  1   
 14   7   9  1   
 15   7  16  1   
 16   7  17  1   
 17   8   9  1   
 18   8  18  1   
 19   8  19  1   
 20   9  20  1   
 21   9  21  1   
@<TRIPOS>SUBSTRUCTURE
  1 ****   4 GROUP 4 **** **** 0

# MOE 2024.06 (io_trps.svl 2023.06)
