@<TRIPOS>MOLECULE
NONAME
40 42 1 0 0 
SMALL
USER_CHARGES


@<TRIPOS>ATOM
  1 CL       0.3250     1.0640    -1.5610 Cl    1 <1>  -0.1770 
  2 C        1.7390     1.4860    -0.6330 C.ar  1 <1>   0.1770 
  3 C        2.6420     0.4980    -0.2930 C.ar  1 <1>  -0.1500 
  4 C        1.9330     2.8020    -0.2570 C.ar  1 <1>  -0.1500 
  5 C        3.7550     0.8610     0.4400 C.ar  1 <1>   0.1770 
  6 C        3.0580     3.1680     0.4790 C.ar  1 <1>   0.0860 
  7 CL       4.9190    -0.3600     0.8810 Cl    1 <1>  -0.1770 
  8 C        3.9680     2.1700     0.8260 C.ar  1 <1>  -0.1500 
  9 C        3.2880     4.5430     0.8690 C.2   1 <1>   0.5440 
 10 O        3.0260     4.8800     2.0070 O.2   1 <1>  -0.5700 
 11 N        3.8260     5.4790     0.0010 N.am  1 <1>  -0.6600 
 12 C        4.1210     6.8560     0.5180 C.3   1 <1>   0.1400 
 13 C        4.4330     5.0850    -1.3100 C.3   1 <1>   0.1400 
 14 C        5.6040     7.0630     0.9310 C.3   1 <1>   0.4230 
 15 C        5.9380     5.4130    -1.4460 C.3   1 <1>  -0.0800 
 16 N        6.4740     7.5540    -0.2010 N.4   1 <1>  -0.9590 
 17 C        6.2680     5.8360     1.6170 C.3   1 <1>   0.1200 
 18 C        6.8750     4.6900    -0.4530 C.3   1 <1>   0.1200 
 19 C        6.1810     6.9230    -1.5230 C.3   1 <1>   0.3430 
 20 C        6.4410     9.0450    -0.3120 C.3   1 <1>   0.2630 
 21 O        6.3650     4.6640     0.8430 O.3   1 <1>  -0.5600 
 22 H        2.4830    -0.5230    -0.5890 H     1 <1>   0.1500 
 23 H        1.2060     3.5460    -0.5320 H     1 <1>   0.1500 
 24 H        4.8420     2.4230     1.4010 H     1 <1>   0.1500 
 25 H        3.8280     7.5850    -0.2150 H     1 <1>   0.0800 
 26 H        3.5130     7.0490     1.3840 H     1 <1>   0.0800 
 27 H        4.3120     4.0290    -1.4720 H     1 <1>   0.0800 
 28 H        3.8860     5.5810    -2.0950 H     1 <1>   0.0800 
 29 H        5.5930     7.8400     1.6760 H     1 <1>   0.0800 
 30 H        6.2130     5.0470    -2.4200 H     1 <1>   0.0800 
 31 H        7.4310     7.2730     0.0550 H     1 <1>   0.4500 
 32 H        5.6860     5.5750     2.4850 H     1 <1>   0.0800 
 33 H        7.2560     6.0900     1.9560 H     1 <1>   0.0800 
 34 H        7.8620     5.1190    -0.4330 H     1 <1>   0.0800 
 35 H        6.9710     3.6600    -0.7520 H     1 <1>   0.0800 
 36 H        5.3150     7.3880    -1.9650 H     1 <1>   0.0800 
 37 H        7.0160     7.1030    -2.1820 H     1 <1>   0.0800 
 38 H        5.4500     9.3820    -0.5720 H     1 <1>   0.0800 
 39 H        7.1270     9.3800    -1.0740 H     1 <1>   0.0800 
 40 H        6.7240     9.4990     0.6240 H     1 <1>   0.0800 
@<TRIPOS>BOND
  1   1   2  1   
  2   2   3  ar  
  3   2   4  ar  
  4   3   5  ar  
  5   3  22  1   
  6   4   6  ar  
  7   4  23  1   
  8   5   7  1   
  9   5   8  ar  
 10   6   8  ar  
 11   6   9  1   
 12   8  24  1   
 13   9  10  2   
 14   9  11  am  
 15  11  12  1   
 16  11  13  1   
 17  12  14  1   
 18  12  25  1   
 19  12  26  1   
 20  13  15  1   
 21  13  27  1   
 22  13  28  1   
 23  14  16  1   
 24  14  17  1   
 25  14  29  1   
 26  15  18  1   
 27  15  19  1   
 28  15  30  1   
 29  16  19  1   
 30  16  20  1   
 31  16  31  1   
 32  17  21  1   
 33  17  32  1   
 34  17  33  1   
 35  18  21  1   
 36  18  34  1   
 37  18  35  1   
 38  19  36  1   
 39  19  37  1   
 40  20  38  1   
 41  20  39  1   
 42  20  40  1   
@<TRIPOS>SUBSTRUCTURE
  1 ****  11 GROUP 4 **** **** 0

# MOE 2024.06 (io_trps.svl 2023.06)
