@<TRIPOS>MOLECULE
NONAME
55 58 1 0 0 
SMALL
USER_CHARGES


@<TRIPOS>ATOM
  1 O        4.7980    -1.6530    -0.8600 O.2   1 <1>  -0.5700 
  2 C        3.6120    -1.6400    -0.6150 C.2   1 <1>   0.5690 
  3 N        2.8570    -0.6060    -1.1090 N.am  1 <1>  -0.6600 
  4 C        3.0420    -2.7420     0.2890 C.3   1 <1>   0.1250 
  5 C        3.1580    -0.0230    -2.4580 C.3   1 <1>   0.1400 
  6 C        1.9920     0.2330    -0.2400 C.3   1 <1>   0.1400 
  7 C        1.5370    -2.9210     0.2450 C.ar  1 <1>  -0.1440 
  8 C        3.3310    -2.5030     1.7890 C.3   1 <1>  -0.1600 
  9 C        4.3740     0.9280    -2.4500 C.3   1 <1>   0.3430 
 10 C        2.8490     1.2670     0.5080 C.3   1 <1>  -0.1600 
 11 C        1.0130    -3.0250     1.5100 C.ar  1 <1>  -0.1440 
 12 C        0.7110    -2.9840    -0.8650 C.ar  1 <1>  -0.1500 
 13 C        2.0870    -2.9680     2.5660 C.3   1 <1>  -0.0160 
 14 N        4.7850     1.2900    -1.0600 N.4   1 <1>  -0.9590 
 15 C        3.7650     2.1300    -0.3680 C.3   1 <1>   0.3430 
 16 C       -0.3470    -3.1750     1.7040 C.ar  1 <1>  -0.1500 
 17 C       -0.6540    -3.1340    -0.6810 C.ar  1 <1>  -0.1500 
 18 C        6.1530     1.8840    -1.0460 C.3   1 <1>   0.3430 
 19 C       -1.1820    -3.2260     0.5980 C.ar  1 <1>  -0.1500 
 20 C        6.8500     1.6790     0.3030 C.3   1 <1>   0.0200 
 21 C        8.1760     2.4140     0.2920 C.2   1 <1>   0.0060 
 22 N        8.4550     3.3270    -0.5810 N.2   1 <1>  -0.5650 
 23 N        9.1730     2.1900     1.1850 N.pl3 1 <1>   0.0480 
 24 C        9.6980     3.7230    -0.2490 C.2   1 <1>   0.0770 
 25 C       10.1490     3.0400     0.8240 C.2   1 <1>  -0.3020 
 26 C        9.2270     1.2400     2.3110 C.3   1 <1>   0.0160 
 27 H        3.4850    -3.6770    -0.0050 H     1 <1>   0.0800 
 28 H        2.2940     0.5020    -2.8260 H     1 <1>   0.0800 
 29 H        3.3550    -0.8250    -3.1500 H     1 <1>   0.0800 
 30 H        1.4690    -0.3800     0.4740 H     1 <1>   0.0800 
 31 H        1.2460     0.7260    -0.8410 H     1 <1>   0.0800 
 32 H        3.4740    -1.4550     1.9690 H     1 <1>   0.0800 
 33 H        4.2140    -3.0310     2.1050 H     1 <1>   0.0800 
 34 H        4.1560     1.8120    -3.0260 H     1 <1>   0.0800 
 35 H        5.1900     0.4170    -2.9340 H     1 <1>   0.0800 
 36 H        3.4400     0.7730     1.2570 H     1 <1>   0.0800 
 37 H        2.1790     1.9230     1.0340 H     1 <1>   0.0800 
 38 H        1.1190    -2.9160    -1.8570 H     1 <1>   0.1500 
 39 H        1.8300    -2.2830     3.3550 H     1 <1>   0.0800 
 40 H        2.2390    -3.9520     2.9730 H     1 <1>   0.0800 
 41 H        4.8180     0.3610    -0.5950 H     1 <1>   0.4500 
 42 H        4.2610     2.8510     0.2620 H     1 <1>   0.0800 
 43 H        3.1800     2.6730    -1.0920 H     1 <1>   0.0800 
 44 H       -0.7530    -3.2560     2.6970 H     1 <1>   0.1500 
 45 H       -1.3080    -3.1830    -1.5340 H     1 <1>   0.1500 
 46 H        6.1000     2.9390    -1.2640 H     1 <1>   0.0800 
 47 H        6.7640     1.4250    -1.8060 H     1 <1>   0.0800 
 48 H       -2.2430    -3.3440     0.7340 H     1 <1>   0.1500 
 49 H        7.0210     0.6290     0.4590 H     1 <1>   0.0800 
 50 H        6.2500     2.0720     1.1020 H     1 <1>   0.0800 
 51 H       10.2110     4.4900    -0.8060 H     1 <1>   0.1500 
 52 H       11.0920     3.1160     1.3340 H     1 <1>   0.1500 
 53 H        8.3480     1.3520     2.9200 H     1 <1>   0.0800 
 54 H       10.0980     1.4400     2.9080 H     1 <1>   0.0800 
 55 H        9.2810     0.2370     1.9290 H     1 <1>   0.0800 
@<TRIPOS>BOND
  1   1   2  2   
  2   2   3  am  
  3   2   4  1   
  4   3   5  1   
  5   3   6  1   
  6   4   7  1   
  7   4   8  1   
  8   4  27  1   
  9   5   9  1   
 10   5  28  1   
 11   5  29  1   
 12   6  10  1   
 13   6  30  1   
 14   6  31  1   
 15   7  11  ar  
 16   7  12  ar  
 17   8  13  1   
 18   8  32  1   
 19   8  33  1   
 20   9  14  1   
 21   9  34  1   
 22   9  35  1   
 23  10  15  1   
 24  10  36  1   
 25  10  37  1   
 26  11  13  1   
 27  11  16  ar  
 28  12  17  ar  
 29  12  38  1   
 30  13  39  1   
 31  13  40  1   
 32  14  15  1   
 33  14  18  1   
 34  14  41  1   
 35  15  42  1   
 36  15  43  1   
 37  16  19  ar  
 38  16  44  1   
 39  17  19  ar  
 40  17  45  1   
 41  18  20  1   
 42  18  46  1   
 43  18  47  1   
 44  19  48  1   
 45  20  21  1   
 46  20  49  1   
 47  20  50  1   
 48  21  22  2   
 49  21  23  1   
 50  22  24  1   
 51  23  25  1   
 52  23  26  1   
 53  24  25  2   
 54  24  51  1   
 55  25  52  1   
 56  26  53  1   
 57  26  54  1   
 58  26  55  1   
@<TRIPOS>SUBSTRUCTURE
  1 ****   2 GROUP 4 **** **** 0

# MOE 2024.06 (io_trps.svl 2023.06)
