@<TRIPOS>MOLECULE
NONAME
47 50 1 0 0 
SMALL
USER_CHARGES


@<TRIPOS>ATOM
  1 F       -1.0600    -0.8430     1.9820 F     1 <1>  -0.1900 
  2 C       -1.3450    -1.9930     1.4310 C.ar  1 <1>   0.1900 
  3 C       -0.3670    -2.9630     1.3670 C.ar  1 <1>  -0.1500 
  4 C       -2.6150    -2.1960     0.9310 C.ar  1 <1>  -0.1500 
  5 C       -0.6760    -4.1810     0.7830 C.ar  1 <1>  -0.1500 
  6 C       -2.9110    -3.4180     0.3500 C.ar  1 <1>  -0.1500 
  7 C       -1.9520    -4.4250     0.2780 C.ar  1 <1>  -0.1430 
  8 C       -2.3090    -5.7670    -0.3770 C.3   1 <1>   0.0640 
  9 C       -3.7260    -6.2520    -0.0600 C.3   1 <1>   0.1400 
 10 C       -1.4390    -6.9560     0.0450 C.3   1 <1>  -0.1600 
 11 N       -3.6750    -7.7260    -0.1820 N.am  1 <1>  -0.6600 
 12 C       -2.2760    -8.1930    -0.2650 C.3   1 <1>   0.1400 
 13 C       -4.8040    -8.4930    -0.2150 C.2   1 <1>   0.5690 
 14 O       -5.9020    -7.9940    -0.1450 O.2   1 <1>  -0.5700 
 15 C       -4.6770   -10.0070    -0.3420 C.3   1 <1>  -0.0990 
 16 C       -6.0240   -10.7480    -0.4540 C.3   1 <1>  -0.1600 
 17 C       -5.8350   -12.2670    -0.5850 C.3   1 <1>   0.0200 
 18 C       -7.1640   -12.9940    -0.6690 C.2   1 <1>   0.2980 
 19 O       -7.9110   -12.8210    -1.7290 O.3   1 <1>  -0.0190 
 20 N       -7.6320   -13.7800     0.2080 N.2   1 <1>  -0.5650 
 21 N       -8.9500   -13.5630    -1.5060 N.2   1 <1>  -0.4100 
 22 C       -8.7910   -14.1300    -0.3620 C.2   1 <1>   0.5150 
 23 C       -9.7100   -15.0430     0.2840 C.2   1 <1>   0.1410 
 24 O      -10.8550   -15.3960    -0.2950 O.3   1 <1>  -0.2800 
 25 C       -9.6240   -15.6740     1.4870 C.2   1 <1>  -0.1500 
 26 C      -11.4930   -16.2270     0.5030 C.2   1 <1>  -0.0100 
 27 C      -10.7810   -16.4430     1.6280 C.2   1 <1>  -0.1500 
 28 H        0.6130    -2.7670     1.7630 H     1 <1>   0.1500 
 29 H       -3.3510    -1.4150     0.9940 H     1 <1>   0.1500 
 30 H        0.0940    -4.9280     0.7280 H     1 <1>   0.1500 
 31 H       -3.8990    -3.5680    -0.0480 H     1 <1>   0.1500 
 32 H       -2.2360    -5.6500    -1.4440 H     1 <1>   0.0800 
 33 H       -4.4500    -5.8370    -0.7400 H     1 <1>   0.0800 
 34 H       -3.9950    -5.9980     0.9510 H     1 <1>   0.0800 
 35 H       -1.2630    -6.9230     1.1060 H     1 <1>   0.0800 
 36 H       -0.4970    -6.9770    -0.4710 H     1 <1>   0.0800 
 37 H       -2.0850    -8.9820     0.4430 H     1 <1>   0.0800 
 38 H       -2.0770    -8.5390    -1.2660 H     1 <1>   0.0800 
 39 H       -4.1490   -10.3670     0.5210 H     1 <1>   0.0800 
 40 H       -4.0870   -10.2190    -1.2140 H     1 <1>   0.0800 
 41 H       -6.5630   -10.3770    -1.3100 H     1 <1>   0.0800 
 42 H       -6.6180   -10.5400     0.4210 H     1 <1>   0.0800 
 43 H       -5.2950   -12.6380     0.2680 H     1 <1>   0.0800 
 44 H       -5.2640   -12.4930    -1.4680 H     1 <1>   0.0800 
 45 H       -8.8240   -15.6030     2.2020 H     1 <1>   0.1500 
 46 H      -12.4460   -16.6180     0.1910 H     1 <1>   0.1500 
 47 H      -11.0250   -17.0660     2.4710 H     1 <1>   0.1500 
@<TRIPOS>BOND
  1   1   2  1   
  2   2   3  ar  
  3   2   4  ar  
  4   3   5  ar  
  5   3  28  1   
  6   4   6  ar  
  7   4  29  1   
  8   5   7  ar  
  9   5  30  1   
 10   6   7  ar  
 11   6  31  1   
 12   7   8  1   
 13   8   9  1   
 14   8  10  1   
 15   8  32  1   
 16   9  11  1   
 17   9  33  1   
 18   9  34  1   
 19  10  12  1   
 20  10  35  1   
 21  10  36  1   
 22  11  12  1   
 23  11  13  am  
 24  12  37  1   
 25  12  38  1   
 26  13  14  2   
 27  13  15  1   
 28  15  16  1   
 29  15  39  1   
 30  15  40  1   
 31  16  17  1   
 32  16  41  1   
 33  16  42  1   
 34  17  18  1   
 35  17  43  1   
 36  17  44  1   
 37  18  19  1   
 38  18  20  2   
 39  19  21  1   
 40  20  22  1   
 41  21  22  2   
 42  22  23  1   
 43  23  24  1   
 44  23  25  2   
 45  24  26  1   
 46  25  27  1   
 47  25  45  1   
 48  26  27  2   
 49  26  46  1   
 50  27  47  1   
@<TRIPOS>SUBSTRUCTURE
  1 ****  13 GROUP 4 **** **** 0

# MOE 2024.06 (io_trps.svl 2023.06)
