@<TRIPOS>MOLECULE
NONAME
56 59 1 0 0 
SMALL
USER_CHARGES


@<TRIPOS>ATOM
  1 N        0.3500    -0.0100     0.5070 N.ar  1 <1>  -0.6200 
  2 C       -0.4390     0.9220     1.0480 C.ar  1 <1>   0.7200 
  3 C        1.4150     0.4430    -0.1070 C.ar  1 <1>   0.1660 
  4 N       -0.2300     2.2430     1.0220 N.ar  1 <1>  -0.6200 
  5 N       -1.5750     0.4790     1.6970 N.pl3 1 <1>  -0.8380 
  6 C        1.7160     1.7700    -0.1860 C.ar  1 <1>  -0.1430 
  7 C        2.4700    -0.4080    -0.7940 C.3   1 <1>   0.1430 
  8 C        0.8500     2.6560     0.4020 C.ar  1 <1>   0.1600 
  9 C       -2.0730    -0.9170     1.5520 C.3   1 <1>   0.1290 
 10 C       -2.3920     1.3720     2.5640 C.3   1 <1>   0.1290 
 11 C        3.0010     2.0140    -0.9350 C.3   1 <1>  -0.0160 
 12 C        3.3430    -1.0400     0.3150 C.3   1 <1>   0.2090 
 13 C        1.8600    -1.4840    -1.7350 C.3   1 <1>  -0.1600 
 14 C        3.2640     0.6530    -1.6020 C.3   1 <1>  -0.1600 
 15 N        4.1650    -2.1600    -0.2390 N.pl3 1 <1>  -0.8380 
 16 C        1.9250    -2.8930    -1.1220 C.3   1 <1>  -0.1600 
 17 C        5.5450    -2.2580    -0.1130 C.ar  1 <1>   0.4100 
 18 C        3.3740    -3.3000    -0.7990 C.3   1 <1>   0.2090 
 19 N        6.0710    -3.4680    -0.2070 N.ar  1 <1>  -0.6200 
 20 C        6.3580    -1.1650     0.0880 C.ar  1 <1>  -0.1500 
 21 C        7.3810    -3.5370    -0.0880 C.ar  1 <1>   0.4700 
 22 C        7.7130    -1.3560     0.2000 C.ar  1 <1>   0.4100 
 23 N        8.2420    -2.5610     0.1120 N.ar  1 <1>  -0.6200 
 24 N        8.5500    -0.2860     0.4080 N.pl3 1 <1>  -0.8690 
 25 C        9.9950    -0.3870     0.6460 C.3   1 <1>   0.2890 
 26 C       10.2300    -0.3750     2.1510 C.3   1 <1>  -0.2400 
 27 C       10.6600     0.8060    -0.0290 C.3   1 <1>  -0.2400 
 28 H        1.0430     3.7140     0.3650 H     1 <1>   0.1500 
 29 H       -1.8070    -1.3150     0.5870 H     1 <1>   0.0800 
 30 H       -3.1440    -0.9410     1.6420 H     1 <1>   0.0800 
 31 H       -1.6360    -1.5350     2.3170 H     1 <1>   0.0800 
 32 H       -1.7760     2.1330     3.0110 H     1 <1>   0.0800 
 33 H       -2.8520     0.8040     3.3530 H     1 <1>   0.0800 
 34 H       -3.1570     1.8450     1.9720 H     1 <1>   0.0800 
 35 H        3.7860     2.2570    -0.2400 H     1 <1>   0.0800 
 36 H        2.8980     2.7990    -1.6640 H     1 <1>   0.0800 
 37 H        2.7010    -1.4440     1.0790 H     1 <1>   0.0800 
 38 H        3.9520    -0.2920     0.7860 H     1 <1>   0.0800 
 39 H        2.4150    -1.5140    -2.6570 H     1 <1>   0.0800 
 40 H        0.8420    -1.2320    -1.9760 H     1 <1>   0.0800 
 41 H        2.8750     0.7040    -2.6040 H     1 <1>   0.0800 
 42 H        4.3120     0.4200    -1.6600 H     1 <1>   0.0800 
 43 H        1.5020    -3.6110    -1.8020 H     1 <1>   0.0800 
 44 H        1.3370    -2.9210    -0.2210 H     1 <1>   0.0800 
 45 H        3.3790    -4.1180    -0.0980 H     1 <1>   0.0800 
 46 H        3.8560    -3.6340    -1.7020 H     1 <1>   0.0800 
 47 H        5.9620    -0.1770     0.1450 H     1 <1>   0.1500 
 48 H        7.8040    -4.5240    -0.1630 H     1 <1>   0.1500 
 49 H        8.1370     0.5870     0.7290 H     1 <1>   0.4000 
 50 H       10.3840    -1.2980     0.2210 H     1 <1>   0.0800 
 51 H        9.8540     0.5300     2.5910 H     1 <1>   0.0800 
 52 H       11.2820    -0.4480     2.3570 H     1 <1>   0.0800 
 53 H        9.7400    -1.2210     2.5980 H     1 <1>   0.0800 
 54 H       10.2980     1.7300     0.3810 H     1 <1>   0.0800 
 55 H       10.4610     0.7800    -1.0860 H     1 <1>   0.0800 
 56 H       11.7240     0.7580     0.1150 H     1 <1>   0.0800 
@<TRIPOS>BOND
  1   1   2  ar  
  2   1   3  ar  
  3   2   4  ar  
  4   2   5  1   
  5   3   6  ar  
  6   3   7  1   
  7   4   8  ar  
  8   5   9  1   
  9   5  10  1   
 10   6   8  ar  
 11   6  11  1   
 12   7  12  1   
 13   7  13  1   
 14   7  14  1   
 15   8  28  1   
 16   9  29  1   
 17   9  30  1   
 18   9  31  1   
 19  10  32  1   
 20  10  33  1   
 21  10  34  1   
 22  11  14  1   
 23  11  35  1   
 24  11  36  1   
 25  12  15  1   
 26  12  37  1   
 27  12  38  1   
 28  13  16  1   
 29  13  39  1   
 30  13  40  1   
 31  14  41  1   
 32  14  42  1   
 33  15  17  1   
 34  15  18  1   
 35  16  18  1   
 36  16  43  1   
 37  16  44  1   
 38  17  19  ar  
 39  17  20  ar  
 40  18  45  1   
 41  18  46  1   
 42  19  21  ar  
 43  20  22  ar  
 44  20  47  1   
 45  21  23  ar  
 46  21  48  1   
 47  22  23  ar  
 48  22  24  1   
 49  24  25  1   
 50  24  49  1   
 51  25  26  1   
 52  25  27  1   
 53  25  50  1   
 54  26  51  1   
 55  26  52  1   
 56  26  53  1   
 57  27  54  1   
 58  27  55  1   
 59  27  56  1   
@<TRIPOS>SUBSTRUCTURE
  1 ****  12 GROUP 4 **** **** 0

# MOE 2024.06 (io_trps.svl 2023.06)
