@<TRIPOS>MOLECULE
NONAME
50 53 1 0 0 
SMALL
USER_CHARGES


@<TRIPOS>ATOM
  1 O       -0.6330     0.3050     0.7140 O.2   1 <1>  -0.5700 
  2 C       -1.7900     0.7400     0.5080 C.2   1 <1>   0.5410 
  3 C       -2.9050    -0.0960     0.2030 C.2   1 <1>   0.0140 
  4 C       -1.9640     2.1380     0.5910 C.2   1 <1>  -0.1360 
  5 C       -2.8190    -1.5200     0.1040 C.2   1 <1>   0.2710 
  6 C       -4.1360     0.5640    -0.0040 C.2   1 <1>  -0.1500 
  7 C       -3.1790     2.7270     0.3840 C.2   1 <1>  -0.1500 
  8 N       -3.9120    -2.2420    -0.1540 N.2   1 <1>  -0.6210 
  9 N       -1.6230    -2.1530     0.2720 N.pl3 1 <1>  -0.6000 
 10 C       -4.2800     1.9260     0.0810 C.2   1 <1>  -0.1500 
 11 C       -3.8090    -3.5620    -0.2370 C.2   1 <1>   0.4860 
 12 C       -1.4610    -3.4870     0.1860 C.2   1 <1>  -0.0380 
 13 N       -4.9580    -4.2570    -0.4860 N.pl3 1 <1>  -0.7880 
 14 C       -2.5710    -4.2170    -0.0770 C.2   1 <1>  -0.1360 
 15 C       -0.0730    -4.0570     0.3840 C.3   1 <1>  -0.1020 
 16 C       -6.2650    -3.5910    -0.7190 C.3   1 <1>   0.2090 
 17 C       -5.1300    -5.7260    -0.4240 C.3   1 <1>   0.2090 
 18 C       -7.3010    -4.7180    -0.7490 C.3   1 <1>   0.2000 
 19 C       -6.6140    -5.9320    -0.1250 C.3   1 <1>  -0.0800 
 20 O       -8.4340    -4.3960    -0.0160 O.3   1 <1>  -0.6800 
 21 C       -7.1620    -7.2660    -0.6490 C.3   1 <1>   0.0200 
 22 C       -6.3620    -8.4330    -0.0990 C.2   1 <1>  -0.3320 
 23 N       -6.3890    -8.8340     1.1900 N.pl3 1 <1>   0.3000 
 24 C       -5.5110    -9.2620    -0.7410 C.2   1 <1>  -0.1500 
 25 N       -5.5740    -9.8830     1.4000 N.2   1 <1>  -0.7070 
 26 C       -5.0570   -10.1360     0.2410 C.2   1 <1>   0.1080 
 27 C       -4.0760   -11.2640     0.0230 C.3   1 <1>  -0.0590 
 28 H       -1.0940     2.7220     0.8250 H     1 <1>   0.1500 
 29 H       -5.0050    -0.0270    -0.2390 H     1 <1>   0.1500 
 30 H       -3.3020     3.7950     0.4490 H     1 <1>   0.1500 
 31 H       -0.8200    -1.5350     0.4770 H     1 <1>   0.4000 
 32 H       -5.2390     2.3880    -0.0840 H     1 <1>   0.1500 
 33 H       -2.5210    -5.2810    -0.1680 H     1 <1>   0.1500 
 34 H        0.5960    -3.6510    -0.3540 H     1 <1>   0.0800 
 35 H       -0.0860    -5.1270     0.2890 H     1 <1>   0.0800 
 36 H        0.2890    -3.8000     1.3630 H     1 <1>   0.0800 
 37 H       -6.4640    -2.9000     0.0820 H     1 <1>   0.0800 
 38 H       -6.2430    -3.0640    -1.6570 H     1 <1>   0.0800 
 39 H       -4.8690    -6.1500    -1.3790 H     1 <1>   0.0800 
 40 H       -4.5210    -6.1650     0.3470 H     1 <1>   0.0800 
 41 H       -7.5970    -4.9110    -1.7660 H     1 <1>   0.0800 
 42 H       -6.7240    -5.8920     0.9440 H     1 <1>   0.0800 
 43 H       -8.1810    -4.1060     0.8830 H     1 <1>   0.4000 
 44 H       -7.1100    -7.2810    -1.7240 H     1 <1>   0.0800 
 45 H       -8.1980    -7.3680    -0.3720 H     1 <1>   0.0800 
 46 H       -6.9470    -8.4200     1.9470 H     1 <1>   0.2700 
 47 H       -5.2260    -9.2730    -1.7770 H     1 <1>   0.1500 
 48 H       -3.7840   -11.3160    -1.0090 H     1 <1>   0.0800 
 49 H       -4.5310   -12.1940     0.3080 H     1 <1>   0.0800 
 50 H       -3.2040   -11.1020     0.6300 H     1 <1>   0.0800 
@<TRIPOS>BOND
  1   1   2  2   
  2   2   3  1   
  3   2   4  1   
  4   3   5  2   
  5   3   6  1   
  6   4   7  2   
  7   4  28  1   
  8   5   8  1   
  9   5   9  1   
 10   6  10  2   
 11   6  29  1   
 12   7  10  1   
 13   7  30  1   
 14   8  11  2   
 15   9  12  1   
 16   9  31  1   
 17  10  32  1   
 18  11  13  1   
 19  11  14  1   
 20  12  14  2   
 21  12  15  1   
 22  13  16  1   
 23  13  17  1   
 24  14  33  1   
 25  15  34  1   
 26  15  35  1   
 27  15  36  1   
 28  16  18  1   
 29  16  37  1   
 30  16  38  1   
 31  17  19  1   
 32  17  39  1   
 33  17  40  1   
 34  18  19  1   
 35  18  20  1   
 36  18  41  1   
 37  19  21  1   
 38  19  42  1   
 39  20  43  1   
 40  21  22  1   
 41  21  44  1   
 42  21  45  1   
 43  22  23  1   
 44  22  24  2   
 45  23  25  1   
 46  23  46  1   
 47  24  26  1   
 48  24  47  1   
 49  25  26  2   
 50  26  27  1   
 51  27  48  1   
 52  27  49  1   
 53  27  50  1   
@<TRIPOS>SUBSTRUCTURE
  1 ****  11 GROUP 4 **** **** 0

# MOE 2024.06 (io_trps.svl 2023.06)
