@<TRIPOS>MOLECULE
NONAME
40 41 1 0 0 
SMALL
USER_CHARGES


@<TRIPOS>ATOM
  1 S        0.6880     0.5290    -1.7560 S.o2  1 <1>   1.3330 
  2 O        1.0660    -0.7160    -2.3880 O.2   1 <1>  -0.6500 
  3 O       -0.1910     1.4470    -2.4440 O.2   1 <1>  -0.6500 
  4 N       -0.0420     0.1540    -0.2670 N.am  1 <1>  -0.8490 
  5 C        2.1910     1.3920    -1.2890 C.3   1 <1>  -0.0550 
  6 C       -0.8810    -1.0460    -0.3490 C.3   1 <1>   0.1160 
  7 C       -0.8240     1.2640     0.2910 C.3   1 <1>   0.1160 
  8 C        3.2400     0.5040    -0.5840 C.3   1 <1>  -0.0800 
  9 C        4.6000     1.1540    -0.3690 C.3   1 <1>   0.2200 
 10 C        2.8590     0.0340     0.8270 C.3   1 <1>   0.1200 
 11 N        4.4550     2.5460     0.1190 N.am  1 <1>  -0.7300 
 12 C        5.1270     0.3040     0.7770 C.3   1 <1>   0.1200 
 13 O        4.0200     0.1230     1.6040 O.3   1 <1>  -0.5600 
 14 C        4.5760     3.6660    -0.6420 C.2   1 <1>   0.7150 
 15 O        4.6900     3.5430    -1.8440 O.2   1 <1>  -0.5700 
 16 C        4.5410     4.9640    -0.0290 C.2   1 <1>  -0.2370 
 17 N        4.8170     5.2010     1.2910 N.pl3 1 <1>   0.0330 
 18 C        4.2590     6.1750    -0.6060 C.2   1 <1>  -0.1500 
 19 C        4.6990     6.5280     1.5220 C.2   1 <1>  -0.3020 
 20 C        4.3510     7.1740     0.3690 C.2   1 <1>   0.0190 
 21 C        4.1260     8.5770     0.1580 C.1   1 <1>   0.5380 
 22 N        3.9430     9.6910    -0.0060 N.1   1 <1>  -0.5570 
 23 H        2.6380     1.7840    -2.1830 H     1 <1>   0.0800 
 24 H        1.9420     2.2280    -0.6670 H     1 <1>   0.0800 
 25 H       -1.3210    -1.2610     0.6090 H     1 <1>   0.0800 
 26 H       -0.2850    -1.8940    -0.6420 H     1 <1>   0.0800 
 27 H       -1.6630    -0.9060    -1.0770 H     1 <1>   0.0800 
 28 H       -1.1850     1.0060     1.2720 H     1 <1>   0.0800 
 29 H       -1.6660     1.4890    -0.3440 H     1 <1>   0.0800 
 30 H       -0.2120     2.1460     0.3740 H     1 <1>   0.0800 
 31 H        3.3920    -0.3760    -1.1860 H     1 <1>   0.0800 
 32 H        5.2310     1.1130    -1.2430 H     1 <1>   0.0800 
 33 H        2.5140    -0.9860     0.8270 H     1 <1>   0.0800 
 34 H        2.1160     0.6670     1.2800 H     1 <1>   0.0800 
 35 H        4.1320     2.6040     1.0840 H     1 <1>   0.3700 
 36 H        5.9210     0.7800     1.3240 H     1 <1>   0.0800 
 37 H        5.4460    -0.6630     0.4270 H     1 <1>   0.0800 
 38 H        5.0980     4.4920     1.9780 H     1 <1>   0.2700 
 39 H        4.0080     6.3420    -1.6410 H     1 <1>   0.1500 
 40 H        4.8700     6.9660     2.4910 H     1 <1>   0.1500 
@<TRIPOS>BOND
  1   1   2  2   
  2   1   3  2   
  3   1   4  am  
  4   1   5  1   
  5   4   6  1   
  6   4   7  1   
  7   5   8  1   
  8   5  23  1   
  9   5  24  1   
 10   6  25  1   
 11   6  26  1   
 12   6  27  1   
 13   7  28  1   
 14   7  29  1   
 15   7  30  1   
 16   8   9  1   
 17   8  10  1   
 18   8  31  1   
 19   9  11  1   
 20   9  12  1   
 21   9  32  1   
 22  10  13  1   
 23  10  33  1   
 24  10  34  1   
 25  11  14  am  
 26  11  35  1   
 27  12  13  1   
 28  12  36  1   
 29  12  37  1   
 30  14  15  2   
 31  14  16  1   
 32  16  17  1   
 33  16  18  2   
 34  17  19  1   
 35  17  38  1   
 36  18  20  1   
 37  18  39  1   
 38  19  20  2   
 39  19  40  1   
 40  20  21  1   
 41  21  22  3   
@<TRIPOS>SUBSTRUCTURE
  1 ****  11 GROUP 4 **** **** 0

# MOE 2024.06 (io_trps.svl 2023.06)
