@<TRIPOS>MOLECULE
NONAME
56 59 1 0 0 
SMALL
USER_CHARGES


@<TRIPOS>ATOM
  1 O       -1.5310    -2.1040    -0.8270 O.3   1 <1>  -0.3630 
  2 C       -0.1820    -2.2990    -0.9200 C.ar  1 <1>   0.0830 
  3 C       -2.0610    -0.8030    -0.9890 C.3   1 <1>   0.0400 
  4 C        0.4070    -3.3080    -0.1160 C.ar  1 <1>   0.3100 
  5 C        0.5830    -1.5400    -1.7710 C.ar  1 <1>  -0.1500 
  6 N       -0.4300    -4.0520     0.6580 N.ar  1 <1>  -0.6200 
  7 C        1.8160    -3.5040    -0.1520 C.ar  1 <1>   0.0000 
  8 C        1.9550    -1.7450    -1.8390 C.ar  1 <1>  -0.1500 
  9 C        0.0890    -4.9520     1.4390 C.ar  1 <1>   0.4100 
 10 C        2.5690    -2.6990    -1.0570 C.ar  1 <1>   0.0830 
 11 C        2.3410    -4.4940     0.7290 C.ar  1 <1>  -0.1440 
 12 N       -0.7570    -5.7230     2.2120 N.3   1 <1>  -0.5900 
 13 C        1.4660    -5.1910     1.5030 C.ar  1 <1>  -0.1500 
 14 O        3.9120    -2.8970    -1.1390 O.3   1 <1>  -0.3630 
 15 C        3.8240    -4.8210     0.8720 C.3   1 <1>  -0.0970 
 16 C       -2.1440    -5.2570     2.5900 C.3   1 <1>   0.2450 
 17 C       -1.3950    -6.9340     1.5910 C.3   1 <1>   0.2450 
 18 C        4.7580    -2.1460    -1.9840 C.3   1 <1>   0.0400 
 19 C       -2.7130    -6.1100     1.4130 C.3   1 <1>   0.4720 
 20 N       -2.9090    -5.3430     0.1170 N.4   1 <1>  -0.9280 
 21 C       -4.2890    -4.7880    -0.0340 C.3   1 <1>   0.4230 
 22 C       -2.4770    -6.1430    -1.0680 C.3   1 <1>   0.3430 
 23 C       -4.4350    -4.0070    -1.3490 C.3   1 <1>  -0.1600 
 24 C       -4.6490    -3.8640     1.1300 C.3   1 <1>  -0.2400 
 25 C       -2.5700    -5.3230    -2.3520 C.3   1 <1>  -0.1600 
 26 C       -3.9910    -4.8080    -2.5740 C.3   1 <1>  -0.1600 
 27 H       -3.0720    -0.8020    -0.6230 H     1 <1>   0.0800 
 28 H       -2.0530    -0.5460    -2.0330 H     1 <1>   0.0800 
 29 H       -1.4680    -0.1080    -0.4190 H     1 <1>   0.0800 
 30 H        0.1520    -0.7850    -2.4020 H     1 <1>   0.1500 
 31 H        2.5050    -1.1290    -2.5250 H     1 <1>   0.1500 
 32 H        1.7980    -5.9470     2.1900 H     1 <1>   0.1500 
 33 H        4.3700    -3.9390     1.1570 H     1 <1>   0.0800 
 34 H        4.2140    -5.1920    -0.0590 H     1 <1>   0.0800 
 35 H        3.9920    -5.5700     1.6240 H     1 <1>   0.0800 
 36 H       -2.2710    -4.1940     2.4900 H     1 <1>   0.0000 
 37 H       -2.4190    -5.6310     3.5610 H     1 <1>   0.0000 
 38 H       -1.4860    -7.7250     2.3150 H     1 <1>   0.0000 
 39 H       -0.9010    -7.2460     0.6900 H     1 <1>   0.0000 
 40 H        5.7640    -2.4980    -1.8460 H     1 <1>   0.0800 
 41 H        4.6940    -1.1080    -1.7090 H     1 <1>   0.0800 
 42 H        4.4560    -2.2970    -3.0050 H     1 <1>   0.0800 
 43 H       -3.5920    -6.6710     1.6710 H     1 <1>   0.0000 
 44 H       -2.2370    -4.5460     0.1710 H     1 <1>   0.4500 
 45 H       -4.9900    -5.6070    -0.0550 H     1 <1>   0.0800 
 46 H       -3.0930    -7.0220    -1.1580 H     1 <1>   0.0800 
 47 H       -1.4520    -6.4510    -0.9480 H     1 <1>   0.0800 
 48 H       -3.8620    -3.1010    -1.2930 H     1 <1>   0.0800 
 49 H       -5.4650    -3.7220    -1.4780 H     1 <1>   0.0800 
 50 H       -3.9190    -3.0810     1.2360 H     1 <1>   0.0800 
 51 H       -4.7430    -4.4080     2.0510 H     1 <1>   0.0800 
 52 H       -5.6030    -3.4040     0.9430 H     1 <1>   0.0800 
 53 H       -2.2770    -5.9380    -3.1850 H     1 <1>   0.0800 
 54 H       -1.8780    -4.4990    -2.3000 H     1 <1>   0.0800 
 55 H       -4.0200    -4.1830    -3.4510 H     1 <1>   0.0800 
 56 H       -4.6610    -5.6370    -2.7340 H     1 <1>   0.0800 
@<TRIPOS>BOND
  1   1   2  1   
  2   1   3  1   
  3   2   4  ar  
  4   2   5  ar  
  5   3  27  1   
  6   3  28  1   
  7   3  29  1   
  8   4   6  ar  
  9   4   7  ar  
 10   5   8  ar  
 11   5  30  1   
 12   6   9  ar  
 13   7  10  ar  
 14   7  11  ar  
 15   8  10  ar  
 16   8  31  1   
 17   9  12  1   
 18   9  13  ar  
 19  10  14  1   
 20  11  13  ar  
 21  11  15  1   
 22  12  16  1   
 23  12  17  1   
 24  13  32  1   
 25  14  18  1   
 26  15  33  1   
 27  15  34  1   
 28  15  35  1   
 29  16  19  1   
 30  16  36  1   
 31  16  37  1   
 32  17  19  1   
 33  17  38  1   
 34  17  39  1   
 35  18  40  1   
 36  18  41  1   
 37  18  42  1   
 38  19  20  1   
 39  19  43  1   
 40  20  21  1   
 41  20  22  1   
 42  20  44  1   
 43  21  23  1   
 44  21  24  1   
 45  21  45  1   
 46  22  25  1   
 47  22  46  1   
 48  22  47  1   
 49  23  26  1   
 50  23  48  1   
 51  23  49  1   
 52  24  50  1   
 53  24  51  1   
 54  24  52  1   
 55  25  26  1   
 56  25  53  1   
 57  25  54  1   
 58  26  55  1   
 59  26  56  1   
@<TRIPOS>SUBSTRUCTURE
  1 ****   6 GROUP 4 **** **** 0

# MOE 2024.06 (io_trps.svl 2023.06)
