@<TRIPOS>MOLECULE
NONAME
49 51 1 0 0 
SMALL
USER_CHARGES


@<TRIPOS>ATOM
  1 F        0.9470     0.5120     0.3290 F     1 <1>  -0.3400 
  2 C        2.0160    -0.2410     0.1050 C.3   1 <1>   1.1640 
  3 F        2.9050     0.0850     1.0370 F     1 <1>  -0.3400 
  4 F        2.5260     0.1690    -1.0510 F     1 <1>  -0.3400 
  5 C        1.6700    -1.7400     0.1040 C.ar  1 <1>  -0.1440 
  6 C        1.7650    -2.5010     1.2640 C.ar  1 <1>  -0.1500 
  7 C        1.2450    -2.3740    -1.0600 C.ar  1 <1>  -0.1500 
  8 C        1.4480    -3.8470     1.2570 C.ar  1 <1>  -0.1500 
  9 C        0.9310    -3.7210    -1.0600 C.ar  1 <1>  -0.1500 
 10 C        1.0170    -4.4930     0.0980 C.ar  1 <1>   0.0860 
 11 C        0.6860    -5.9090     0.1060 C.2   1 <1>   0.5440 
 12 O        1.2470    -6.6730     0.8720 O.2   1 <1>  -0.5700 
 13 N       -0.2860    -6.4450    -0.7110 N.am  1 <1>  -0.6600 
 14 C       -0.2930    -7.9100    -0.9560 C.3   1 <1>   0.1400 
 15 C       -1.6330    -5.8190    -0.7970 C.3   1 <1>   0.1400 
 16 C       -1.1630    -8.5890     0.1250 C.3   1 <1>   0.4230 
 17 C       -2.5350    -6.4760     0.2590 C.3   1 <1>  -0.1600 
 18 N       -1.0800   -10.1090     0.1240 N.4   1 <1>  -0.9590 
 19 C       -2.6170    -8.0280     0.1410 C.3   1 <1>   0.0000 
 20 C       -2.1970   -10.7830     0.8620 C.3   1 <1>   0.3430 
 21 C       -0.8910   -10.7470    -1.2200 C.3   1 <1>   0.2630 
 22 C       -3.3680    -8.5840     1.3880 C.3   1 <1>  -0.1600 
 23 C       -3.3610    -8.4310    -1.1650 C.3   1 <1>   0.1200 
 24 C       -2.7540    -9.8780     1.9580 C.3   1 <1>  -0.1600 
 25 O       -4.5840    -7.7910    -1.2790 O.3   1 <1>  -0.6800 
 26 H        2.0900    -2.0490     2.1880 H     1 <1>   0.1500 
 27 H        1.1590    -1.8170    -1.9800 H     1 <1>   0.1500 
 28 H        1.5370    -4.4170     2.1670 H     1 <1>   0.1500 
 29 H        0.6170    -4.1860    -1.9780 H     1 <1>   0.1500 
 30 H       -0.6680    -8.0950    -1.9460 H     1 <1>   0.0800 
 31 H        0.7160    -8.2820    -0.9000 H     1 <1>   0.0800 
 32 H       -1.5720    -4.7610    -0.6070 H     1 <1>   0.0800 
 33 H       -2.0390    -5.9560    -1.7850 H     1 <1>   0.0800 
 34 H       -0.7300    -8.2700     1.0600 H     1 <1>   0.0800 
 35 H       -2.1410    -6.2050     1.2240 H     1 <1>   0.0800 
 36 H       -3.5160    -6.0370     0.1970 H     1 <1>   0.0800 
 37 H       -0.2240   -10.3060     0.6670 H     1 <1>   0.4500 
 38 H       -2.9950   -11.0210     0.1770 H     1 <1>   0.0800 
 39 H       -1.8450   -11.7070     1.2940 H     1 <1>   0.0800 
 40 H       -1.7330   -10.5380    -1.8600 H     1 <1>   0.0800 
 41 H       -0.7970   -11.8160    -1.1160 H     1 <1>   0.0800 
 42 H        0.0040   -10.3750    -1.6930 H     1 <1>   0.0800 
 43 H       -3.3730    -7.8570     2.1830 H     1 <1>   0.0800 
 44 H       -4.4010    -8.7660     1.1480 H     1 <1>   0.0800 
 45 H       -3.5480    -9.4890    -1.2010 H     1 <1>   0.0800 
 46 H       -2.7970    -8.1560    -2.0380 H     1 <1>   0.0800 
 47 H       -3.5090   -10.4120     2.5100 H     1 <1>   0.0800 
 48 H       -1.9670    -9.6400     2.6530 H     1 <1>   0.0800 
 49 H       -5.1930    -8.0220    -0.5500 H     1 <1>   0.4000 
@<TRIPOS>BOND
  1   1   2  1   
  2   2   3  1   
  3   2   4  1   
  4   2   5  1   
  5   5   6  ar  
  6   5   7  ar  
  7   6   8  ar  
  8   6  26  1   
  9   7   9  ar  
 10   7  27  1   
 11   8  10  ar  
 12   8  28  1   
 13   9  10  ar  
 14   9  29  1   
 15  10  11  1   
 16  11  12  2   
 17  11  13  am  
 18  13  14  1   
 19  13  15  1   
 20  14  16  1   
 21  14  30  1   
 22  14  31  1   
 23  15  17  1   
 24  15  32  1   
 25  15  33  1   
 26  16  18  1   
 27  16  19  1   
 28  16  34  1   
 29  17  19  1   
 30  17  35  1   
 31  17  36  1   
 32  18  20  1   
 33  18  21  1   
 34  18  37  1   
 35  19  22  1   
 36  19  23  1   
 37  20  24  1   
 38  20  38  1   
 39  20  39  1   
 40  21  40  1   
 41  21  41  1   
 42  21  42  1   
 43  22  24  1   
 44  22  43  1   
 45  22  44  1   
 46  23  25  1   
 47  23  45  1   
 48  23  46  1   
 49  24  47  1   
 50  24  48  1   
 51  25  49  1   
@<TRIPOS>SUBSTRUCTURE
  1 ****  11 GROUP 4 **** **** 0

# MOE 2024.06 (io_trps.svl 2023.06)
