@<TRIPOS>MOLECULE
NONAME
44 46 1 0 0 
SMALL
USER_CHARGES


@<TRIPOS>ATOM
  1 F        0.6420    -0.5330    -1.0200 F     1 <1>  -0.3400 
  2 C        1.5490    -1.2720    -0.3860 C.3   1 <1>   1.0200 
  3 F        2.5310    -1.4770    -1.2540 F     1 <1>  -0.3400 
  4 F        0.9820    -2.4580    -0.1910 F     1 <1>  -0.3400 
  5 C        1.9970    -0.6180     0.9690 C.3   1 <1>   0.2200 
  6 N        2.3230     0.8500     0.9190 N.am  1 <1>  -0.7300 
  7 C        3.1380    -1.3590     1.6880 C.3   1 <1>  -0.2400 
  8 C        3.2920     1.4590     0.1810 C.2   1 <1>   0.7160 
  9 O        4.1480     0.7740    -0.3370 O.2   1 <1>  -0.5700 
 10 C        3.2710     2.8810     0.0240 C.2   1 <1>  -0.0860 
 11 C        2.1370     3.6940     0.1410 C.2   1 <1>   0.3720 
 12 C        4.2610     3.7680    -0.2710 C.2   1 <1>   0.0870 
 13 N        2.4280     4.9310    -0.0570 N.2   1 <1>  -0.4100 
 14 N        0.8350     3.2370     0.4090 N.pl3 1 <1>  -0.8210 
 15 O        3.7080     4.9540    -0.3080 O.3   1 <1>  -0.0190 
 16 C        5.6770     3.6380    -0.5120 C.ar  1 <1>   0.0530 
 17 C       -0.0300     4.1680     1.2130 C.3   1 <1>   0.2090 
 18 C        0.1130     2.7320    -0.8070 C.3   1 <1>   0.2090 
 19 C        6.3170     4.4610    -1.4390 C.ar  1 <1>  -0.1500 
 20 C        6.4630     2.7080     0.1690 C.ar  1 <1>  -0.1500 
 21 C       -0.7780     5.1950     0.3390 C.3   1 <1>   0.1200 
 22 C       -0.6110     3.8590    -1.5650 C.3   1 <1>   0.1200 
 23 C        7.6740     4.3580    -1.6820 C.ar  1 <1>  -0.1500 
 24 C        7.8200     2.5980    -0.0700 C.ar  1 <1>  -0.1500 
 25 O       -1.4600     4.5610    -0.7050 O.3   1 <1>  -0.5600 
 26 C        8.4300     3.4230    -0.9980 C.ar  1 <1>  -0.1500 
 27 H        1.1360    -0.7030     1.6080 H     1 <1>   0.0800 
 28 H        1.5430     1.4850     1.1500 H     1 <1>   0.3700 
 29 H        4.0280    -1.3690     1.0840 H     1 <1>   0.0800 
 30 H        2.8530    -2.3790     1.8780 H     1 <1>   0.0800 
 31 H        3.3560    -0.8860     2.6280 H     1 <1>   0.0800 
 32 H        0.5750     4.6930     1.9330 H     1 <1>   0.0800 
 33 H       -0.7540     3.5890     1.7590 H     1 <1>   0.0800 
 34 H       -0.6110     1.9940    -0.5090 H     1 <1>   0.0800 
 35 H        0.8100     2.2530    -1.4740 H     1 <1>   0.0800 
 36 H        5.7400     5.1920    -1.9790 H     1 <1>   0.1500 
 37 H        6.0090     2.0600     0.8960 H     1 <1>   0.1500 
 38 H       -0.0900     5.9080    -0.0820 H     1 <1>   0.0800 
 39 H       -1.5010     5.7260     0.9300 H     1 <1>   0.0800 
 40 H       -1.2110     3.4480    -2.3570 H     1 <1>   0.0800 
 41 H        0.1000     4.5470    -1.9900 H     1 <1>   0.0800 
 42 H        8.1440     5.0020    -2.4040 H     1 <1>   0.1500 
 43 H        8.4020     1.8680     0.4650 H     1 <1>   0.1500 
 44 H        9.4860     3.3370    -1.1860 H     1 <1>   0.1500 
@<TRIPOS>BOND
  1   1   2  1   
  2   2   3  1   
  3   2   4  1   
  4   2   5  1   
  5   5   6  1   
  6   5   7  1   
  7   5  27  1   
  8   6   8  am  
  9   6  28  1   
 10   7  29  1   
 11   7  30  1   
 12   7  31  1   
 13   8   9  2   
 14   8  10  1   
 15  10  11  1   
 16  10  12  2   
 17  11  13  2   
 18  11  14  1   
 19  12  15  1   
 20  12  16  1   
 21  13  15  1   
 22  14  17  1   
 23  14  18  1   
 24  16  19  ar  
 25  16  20  ar  
 26  17  21  1   
 27  17  32  1   
 28  17  33  1   
 29  18  22  1   
 30  18  34  1   
 31  18  35  1   
 32  19  23  ar  
 33  19  36  1   
 34  20  24  ar  
 35  20  37  1   
 36  21  25  1   
 37  21  38  1   
 38  21  39  1   
 39  22  25  1   
 40  22  40  1   
 41  22  41  1   
 42  23  26  ar  
 43  23  42  1   
 44  24  26  ar  
 45  24  43  1   
 46  26  44  1   
@<TRIPOS>SUBSTRUCTURE
  1 ****  10 GROUP 4 **** **** 0

# MOE 2024.06 (io_trps.svl 2023.06)
