@<TRIPOS>MOLECULE
NONAME
51 53 1 0 0 
SMALL
USER_CHARGES


@<TRIPOS>ATOM
  1 O        0.4500    -4.3290     1.5660 O.2   1 <1>  -0.5700 
  2 C        1.3020    -3.5080     1.2870 C.2   1 <1>   0.6900 
  3 N        2.1170    -3.6870     0.1930 N.am  1 <1>  -0.4200 
  4 N        1.3970    -2.3500     2.0060 N.am  1 <1>  -0.5390 
  5 C        2.8470    -2.6200    -0.2980 C.2   1 <1>   0.6160 
  6 C        2.2560    -5.0280    -0.4500 C.3   1 <1>   0.1400 
  7 C        2.2030    -1.2990     1.6170 C.2   1 <1>  -0.0290 
  8 O        3.3750    -2.7170    -1.3890 O.2   1 <1>  -0.5700 
  9 C        2.9150    -1.4250     0.4750 C.2   1 <1>  -0.1360 
 10 C        1.2450    -5.1970    -1.5950 C.3   1 <1>   0.3430 
 11 C        2.2170    -0.0720     2.5070 C.3   1 <1>  -0.1020 
 12 N       -0.1740    -5.0480    -1.1130 N.4   1 <1>  -0.9590 
 13 C       -0.9460    -6.3330    -1.0200 C.3   1 <1>   0.5660 
 14 C       -0.8580    -3.9500    -1.8670 C.3   1 <1>   0.3430 
 15 C       -0.0470    -7.4760    -0.5530 C.ar  1 <1>  -0.1440 
 16 C       -1.7080    -6.5850    -2.3260 C.3   1 <1>  -0.1600 
 17 C       -2.3740    -4.1540    -1.9010 C.3   1 <1>  -0.1600 
 18 C        0.2250    -7.5720     0.8050 C.ar  1 <1>  -0.1500 
 19 C        0.5210    -8.4030    -1.4220 C.ar  1 <1>  -0.1500 
 20 C       -2.7530    -5.4820    -2.5820 C.3   1 <1>  -0.1600 
 21 C        1.0750    -8.5590     1.2920 C.ar  1 <1>   0.0820 
 22 C        1.3580    -9.3940    -0.9400 C.ar  1 <1>  -0.1500 
 23 O        1.4070    -8.6900     2.5990 O.3   1 <1>  -0.3620 
 24 C        1.6360    -9.4680     0.4120 C.ar  1 <1>  -0.1500 
 25 C        0.8830    -7.8310     3.5890 C.3   1 <1>   0.0400 
 26 H        0.8150    -2.2950     2.8450 H     1 <1>   0.3700 
 27 H        2.1270    -5.8030     0.2850 H     1 <1>   0.0800 
 28 H        3.2520    -5.1340    -0.8440 H     1 <1>   0.0800 
 29 H        3.5540    -0.6500     0.0960 H     1 <1>   0.1500 
 30 H        1.3860    -6.1600    -2.0550 H     1 <1>   0.0800 
 31 H        1.4630    -4.4510    -2.3410 H     1 <1>   0.0800 
 32 H        2.5590    -0.3340     3.4930 H     1 <1>   0.0800 
 33 H        1.2290     0.3460     2.5810 H     1 <1>   0.0800 
 34 H        2.8760     0.6790     2.1080 H     1 <1>   0.0800 
 35 H       -0.1010    -4.7460    -0.1240 H     1 <1>   0.4500 
 36 H       -1.6970    -6.2060    -0.2570 H     1 <1>   0.0800 
 37 H       -0.5000    -3.9370    -2.8850 H     1 <1>   0.0800 
 38 H       -0.6230    -2.9980    -1.4200 H     1 <1>   0.0800 
 39 H       -2.2060    -7.5390    -2.2740 H     1 <1>   0.0800 
 40 H       -1.0130    -6.6230    -3.1450 H     1 <1>   0.0800 
 41 H       -2.8330    -3.3380    -2.4340 H     1 <1>   0.0800 
 42 H       -2.7550    -4.1280    -0.8940 H     1 <1>   0.0800 
 43 H       -0.2210    -6.8690     1.4840 H     1 <1>   0.1500 
 44 H        0.3280    -8.3780    -2.4810 H     1 <1>   0.1500 
 45 H       -3.7170    -5.7970    -2.2150 H     1 <1>   0.0800 
 46 H       -2.8500    -5.3350    -3.6460 H     1 <1>   0.0800 
 47 H        1.7940   -10.1120    -1.6140 H     1 <1>   0.1500 
 48 H        2.2880   -10.2340     0.7950 H     1 <1>   0.1500 
 49 H        1.2930    -8.1280     4.5380 H     1 <1>   0.0800 
 50 H       -0.1880    -7.9320     3.6080 H     1 <1>   0.0800 
 51 H        1.1730    -6.8190     3.3670 H     1 <1>   0.0800 
@<TRIPOS>BOND
  1   1   2  2   
  2   2   3  am  
  3   2   4  am  
  4   3   5  am  
  5   3   6  1   
  6   4   7  1   
  7   4  26  1   
  8   5   8  2   
  9   5   9  1   
 10   6  10  1   
 11   6  27  1   
 12   6  28  1   
 13   7   9  2   
 14   7  11  1   
 15   9  29  1   
 16  10  12  1   
 17  10  30  1   
 18  10  31  1   
 19  11  32  1   
 20  11  33  1   
 21  11  34  1   
 22  12  13  1   
 23  12  14  1   
 24  12  35  1   
 25  13  15  1   
 26  13  16  1   
 27  13  36  1   
 28  14  17  1   
 29  14  37  1   
 30  14  38  1   
 31  15  18  ar  
 32  15  19  ar  
 33  16  20  1   
 34  16  39  1   
 35  16  40  1   
 36  17  20  1   
 37  17  41  1   
 38  17  42  1   
 39  18  21  ar  
 40  18  43  1   
 41  19  22  ar  
 42  19  44  1   
 43  20  45  1   
 44  20  46  1   
 45  21  23  1   
 46  21  24  ar  
 47  22  24  ar  
 48  22  47  1   
 49  23  25  1   
 50  24  48  1   
 51  25  49  1   
 52  25  50  1   
 53  25  51  1   
@<TRIPOS>SUBSTRUCTURE
  1 ****   6 GROUP 4 **** **** 0

# MOE 2024.06 (io_trps.svl 2023.06)
