@<TRIPOS>MOLECULE
NONAME
48 50 1 0 0 
SMALL
USER_CHARGES


@<TRIPOS>ATOM
  1 S        0.3360     0.1890     0.8510 S.o2  1 <1>   1.3330 
  2 O        1.7040     0.2770     1.3090 O.2   1 <1>  -0.6500 
  3 O       -0.7450     0.2750     1.8060 O.2   1 <1>  -0.6500 
  4 N        0.1700    -1.2590    -0.0200 N.am  1 <1>  -0.8490 
  5 C        0.0530     1.4400    -0.4000 C.3   1 <1>  -0.0550 
  6 C        1.3970    -1.6650    -0.7150 C.3   1 <1>   0.1160 
  7 C       -0.3140    -2.3590     0.8190 C.3   1 <1>   0.1160 
  8 C        0.0600     2.8700     0.1660 C.3   1 <1>  -0.0800 
  9 C       -0.3210     3.9110    -0.8810 C.3   1 <1>   0.2000 
 10 C        1.4260     3.3400     0.6730 C.3   1 <1>   0.1400 
 11 O       -1.6980     3.9790    -1.0060 O.3   1 <1>  -0.6800 
 12 C        0.2740     5.2220    -0.3750 C.3   1 <1>   0.1400 
 13 N        1.4410     4.8070     0.4440 N.am  1 <1>  -0.6600 
 14 C        2.5850     5.5600     0.5970 C.2   1 <1>   0.5440 
 15 O        3.6220     4.9870     0.8740 O.2   1 <1>  -0.5700 
 16 C        2.5800     6.9980     0.4130 C.ar  1 <1>   0.0860 
 17 C        1.5970     7.8130     0.9740 C.ar  1 <1>  -0.1500 
 18 C        3.5700     7.6300    -0.3380 C.ar  1 <1>  -0.1500 
 19 C        1.5930     9.1800     0.7730 C.ar  1 <1>  -0.1500 
 20 C        3.5660     8.9980    -0.5380 C.ar  1 <1>  -0.1500 
 21 C        2.5750     9.8120     0.0110 C.ar  1 <1>   0.0540 
 22 C        2.5530    11.2470    -0.1890 C.2   1 <1>   0.2350 
 23 N        1.4770    11.9890    -0.0620 N.2   1 <1>  -0.7070 
 24 C        3.6520    12.0420    -0.5380 C.2   1 <1>  -0.1500 
 25 N        1.8730    13.2430    -0.3300 N.pl3 1 <1>   0.3000 
 26 C        3.1850    13.3020    -0.6200 C.2   1 <1>  -0.3020 
 27 H        0.7960     1.3560    -1.1680 H     1 <1>   0.0800 
 28 H       -0.9040     1.2580    -0.8490 H     1 <1>   0.0800 
 29 H        1.2080    -2.5350    -1.3200 H     1 <1>   0.0800 
 30 H        2.1740    -1.8940    -0.0040 H     1 <1>   0.0800 
 31 H        1.7400    -0.8720    -1.3570 H     1 <1>   0.0800 
 32 H       -0.4230    -3.2550     0.2340 H     1 <1>   0.0800 
 33 H       -1.2770    -2.1100     1.2340 H     1 <1>   0.0800 
 34 H        0.3730    -2.5430     1.6290 H     1 <1>   0.0800 
 35 H       -0.6270     2.9310     0.9940 H     1 <1>   0.0800 
 36 H        0.0970     3.6720    -1.8450 H     1 <1>   0.0800 
 37 H        2.2280     2.8880     0.1120 H     1 <1>   0.0800 
 38 H        1.5620     3.1190     1.7190 H     1 <1>   0.0800 
 39 H       -2.1170     4.1390    -0.1380 H     1 <1>   0.4000 
 40 H       -0.4290     5.7440     0.2500 H     1 <1>   0.0800 
 41 H        0.5820     5.8470    -1.1960 H     1 <1>   0.0800 
 42 H        0.8300     7.3640     1.5800 H     1 <1>   0.1500 
 43 H        4.3510     7.0270    -0.7680 H     1 <1>   0.1500 
 44 H        0.8170     9.7820     1.2140 H     1 <1>   0.1500 
 45 H        4.3430     9.4380    -1.1350 H     1 <1>   0.1500 
 46 H        4.6570    11.6940    -0.6960 H     1 <1>   0.1500 
 47 H        1.2240    14.0400    -0.3060 H     1 <1>   0.2700 
 48 H        3.6960    14.2170    -0.8610 H     1 <1>   0.1500 
@<TRIPOS>BOND
  1   1   2  2   
  2   1   3  2   
  3   1   4  am  
  4   1   5  1   
  5   4   6  1   
  6   4   7  1   
  7   5   8  1   
  8   5  27  1   
  9   5  28  1   
 10   6  29  1   
 11   6  30  1   
 12   6  31  1   
 13   7  32  1   
 14   7  33  1   
 15   7  34  1   
 16   8   9  1   
 17   8  10  1   
 18   8  35  1   
 19   9  11  1   
 20   9  12  1   
 21   9  36  1   
 22  10  13  1   
 23  10  37  1   
 24  10  38  1   
 25  11  39  1   
 26  12  13  1   
 27  12  40  1   
 28  12  41  1   
 29  13  14  am  
 30  14  15  2   
 31  14  16  1   
 32  16  17  ar  
 33  16  18  ar  
 34  17  19  ar  
 35  17  42  1   
 36  18  20  ar  
 37  18  43  1   
 38  19  21  ar  
 39  19  44  1   
 40  20  21  ar  
 41  20  45  1   
 42  21  22  1   
 43  22  23  2   
 44  22  24  1   
 45  23  25  1   
 46  24  26  2   
 47  24  46  1   
 48  25  26  1   
 49  25  47  1   
 50  26  48  1   
@<TRIPOS>SUBSTRUCTURE
  1 ****  13 GROUP 4 **** **** 0

# MOE 2024.06 (io_trps.svl 2023.06)
