@<TRIPOS>MOLECULE
NONAME
52 55 1 0 0 
SMALL
USER_CHARGES


@<TRIPOS>ATOM
  1 O       -1.4800     1.3730    -2.0340 O.2   1 <1>  -0.5700 
  2 C       -2.0230     1.1880    -0.9600 C.2   1 <1>   0.7160 
  3 N       -2.7030     0.0030    -0.7500 N.am  1 <1>  -0.6600 
  4 C       -1.9120     2.1910     0.0490 C.2   1 <1>  -0.0860 
  5 C       -2.8350    -1.0330    -1.8150 C.3   1 <1>   0.1400 
  6 C       -3.4440    -0.3010     0.5090 C.3   1 <1>   0.1400 
  7 C       -2.9620     2.9840     0.5250 C.2   1 <1>   0.3720 
  8 C       -0.8350     2.6070     0.7700 C.2   1 <1>   0.0870 
  9 C       -2.3670    -2.3860    -1.2770 C.3   1 <1>  -0.1600 
 10 C       -2.9860    -1.6510     1.0630 C.3   1 <1>  -0.1600 
 11 N       -2.5520     3.7730     1.4560 N.2   1 <1>  -0.4100 
 12 N       -4.2910     2.9180     0.0760 N.pl3 1 <1>  -0.8210 
 13 O       -1.2730     3.5380     1.5810 O.3   1 <1>  -0.0190 
 14 C        0.5580     2.2230     0.7950 C.ar  1 <1>   0.0530 
 15 C       -3.1250    -2.7420     0.0020 C.3   1 <1>   0.2000 
 16 C       -4.4970     3.0640    -1.3920 C.3   1 <1>   0.2090 
 17 C       -5.3040     3.7410     0.7890 C.3   1 <1>   0.2090 
 18 C        1.0270     1.0500     0.1970 C.ar  1 <1>  -0.1500 
 19 C        1.5060     3.0250     1.4360 C.ar  1 <1>  -0.1500 
 20 O       -2.6050    -3.9120     0.5060 O.3   1 <1>  -0.6800 
 21 C       -5.6450     4.0520    -1.5610 C.3   1 <1>  -0.1600 
 22 C       -6.3960     3.9980    -0.2380 C.3   1 <1>  -0.1600 
 23 C        2.3630     0.6970     0.2310 C.ar  1 <1>  -0.1500 
 24 C        2.8420     2.6780     1.4770 C.ar  1 <1>  -0.1500 
 25 C        3.2860     1.5130     0.8760 C.ar  1 <1>   0.0830 
 26 O        4.6100     1.2440     0.9570 O.3   1 <1>  -0.3620 
 27 C        5.1710     0.1080     0.3380 C.3   1 <1>   0.0400 
 28 H       -2.2520    -0.7730    -2.6820 H     1 <1>   0.0800 
 29 H       -3.8670    -1.0940    -2.1160 H     1 <1>   0.0800 
 30 H       -4.4990    -0.3280     0.2940 H     1 <1>   0.0800 
 31 H       -3.2830     0.4560     1.2550 H     1 <1>   0.0800 
 32 H       -1.3110    -2.3320    -1.0850 H     1 <1>   0.0800 
 33 H       -2.5440    -3.1410    -2.0220 H     1 <1>   0.0800 
 34 H       -3.5880    -1.9030     1.9180 H     1 <1>   0.0800 
 35 H       -1.9610    -1.5620     1.3780 H     1 <1>   0.0800 
 36 H       -4.1650    -2.9150    -0.2190 H     1 <1>   0.0800 
 37 H       -4.7680     2.1050    -1.8010 H     1 <1>   0.0800 
 38 H       -3.6080     3.4220    -1.8840 H     1 <1>   0.0800 
 39 H       -4.8740     4.6790     1.0990 H     1 <1>   0.0800 
 40 H       -5.6830     3.2170     1.6490 H     1 <1>   0.0800 
 41 H        0.3430     0.3940    -0.3070 H     1 <1>   0.1500 
 42 H        1.1940     3.9390     1.9100 H     1 <1>   0.1500 
 43 H       -1.6620    -3.7920     0.7240 H     1 <1>   0.4000 
 44 H       -6.2690     3.8000    -2.4000 H     1 <1>   0.0800 
 45 H       -5.2360     5.0360    -1.7100 H     1 <1>   0.0800 
 46 H       -6.9340     4.9060    -0.0310 H     1 <1>   0.0800 
 47 H       -7.0810     3.1690    -0.2350 H     1 <1>   0.0800 
 48 H        2.6680    -0.2140    -0.2470 H     1 <1>   0.1500 
 49 H        3.5550     3.3110     1.9760 H     1 <1>   0.1500 
 50 H        6.2310     0.1180     0.5200 H     1 <1>   0.0800 
 51 H        4.9820     0.1570    -0.7190 H     1 <1>   0.0800 
 52 H        4.7350    -0.7760     0.7690 H     1 <1>   0.0800 
@<TRIPOS>BOND
  1   1   2  2   
  2   2   3  am  
  3   2   4  1   
  4   3   5  1   
  5   3   6  1   
  6   4   7  1   
  7   4   8  2   
  8   5   9  1   
  9   5  28  1   
 10   5  29  1   
 11   6  10  1   
 12   6  30  1   
 13   6  31  1   
 14   7  11  2   
 15   7  12  1   
 16   8  13  1   
 17   8  14  1   
 18   9  15  1   
 19   9  32  1   
 20   9  33  1   
 21  10  15  1   
 22  10  34  1   
 23  10  35  1   
 24  11  13  1   
 25  12  16  1   
 26  12  17  1   
 27  14  18  ar  
 28  14  19  ar  
 29  15  20  1   
 30  15  36  1   
 31  16  21  1   
 32  16  37  1   
 33  16  38  1   
 34  17  22  1   
 35  17  39  1   
 36  17  40  1   
 37  18  23  ar  
 38  18  41  1   
 39  19  24  ar  
 40  19  42  1   
 41  20  43  1   
 42  21  22  1   
 43  21  44  1   
 44  21  45  1   
 45  22  46  1   
 46  22  47  1   
 47  23  25  ar  
 48  23  48  1   
 49  24  25  ar  
 50  24  49  1   
 51  25  26  1   
 52  26  27  1   
 53  27  50  1   
 54  27  51  1   
 55  27  52  1   
@<TRIPOS>SUBSTRUCTURE
  1 ****   4 GROUP 4 **** **** 0

# MOE 2024.06 (io_trps.svl 2023.06)
