@<TRIPOS>MOLECULE
NONAME
48 51 1 0 0 
SMALL
USER_CHARGES


@<TRIPOS>ATOM
  1 O       -1.5960     0.6090     2.3630 O.2   1 <1>  -0.5700 
  2 C       -2.2180     1.3300     1.6030 C.2   1 <1>   0.5440 
  3 N       -3.4840     0.9430     1.2160 N.am  1 <1>  -0.6600 
  4 C       -1.6310     2.5780     1.1800 C.ar  1 <1>   0.0860 
  5 C       -4.0930    -0.3280     1.7050 C.3   1 <1>   0.1400 
  6 C       -4.2230     1.5400     0.0660 C.3   1 <1>   0.1400 
  7 C       -0.9480     2.6720    -0.0570 C.ar  1 <1>   0.3100 
  8 C       -1.7310     3.6900     1.9930 C.ar  1 <1>  -0.1500 
  9 C       -4.0400    -1.3570     0.5550 C.3   1 <1>   0.4230 
 10 C       -4.2750     0.5200    -1.0860 C.3   1 <1>  -0.1600 
 11 N       -0.8480     1.5840    -0.8770 N.ar  1 <1>  -0.6200 
 12 C       -0.3800     3.9210    -0.4270 C.ar  1 <1>   0.3100 
 13 C       -1.1750     4.9130     1.6250 C.ar  1 <1>  -0.1500 
 14 N       -4.4770    -2.7470     0.9250 N.4   1 <1>  -0.9590 
 15 C       -4.8680    -0.8530    -0.6510 C.3   1 <1>  -0.1060 
 16 C       -0.1950     1.7970    -1.9770 C.ar  1 <1>   0.1600 
 17 N        0.2910     4.1000    -1.5950 N.ar  1 <1>  -0.6200 
 18 C       -0.5110     5.0190     0.4330 C.ar  1 <1>  -0.1500 
 19 C       -4.3390    -3.7420    -0.1800 C.3   1 <1>   0.3430 
 20 C       -3.9690    -3.2560     2.2260 C.3   1 <1>   0.2630 
 21 C       -6.3310    -0.7060    -0.1920 C.2   1 <1>   0.9060 
 22 C       -4.7950    -1.8560    -1.8400 C.3   1 <1>  -0.1600 
 23 C        0.3670     3.0380    -2.3310 C.ar  1 <1>   0.1600 
 24 C       -3.9480    -3.0990    -1.5180 C.3   1 <1>  -0.1600 
 25 O       -6.8060    -1.5860     0.5430 O.co2 1 <1>  -0.9000 
 26 O       -6.9950     0.2680    -0.5420 O.co2 1 <1>  -0.9000 
 27 H       -3.5460    -0.6870     2.5560 H     1 <1>   0.0800 
 28 H       -5.1070    -0.1410     2.0120 H     1 <1>   0.0800 
 29 H       -5.2220     1.7960     0.3800 H     1 <1>   0.0800 
 30 H       -3.7490     2.4430    -0.2750 H     1 <1>   0.0800 
 31 H       -2.2480     3.6130     2.9350 H     1 <1>   0.1500 
 32 H       -3.0080    -1.4090     0.2520 H     1 <1>   0.0800 
 33 H       -4.8740     0.9350    -1.8790 H     1 <1>   0.0800 
 34 H       -3.2790     0.3880    -1.4700 H     1 <1>   0.0800 
 35 H       -1.2700     5.7620     2.2830 H     1 <1>   0.1500 
 36 H       -5.5180    -2.5890     1.0080 H     1 <1>   0.4500 
 37 H       -0.0710     0.9800    -2.6660 H     1 <1>   0.1500 
 38 H       -0.0700     5.9510     0.1260 H     1 <1>   0.1500 
 39 H       -3.5990    -4.4800     0.0810 H     1 <1>   0.0800 
 40 H       -5.2840    -4.2470    -0.3020 H     1 <1>   0.0800 
 41 H       -2.8930    -3.3110     2.2100 H     1 <1>   0.0800 
 42 H       -4.3700    -4.2360     2.4220 H     1 <1>   0.0800 
 43 H       -4.2730    -2.6000     3.0260 H     1 <1>   0.0800 
 44 H       -5.7940    -2.1780    -2.0890 H     1 <1>   0.0800 
 45 H       -4.4010    -1.3790    -2.7210 H     1 <1>   0.0800 
 46 H        0.8880     3.1010    -3.2700 H     1 <1>   0.1500 
 47 H       -2.9060    -2.8300    -1.4890 H     1 <1>   0.0800 
 48 H       -4.0660    -3.8250    -2.3030 H     1 <1>   0.0800 
@<TRIPOS>BOND
  1   1   2  2   
  2   2   3  am  
  3   2   4  1   
  4   3   5  1   
  5   3   6  1   
  6   4   7  ar  
  7   4   8  ar  
  8   5   9  1   
  9   5  27  1   
 10   5  28  1   
 11   6  10  1   
 12   6  29  1   
 13   6  30  1   
 14   7  11  ar  
 15   7  12  ar  
 16   8  13  ar  
 17   8  31  1   
 18   9  14  1   
 19   9  15  1   
 20   9  32  1   
 21  10  15  1   
 22  10  33  1   
 23  10  34  1   
 24  11  16  ar  
 25  12  17  ar  
 26  12  18  ar  
 27  13  18  ar  
 28  13  35  1   
 29  14  19  1   
 30  14  20  1   
 31  14  36  1   
 32  15  21  1   
 33  15  22  1   
 34  16  23  ar  
 35  16  37  1   
 36  17  23  ar  
 37  18  38  1   
 38  19  24  1   
 39  19  39  1   
 40  19  40  1   
 41  20  41  1   
 42  20  42  1   
 43  20  43  1   
 44  21  25  ar  
 45  21  26  ar  
 46  22  24  1   
 47  22  44  1   
 48  22  45  1   
 49  23  46  1   
 50  24  47  1   
 51  24  48  1   
@<TRIPOS>SUBSTRUCTURE
  1 ****   3 GROUP 4 **** **** 0

# MOE 2024.06 (io_trps.svl 2023.06)
