@<TRIPOS>MOLECULE
NONAME
38 40 1 0 0 
SMALL
USER_CHARGES


@<TRIPOS>ATOM
  1 O       -0.1970    -0.5250     0.8020 O.3   1 <1>  -0.5600 
  2 C       -0.3810    -1.7630     0.1800 C.3   1 <1>   0.2000 
  3 C       -0.4210     0.5810    -0.0160 C.3   1 <1>   0.0400 
  4 C       -0.8400    -2.7750     1.2450 C.3   1 <1>   0.2090 
  5 C        0.9460    -2.1910    -0.4650 C.3   1 <1>  -0.1600 
  6 N       -0.8630    -4.1710     0.7000 N.pl3 1 <1>  -0.8380 
  7 C        0.8560    -3.6340    -0.9890 C.3   1 <1>  -0.1600 
  8 C       -2.0460    -4.6950     0.1990 C.ar  1 <1>   0.4100 
  9 C        0.4210    -4.6170     0.1040 C.3   1 <1>   0.2090 
 10 N       -2.7940    -3.8970    -0.5390 N.ar  1 <1>  -0.3100 
 11 C       -2.3970    -6.0440     0.4610 C.ar  1 <1>   0.0000 
 12 N       -3.9010    -4.3530    -1.1110 N.ar  1 <1>  -0.3100 
 13 C       -3.5550    -6.5260    -0.1640 C.ar  1 <1>   0.0000 
 14 C       -1.6740    -6.9130     1.3080 C.ar  1 <1>  -0.1500 
 15 C       -4.2650    -5.5940    -0.9470 C.ar  1 <1>   0.1670 
 16 C       -3.9230    -7.8770     0.0400 C.ar  1 <1>  -0.1500 
 17 C       -2.0550    -8.2130     1.4960 C.ar  1 <1>  -0.1500 
 18 C       -5.5410    -6.0150    -1.6550 C.3   1 <1>  -0.0970 
 19 C       -3.1920    -8.7020     0.8480 C.ar  1 <1>  -0.1500 
 20 H       -1.1570    -1.6780    -0.5620 H     1 <1>   0.0800 
 21 H       -0.2490     1.4680     0.5680 H     1 <1>   0.0800 
 22 H       -1.4400     0.5660    -0.3610 H     1 <1>   0.0800 
 23 H        0.2610     0.5570    -0.8470 H     1 <1>   0.0800 
 24 H       -1.8240    -2.5050     1.5880 H     1 <1>   0.0800 
 25 H       -0.1650    -2.7410     2.0810 H     1 <1>   0.0800 
 26 H        1.7280    -2.1310     0.2710 H     1 <1>   0.0800 
 27 H        1.1860    -1.5340    -1.2800 H     1 <1>   0.0800 
 28 H        1.8120    -3.9370    -1.3770 H     1 <1>   0.0800 
 29 H        0.1450    -3.6820    -1.7950 H     1 <1>   0.0800 
 30 H        0.3080    -5.6000    -0.3210 H     1 <1>   0.0800 
 31 H        1.1700    -4.6670     0.8760 H     1 <1>   0.0800 
 32 H       -0.8070    -6.5290     1.8150 H     1 <1>   0.1500 
 33 H       -4.7980    -8.2650    -0.4480 H     1 <1>   0.1500 
 34 H       -1.4930    -8.8660     2.1410 H     1 <1>   0.1500 
 35 H       -5.9610    -5.1870    -2.2000 H     1 <1>   0.0800 
 36 H       -6.2660    -6.3490    -0.9370 H     1 <1>   0.0800 
 37 H       -5.3310    -6.8060    -2.3510 H     1 <1>   0.0800 
 38 H       -3.4790    -9.7290     1.0000 H     1 <1>   0.1500 
@<TRIPOS>BOND
  1   1   2  1   
  2   1   3  1   
  3   2   4  1   
  4   2   5  1   
  5   2  20  1   
  6   3  21  1   
  7   3  22  1   
  8   3  23  1   
  9   4   6  1   
 10   4  24  1   
 11   4  25  1   
 12   5   7  1   
 13   5  26  1   
 14   5  27  1   
 15   6   8  1   
 16   6   9  1   
 17   7   9  1   
 18   7  28  1   
 19   7  29  1   
 20   8  10  ar  
 21   8  11  ar  
 22   9  30  1   
 23   9  31  1   
 24  10  12  ar  
 25  11  13  ar  
 26  11  14  ar  
 27  12  15  ar  
 28  13  15  ar  
 29  13  16  ar  
 30  14  17  ar  
 31  14  32  1   
 32  15  18  1   
 33  16  19  ar  
 34  16  33  1   
 35  17  19  ar  
 36  17  34  1   
 37  18  35  1   
 38  18  36  1   
 39  18  37  1   
 40  19  38  1   
@<TRIPOS>SUBSTRUCTURE
  1 ****   8 GROUP 4 **** **** 0

# MOE 2024.06 (io_trps.svl 2023.06)
