@<TRIPOS>MOLECULE
NONAME
48 51 1 0 0 
SMALL
USER_CHARGES


@<TRIPOS>ATOM
  1 CL      -2.7820     1.8850     1.9000 Cl    1 <1>  -0.1770 
  2 C       -1.7770     3.0870     1.1270 C.ar  1 <1>   0.1770 
  3 C       -1.9080     3.3420    -0.2340 C.ar  1 <1>   0.0860 
  4 C       -0.8660     3.7700     1.9110 C.ar  1 <1>  -0.1500 
  5 C       -2.8650     2.6290    -1.0460 C.2   1 <1>   0.5440 
  6 C       -1.0830     4.3180    -0.7870 C.ar  1 <1>  -0.1500 
  7 C       -0.0590     4.7370     1.3380 C.ar  1 <1>  -0.1500 
  8 O       -2.4850     1.6720    -1.6930 O.2   1 <1>  -0.5700 
  9 N       -4.1860     3.0190    -1.1130 N.am  1 <1>  -0.6600 
 10 C       -0.1580     5.0220    -0.0220 C.ar  1 <1>  -0.0230 
 11 C       -4.7340     4.2400    -0.4610 C.3   1 <1>   0.1400 
 12 C       -5.2140     2.2160    -1.8310 C.3   1 <1>   0.1400 
 13 N        0.6650     6.0170    -0.6240 N.pl3 1 <1>   0.5930 
 14 C       -5.8040     3.8280     0.5510 C.3   1 <1>  -0.1600 
 15 C       -6.2970     1.7890    -0.8380 C.3   1 <1>  -0.1600 
 16 N        0.2150     6.8780    -1.5710 N.2   1 <1>  -0.7070 
 17 C        1.9710     6.2690    -0.3610 C.2   1 <1>  -0.3020 
 18 C       -6.9080     2.9890    -0.1080 C.3   1 <1>   0.4180 
 19 C        1.2260     7.6310    -1.8690 C.2   1 <1>   0.1390 
 20 C        2.3610     7.2980    -1.1410 C.2   1 <1>  -0.1500 
 21 O       -7.5550     3.7600    -1.0930 O.3   1 <1>  -0.5600 
 22 C       -7.9150     2.5000     0.9300 C.2   1 <1>  -0.2880 
 23 C       -8.5400     4.6590    -0.6670 C.3   1 <1>   0.1200 
 24 C       -9.1900     2.8930     0.9820 C.2   1 <1>  -0.2760 
 25 C       -9.7110     3.9100    -0.0160 C.3   1 <1>  -0.0220 
 26 C      -10.2070     2.3820     1.9870 C.3   1 <1>  -0.1020 
 27 H       -0.7940     3.5450     2.9610 H     1 <1>   0.1500 
 28 H       -1.1700     4.5290    -1.8410 H     1 <1>   0.1500 
 29 H        0.6450     5.2720     1.9530 H     1 <1>   0.1500 
 30 H       -5.1710     4.8720    -1.2160 H     1 <1>   0.0800 
 31 H       -3.9610     4.8010     0.0330 H     1 <1>   0.0800 
 32 H       -4.7740     1.3440    -2.2830 H     1 <1>   0.0800 
 33 H       -5.6470     2.8160    -2.6140 H     1 <1>   0.0800 
 34 H       -6.2260     4.6960     1.0190 H     1 <1>   0.0800 
 35 H       -5.3380     3.2470     1.3250 H     1 <1>   0.0800 
 36 H       -5.8570     1.1170    -0.1240 H     1 <1>   0.0800 
 37 H       -7.0740     1.2550    -1.3530 H     1 <1>   0.0800 
 38 H        2.5340     5.7020     0.3550 H     1 <1>   0.1500 
 39 H        1.1830     8.4230    -2.6000 H     1 <1>   0.1500 
 40 H        3.3230     7.7750    -1.2110 H     1 <1>   0.1500 
 41 H       -7.4890     1.7920     1.6180 H     1 <1>   0.1500 
 42 H       -8.8800     5.2060    -1.5280 H     1 <1>   0.0800 
 43 H       -8.1000     5.3490     0.0300 H     1 <1>   0.0800 
 44 H      -10.2910     3.4130    -0.7730 H     1 <1>   0.0800 
 45 H      -10.3430     4.6260     0.4770 H     1 <1>   0.0800 
 46 H      -11.0300     1.9150     1.4740 H     1 <1>   0.0800 
 47 H      -10.5830     3.1940     2.5830 H     1 <1>   0.0800 
 48 H       -9.7580     1.6570     2.6420 H     1 <1>   0.0800 
@<TRIPOS>BOND
  1   1   2  1   
  2   2   3  ar  
  3   2   4  ar  
  4   3   5  1   
  5   3   6  ar  
  6   4   7  ar  
  7   4  27  1   
  8   5   8  2   
  9   5   9  am  
 10   6  10  ar  
 11   6  28  1   
 12   7  10  ar  
 13   7  29  1   
 14   9  11  1   
 15   9  12  1   
 16  10  13  1   
 17  11  14  1   
 18  11  30  1   
 19  11  31  1   
 20  12  15  1   
 21  12  32  1   
 22  12  33  1   
 23  13  16  1   
 24  13  17  1   
 25  14  18  1   
 26  14  34  1   
 27  14  35  1   
 28  15  18  1   
 29  15  36  1   
 30  15  37  1   
 31  16  19  2   
 32  17  20  2   
 33  17  38  1   
 34  18  21  1   
 35  18  22  1   
 36  19  20  1   
 37  19  39  1   
 38  20  40  1   
 39  21  23  1   
 40  22  24  2   
 41  22  41  1   
 42  23  25  1   
 43  23  42  1   
 44  23  43  1   
 45  24  25  1   
 46  24  26  1   
 47  25  44  1   
 48  25  45  1   
 49  26  46  1   
 50  26  47  1   
 51  26  48  1   
@<TRIPOS>SUBSTRUCTURE
  1 ****  11 GROUP 4 **** **** 0

# MOE 2024.06 (io_trps.svl 2023.06)
