@<TRIPOS>MOLECULE
NONAME
51 53 1 0 0 
SMALL
USER_CHARGES


@<TRIPOS>ATOM
  1 O       -0.9160    -0.1440    -1.3860 O.2   1 <1>  -0.5700 
  2 C       -1.3550     0.4560    -0.4240 C.2   1 <1>   0.7150 
  3 N       -1.9150    -0.2600     0.5840 N.am  1 <1>  -0.7300 
  4 C       -1.3230     1.8860    -0.3250 C.2   1 <1>  -0.2370 
  5 C       -2.0310    -1.7340     0.6510 C.3   1 <1>   0.2200 
  6 N       -0.8060     2.7310    -1.2580 N.pl3 1 <1>   0.3140 
  7 C       -1.7830     2.6980     0.6690 C.2   1 <1>  -0.1500 
  8 C       -3.4600    -2.1870     0.3810 C.3   1 <1>  -0.0800 
  9 C       -1.8750    -2.1660     2.1030 C.3   1 <1>   0.1200 
 10 N       -0.9260     4.0170    -0.8980 N.2   1 <1>  -0.7070 
 11 C       -0.1700     2.3900    -2.5420 C.3   1 <1>   0.0160 
 12 C       -1.5140     3.9890     0.2570 C.2   1 <1>   0.1080 
 13 C       -4.1340    -2.0440     1.7510 C.3   1 <1>   0.1200 
 14 C       -4.1940    -1.4640    -0.7650 C.3   1 <1>  -0.0160 
 15 O       -3.1100    -1.8950     2.6920 O.3   1 <1>  -0.5600 
 16 C       -1.8510     5.2470     1.0380 C.3   1 <1>   0.0210 
 17 C       -5.5760    -2.0590    -0.9840 C.ar  1 <1>  -0.1430 
 18 C       -3.1100     5.9530     0.5000 C.3   1 <1>  -0.0800 
 19 C       -6.7180    -1.4660    -0.4840 C.ar  1 <1>  -0.1500 
 20 C       -5.7580    -3.2290    -1.6940 C.ar  1 <1>  -0.1500 
 21 C       -3.3340     7.2800     1.2370 C.3   1 <1>  -0.2400 
 22 C       -4.3620     5.0740     0.6270 C.3   1 <1>  -0.2400 
 23 C       -7.9500    -2.0570    -0.7080 C.ar  1 <1>   0.1600 
 24 C       -7.0360    -3.7370    -1.8610 C.ar  1 <1>   0.1600 
 25 N       -8.1360    -3.1800    -1.3820 N.ar  1 <1>  -0.6200 
 26 H       -2.3050     0.2310     1.3880 H     1 <1>   0.3700 
 27 H       -1.3120    -2.2070     0.0030 H     1 <1>   0.0800 
 28 H       -2.2630     2.4280     1.5910 H     1 <1>   0.1500 
 29 H       -3.4310    -3.2370     0.1480 H     1 <1>   0.0800 
 30 H       -1.0980    -1.6300     2.6190 H     1 <1>   0.0800 
 31 H       -1.6990    -3.2260     2.1710 H     1 <1>   0.0800 
 32 H        0.6850     1.7680    -2.3580 H     1 <1>   0.0800 
 33 H        0.1390     3.2930    -3.0350 H     1 <1>   0.0800 
 34 H       -0.8760     1.8660    -3.1570 H     1 <1>   0.0800 
 35 H       -4.7170    -2.9140     2.0010 H     1 <1>   0.0800 
 36 H       -4.7530    -1.1650     1.8030 H     1 <1>   0.0800 
 37 H       -3.6190    -1.5550    -1.6700 H     1 <1>   0.0800 
 38 H       -4.2900    -0.4140    -0.5490 H     1 <1>   0.0800 
 39 H       -1.9860     4.9970     2.0740 H     1 <1>   0.0800 
 40 H       -1.0100     5.9130     0.9670 H     1 <1>   0.0800 
 41 H       -2.9490     6.1680    -0.5440 H     1 <1>   0.0800 
 42 H       -6.6640    -0.5500     0.0750 H     1 <1>   0.1500 
 43 H       -4.9190    -3.7490    -2.1200 H     1 <1>   0.1500 
 44 H       -3.5000     7.1100     2.2860 H     1 <1>   0.0800 
 45 H       -4.1900     7.7900     0.8320 H     1 <1>   0.0800 
 46 H       -2.4770     7.9200     1.1220 H     1 <1>   0.0800 
 47 H       -4.5360     4.8040     1.6540 H     1 <1>   0.0800 
 48 H       -4.2510     4.1760     0.0460 H     1 <1>   0.0800 
 49 H       -5.2250     5.6010     0.2590 H     1 <1>   0.0800 
 50 H       -8.8300    -1.5810    -0.3110 H     1 <1>   0.1500 
 51 H       -7.1580    -4.6500    -2.4180 H     1 <1>   0.1500 
@<TRIPOS>BOND
  1   1   2  2   
  2   2   3  am  
  3   2   4  1   
  4   3   5  1   
  5   3  26  1   
  6   4   6  1   
  7   4   7  2   
  8   5   8  1   
  9   5   9  1   
 10   5  27  1   
 11   6  10  1   
 12   6  11  1   
 13   7  12  1   
 14   7  28  1   
 15   8  13  1   
 16   8  14  1   
 17   8  29  1   
 18   9  15  1   
 19   9  30  1   
 20   9  31  1   
 21  10  12  2   
 22  11  32  1   
 23  11  33  1   
 24  11  34  1   
 25  12  16  1   
 26  13  15  1   
 27  13  35  1   
 28  13  36  1   
 29  14  17  1   
 30  14  37  1   
 31  14  38  1   
 32  16  18  1   
 33  16  39  1   
 34  16  40  1   
 35  17  19  ar  
 36  17  20  ar  
 37  18  21  1   
 38  18  22  1   
 39  18  41  1   
 40  19  23  ar  
 41  19  42  1   
 42  20  24  ar  
 43  20  43  1   
 44  21  44  1   
 45  21  45  1   
 46  21  46  1   
 47  22  47  1   
 48  22  48  1   
 49  22  49  1   
 50  23  25  ar  
 51  23  50  1   
 52  24  25  ar  
 53  24  51  1   
@<TRIPOS>SUBSTRUCTURE
  1 ****   3 GROUP 4 **** **** 0

# MOE 2024.06 (io_trps.svl 2023.06)
