@<TRIPOS>MOLECULE
NONAME
58 60 1 0 0 
SMALL
USER_CHARGES


@<TRIPOS>ATOM
  1 O       -0.6390     0.7580     1.1430 O.2   1 <1>  -0.5700 
  2 C       -0.8040     1.3430     0.0890 C.2   1 <1>   0.5440 
  3 N       -0.8550     0.6080    -1.0830 N.am  1 <1>  -0.6600 
  4 C       -0.9340     2.7880     0.0960 C.ar  1 <1>   0.0860 
  5 C       -0.9450    -0.8780    -1.0630 C.3   1 <1>   0.0600 
  6 C       -0.6440     1.1990    -2.4330 C.3   1 <1>   0.0600 
  7 C       -0.0030     3.5800     0.7650 C.ar  1 <1>  -0.1500 
  8 C       -1.9890     3.4320    -0.5500 C.ar  1 <1>  -0.1500 
  9 C       -0.0900     4.9650     0.8040 C.ar  1 <1>   0.1000 
 10 C       -2.0910     4.8110    -0.5500 C.ar  1 <1>  -0.1500 
 11 N        0.8460     5.7160     1.5440 N.pl3 1 <1>  -0.8380 
 12 C       -1.1430     5.5740     0.1060 C.ar  1 <1>   0.0830 
 13 C        0.7320     7.2110     1.4470 C.3   1 <1>   0.2890 
 14 C        1.0620     5.2300     2.9420 C.3   1 <1>   0.1290 
 15 O       -1.2610     6.9200     0.0490 O.3   1 <1>  -0.3630 
 16 C       -0.0640     7.6560     0.1990 C.3   1 <1>   0.1200 
 17 C        2.1550     7.7800     1.4230 C.3   1 <1>  -0.0990 
 18 C        2.1560     9.2870     1.3070 C.2   1 <1>   0.5690 
 19 O        1.3950     9.9110     2.0060 O.2   1 <1>  -0.5700 
 20 N        3.0160     9.8600     0.4120 N.am  1 <1>  -0.4940 
 21 C        3.2010    11.2330     0.1050 C.2   1 <1>  -0.0880 
 22 N        4.0660    11.7180    -0.8280 N.pl3 1 <1>   0.3140 
 23 C        2.5940    12.3160     0.6440 C.2   1 <1>  -0.1500 
 24 N        4.0240    13.0670    -0.8940 N.2   1 <1>  -0.7070 
 25 C        4.9620    10.9470    -1.7130 C.3   1 <1>   0.0960 
 26 C        3.1430    13.4110    -0.0110 C.2   1 <1>   0.1080 
 27 C        6.2260    10.4970    -0.9650 C.3   1 <1>  -0.1600 
 28 C        2.7810    14.8540     0.2500 C.3   1 <1>  -0.0590 
 29 C        7.1440     9.6670    -1.8680 C.3   1 <1>  -0.2400 
 30 H       -1.2920    -1.2230    -0.1040 H     1 <1>   0.0800 
 31 H        0.0250    -1.3010    -1.2530 H     1 <1>   0.0800 
 32 H       -1.6360    -1.2130    -1.8160 H     1 <1>   0.0800 
 33 H       -0.2670     2.2040    -2.3590 H     1 <1>   0.0800 
 34 H       -1.5750     1.2100    -2.9730 H     1 <1>   0.0800 
 35 H        0.0730     0.6100    -2.9790 H     1 <1>   0.0800 
 36 H        0.8080     3.0900     1.2700 H     1 <1>   0.1500 
 37 H       -2.7340     2.8400    -1.0530 H     1 <1>   0.1500 
 38 H       -2.9020     5.3020    -1.0570 H     1 <1>   0.1500 
 39 H        0.2140     7.5840     2.3150 H     1 <1>   0.0800 
 40 H        1.8330     4.4790     2.9460 H     1 <1>   0.0800 
 41 H        0.1530     4.7990     3.3270 H     1 <1>   0.0800 
 42 H        1.3610     6.0330     3.5930 H     1 <1>   0.0800 
 43 H        0.5210     7.5020    -0.6890 H     1 <1>   0.0800 
 44 H       -0.3290     8.6960     0.2690 H     1 <1>   0.0800 
 45 H        2.6890     7.3460     0.5990 H     1 <1>   0.0800 
 46 H        2.6610     7.5220     2.3330 H     1 <1>   0.0800 
 47 H        3.6250     9.2110    -0.0840 H     1 <1>   0.3700 
 48 H        1.8470    12.3450     1.4150 H     1 <1>   0.1500 
 49 H        5.2330    11.5760    -2.5420 H     1 <1>   0.0800 
 50 H        4.4220    10.1010    -2.0930 H     1 <1>   0.0800 
 51 H        5.9540     9.9120    -0.1030 H     1 <1>   0.0800 
 52 H        6.7590    11.3700    -0.6250 H     1 <1>   0.0800 
 53 H        2.0230    14.9190     1.0090 H     1 <1>   0.0800 
 54 H        2.4140    15.3000    -0.6550 H     1 <1>   0.0800 
 55 H        3.6540    15.3890     0.5750 H     1 <1>   0.0800 
 56 H        6.6420     8.7810    -2.2140 H     1 <1>   0.0800 
 57 H        8.0240     9.3710    -1.3240 H     1 <1>   0.0800 
 58 H        7.4540    10.2460    -2.7220 H     1 <1>   0.0800 
@<TRIPOS>BOND
  1   1   2  2   
  2   2   3  am  
  3   2   4  1   
  4   3   5  1   
  5   3   6  1   
  6   4   7  ar  
  7   4   8  ar  
  8   5  30  1   
  9   5  31  1   
 10   5  32  1   
 11   6  33  1   
 12   6  34  1   
 13   6  35  1   
 14   7   9  ar  
 15   7  36  1   
 16   8  10  ar  
 17   8  37  1   
 18   9  11  1   
 19   9  12  ar  
 20  10  12  ar  
 21  10  38  1   
 22  11  13  1   
 23  11  14  1   
 24  12  15  1   
 25  13  16  1   
 26  13  17  1   
 27  13  39  1   
 28  14  40  1   
 29  14  41  1   
 30  14  42  1   
 31  15  16  1   
 32  16  43  1   
 33  16  44  1   
 34  17  18  1   
 35  17  45  1   
 36  17  46  1   
 37  18  19  2   
 38  18  20  am  
 39  20  21  1   
 40  20  47  1   
 41  21  22  1   
 42  21  23  2   
 43  22  24  1   
 44  22  25  1   
 45  23  26  1   
 46  23  48  1   
 47  24  26  2   
 48  25  27  1   
 49  25  49  1   
 50  25  50  1   
 51  26  28  1   
 52  27  29  1   
 53  27  51  1   
 54  27  52  1   
 55  28  53  1   
 56  28  54  1   
 57  28  55  1   
 58  29  56  1   
 59  29  57  1   
 60  29  58  1   
@<TRIPOS>SUBSTRUCTURE
  1 ****  13 GROUP 4 **** **** 0

# MOE 2024.06 (io_trps.svl 2023.06)
