@<TRIPOS>MOLECULE
NONAME
50 51 1 0 0 
SMALL
USER_CHARGES


@<TRIPOS>ATOM
  1 CL      -0.4740    -1.6530     1.2580 Cl    1 <1>  -0.1770 
  2 C       -2.1300    -2.1060     0.9460 C.ar  1 <1>   0.1770 
  3 C       -2.6550    -1.9240    -0.3190 C.ar  1 <1>  -0.1500 
  4 C       -2.8900    -2.6420     1.9670 C.ar  1 <1>  -0.1500 
  5 C       -3.9690    -2.2860    -0.5640 C.ar  1 <1>  -0.1500 
  6 C       -4.2040    -3.0020     1.7160 C.ar  1 <1>  -0.1500 
  7 C       -4.7480    -2.8250     0.4510 C.ar  1 <1>  -0.1430 
  8 C       -6.1880    -3.2240     0.1730 C.3   1 <1>  -0.0160 
  9 C       -6.2430    -4.6490    -0.3900 C.3   1 <1>  -0.1600 
 10 C       -7.6850    -5.0970    -0.6760 C.3   1 <1>  -0.0990 
 11 C       -7.7310    -6.4830    -1.2840 C.2   1 <1>   0.5690 
 12 O       -7.9320    -6.6050    -2.4660 O.2   1 <1>  -0.5700 
 13 N       -7.5510    -7.5550    -0.4770 N.am  1 <1>  -0.7300 
 14 C       -7.4520    -8.9590    -0.9410 C.3   1 <1>   0.2200 
 15 C       -8.7420    -9.7170    -0.6680 C.3   1 <1>  -0.0800 
 16 C       -6.4930    -9.7070    -0.0270 C.3   1 <1>   0.1200 
 17 C       -8.5850   -10.1340     0.8000 C.3   1 <1>   0.1200 
 18 C      -10.0340    -8.9390    -0.9990 C.3   1 <1>  -0.0550 
 19 O       -7.2340    -9.9700     1.1250 O.3   1 <1>  -0.5600 
 20 S      -11.5330    -9.9200    -0.8900 S.o2  1 <1>   1.3330 
 21 O      -11.2960   -11.1760    -1.5660 O.2   1 <1>  -0.6500 
 22 O      -12.6640    -9.1030    -1.2680 O.2   1 <1>  -0.6500 
 23 N      -11.6830   -10.2440     0.7720 N.am  1 <1>  -0.8490 
 24 C      -12.4080   -11.4930     1.0280 C.3   1 <1>   0.1160 
 25 C      -12.3060    -9.1490     1.5230 C.3   1 <1>   0.1160 
 26 H       -2.0430    -1.5060    -1.0980 H     1 <1>   0.1500 
 27 H       -2.4580    -2.7740     2.9420 H     1 <1>   0.1500 
 28 H       -4.3830    -2.1480    -1.5480 H     1 <1>   0.1500 
 29 H       -4.7990    -3.4200     2.5090 H     1 <1>   0.1500 
 30 H       -6.7610    -3.1660     1.0820 H     1 <1>   0.0800 
 31 H       -6.6200    -2.5350    -0.5310 H     1 <1>   0.0800 
 32 H       -5.7850    -5.3260     0.3110 H     1 <1>   0.0800 
 33 H       -5.6740    -4.6900    -1.3040 H     1 <1>   0.0800 
 34 H       -8.1460    -4.4110    -1.3650 H     1 <1>   0.0800 
 35 H       -8.2620    -5.0940     0.2300 H     1 <1>   0.0800 
 36 H       -7.3960    -7.4400     0.5270 H     1 <1>   0.3700 
 37 H       -7.1530    -9.0000    -1.9760 H     1 <1>   0.0800 
 38 H       -8.7260   -10.6140    -1.2630 H     1 <1>   0.0800 
 39 H       -5.6180    -9.1350     0.2230 H     1 <1>   0.0800 
 40 H       -6.2060   -10.6500    -0.4600 H     1 <1>   0.0800 
 41 H       -8.8620   -11.1640     0.9540 H     1 <1>   0.0800 
 42 H       -9.1550    -9.5030     1.4600 H     1 <1>   0.0800 
 43 H       -9.9490    -8.5710    -2.0040 H     1 <1>   0.0800 
 44 H      -10.1210    -8.0860    -0.3560 H     1 <1>   0.0800 
 45 H      -12.4770   -11.6750     2.0860 H     1 <1>   0.0800 
 46 H      -11.8860   -12.3220     0.5780 H     1 <1>   0.0800 
 47 H      -13.4000   -11.4420     0.6090 H     1 <1>   0.0800 
 48 H      -12.2910    -9.3690     2.5770 H     1 <1>   0.0800 
 49 H      -13.3280    -9.0090     1.2090 H     1 <1>   0.0800 
 50 H      -11.7670    -8.2320     1.3600 H     1 <1>   0.0800 
@<TRIPOS>BOND
  1   1   2  1   
  2   2   3  ar  
  3   2   4  ar  
  4   3   5  ar  
  5   3  26  1   
  6   4   6  ar  
  7   4  27  1   
  8   5   7  ar  
  9   5  28  1   
 10   6   7  ar  
 11   6  29  1   
 12   7   8  1   
 13   8   9  1   
 14   8  30  1   
 15   8  31  1   
 16   9  10  1   
 17   9  32  1   
 18   9  33  1   
 19  10  11  1   
 20  10  34  1   
 21  10  35  1   
 22  11  12  2   
 23  11  13  am  
 24  13  14  1   
 25  13  36  1   
 26  14  15  1   
 27  14  16  1   
 28  14  37  1   
 29  15  17  1   
 30  15  18  1   
 31  15  38  1   
 32  16  19  1   
 33  16  39  1   
 34  16  40  1   
 35  17  19  1   
 36  17  41  1   
 37  17  42  1   
 38  18  20  1   
 39  18  43  1   
 40  18  44  1   
 41  20  21  2   
 42  20  22  2   
 43  20  23  am  
 44  23  24  1   
 45  23  25  1   
 46  24  45  1   
 47  24  46  1   
 48  24  47  1   
 49  25  48  1   
 50  25  49  1   
 51  25  50  1   
@<TRIPOS>SUBSTRUCTURE
  1 ****  13 GROUP 4 **** **** 0

# MOE 2024.06 (io_trps.svl 2023.06)
