@<TRIPOS>MOLECULE
NONAME
56 58 1 0 0 
SMALL
USER_CHARGES


@<TRIPOS>ATOM
  1 O       -0.3680    -0.0670     2.1660 O.2   1 <1>  -0.5700 
  2 C       -0.9270     0.7420     1.4600 C.2   1 <1>   0.5690 
  3 N       -1.7590     0.3660     0.4180 N.am  1 <1>  -0.4770 
  4 C       -0.6680     2.2260     1.7780 C.3   1 <1>   0.1710 
  5 C       -1.9990    -0.9770     0.0710 C.ar  1 <1>   0.1170 
  6 C       -2.4220     1.3900    -0.4360 C.3   1 <1>   0.0600 
  7 N       -0.0370     3.0230     0.6850 N.3   1 <1>  -0.8100 
  8 C       -2.4900    -1.8810     1.0070 C.ar  1 <1>  -0.1500 
  9 C       -1.7630    -1.4290    -1.2240 C.ar  1 <1>  -0.1500 
 10 C        0.1320     4.4320     1.0940 C.3   1 <1>   0.1100 
 11 C        1.2800     2.4510     0.3150 C.3   1 <1>   0.1100 
 12 C       -2.7470    -3.1950     0.6600 C.ar  1 <1>  -0.1500 
 13 C       -2.0200    -2.7420    -1.5770 C.ar  1 <1>  -0.1500 
 14 C        0.7770     5.2870    -0.0150 C.3   1 <1>   0.2090 
 15 C        1.9590     3.2470    -0.8140 C.3   1 <1>   0.2090 
 16 C       -2.5150    -3.6270    -0.6340 C.ar  1 <1>  -0.1500 
 17 N        2.0780     4.7010    -0.4670 N.pl3 1 <1>  -0.8380 
 18 C        3.2720     5.2830    -0.2010 C.ar  1 <1>   0.4100 
 19 N        4.0960     4.5800     0.5510 N.ar  1 <1>  -0.6200 
 20 C        3.6060     6.5770    -0.6900 C.ar  1 <1>  -0.1430 
 21 C        5.2270     5.1410     0.8960 C.ar  1 <1>   0.7710 
 22 C        4.7870     7.1300    -0.2830 C.ar  1 <1>   0.2180 
 23 C        2.6610     7.2850    -1.6700 C.3   1 <1>  -0.0970 
 24 N        5.5790     6.3770     0.5180 N.ar  1 <1>  -0.1790 
 25 N        6.0360     4.4170     1.6650 N.pl3 1 <1>  -0.9000 
 26 C        5.3150     8.5200    -0.6520 C.3   1 <1>  -0.0170 
 27 C        5.6970     9.3570     0.5780 C.3   1 <1>  -0.2400 
 28 H       -0.0390     2.2680     2.6500 H     1 <1>   0.0800 
 29 H       -1.6090     2.6720     2.0410 H     1 <1>   0.0800 
 30 H       -2.8690     2.1540     0.1750 H     1 <1>   0.0800 
 31 H       -3.1970     0.9350    -1.0290 H     1 <1>   0.0800 
 32 H       -1.6960     1.8390    -1.0910 H     1 <1>   0.0800 
 33 H       -2.6630    -1.5480     2.0140 H     1 <1>   0.1500 
 34 H       -1.3700    -0.7490    -1.9570 H     1 <1>   0.1500 
 35 H        0.7500     4.4840     1.9740 H     1 <1>   0.0800 
 36 H       -0.8300     4.8500     1.3360 H     1 <1>   0.0800 
 37 H        1.1550     1.4340    -0.0160 H     1 <1>   0.0800 
 38 H        1.9310     2.4430     1.1730 H     1 <1>   0.0800 
 39 H       -3.1250    -3.8810     1.3980 H     1 <1>   0.1500 
 40 H       -1.8330    -3.0780    -2.5820 H     1 <1>   0.1500 
 41 H        0.9330     6.2820     0.3610 H     1 <1>   0.0800 
 42 H        0.1040     5.3440    -0.8520 H     1 <1>   0.0800 
 43 H        1.3750     3.1460    -1.7110 H     1 <1>   0.0800 
 44 H        2.9330     2.8310    -1.0070 H     1 <1>   0.0800 
 45 H       -2.7140    -4.6490    -0.9050 H     1 <1>   0.1500 
 46 H        2.0940     6.5700    -2.2400 H     1 <1>   0.0800 
 47 H        3.1990     7.8780    -2.3860 H     1 <1>   0.0800 
 48 H        1.9740     7.9180    -1.1370 H     1 <1>   0.0800 
 49 H        6.4680     6.7270     0.8520 H     1 <1>   0.4570 
 50 H        6.9540     4.6560     2.0410 H     1 <1>   0.4000 
 51 H        5.7120     3.4800     1.9270 H     1 <1>   0.4000 
 52 H        4.5760     9.0760    -1.1990 H     1 <1>   0.0800 
 53 H        6.1720     8.4160    -1.2960 H     1 <1>   0.0800 
 54 H        4.8580     9.4490     1.2470 H     1 <1>   0.0800 
 55 H        5.9800    10.3490     0.2660 H     1 <1>   0.0800 
 56 H        6.5280     8.9330     1.1120 H     1 <1>   0.0800 
@<TRIPOS>BOND
  1   1   2  2   
  2   2   3  am  
  3   2   4  1   
  4   3   5  1   
  5   3   6  1   
  6   4   7  1   
  7   4  28  1   
  8   4  29  1   
  9   5   8  ar  
 10   5   9  ar  
 11   6  30  1   
 12   6  31  1   
 13   6  32  1   
 14   7  10  1   
 15   7  11  1   
 16   8  12  ar  
 17   8  33  1   
 18   9  13  ar  
 19   9  34  1   
 20  10  14  1   
 21  10  35  1   
 22  10  36  1   
 23  11  15  1   
 24  11  37  1   
 25  11  38  1   
 26  12  16  ar  
 27  12  39  1   
 28  13  16  ar  
 29  13  40  1   
 30  14  17  1   
 31  14  41  1   
 32  14  42  1   
 33  15  17  1   
 34  15  43  1   
 35  15  44  1   
 36  16  45  1   
 37  17  18  1   
 38  18  19  ar  
 39  18  20  ar  
 40  19  21  ar  
 41  20  22  ar  
 42  20  23  1   
 43  21  24  ar  
 44  21  25  1   
 45  22  24  ar  
 46  22  26  1   
 47  23  46  1   
 48  23  47  1   
 49  23  48  1   
 50  24  49  1   
 51  25  50  1   
 52  25  51  1   
 53  26  27  1   
 54  26  52  1   
 55  26  53  1   
 56  27  54  1   
 57  27  55  1   
 58  27  56  1   
@<TRIPOS>SUBSTRUCTURE
  1 ****  11 GROUP 4 **** **** 0

# MOE 2024.06 (io_trps.svl 2023.06)
