@<TRIPOS>MOLECULE
NONAME
50 52 1 0 0 
SMALL
USER_CHARGES


@<TRIPOS>ATOM
  1 S        1.1460     1.8520     1.3280 S.o2  1 <1>   1.3330 
  2 O        1.1390     0.7800     2.2990 O.2   1 <1>  -0.6500 
  3 O        1.1810     3.2260     1.7780 O.2   1 <1>  -0.6500 
  4 N       -0.2220     1.6580     0.3410 N.am  1 <1>  -0.8490 
  5 C        2.5050     1.6040     0.1890 C.3   1 <1>  -0.0550 
  6 C       -1.3820     2.3940     0.8490 C.3   1 <1>   0.1160 
  7 C       -0.5840     0.2550     0.1110 C.3   1 <1>   0.1160 
  8 C        3.8890     1.7950     0.8340 C.3   1 <1>  -0.0800 
  9 C        5.0200     1.6120    -0.1630 C.3   1 <1>   0.2200 
 10 C        4.2380     0.7770     1.9120 C.3   1 <1>   0.1200 
 11 N        5.3780     2.9140    -0.7590 N.am  1 <1>  -0.7300 
 12 C        6.1500     1.0020     0.6670 C.3   1 <1>   0.1200 
 13 O        5.6290     0.7440     1.9360 O.3   1 <1>  -0.5600 
 14 C        4.8640     3.4010    -1.9170 C.2   1 <1>   0.5690 
 15 O        4.1560     2.7260    -2.6240 O.2   1 <1>  -0.5700 
 16 C        5.1470     4.8400    -2.3200 C.3   1 <1>   0.0440 
 17 C        5.8400     5.6570    -1.2250 C.ar  1 <1>  -0.1440 
 18 C        5.1630     5.9800    -0.0180 C.ar  1 <1>   0.0000 
 19 C        7.1370     6.0540    -1.4230 C.ar  1 <1>  -0.1500 
 20 C        5.8690     6.6910     0.9800 C.ar  1 <1>   0.0000 
 21 C        3.8220     5.6210     0.2610 C.ar  1 <1>  -0.1500 
 22 C        7.8220     6.7740    -0.4400 C.ar  1 <1>  -0.1500 
 23 C        7.1990     7.0820     0.7340 C.ar  1 <1>  -0.1500 
 24 C        5.2300     6.9870     2.2010 C.ar  1 <1>  -0.1500 
 25 C        3.2280     5.9190     1.4560 C.ar  1 <1>  -0.1500 
 26 C        3.9400     6.6090     2.4400 C.ar  1 <1>  -0.1500 
 27 H        2.4440     0.6200    -0.2320 H     1 <1>   0.0800 
 28 H        2.4050     2.3060    -0.6160 H     1 <1>   0.0800 
 29 H       -2.2250     2.2630     0.1930 H     1 <1>   0.0800 
 30 H       -1.1580     3.4470     0.9000 H     1 <1>   0.0800 
 31 H       -1.6420     2.0480     1.8360 H     1 <1>   0.0800 
 32 H       -1.4000     0.1940    -0.5880 H     1 <1>   0.0800 
 33 H       -0.8780    -0.2150     1.0360 H     1 <1>   0.0800 
 34 H        0.2530    -0.2830    -0.2990 H     1 <1>   0.0800 
 35 H        3.9470     2.7730     1.2830 H     1 <1>   0.0800 
 36 H        4.7450     0.9170    -0.9400 H     1 <1>   0.0800 
 37 H        3.8860    -0.2090     1.6610 H     1 <1>   0.0800 
 38 H        3.8740     1.0620     2.8850 H     1 <1>   0.0800 
 39 H        5.8630     3.5700    -0.1370 H     1 <1>   0.3700 
 40 H        6.9830     1.6740     0.7760 H     1 <1>   0.0800 
 41 H        6.4780     0.0690     0.2430 H     1 <1>   0.0800 
 42 H        5.7540     4.8140    -3.2060 H     1 <1>   0.0800 
 43 H        4.2200     5.3130    -2.5880 H     1 <1>   0.0800 
 44 H        7.6630     5.8220    -2.3330 H     1 <1>   0.1500 
 45 H        3.2440     5.0960    -0.4750 H     1 <1>   0.1500 
 46 H        8.8380     7.0760    -0.6240 H     1 <1>   0.1500 
 47 H        7.7220     7.6330     1.4960 H     1 <1>   0.1500 
 48 H        5.7830     7.5220     2.9530 H     1 <1>   0.1500 
 49 H        2.2100     5.6270     1.6550 H     1 <1>   0.1500 
 50 H        3.4560     6.8320     3.3750 H     1 <1>   0.1500 
@<TRIPOS>BOND
  1   1   2  2   
  2   1   3  2   
  3   1   4  am  
  4   1   5  1   
  5   4   6  1   
  6   4   7  1   
  7   5   8  1   
  8   5  27  1   
  9   5  28  1   
 10   6  29  1   
 11   6  30  1   
 12   6  31  1   
 13   7  32  1   
 14   7  33  1   
 15   7  34  1   
 16   8   9  1   
 17   8  10  1   
 18   8  35  1   
 19   9  11  1   
 20   9  12  1   
 21   9  36  1   
 22  10  13  1   
 23  10  37  1   
 24  10  38  1   
 25  11  14  am  
 26  11  39  1   
 27  12  13  1   
 28  12  40  1   
 29  12  41  1   
 30  14  15  2   
 31  14  16  1   
 32  16  17  1   
 33  16  42  1   
 34  16  43  1   
 35  17  18  ar  
 36  17  19  ar  
 37  18  20  ar  
 38  18  21  ar  
 39  19  22  ar  
 40  19  44  1   
 41  20  23  ar  
 42  20  24  ar  
 43  21  25  ar  
 44  21  45  1   
 45  22  23  ar  
 46  22  46  1   
 47  23  47  1   
 48  24  26  ar  
 49  24  48  1   
 50  25  26  ar  
 51  25  49  1   
 52  26  50  1   
@<TRIPOS>SUBSTRUCTURE
  1 ****   8 GROUP 4 **** **** 0

# MOE 2024.06 (io_trps.svl 2023.06)
