@<TRIPOS>MOLECULE
NONAME
51 53 1 0 0 
SMALL
USER_CHARGES


@<TRIPOS>ATOM
  1 O       -0.2890    -2.8200    -1.2480 O.3   1 <1>  -0.6800 
  2 C        0.0850    -1.7020    -0.5160 C.3   1 <1>   0.1200 
  3 C        1.3820    -1.9370     0.3130 C.3   1 <1>   0.0000 
  4 C        2.6590    -2.1950    -0.5510 C.3   1 <1>   0.4230 
  5 C        1.6350    -0.6290     1.1170 C.3   1 <1>  -0.1600 
  6 C        1.1740    -3.0960     1.3330 C.3   1 <1>  -0.1600 
  7 N        2.7580    -3.5560    -1.2230 N.4   1 <1>  -0.9590 
  8 C        2.9680    -0.9910    -1.4630 C.3   1 <1>   0.2090 
  9 C        2.0350     0.5810     0.2540 C.3   1 <1>   0.2090 
 10 C        1.9950    -4.3570     1.0110 C.3   1 <1>  -0.1600 
 11 C        2.0200    -4.6330    -0.4910 C.3   1 <1>   0.3430 
 12 C        2.3540    -3.5720    -2.6640 C.3   1 <1>   0.2630 
 13 N        3.1880     0.2020    -0.6030 N.pl3 1 <1>  -0.8380 
 14 C        4.4600     0.5390    -0.2000 C.ar  1 <1>   0.7200 
 15 N        5.3660    -0.4380    -0.2030 N.ar  1 <1>  -0.6200 
 16 N        4.6510     1.7970     0.1730 N.ar  1 <1>  -0.6200 
 17 C        6.5710    -0.0960     0.1890 C.ar  1 <1>   0.1600 
 18 C        5.8650     2.1050     0.5580 C.ar  1 <1>   0.1600 
 19 C        6.8850     1.1830     0.5880 C.ar  1 <1>  -0.1430 
 20 C        8.2880     1.5610     1.0370 C.3   1 <1>  -0.0170 
 21 C        9.1240     2.0410    -0.1550 C.3   1 <1>  -0.1600 
 22 C       10.5420     2.4290     0.2740 C.3   1 <1>  -0.2400 
 23 H       -1.2070    -2.7150    -1.5800 H     1 <1>   0.4000 
 24 H        0.1910    -0.8830    -1.2060 H     1 <1>   0.0800 
 25 H       -0.7300    -1.4710     0.1500 H     1 <1>   0.0800 
 26 H        3.4640    -2.1850     0.1650 H     1 <1>   0.0800 
 27 H        2.4350    -0.7860     1.8220 H     1 <1>   0.0800 
 28 H        0.7630    -0.3700     1.6910 H     1 <1>   0.0800 
 29 H        1.4300    -2.7870     2.3330 H     1 <1>   0.0800 
 30 H        0.1310    -3.3660     1.3640 H     1 <1>   0.0800 
 31 H        3.7570    -3.7970    -1.1780 H     1 <1>   0.4500 
 32 H        2.1570    -0.7940    -2.1400 H     1 <1>   0.0800 
 33 H        3.8530    -1.1820    -2.0450 H     1 <1>   0.0800 
 34 H        2.2940     1.4080     0.8960 H     1 <1>   0.0800 
 35 H        1.2190     0.9040    -0.3690 H     1 <1>   0.0800 
 36 H        1.5540    -5.1990     1.5160 H     1 <1>   0.0800 
 37 H        3.0030    -4.2560     1.3760 H     1 <1>   0.0800 
 38 H        1.0030    -4.6830    -0.8440 H     1 <1>   0.0800 
 39 H        2.4850    -5.5870    -0.6800 H     1 <1>   0.0800 
 40 H        1.3260    -3.2690    -2.7720 H     1 <1>   0.0800 
 41 H        2.4610    -4.5650    -3.0700 H     1 <1>   0.0800 
 42 H        2.9730    -2.9020    -3.2380 H     1 <1>   0.0800 
 43 H        7.3350    -0.8550     0.1930 H     1 <1>   0.1500 
 44 H        6.0510     3.1230     0.8570 H     1 <1>   0.1500 
 45 H        8.2320     2.3400     1.7780 H     1 <1>   0.0800 
 46 H        8.7630     0.7100     1.4950 H     1 <1>   0.0800 
 47 H        9.1780     1.2600    -0.8940 H     1 <1>   0.0800 
 48 H        8.6450     2.8920    -0.6090 H     1 <1>   0.0800 
 49 H       11.0500     1.5850     0.7090 H     1 <1>   0.0800 
 50 H       10.5150     3.2270     0.9950 H     1 <1>   0.0800 
 51 H       11.1050     2.7620    -0.5800 H     1 <1>   0.0800 
@<TRIPOS>BOND
  1   1   2  1   
  2   1  23  1   
  3   2   3  1   
  4   2  24  1   
  5   2  25  1   
  6   3   4  1   
  7   3   5  1   
  8   3   6  1   
  9   4   7  1   
 10   4   8  1   
 11   4  26  1   
 12   5   9  1   
 13   5  27  1   
 14   5  28  1   
 15   6  10  1   
 16   6  29  1   
 17   6  30  1   
 18   7  11  1   
 19   7  12  1   
 20   7  31  1   
 21   8  13  1   
 22   8  32  1   
 23   8  33  1   
 24   9  13  1   
 25   9  34  1   
 26   9  35  1   
 27  10  11  1   
 28  10  36  1   
 29  10  37  1   
 30  11  38  1   
 31  11  39  1   
 32  12  40  1   
 33  12  41  1   
 34  12  42  1   
 35  13  14  1   
 36  14  15  ar  
 37  14  16  ar  
 38  15  17  ar  
 39  16  18  ar  
 40  17  19  ar  
 41  17  43  1   
 42  18  19  ar  
 43  18  44  1   
 44  19  20  1   
 45  20  21  1   
 46  20  45  1   
 47  20  46  1   
 48  21  22  1   
 49  21  47  1   
 50  21  48  1   
 51  22  49  1   
 52  22  50  1   
 53  22  51  1   
@<TRIPOS>SUBSTRUCTURE
  1 ****  13 GROUP 4 **** **** 0

# MOE 2024.06 (io_trps.svl 2023.06)
