@<TRIPOS>MOLECULE
NONAME
44 45 1 0 0 
SMALL
USER_CHARGES


@<TRIPOS>ATOM
  1 O       -2.7100     1.0730    -1.1860 O.3   1 <1>  -0.0190 
  2 N       -3.6230     0.4010    -0.5490 N.2   1 <1>  -0.4100 
  3 C       -1.6840     1.0720    -0.3680 C.2   1 <1>   0.2980 
  4 C       -3.1180     0.0560     0.5710 C.2   1 <1>   0.3350 
  5 N       -1.8680     0.4590     0.7320 N.2   1 <1>  -0.5650 
  6 C       -0.4070     1.7860    -0.7780 C.3   1 <1>   0.0200 
  7 C       -3.8580    -0.7620     1.6300 C.3   1 <1>   0.3900 
  8 C        0.5320     0.9110    -1.6310 C.3   1 <1>  -0.0800 
  9 N       -3.8180    -2.2490     1.3670 N.pl3 1 <1>  -0.8380 
 10 C        1.8600     1.6420    -1.8730 C.3   1 <1>  -0.2400 
 11 C       -0.0900     0.5270    -2.9810 C.3   1 <1>  -0.2400 
 12 C       -4.4440    -2.8930     0.3430 C.ar  1 <1>   0.7710 
 13 C       -3.1010    -3.0070     2.4470 C.3   1 <1>   0.1290 
 14 N       -4.6740    -4.1950     0.4580 N.ar  1 <1>  -0.6200 
 15 N       -4.8160    -2.2120    -0.7610 N.ar  1 <1>  -0.1790 
 16 C       -5.2900    -4.8110    -0.5240 C.ar  1 <1>   0.4100 
 17 C       -5.4550    -2.8130    -1.7920 C.ar  1 <1>   0.2110 
 18 N       -5.4900    -6.1230    -0.3290 N.pl3 1 <1>  -0.8690 
 19 C       -5.7090    -4.1380    -1.6850 C.ar  1 <1>  -0.1500 
 20 C       -6.0480    -7.1520    -1.2270 C.3   1 <1>   0.2090 
 21 C       -5.2890    -8.4480    -0.9850 C.3   1 <1>  -0.2400 
 22 H        0.1090     2.0760     0.1200 H     1 <1>   0.0800 
 23 H       -0.6610     2.6850    -1.3100 H     1 <1>   0.0800 
 24 H       -4.8830    -0.4380     1.6670 H     1 <1>   0.0800 
 25 H       -3.4220    -0.5430     2.5900 H     1 <1>   0.0800 
 26 H        0.7440     0.0070    -1.0830 H     1 <1>   0.0800 
 27 H        1.7000     2.5530    -2.4230 H     1 <1>   0.0800 
 28 H        2.5330     1.0180    -2.4350 H     1 <1>   0.0800 
 29 H        2.3340     1.8840    -0.9380 H     1 <1>   0.0800 
 30 H       -0.3610     1.4060    -3.5400 H     1 <1>   0.0800 
 31 H       -0.9660    -0.0810    -2.8430 H     1 <1>   0.0800 
 32 H        0.6130    -0.0420    -3.5650 H     1 <1>   0.0800 
 33 H       -2.1770    -2.5120     2.6970 H     1 <1>   0.0800 
 34 H       -2.8580    -4.0080     2.1320 H     1 <1>   0.0800 
 35 H       -3.7180    -3.0650     3.3280 H     1 <1>   0.0800 
 36 H       -4.5320    -1.2320    -0.8090 H     1 <1>   0.4570 
 37 H       -5.7340    -2.2270    -2.6540 H     1 <1>   0.1500 
 38 H       -5.1790    -6.4900     0.5760 H     1 <1>   0.4000 
 39 H       -6.2180    -4.6810    -2.4580 H     1 <1>   0.1500 
 40 H       -5.9390    -6.8580    -2.2570 H     1 <1>   0.0800 
 41 H       -7.0950    -7.2910    -1.0100 H     1 <1>   0.0800 
 42 H       -4.2420    -8.3120    -1.1910 H     1 <1>   0.0800 
 43 H       -5.6670    -9.2150    -1.6370 H     1 <1>   0.0800 
 44 H       -5.4170    -8.7750     0.0310 H     1 <1>   0.0800 
@<TRIPOS>BOND
  1   1   2  1   
  2   1   3  1   
  3   2   4  2   
  4   3   5  2   
  5   3   6  1   
  6   4   5  1   
  7   4   7  1   
  8   6   8  1   
  9   6  22  1   
 10   6  23  1   
 11   7   9  1   
 12   7  24  1   
 13   7  25  1   
 14   8  10  1   
 15   8  11  1   
 16   8  26  1   
 17   9  12  1   
 18   9  13  1   
 19  10  27  1   
 20  10  28  1   
 21  10  29  1   
 22  11  30  1   
 23  11  31  1   
 24  11  32  1   
 25  12  14  ar  
 26  12  15  ar  
 27  13  33  1   
 28  13  34  1   
 29  13  35  1   
 30  14  16  ar  
 31  15  17  ar  
 32  15  36  1   
 33  16  18  1   
 34  16  19  ar  
 35  17  19  ar  
 36  17  37  1   
 37  18  20  1   
 38  18  38  1   
 39  19  39  1   
 40  20  21  1   
 41  20  40  1   
 42  20  41  1   
 43  21  42  1   
 44  21  43  1   
 45  21  44  1   
@<TRIPOS>SUBSTRUCTURE
  1 ****  15 GROUP 4 **** **** 0

# MOE 2024.06 (io_trps.svl 2023.06)
