@<TRIPOS>MOLECULE
NONAME
44 46 1 0 0 
SMALL
USER_CHARGES


@<TRIPOS>ATOM
  1 O       -2.5580     0.7800    -2.4060 O.2   1 <1>  -0.5700 
  2 C       -3.2420     0.8030    -1.4120 C.2   1 <1>   0.5690 
  3 N       -4.1710    -0.1510    -1.1710 N.am  1 <1>  -0.7300 
  4 C       -3.0650     1.9100    -0.3720 C.3   1 <1>  -0.0190 
  5 C       -4.3220    -1.3850    -1.9580 C.3   1 <1>   0.2840 
  6 C       -2.3370     3.1550    -0.9230 C.3   1 <1>  -0.1600 
  7 C       -2.3450     1.3720     0.8880 C.3   1 <1>  -0.1600 
  8 C       -4.7430    -2.4880    -1.0060 C.ar  1 <1>  -0.1440 
  9 C       -2.3070     4.3140     0.0960 C.3   1 <1>   0.2000 
 10 C       -1.7090     2.4730     1.7610 C.3   1 <1>  -0.1600 
 11 C       -3.8210    -2.9810    -0.0720 C.ar  1 <1>   0.0000 
 12 C       -6.0160    -3.0170    -1.0280 C.ar  1 <1>  -0.1500 
 13 O       -1.1080     5.0280    -0.0740 O.3   1 <1>  -0.5600 
 14 C       -2.4030     3.8230     1.5650 C.3   1 <1>   0.2000 
 15 C       -4.2010    -3.9830     0.8150 C.ar  1 <1>  -0.1520 
 16 C       -2.4720    -2.6810     0.2250 C.2   1 <1>  -0.1500 
 17 C       -6.3900    -4.0270    -0.1330 C.ar  1 <1>  -0.1500 
 18 C       -1.0770     5.8880    -1.1710 C.3   1 <1>   0.0400 
 19 O       -1.7920     4.7430     2.3920 O.3   1 <1>  -0.6800 
 20 N       -3.1290    -4.2810     1.6170 N.pl3 1 <1>   0.0330 
 21 C       -5.4920    -4.5130     0.7880 C.ar  1 <1>  -0.1500 
 22 C       -2.0860    -3.4810     1.2480 C.2   1 <1>  -0.3020 
 23 H       -4.6660    -0.1780    -0.2790 H     1 <1>   0.3700 
 24 H       -4.0540     2.2230    -0.0870 H     1 <1>   0.0800 
 25 H       -5.0670    -1.2340    -2.7190 H     1 <1>   0.0800 
 26 H       -3.3900    -1.6400    -2.4340 H     1 <1>   0.0800 
 27 H       -2.8250     3.4850    -1.8230 H     1 <1>   0.0800 
 28 H       -1.3290     2.8700    -1.1740 H     1 <1>   0.0800 
 29 H       -3.0520     0.8120     1.4770 H     1 <1>   0.0800 
 30 H       -1.5670     0.6880     0.5910 H     1 <1>   0.0800 
 31 H       -3.1330     4.9820    -0.0800 H     1 <1>   0.0800 
 32 H       -0.6740     2.5810     1.4830 H     1 <1>   0.0800 
 33 H       -1.7520     2.1840     2.7970 H     1 <1>   0.0800 
 34 H       -6.7460    -2.6600    -1.7330 H     1 <1>   0.1500 
 35 H       -3.4330     3.7420     1.8670 H     1 <1>   0.0800 
 36 H       -1.8900    -1.9410    -0.2960 H     1 <1>   0.1500 
 37 H       -7.3910    -4.4190    -0.1750 H     1 <1>   0.1500 
 38 H       -0.1260     6.3910    -1.1740 H     1 <1>   0.0800 
 39 H       -1.8680     6.6120    -1.0800 H     1 <1>   0.0800 
 40 H       -1.1840     5.3190    -2.0780 H     1 <1>   0.0800 
 41 H       -1.0720     5.1450     1.8530 H     1 <1>   0.4000 
 42 H       -3.1240    -4.9910     2.3570 H     1 <1>   0.2700 
 43 H       -5.7720    -5.2890     1.4790 H     1 <1>   0.1500 
 44 H       -1.1280    -3.5300     1.7350 H     1 <1>   0.1500 
@<TRIPOS>BOND
  1   1   2  2   
  2   2   3  am  
  3   2   4  1   
  4   3   5  1   
  5   3  23  1   
  6   4   6  1   
  7   4   7  1   
  8   4  24  1   
  9   5   8  1   
 10   5  25  1   
 11   5  26  1   
 12   6   9  1   
 13   6  27  1   
 14   6  28  1   
 15   7  10  1   
 16   7  29  1   
 17   7  30  1   
 18   8  11  ar  
 19   8  12  ar  
 20   9  13  1   
 21   9  14  1   
 22   9  31  1   
 23  10  14  1   
 24  10  32  1   
 25  10  33  1   
 26  11  15  ar  
 27  11  16  1   
 28  12  17  ar  
 29  12  34  1   
 30  13  18  1   
 31  14  19  1   
 32  14  35  1   
 33  15  20  1   
 34  15  21  ar  
 35  16  22  2   
 36  16  36  1   
 37  17  21  ar  
 38  17  37  1   
 39  18  38  1   
 40  18  39  1   
 41  18  40  1   
 42  19  41  1   
 43  20  22  1   
 44  20  42  1   
 45  21  43  1   
 46  22  44  1   
@<TRIPOS>SUBSTRUCTURE
  1 ****   3 GROUP 4 **** **** 0

# MOE 2024.06 (io_trps.svl 2023.06)
