@<TRIPOS>MOLECULE
NONAME
23 23 1 0 0 
SMALL
USER_CHARGES


@<TRIPOS>ATOM
  1 N       -6.3120     0.2050     0.2530 N.pl3 1 <1>  -0.8380 
  2 C       -7.1670    -0.6440    -0.4560 C.2   1 <1>  -0.0500 
  3 C       -4.9760    -0.4680     0.1990 C.3   1 <1>   0.5780 
  4 C       -6.2820     1.5900    -0.2750 C.3   1 <1>   0.2090 
  5 C       -6.5470    -1.7360    -0.8890 C.2   1 <1>  -0.0500 
  6 N       -5.1930    -1.7460    -0.5500 N.pl3 1 <1>  -0.8380 
  7 C       -7.3660     2.4140     0.4220 C.3   1 <1>  -0.1600 
  8 C       -4.8130    -2.9420     0.2390 C.3   1 <1>   0.1290 
  9 C       -7.3700     3.8700    -0.0590 C.3   1 <1>  -0.2400 
 10 H       -8.2020    -0.3800    -0.5940 H     1 <1>   0.1500 
 11 H       -4.6270    -0.6600     1.1990 H     1 <1>   0.0800 
 12 H       -4.2560     0.1370    -0.3260 H     1 <1>   0.0800 
 13 H       -6.4480     1.5790    -1.3400 H     1 <1>   0.0800 
 14 H       -5.3220     2.0370    -0.0830 H     1 <1>   0.0800 
 15 H       -6.9730    -2.5560    -1.4440 H     1 <1>   0.1500 
 16 H       -7.1950     2.3890     1.4840 H     1 <1>   0.0800 
 17 H       -8.3270     1.9730     0.2240 H     1 <1>   0.0800 
 18 H       -3.7730    -2.8890     0.5110 H     1 <1>   0.0800 
 19 H       -4.9710    -3.8280    -0.3510 H     1 <1>   0.0800 
 20 H       -5.4140    -3.0020     1.1310 H     1 <1>   0.0800 
 21 H       -6.4240     4.3380     0.1490 H     1 <1>   0.0800 
 22 H       -8.1430     4.4210     0.4470 H     1 <1>   0.0800 
 23 H       -7.5560     3.9160    -1.1180 H     1 <1>   0.0800 
@<TRIPOS>BOND
  1   1   2  1   
  2   1   3  1   
  3   1   4  1   
  4   2   5  2   
  5   2  10  1   
  6   3   6  1   
  7   3  11  1   
  8   3  12  1   
  9   4   7  1   
 10   4  13  1   
 11   4  14  1   
 12   5   6  1   
 13   5  15  1   
 14   6   8  1   
 15   7   9  1   
 16   7  16  1   
 17   7  17  1   
 18   8  18  1   
 19   8  19  1   
 20   8  20  1   
 21   9  21  1   
 22   9  22  1   
 23   9  23  1   
@<TRIPOS>SUBSTRUCTURE
  1 ****   1 GROUP 4 **** **** 0

# MOE 2024.06 (io_trps.svl 2023.06)
