@<TRIPOS>MOLECULE
NONAME
42 44 1 0 0 
SMALL
USER_CHARGES


@<TRIPOS>ATOM
  1 F       -1.0350     1.9880     1.2010 F     1 <1>  -0.3400 
  2 C       -0.0300     2.2890     0.3810 C.3   1 <1>   0.8560 
  3 F        0.6920     1.1740     0.2960 F     1 <1>  -0.3400 
  4 N        0.8040     3.4020     0.9580 N.pl3 1 <1>   0.3140 
  5 N        1.1840     4.4980     0.2510 N.2   1 <1>  -0.7070 
  6 C        1.2740     3.4730     2.2240 C.2   1 <1>  -0.3020 
  7 C        1.8750     5.2530     1.0890 C.2   1 <1>   0.2030 
  8 C        1.9540     4.6290     2.3390 C.2   1 <1>  -0.1500 
  9 C        2.4870     6.5430     0.7910 C.2   1 <1>   0.7160 
 10 O        3.3260     7.0450     1.5240 O.2   1 <1>  -0.5700 
 11 N        2.2490     7.2190    -0.3860 N.am  1 <1>  -0.6600 
 12 C        2.8340     6.6940    -1.6540 C.3   1 <1>   0.1400 
 13 C        1.8450     8.6510    -0.3940 C.3   1 <1>   0.1400 
 14 C        4.3710     6.8590    -1.6640 C.3   1 <1>   0.3430 
 15 C        3.0440     9.6070    -0.2650 C.3   1 <1>  -0.1600 
 16 N        4.8230     7.9930    -0.7920 N.4   1 <1>  -0.9590 
 17 C        4.2370     9.3070    -1.1760 C.3   1 <1>   0.3430 
 18 C        6.2920     8.0290    -0.5820 C.3   1 <1>   0.5240 
 19 C        6.6050     9.0560     0.4840 C.2   1 <1>  -0.1810 
 20 C        6.2060     9.0850     1.7750 C.2   1 <1>  -0.0100 
 21 C        7.3890    10.2070     0.3070 C.2   1 <1>  -0.1500 
 22 O        6.6760    10.1550     2.3800 O.3   1 <1>  -0.2800 
 23 C        7.3900    10.8310     1.5040 C.2   1 <1>  -0.0100 
 24 H       -0.4280     2.5230    -0.5890 H     1 <1>   0.0800 
 25 H        1.0940     2.7060     2.9570 H     1 <1>   0.1500 
 26 H        2.4640     5.0260     3.2000 H     1 <1>   0.1500 
 27 H        2.4070     7.2180    -2.4920 H     1 <1>   0.0800 
 28 H        2.5830     5.6530    -1.7690 H     1 <1>   0.0800 
 29 H        1.1660     8.8270     0.4250 H     1 <1>   0.0800 
 30 H        1.3070     8.8580    -1.3040 H     1 <1>   0.0800 
 31 H        4.7110     7.0000    -2.6770 H     1 <1>   0.0800 
 32 H        4.8040     5.9420    -1.2990 H     1 <1>   0.0800 
 33 H        3.3750     9.6290     0.7590 H     1 <1>   0.0800 
 34 H        2.6950    10.6000    -0.4860 H     1 <1>   0.0800 
 35 H        4.4070     7.7960     0.1440 H     1 <1>   0.4500 
 36 H        4.9680    10.0890    -1.0510 H     1 <1>   0.0800 
 37 H        3.9270     9.2970    -2.2090 H     1 <1>   0.0800 
 38 H        6.7950     8.2860    -1.4990 H     1 <1>   0.0800 
 39 H        6.6420     7.0630    -0.2540 H     1 <1>   0.0800 
 40 H        5.5940     8.4040     2.3460 H     1 <1>   0.1500 
 41 H        7.8870    10.5160    -0.5960 H     1 <1>   0.1500 
 42 H        7.8660    11.7450     1.8190 H     1 <1>   0.1500 
@<TRIPOS>BOND
  1   1   2  1   
  2   2   3  1   
  3   2   4  1   
  4   2  24  1   
  5   4   5  1   
  6   4   6  1   
  7   5   7  2   
  8   6   8  2   
  9   6  25  1   
 10   7   8  1   
 11   7   9  1   
 12   8  26  1   
 13   9  10  2   
 14   9  11  am  
 15  11  12  1   
 16  11  13  1   
 17  12  14  1   
 18  12  27  1   
 19  12  28  1   
 20  13  15  1   
 21  13  29  1   
 22  13  30  1   
 23  14  16  1   
 24  14  31  1   
 25  14  32  1   
 26  15  17  1   
 27  15  33  1   
 28  15  34  1   
 29  16  17  1   
 30  16  18  1   
 31  16  35  1   
 32  17  36  1   
 33  17  37  1   
 34  18  19  1   
 35  18  38  1   
 36  18  39  1   
 37  19  20  2   
 38  19  21  1   
 39  20  22  1   
 40  20  40  1   
 41  21  23  2   
 42  21  41  1   
 43  22  23  1   
 44  23  42  1   
@<TRIPOS>SUBSTRUCTURE
  1 ****   9 GROUP 4 **** **** 0

# MOE 2024.06 (io_trps.svl 2023.06)
