@<TRIPOS>MOLECULE
NONAME
49 51 1 0 0 
SMALL
USER_CHARGES


@<TRIPOS>ATOM
  1 O       -1.4730     0.6250    -0.3300 O.3   1 <1>  -0.2800 
  2 C       -1.4740    -0.1510    -1.3680 C.2   1 <1>   0.2980 
  3 C       -1.7290     1.7950    -0.8180 C.2   1 <1>   0.2980 
  4 N       -1.7010     0.4940    -2.4500 N.2   1 <1>  -0.3380 
  5 C       -1.1830    -1.6440    -1.2280 C.3   1 <1>   0.2900 
  6 N       -1.8720     1.7670    -2.0890 N.2   1 <1>  -0.3380 
  7 C       -1.8210     2.9870     0.1220 C.3   1 <1>   0.0200 
  8 N       -2.3200    -2.4610    -0.7260 N.3   1 <1>  -0.8100 
  9 C       -2.1370     4.3080    -0.5930 C.3   1 <1>  -0.2400 
 10 C       -2.0680    -3.9040    -0.9590 C.3   1 <1>   0.1100 
 11 C       -2.7070    -2.1550     0.6540 C.3   1 <1>   0.1100 
 12 C       -3.0540    -4.8670    -0.2340 C.3   1 <1>   0.0000 
 13 C       -4.0530    -2.8200     0.9760 C.3   1 <1>  -0.1600 
 14 C       -4.3290    -4.0510     0.1010 C.3   1 <1>   0.2000 
 15 C       -3.4690    -5.9930    -1.2140 C.3   1 <1>   0.1200 
 16 C       -2.4390    -5.4680     1.0720 C.3   1 <1>  -0.0160 
 17 O       -5.2870    -4.8320     0.7320 O.3   1 <1>  -0.6800 
 18 O       -2.3610    -6.5940    -1.8020 O.3   1 <1>  -0.6800 
 19 C       -1.2190    -6.3700     0.9020 C.ar  1 <1>  -0.1440 
 20 C       -1.3810    -7.7410     0.7550 C.ar  1 <1>  -0.1500 
 21 C        0.0630    -5.8410     0.9150 C.ar  1 <1>  -0.1500 
 22 C       -0.2810    -8.5650     0.5950 C.ar  1 <1>  -0.1500 
 23 C        1.1640    -6.6630     0.7560 C.ar  1 <1>  -0.1500 
 24 C        0.9920    -8.0260     0.5910 C.ar  1 <1>  -0.1500 
 25 H       -0.3310    -1.7740    -0.5850 H     1 <1>   0.0800 
 26 H       -0.9130    -2.0020    -2.2070 H     1 <1>   0.0800 
 27 H       -2.5880     2.7850     0.8480 H     1 <1>   0.0800 
 28 H       -0.8860     3.0800     0.6440 H     1 <1>   0.0800 
 29 H       -3.0790     4.2360    -1.1080 H     1 <1>   0.0800 
 30 H       -1.3690     4.5330    -1.3130 H     1 <1>   0.0800 
 31 H       -2.1910     5.1130     0.1180 H     1 <1>   0.0800 
 32 H       -2.1470    -4.0630    -2.0220 H     1 <1>   0.0800 
 33 H       -1.0570    -4.1470    -0.6910 H     1 <1>   0.0800 
 34 H       -1.9400    -2.4980     1.3270 H     1 <1>   0.0800 
 35 H       -2.8170    -1.0930     0.7910 H     1 <1>   0.0800 
 36 H       -4.8350    -2.1030     0.8030 H     1 <1>   0.0800 
 37 H       -4.0630    -3.0730     2.0210 H     1 <1>   0.0800 
 38 H       -4.7630    -3.7120    -0.8270 H     1 <1>   0.0800 
 39 H       -4.0720    -5.5940    -2.0110 H     1 <1>   0.0800 
 40 H       -4.0370    -6.7540    -0.7060 H     1 <1>   0.0800 
 41 H       -2.1670    -4.6790     1.7470 H     1 <1>   0.0800 
 42 H       -3.1910    -6.0470     1.5780 H     1 <1>   0.0800 
 43 H       -5.0670    -4.9440     1.6750 H     1 <1>   0.4000 
 44 H       -1.7340    -6.8950    -1.1050 H     1 <1>   0.4000 
 45 H       -2.3660    -8.1770     0.7620 H     1 <1>   0.1500 
 46 H        0.2150    -4.7850     1.0530 H     1 <1>   0.1500 
 47 H       -0.4160    -9.6260     0.4730 H     1 <1>   0.1500 
 48 H        2.1560    -6.2450     0.7610 H     1 <1>   0.1500 
 49 H        1.8480    -8.6660     0.4650 H     1 <1>   0.1500 
@<TRIPOS>BOND
  1   1   2  1   
  2   1   3  1   
  3   2   4  2   
  4   2   5  1   
  5   3   6  2   
  6   3   7  1   
  7   4   6  1   
  8   5   8  1   
  9   5  25  1   
 10   5  26  1   
 11   7   9  1   
 12   7  27  1   
 13   7  28  1   
 14   8  10  1   
 15   8  11  1   
 16   9  29  1   
 17   9  30  1   
 18   9  31  1   
 19  10  12  1   
 20  10  32  1   
 21  10  33  1   
 22  11  13  1   
 23  11  34  1   
 24  11  35  1   
 25  12  14  1   
 26  12  15  1   
 27  12  16  1   
 28  13  14  1   
 29  13  36  1   
 30  13  37  1   
 31  14  17  1   
 32  14  38  1   
 33  15  18  1   
 34  15  39  1   
 35  15  40  1   
 36  16  19  1   
 37  16  41  1   
 38  16  42  1   
 39  17  43  1   
 40  18  44  1   
 41  19  20  ar  
 42  19  21  ar  
 43  20  22  ar  
 44  20  45  1   
 45  21  23  ar  
 46  21  46  1   
 47  22  24  ar  
 48  22  47  1   
 49  23  24  ar  
 50  23  48  1   
 51  24  49  1   
@<TRIPOS>SUBSTRUCTURE
  1 ****   8 GROUP 4 **** **** 0

# MOE 2024.06 (io_trps.svl 2023.06)
