@<TRIPOS>MOLECULE
NONAME
52 55 1 0 0 
SMALL
USER_CHARGES


@<TRIPOS>ATOM
  1 O        1.2100     1.6460    -1.0420 O.2   1 <1>  -0.5700 
  2 C        0.6540     2.7070    -0.9140 C.2   1 <1>   0.5690 
  3 N       -0.2150     2.9170     0.0960 N.am  1 <1>  -0.7300 
  4 C        0.8920     3.8300    -1.9230 C.3   1 <1>   0.1810 
  5 C       -1.0240     4.1520     0.2510 C.3   1 <1>   0.3640 
  6 O        0.5830     5.0980    -1.3910 O.3   1 <1>  -0.5600 
  7 C       -2.4970     3.7440     0.2450 C.ar  1 <1>  -0.1440 
  8 C       -0.7300     5.2190    -0.8450 C.3   1 <1>   0.2610 
  9 C       -2.9990     2.8650    -0.7090 C.ar  1 <1>  -0.1500 
 10 C       -3.3620     4.2550     1.2020 C.ar  1 <1>  -0.1500 
 11 C       -0.9330     6.6370    -0.2890 C.2   1 <1>   0.5690 
 12 C       -4.3350     2.5050    -0.7020 C.ar  1 <1>  -0.1500 
 13 C       -4.6990     3.8960     1.2100 C.ar  1 <1>  -0.1500 
 14 O       -1.8650     6.8750     0.4420 O.2   1 <1>  -0.5700 
 15 N       -0.0460     7.6100    -0.6320 N.am  1 <1>  -0.7300 
 16 C       -5.1870     3.0200     0.2580 C.ar  1 <1>  -0.1500 
 17 C       -0.1000     9.0200    -0.2170 C.3   1 <1>   0.2200 
 18 C       -0.1030     9.9100    -1.4610 C.3   1 <1>  -0.1600 
 19 C        1.1010     9.3270     0.6770 C.3   1 <1>  -0.1600 
 20 C       -0.0650    11.3890    -1.0690 C.3   1 <1>   0.1400 
 21 C        1.1240    10.8090     1.0560 C.3   1 <1>   0.1400 
 22 N        1.1060    11.6380    -0.1820 N.am  1 <1>  -0.6600 
 23 C        2.0570    12.5750    -0.5090 C.2   1 <1>   0.6300 
 24 O        1.9560    13.2750    -1.4890 O.2   1 <1>  -0.5700 
 25 C        3.2870    12.7690     0.3750 C.3   1 <1>  -0.1000 
 26 C        4.6400    13.0320    -0.2230 C.3   1 <1>  -0.2000 
 27 C        4.3650    11.7240     0.4470 C.3   1 <1>  -0.2000 
 28 H       -0.4260     2.1440     0.7290 H     1 <1>   0.3700 
 29 H        0.2880     3.6660    -2.7960 H     1 <1>   0.0800 
 30 H        1.9280     3.8360    -2.2100 H     1 <1>   0.0800 
 31 H       -0.7860     4.5780     1.2110 H     1 <1>   0.0800 
 32 H       -1.4240     5.0880    -1.6550 H     1 <1>   0.0800 
 33 H       -2.3540     2.4500    -1.4640 H     1 <1>   0.1500 
 34 H       -3.0030     4.9460     1.9470 H     1 <1>   0.1500 
 35 H       -4.7130     1.8220    -1.4440 H     1 <1>   0.1500 
 36 H       -5.3590     4.3030     1.9560 H     1 <1>   0.1500 
 37 H        0.7560     7.3310    -1.2050 H     1 <1>   0.3700 
 38 H       -6.2260     2.7410     0.2640 H     1 <1>   0.1500 
 39 H       -1.0070     9.1960     0.3400 H     1 <1>   0.0800 
 40 H        0.7530     9.6950    -2.0760 H     1 <1>   0.0800 
 41 H       -0.9930     9.7230    -2.0340 H     1 <1>   0.0800 
 42 H        1.0400     8.7350     1.5720 H     1 <1>   0.0800 
 43 H        2.0170     9.0850     0.1670 H     1 <1>   0.0800 
 44 H       -0.9660    11.6560    -0.5440 H     1 <1>   0.0800 
 45 H       -0.0070    11.9940    -1.9580 H     1 <1>   0.0800 
 46 H        1.9910    11.0140     1.6560 H     1 <1>   0.0800 
 47 H        0.2530    11.0470     1.6450 H     1 <1>   0.0800 
 48 H        3.0440    13.3160     1.2670 H     1 <1>   0.1000 
 49 H        4.7220    13.0650    -1.2970 H     1 <1>   0.1000 
 50 H        5.2840    13.7460     0.2600 H     1 <1>   0.1000 
 51 H        4.8290    11.5210     1.3960 H     1 <1>   0.1000 
 52 H        4.2790    10.8450    -0.1700 H     1 <1>   0.1000 
@<TRIPOS>BOND
  1   1   2  2   
  2   2   3  am  
  3   2   4  1   
  4   3   5  1   
  5   3  28  1   
  6   4   6  1   
  7   4  29  1   
  8   4  30  1   
  9   5   7  1   
 10   5   8  1   
 11   5  31  1   
 12   6   8  1   
 13   7   9  ar  
 14   7  10  ar  
 15   8  11  1   
 16   8  32  1   
 17   9  12  ar  
 18   9  33  1   
 19  10  13  ar  
 20  10  34  1   
 21  11  14  2   
 22  11  15  am  
 23  12  16  ar  
 24  12  35  1   
 25  13  16  ar  
 26  13  36  1   
 27  15  17  1   
 28  15  37  1   
 29  16  38  1   
 30  17  18  1   
 31  17  19  1   
 32  17  39  1   
 33  18  20  1   
 34  18  40  1   
 35  18  41  1   
 36  19  21  1   
 37  19  42  1   
 38  19  43  1   
 39  20  22  1   
 40  20  44  1   
 41  20  45  1   
 42  21  22  1   
 43  21  46  1   
 44  21  47  1   
 45  22  23  am  
 46  23  24  2   
 47  23  25  1   
 48  25  26  1   
 49  25  27  1   
 50  25  48  1   
 51  26  27  1   
 52  26  49  1   
 53  26  50  1   
 54  27  51  1   
 55  27  52  1   
@<TRIPOS>SUBSTRUCTURE
  1 ****  15 GROUP 4 **** **** 0

# MOE 2024.06 (io_trps.svl 2023.06)
