@<TRIPOS>MOLECULE
NONAME
52 55 1 0 0 
SMALL
USER_CHARGES


@<TRIPOS>ATOM
  1 O       -0.7580    -2.1140    -2.4780 O.2   1 <1>  -0.5700 
  2 C        0.0240    -2.6030    -1.6980 C.2   1 <1>   0.5690 
  3 N       -0.3580    -3.3750    -0.6350 N.am  1 <1>  -0.6600 
  4 C        1.5080    -2.3580    -1.8880 C.3   1 <1>  -0.0990 
  5 C        0.6640    -3.9430     0.2810 C.3   1 <1>   0.1400 
  6 C       -1.7830    -3.6570    -0.3160 C.3   1 <1>   0.0600 
  7 C        2.3000    -3.6690    -1.7210 C.3   1 <1>  -0.0800 
  8 C        1.8250    -4.5390    -0.5360 C.3   1 <1>  -0.0800 
  9 C        3.8030    -3.4500    -1.5150 C.3   1 <1>  -0.1600 
 10 C        3.0740    -4.8100     0.3130 C.3   1 <1>  -0.1600 
 11 C        4.2490    -4.6230    -0.6430 C.3   1 <1>   0.2200 
 12 N        5.5220    -4.3730     0.0840 N.am  1 <1>  -0.6600 
 13 C        6.5230    -3.6800    -0.5520 C.2   1 <1>   0.5440 
 14 C        5.9420    -5.4870     0.9770 C.3   1 <1>   0.0600 
 15 O        7.2150    -4.2930    -1.3460 O.2   1 <1>  -0.5700 
 16 C        6.7570    -2.2710    -0.2870 C.ar  1 <1>   0.0860 
 17 C        7.6500    -1.5280    -1.0610 C.ar  1 <1>  -0.1500 
 18 C        6.1110    -1.5890     0.7470 C.ar  1 <1>  -0.1500 
 19 C        7.8880    -0.1890    -0.8180 C.ar  1 <1>  -0.1500 
 20 C        6.3480    -0.2500     0.9940 C.ar  1 <1>  -0.1500 
 21 C        7.2450     0.4800     0.2200 C.ar  1 <1>   0.1170 
 22 N        7.5100     1.8350     0.4790 N.am  1 <1>  -0.4770 
 23 C        6.7300     2.7910     1.0950 C.2   1 <1>   0.6900 
 24 C        8.8510     2.4460     0.2350 C.3   1 <1>   0.2010 
 25 O        5.5770     2.6690     1.4430 O.2   1 <1>  -0.5700 
 26 N        7.4130     3.9400     1.2790 N.am  1 <1>  -0.4900 
 27 C        8.6690     3.8340     0.8130 C.2   1 <1>   0.5690 
 28 O        9.5060     4.6970     0.8470 O.2   1 <1>  -0.5700 
 29 H        1.6840    -1.9410    -2.8620 H     1 <1>   0.0800 
 30 H        1.8130    -1.6350    -1.1540 H     1 <1>   0.0800 
 31 H        1.0230    -3.1520     0.9170 H     1 <1>   0.0800 
 32 H        0.2260    -4.7060     0.9010 H     1 <1>   0.0800 
 33 H       -2.0160    -3.2890     0.6670 H     1 <1>   0.0800 
 34 H       -1.9600    -4.7180    -0.3520 H     1 <1>   0.0800 
 35 H       -2.4310    -3.1750    -1.0270 H     1 <1>   0.0800 
 36 H        2.1630    -4.2500    -2.6190 H     1 <1>   0.0800 
 37 H        1.4860    -5.4790    -0.9400 H     1 <1>   0.0800 
 38 H        3.9630    -2.5280    -0.9850 H     1 <1>   0.0800 
 39 H        4.3320    -3.4280    -2.4520 H     1 <1>   0.0800 
 40 H        3.0540    -5.8000     0.7320 H     1 <1>   0.0800 
 41 H        3.1490    -4.0820     1.1020 H     1 <1>   0.0800 
 42 H        4.3570    -5.5000    -1.2620 H     1 <1>   0.0800 
 43 H        5.3290    -5.5010     1.8610 H     1 <1>   0.0800 
 44 H        6.9700    -5.3560     1.2710 H     1 <1>   0.0800 
 45 H        5.8510    -6.4260     0.4600 H     1 <1>   0.0800 
 46 H        8.1650    -2.0190    -1.8700 H     1 <1>   0.1500 
 47 H        5.4130    -2.1190     1.3700 H     1 <1>   0.1500 
 48 H        8.5800     0.3330    -1.4520 H     1 <1>   0.1500 
 49 H        5.8280     0.2300     1.8040 H     1 <1>   0.1500 
 50 H        9.6190     1.9090     0.7620 H     1 <1>   0.0800 
 51 H        9.0650     2.5040    -0.8160 H     1 <1>   0.0800 
 52 H        7.0130     4.7630     1.7170 H     1 <1>   0.3700 
@<TRIPOS>BOND
  1   1   2  2   
  2   2   3  am  
  3   2   4  1   
  4   3   5  1   
  5   3   6  1   
  6   4   7  1   
  7   4  29  1   
  8   4  30  1   
  9   5   8  1   
 10   5  31  1   
 11   5  32  1   
 12   6  33  1   
 13   6  34  1   
 14   6  35  1   
 15   7   8  1   
 16   7   9  1   
 17   7  36  1   
 18   8  10  1   
 19   8  37  1   
 20   9  11  1   
 21   9  38  1   
 22   9  39  1   
 23  10  11  1   
 24  10  40  1   
 25  10  41  1   
 26  11  12  1   
 27  11  42  1   
 28  12  13  am  
 29  12  14  1   
 30  13  15  2   
 31  13  16  1   
 32  14  43  1   
 33  14  44  1   
 34  14  45  1   
 35  16  17  ar  
 36  16  18  ar  
 37  17  19  ar  
 38  17  46  1   
 39  18  20  ar  
 40  18  47  1   
 41  19  21  ar  
 42  19  48  1   
 43  20  21  ar  
 44  20  49  1   
 45  21  22  1   
 46  22  23  am  
 47  22  24  1   
 48  23  25  2   
 49  23  26  am  
 50  24  27  1   
 51  24  50  1   
 52  24  51  1   
 53  26  27  am  
 54  26  52  1   
 55  27  28  2   
@<TRIPOS>SUBSTRUCTURE
  1 ****  18 GROUP 4 **** **** 0

# MOE 2024.06 (io_trps.svl 2023.06)
