@<TRIPOS>MOLECULE
NONAME
47 49 1 0 0 
SMALL
USER_CHARGES


@<TRIPOS>ATOM
  1 O       -3.6940     0.0130    -2.6890 O.2   1 <1>  -0.5700 
  2 C       -3.3450    -0.5550    -1.6920 C.2   1 <1>   0.5690 
  3 N       -2.9030     0.1430    -0.6310 N.am  1 <1>  -0.7300 
  4 C       -3.4360    -2.0550    -1.6160 C.3   1 <1>  -0.0190 
  5 C       -2.4520    -0.4360     0.6550 C.3   1 <1>   0.2200 
  6 C       -2.0500    -2.7010    -1.4010 C.3   1 <1>   0.1200 
  7 C       -4.5350    -2.4270    -0.6120 C.3   1 <1>   0.3430 
  8 C       -1.2410    -1.3750     0.4280 C.3   1 <1>   0.1200 
  9 C       -3.6410    -1.1160     1.3930 C.3   1 <1>   0.3430 
 10 O       -1.6080    -2.6370    -0.0700 O.3   1 <1>  -0.5600 
 11 N       -4.0830    -2.4370     0.8210 N.4   1 <1>  -0.9590 
 12 C       -5.0590    -3.1370     1.6980 C.3   1 <1>   0.4860 
 13 C       -5.1370    -4.5920     1.2850 C.ar  1 <1>  -0.1430 
 14 C       -6.2000    -5.0270     0.5010 C.ar  1 <1>   0.0830 
 15 C       -4.1570    -5.4890     1.6820 C.ar  1 <1>  -0.1500 
 16 O       -7.1150    -4.0940     0.1300 O.3   1 <1>  -0.3630 
 17 C       -6.2760    -6.3640     0.1240 C.ar  1 <1>  -0.1500 
 18 C       -4.2360    -6.8160     1.3000 C.ar  1 <1>  -0.1500 
 19 C       -8.3040    -4.4580    -0.5380 C.3   1 <1>   0.1200 
 20 C       -5.2940    -7.2530     0.5240 C.ar  1 <1>  -0.1500 
 21 C       -9.1420    -3.1950    -0.7450 C.3   1 <1>  -0.1600 
 22 C      -10.4520    -3.5120    -1.4730 C.3   1 <1>  -0.2400 
 23 H       -2.8180     1.1570    -0.7650 H     1 <1>   0.3700 
 24 H       -3.7800    -2.3750    -2.5840 H     1 <1>   0.0800 
 25 H       -2.1150     0.3860     1.2640 H     1 <1>   0.0800 
 26 H       -1.3090    -2.2400    -2.0350 H     1 <1>   0.0800 
 27 H       -2.1010    -3.7450    -1.6590 H     1 <1>   0.0800 
 28 H       -4.8800    -3.4150    -0.8710 H     1 <1>   0.0800 
 29 H       -5.3720    -1.7570    -0.7290 H     1 <1>   0.0800 
 30 H       -0.7490    -1.5500     1.3690 H     1 <1>   0.0800 
 31 H       -0.5240    -0.9270    -0.2400 H     1 <1>   0.0800 
 32 H       -4.4720    -0.4300     1.4080 H     1 <1>   0.0800 
 33 H       -3.3360    -1.2760     2.4140 H     1 <1>   0.0800 
 34 H       -3.2240    -3.0210     0.7940 H     1 <1>   0.4500 
 35 H       -4.7410    -3.0830     2.7250 H     1 <1>   0.0800 
 36 H       -6.0310    -2.6760     1.6180 H     1 <1>   0.0800 
 37 H       -3.3270    -5.1730     2.2910 H     1 <1>   0.1500 
 38 H       -7.0840    -6.7360    -0.4790 H     1 <1>   0.1500 
 39 H       -3.4750    -7.5150     1.6090 H     1 <1>   0.1500 
 40 H       -8.0460    -4.9000    -1.4850 H     1 <1>   0.0800 
 41 H       -8.8350    -5.1700     0.0720 H     1 <1>   0.0800 
 42 H       -5.3530    -8.2880     0.2320 H     1 <1>   0.1500 
 43 H       -9.3700    -2.7590     0.2120 H     1 <1>   0.0800 
 44 H       -8.5810    -2.4850    -1.3260 H     1 <1>   0.0800 
 45 H      -11.0430    -4.2090    -0.9050 H     1 <1>   0.0800 
 46 H      -10.2540    -3.9350    -2.4430 H     1 <1>   0.0800 
 47 H      -11.0250    -2.6110    -1.6070 H     1 <1>   0.0800 
@<TRIPOS>BOND
  1   1   2  2   
  2   2   3  am  
  3   2   4  1   
  4   3   5  1   
  5   3  23  1   
  6   4   6  1   
  7   4   7  1   
  8   4  24  1   
  9   5   8  1   
 10   5   9  1   
 11   5  25  1   
 12   6  10  1   
 13   6  26  1   
 14   6  27  1   
 15   7  11  1   
 16   7  28  1   
 17   7  29  1   
 18   8  10  1   
 19   8  30  1   
 20   8  31  1   
 21   9  11  1   
 22   9  32  1   
 23   9  33  1   
 24  11  12  1   
 25  11  34  1   
 26  12  13  1   
 27  12  35  1   
 28  12  36  1   
 29  13  14  ar  
 30  13  15  ar  
 31  14  16  1   
 32  14  17  ar  
 33  15  18  ar  
 34  15  37  1   
 35  16  19  1   
 36  17  20  ar  
 37  17  38  1   
 38  18  20  ar  
 39  18  39  1   
 40  19  21  1   
 41  19  40  1   
 42  19  41  1   
 43  20  42  1   
 44  21  22  1   
 45  21  43  1   
 46  21  44  1   
 47  22  45  1   
 48  22  46  1   
 49  22  47  1   
@<TRIPOS>SUBSTRUCTURE
  1 ****   7 GROUP 4 **** **** 0

# MOE 2024.06 (io_trps.svl 2023.06)
