@<TRIPOS>MOLECULE
NONAME
50 53 1 0 0 
SMALL
USER_CHARGES


@<TRIPOS>ATOM
  1 O        0.6770    -0.0470     0.7700 O.3   1 <1>  -0.6800 
  2 C        1.4630    -0.0320    -0.3810 C.3   1 <1>   0.2000 
  3 C        2.3610    -1.2780    -0.4380 C.3   1 <1>  -0.0800 
  4 C        2.4460     1.1450    -0.3160 C.3   1 <1>   0.2090 
  5 C        3.5940    -0.8800     0.3790 C.3   1 <1>   0.2090 
  6 C        1.7060    -2.5940     0.0350 C.3   1 <1>  -0.0170 
  7 N        3.7350     0.5720     0.1480 N.pl3 1 <1>  -0.8380 
  8 C        2.5110    -3.8820    -0.1790 C.ar  1 <1>  -0.1440 
  9 C        4.9330     1.2390     0.0720 C.ar  1 <1>   0.7200 
 10 C        2.0600    -5.0960     0.3990 C.ar  1 <1>   0.0000 
 11 C        3.6590    -3.9420    -0.9210 C.ar  1 <1>  -0.1500 
 12 N        6.0250     0.5590     0.4150 N.ar  1 <1>  -0.6200 
 13 N        4.8890     2.5030    -0.3410 N.ar  1 <1>  -0.6200 
 14 C        2.8320    -6.2640     0.1840 C.ar  1 <1>   0.3100 
 15 C        0.8820    -5.2220     1.1750 C.ar  1 <1>  -0.1500 
 16 C        4.3460    -5.1520    -1.0720 C.ar  1 <1>   0.1600 
 17 C        7.1560     1.2170     0.3510 C.ar  1 <1>   0.1600 
 18 C        6.0370     3.1320    -0.3950 C.ar  1 <1>   0.1600 
 19 N        3.9710    -6.2760    -0.5510 N.ar  1 <1>  -0.6200 
 20 C        2.4080    -7.4780     0.7500 C.ar  1 <1>  -0.1500 
 21 C        0.4960    -6.4200     1.7110 C.ar  1 <1>  -0.1500 
 22 C        7.2270     2.5300    -0.0550 C.ar  1 <1>  -0.1440 
 23 C        1.2670    -7.5640     1.4990 C.ar  1 <1>  -0.1500 
 24 C        8.5480     3.2780    -0.1190 C.3   1 <1>  -0.0170 
 25 C        8.8350     3.9730     1.2160 C.3   1 <1>  -0.1600 
 26 C       10.1630     4.7370     1.1780 C.3   1 <1>  -0.2400 
 27 H       -0.0020    -0.7440     0.7160 H     1 <1>   0.4000 
 28 H        0.8090     0.0500    -1.2310 H     1 <1>   0.0800 
 29 H        2.6680    -1.3850    -1.4620 H     1 <1>   0.0800 
 30 H        2.1040     1.9110     0.3590 H     1 <1>   0.0800 
 31 H        2.5830     1.5650    -1.2970 H     1 <1>   0.0800 
 32 H        4.4730    -1.4170     0.0690 H     1 <1>   0.0800 
 33 H        3.4270    -1.0450     1.4300 H     1 <1>   0.0800 
 34 H        0.7650    -2.7080    -0.4740 H     1 <1>   0.0800 
 35 H        1.5040    -2.4990     1.0880 H     1 <1>   0.0800 
 36 H        4.0820    -3.0900    -1.4150 H     1 <1>   0.1500 
 37 H        0.2680    -4.3600     1.3520 H     1 <1>   0.1500 
 38 H        5.2480    -5.1460    -1.6610 H     1 <1>   0.1500 
 39 H        8.0540     0.6940     0.6310 H     1 <1>   0.1500 
 40 H        6.0280     4.1580    -0.7190 H     1 <1>   0.1500 
 41 H        3.0170    -8.3440     0.5710 H     1 <1>   0.1500 
 42 H       -0.4020    -6.4980     2.3000 H     1 <1>   0.1500 
 43 H        0.9540    -8.5020     1.9260 H     1 <1>   0.1500 
 44 H        9.3430     2.5890    -0.3490 H     1 <1>   0.0800 
 45 H        8.5110     4.0080    -0.9090 H     1 <1>   0.0800 
 46 H        8.0370     4.6600     1.4420 H     1 <1>   0.0800 
 47 H        8.8700     3.2390     2.0030 H     1 <1>   0.0800 
 48 H       10.1420     5.4950     0.4150 H     1 <1>   0.0800 
 49 H       10.9800     4.0650     0.9790 H     1 <1>   0.0800 
 50 H       10.3380     5.2140     2.1270 H     1 <1>   0.0800 
@<TRIPOS>BOND
  1   1   2  1   
  2   1  27  1   
  3   2   3  1   
  4   2   4  1   
  5   2  28  1   
  6   3   5  1   
  7   3   6  1   
  8   3  29  1   
  9   4   7  1   
 10   4  30  1   
 11   4  31  1   
 12   5   7  1   
 13   5  32  1   
 14   5  33  1   
 15   6   8  1   
 16   6  34  1   
 17   6  35  1   
 18   7   9  1   
 19   8  10  ar  
 20   8  11  ar  
 21   9  12  ar  
 22   9  13  ar  
 23  10  14  ar  
 24  10  15  ar  
 25  11  16  ar  
 26  11  36  1   
 27  12  17  ar  
 28  13  18  ar  
 29  14  19  ar  
 30  14  20  ar  
 31  15  21  ar  
 32  15  37  1   
 33  16  19  ar  
 34  16  38  1   
 35  17  22  ar  
 36  17  39  1   
 37  18  22  ar  
 38  18  40  1   
 39  20  23  ar  
 40  20  41  1   
 41  21  23  ar  
 42  21  42  1   
 43  22  24  1   
 44  23  43  1   
 45  24  25  1   
 46  24  44  1   
 47  24  45  1   
 48  25  26  1   
 49  25  46  1   
 50  25  47  1   
 51  26  48  1   
 52  26  49  1   
 53  26  50  1   
@<TRIPOS>SUBSTRUCTURE
  1 ****   5 GROUP 4 **** **** 0

# MOE 2024.06 (io_trps.svl 2023.06)
