@<TRIPOS>MOLECULE
NONAME
46 49 1 0 0 
SMALL
USER_CHARGES


@<TRIPOS>ATOM
  1 O       -0.6790     0.3540     0.1010 O.2   1 <1>  -0.5700 
  2 C       -1.7350     0.8420    -0.2260 C.2   1 <1>   0.5690 
  3 N       -2.8270     0.0500    -0.4590 N.am  1 <1>  -0.6600 
  4 C       -1.8420     2.3590    -0.3650 C.3   1 <1>  -0.0190 
  5 C       -4.1840     0.4880    -0.8740 C.3   1 <1>   0.1400 
  6 C       -2.7810    -1.4210    -0.2910 C.3   1 <1>   0.1400 
  7 C       -0.5180     3.0990    -0.6560 C.3   1 <1>  -0.0170 
  8 C       -2.4210     3.0380     0.8900 C.3   1 <1>  -0.0170 
  9 C       -4.9820    -0.8040    -1.0530 C.3   1 <1>   0.2000 
 10 C       -4.2430    -1.8650    -0.2400 C.3   1 <1>  -0.0800 
 11 C       -0.7620     4.4580    -0.0450 C.ar  1 <1>  -0.1440 
 12 C       -1.8260     4.4230     0.8220 C.ar  1 <1>  -0.1440 
 13 O       -6.2800    -0.6660    -0.5890 O.3   1 <1>  -0.6800 
 14 C       -4.4760    -3.2900    -0.7640 C.3   1 <1>  -0.0170 
 15 C       -0.0660     5.6320    -0.2630 C.ar  1 <1>  -0.1500 
 16 C       -2.2260     5.5610     1.4980 C.ar  1 <1>  -0.1500 
 17 C       -3.7240    -4.3120     0.0740 C.ar  1 <1>  -0.1440 
 18 C       -0.4600     6.7790     0.4090 C.ar  1 <1>  -0.1500 
 19 C       -1.5350     6.7430     1.2850 C.ar  1 <1>  -0.1500 
 20 C       -4.2410    -4.7960     1.2580 C.ar  1 <1>  -0.1500 
 21 C       -2.4910    -4.8080    -0.3000 C.ar  1 <1>  -0.1500 
 22 C       -3.5200    -5.7240     1.9920 C.ar  1 <1>   0.1600 
 23 C       -1.8520    -5.7340     0.5080 C.ar  1 <1>   0.1600 
 24 N       -2.3370    -6.2030     1.6460 N.ar  1 <1>  -0.6200 
 25 H       -2.4950     2.5870    -1.1860 H     1 <1>   0.0800 
 26 H       -4.6150     1.1010    -0.1020 H     1 <1>   0.0800 
 27 H       -4.1380     1.0310    -1.8020 H     1 <1>   0.0800 
 28 H       -2.2750    -1.8500    -1.1390 H     1 <1>   0.0800 
 29 H       -2.2540    -1.6910     0.6100 H     1 <1>   0.0800 
 30 H       -0.3210     3.1590    -1.7110 H     1 <1>   0.0800 
 31 H        0.3150     2.6390    -0.1540 H     1 <1>   0.0800 
 32 H       -2.0770     2.5460     1.7830 H     1 <1>   0.0800 
 33 H       -3.4950     3.0640     0.8720 H     1 <1>   0.0800 
 34 H       -5.0210    -1.0650    -2.0970 H     1 <1>   0.0800 
 35 H       -4.5540    -1.8090     0.7890 H     1 <1>   0.0800 
 36 H       -6.2840    -0.4920     0.3720 H     1 <1>   0.4000 
 37 H       -4.1610    -3.3620    -1.7910 H     1 <1>   0.0800 
 38 H       -5.5290    -3.5130    -0.7340 H     1 <1>   0.0800 
 39 H        0.7680     5.6540    -0.9410 H     1 <1>   0.1500 
 40 H       -3.0590     5.5290     2.1780 H     1 <1>   0.1500 
 41 H        0.0720     7.7000     0.2500 H     1 <1>   0.1500 
 42 H       -1.8330     7.6380     1.8030 H     1 <1>   0.1500 
 43 H       -5.1970    -4.4630     1.6180 H     1 <1>   0.1500 
 44 H       -2.0190    -4.4850    -1.2100 H     1 <1>   0.1500 
 45 H       -3.9390    -6.0900     2.9140 H     1 <1>   0.1500 
 46 H       -0.8900    -6.1080     0.2020 H     1 <1>   0.1500 
@<TRIPOS>BOND
  1   1   2  2   
  2   2   3  am  
  3   2   4  1   
  4   3   5  1   
  5   3   6  1   
  6   4   7  1   
  7   4   8  1   
  8   4  25  1   
  9   5   9  1   
 10   5  26  1   
 11   5  27  1   
 12   6  10  1   
 13   6  28  1   
 14   6  29  1   
 15   7  11  1   
 16   7  30  1   
 17   7  31  1   
 18   8  12  1   
 19   8  32  1   
 20   8  33  1   
 21   9  10  1   
 22   9  13  1   
 23   9  34  1   
 24  10  14  1   
 25  10  35  1   
 26  11  12  ar  
 27  11  15  ar  
 28  12  16  ar  
 29  13  36  1   
 30  14  17  1   
 31  14  37  1   
 32  14  38  1   
 33  15  18  ar  
 34  15  39  1   
 35  16  19  ar  
 36  16  40  1   
 37  17  20  ar  
 38  17  21  ar  
 39  18  19  ar  
 40  18  41  1   
 41  19  42  1   
 42  20  22  ar  
 43  20  43  1   
 44  21  23  ar  
 45  21  44  1   
 46  22  24  ar  
 47  22  45  1   
 48  23  24  ar  
 49  23  46  1   
@<TRIPOS>SUBSTRUCTURE
  1 ****   3 GROUP 4 **** **** 0

# MOE 2024.06 (io_trps.svl 2023.06)
