@<TRIPOS>MOLECULE
NONAME
66 69 1 0 0 
SMALL
USER_CHARGES


@<TRIPOS>ATOM
  1 O        2.5160    -0.8900     3.2080 O.2   1 <1>  -0.5700 
  2 C        3.1080    -0.6270     2.2070 C.2   1 <1>   0.4480 
  3 C        4.3030    -1.4430     1.7530 C.3   1 <1>  -0.0990 
  4 C        2.7140     0.5450     1.3310 C.3   1 <1>  -0.0990 
  5 C        5.1710    -0.6920     0.7200 C.3   1 <1>  -0.0800 
  6 C        3.8960     1.4780     0.9890 C.3   1 <1>  -0.1600 
  7 C        5.3110     0.8250     1.0370 C.3   1 <1>   0.0000 
  8 C        6.5290    -1.3960     0.5590 C.3   1 <1>  -0.1600 
  9 C        6.2260     1.4760    -0.0530 C.3   1 <1>  -0.0800 
 10 C        5.8950     1.0400     2.4600 C.3   1 <1>  -0.2400 
 11 C        7.4340    -0.7150    -0.4700 C.3   1 <1>   0.2000 
 12 C        7.6130     0.8040    -0.2000 C.3   1 <1>  -0.0800 
 13 C        6.4070     2.9910     0.0990 C.3   1 <1>  -0.1600 
 14 O        6.8760    -0.9070    -1.7210 O.3   1 <1>  -0.6800 
 15 C        8.4710     1.5660    -1.2600 C.3   1 <1>  -0.0800 
 16 C        7.3270     3.6000    -0.9640 C.3   1 <1>   0.2000 
 17 C        8.8670     3.0970    -0.8470 C.3   1 <1>   0.0000 
 18 C        9.6410     0.7040    -1.7550 C.3   1 <1>  -0.1600 
 19 O        6.7540     3.4770    -2.2280 O.3   1 <1>  -0.6800 
 20 C       10.4170     2.6740    -0.8050 C.3   1 <1>  -0.0800 
 21 C        9.2600     4.5640    -0.3250 C.3   1 <1>  -0.2400 
 22 C       10.7100     1.7070    -1.9420 C.3   1 <1>  -0.1600 
 23 C       10.9280     2.1030     0.5770 C.3   1 <1>  -0.0800 
 24 C       12.4630     2.2380     0.6830 C.3   1 <1>  -0.1600 
 25 C       10.2700     2.6890     1.8460 C.3   1 <1>  -0.2400 
 26 C       13.0770     1.4640     1.8650 C.3   1 <1>  -0.2660 
 27 C       14.5860     1.4920     1.8290 C.2   1 <1>   0.9060 
 28 O       15.1820     0.5290     1.3390 O.co2 1 <1>  -0.9000 
 29 O       15.1650     2.4800     2.2890 O.co2 1 <1>  -0.9000 
 30 H        4.8840    -1.6860     2.6240 H     1 <1>   0.0800 
 31 H        3.9510    -2.3650     1.3280 H     1 <1>   0.0800 
 32 H        2.3070     0.1430     0.4210 H     1 <1>   0.0800 
 33 H        1.9340     1.1060     1.8140 H     1 <1>   0.0800 
 34 H        4.6630    -0.7720    -0.2270 H     1 <1>   0.0800 
 35 H        3.8710     2.3230     1.6550 H     1 <1>   0.0800 
 36 H        3.7050     1.8670     0.0030 H     1 <1>   0.0800 
 37 H        6.3820    -2.4200     0.2650 H     1 <1>   0.0800 
 38 H        7.0450    -1.4110     1.5020 H     1 <1>   0.0800 
 39 H        5.7200     1.3460    -0.9950 H     1 <1>   0.0800 
 40 H        5.2730     0.6000     3.2170 H     1 <1>   0.0800 
 41 H        5.9630     2.0850     2.7000 H     1 <1>   0.0800 
 42 H        6.8770     0.6170     2.5600 H     1 <1>   0.0800 
 43 H        8.3770    -1.2310    -0.4640 H     1 <1>   0.0800 
 44 H        8.1370     0.8880     0.7330 H     1 <1>   0.0800 
 45 H        6.8420     3.2140     1.0540 H     1 <1>   0.0800 
 46 H        5.4590     3.4930     0.0510 H     1 <1>   0.0800 
 47 H        6.2010    -0.2200    -1.8780 H     1 <1>   0.4000 
 48 H        7.8880     1.5480    -2.1590 H     1 <1>   0.0800 
 49 H        7.1730     4.6560    -0.8080 H     1 <1>   0.0800 
 50 H        9.9700    -0.0230    -1.0380 H     1 <1>   0.0800 
 51 H        9.4160     0.1930    -2.6760 H     1 <1>   0.0800 
 52 H        7.3630     3.8380    -2.8990 H     1 <1>   0.4000 
 53 H       11.0960     3.4640    -1.0910 H     1 <1>   0.0800 
 54 H       10.2330     4.7640     0.0910 H     1 <1>   0.0800 
 55 H        8.6420     4.8720     0.5050 H     1 <1>   0.0800 
 56 H        9.1620     5.2770    -1.1280 H     1 <1>   0.0800 
 57 H       10.5860     2.2060    -2.8880 H     1 <1>   0.0800 
 58 H       11.6870     1.2610    -1.9050 H     1 <1>   0.0800 
 59 H       10.7130     1.0530     0.6210 H     1 <1>   0.0800 
 60 H       12.9310     1.8650    -0.2100 H     1 <1>   0.0800 
 61 H       12.7370     3.2760     0.7710 H     1 <1>   0.0800 
 62 H       10.6140     3.6910     2.0310 H     1 <1>   0.0800 
 63 H       10.5240     2.0930     2.7030 H     1 <1>   0.0800 
 64 H        9.2000     2.6900     1.7720 H     1 <1>   0.0800 
 65 H       12.7690     0.4370     1.8390 H     1 <1>   0.0800 
 66 H       12.7790     1.8930     2.8010 H     1 <1>   0.0800 
@<TRIPOS>BOND
  1   1   2  2   
  2   2   3  1   
  3   2   4  1   
  4   3   5  1   
  5   3  30  1   
  6   3  31  1   
  7   4   6  1   
  8   4  32  1   
  9   4  33  1   
 10   5   7  1   
 11   5   8  1   
 12   5  34  1   
 13   6   7  1   
 14   6  35  1   
 15   6  36  1   
 16   7   9  1   
 17   7  10  1   
 18   8  11  1   
 19   8  37  1   
 20   8  38  1   
 21   9  12  1   
 22   9  13  1   
 23   9  39  1   
 24  10  40  1   
 25  10  41  1   
 26  10  42  1   
 27  11  12  1   
 28  11  14  1   
 29  11  43  1   
 30  12  15  1   
 31  12  44  1   
 32  13  16  1   
 33  13  45  1   
 34  13  46  1   
 35  14  47  1   
 36  15  17  1   
 37  15  18  1   
 38  15  48  1   
 39  16  17  1   
 40  16  19  1   
 41  16  49  1   
 42  17  20  1   
 43  17  21  1   
 44  18  22  1   
 45  18  50  1   
 46  18  51  1   
 47  19  52  1   
 48  20  22  1   
 49  20  23  1   
 50  20  53  1   
 51  21  54  1   
 52  21  55  1   
 53  21  56  1   
 54  22  57  1   
 55  22  58  1   
 56  23  24  1   
 57  23  25  1   
 58  23  59  1   
 59  24  26  1   
 60  24  60  1   
 61  24  61  1   
 62  25  62  1   
 63  25  63  1   
 64  25  64  1   
 65  26  27  1   
 66  26  65  1   
 67  26  66  1   
 68  27  28  ar  
 69  27  29  ar  
@<TRIPOS>SUBSTRUCTURE
  1 ****  12 GROUP 4 **** **** 0

# MOE 2024.06 (io_trps.svl 2023.06)
