@<TRIPOS>MOLECULE
NONAME
42 43 1 0 0 
SMALL
USER_CHARGES


@<TRIPOS>ATOM
  1 O       -0.5200     0.1930     1.3310 O.2   1 <1>  -0.5700 
  2 C       -1.3890     0.7340     0.6710 C.2   1 <1>   0.5440 
  3 N       -2.3150    -0.0480     0.0200 N.am  1 <1>  -0.6600 
  4 C       -1.4190     2.1810     0.5870 C.ar  1 <1>   0.0860 
  5 C       -2.5270    -1.4850     0.4050 C.3   1 <1>   0.1400 
  6 C       -3.1950     0.4300    -1.0820 C.3   1 <1>   0.1400 
  7 C       -2.5640     2.9050     0.9190 C.ar  1 <1>  -0.1500 
  8 C       -0.2980     2.9000     0.1740 C.ar  1 <1>  -0.1500 
  9 C       -3.9800    -1.9650     0.1850 C.3   1 <1>   0.2000 
 10 C       -4.6730     0.3470    -0.6700 C.3   1 <1>  -0.1600 
 11 C       -2.5950     4.2830     0.8210 C.ar  1 <1>  -0.1500 
 12 C       -0.3190     4.2790     0.0740 C.ar  1 <1>  -0.1500 
 13 O       -4.1140    -2.5030    -1.0860 O.3   1 <1>  -0.6800 
 14 C       -4.9790    -0.8070     0.3200 C.3   1 <1>  -0.1860 
 15 C       -1.4770     4.9820     0.3960 C.ar  1 <1>   0.0820 
 16 C       -6.4020    -1.3130     0.1950 C.2   1 <1>   0.9060 
 17 O       -1.5890     6.3270     0.3220 O.3   1 <1>  -0.3630 
 18 O       -7.2160    -1.0160     1.0710 O.co2 1 <1>  -0.9000 
 19 O       -6.6940    -2.0160    -0.7830 O.co2 1 <1>  -0.9000 
 20 C       -0.5070     7.1410    -0.0690 C.3   1 <1>   0.1200 
 21 C       -0.9670     8.5990    -0.0320 C.3   1 <1>  -0.1600 
 22 C        0.1590     9.5510    -0.4480 C.3   1 <1>  -0.2400 
 23 H       -1.8490    -2.1130    -0.1450 H     1 <1>   0.0800 
 24 H       -2.2990    -1.5880     1.4500 H     1 <1>   0.0800 
 25 H       -2.9440     1.4320    -1.3820 H     1 <1>   0.0800 
 26 H       -3.0360    -0.2120    -1.9330 H     1 <1>   0.0800 
 27 H       -3.4340     2.3720     1.2600 H     1 <1>   0.1500 
 28 H        0.5980     2.3550    -0.0690 H     1 <1>   0.1500 
 29 H       -4.2190    -2.7480     0.8830 H     1 <1>   0.0800 
 30 H       -4.9900     1.2770    -0.2340 H     1 <1>   0.0800 
 31 H       -5.2540     0.2080    -1.5660 H     1 <1>   0.0800 
 32 H       -3.4860     4.8280     1.0760 H     1 <1>   0.1500 
 33 H        0.5690     4.7870    -0.2510 H     1 <1>   0.1500 
 34 H       -5.1020    -2.5130    -1.2620 H     1 <1>   0.4000 
 35 H       -4.8780    -0.4210     1.3170 H     1 <1>   0.0800 
 36 H        0.3040     6.9800     0.6190 H     1 <1>   0.0800 
 37 H       -0.2140     6.8600    -1.0660 H     1 <1>   0.0800 
 38 H       -1.8020     8.7230    -0.7000 H     1 <1>   0.0800 
 39 H       -1.2870     8.8420     0.9670 H     1 <1>   0.0800 
 40 H        0.4840     9.3370    -1.4510 H     1 <1>   0.0800 
 41 H        0.9990     9.4560     0.2180 H     1 <1>   0.0800 
 42 H       -0.1900    10.5680    -0.4130 H     1 <1>   0.0800 
@<TRIPOS>BOND
  1   1   2  2   
  2   2   3  am  
  3   2   4  1   
  4   3   5  1   
  5   3   6  1   
  6   4   7  ar  
  7   4   8  ar  
  8   5   9  1   
  9   5  23  1   
 10   5  24  1   
 11   6  10  1   
 12   6  25  1   
 13   6  26  1   
 14   7  11  ar  
 15   7  27  1   
 16   8  12  ar  
 17   8  28  1   
 18   9  13  1   
 19   9  14  1   
 20   9  29  1   
 21  10  14  1   
 22  10  30  1   
 23  10  31  1   
 24  11  15  ar  
 25  11  32  1   
 26  12  15  ar  
 27  12  33  1   
 28  13  34  1   
 29  14  16  1   
 30  14  35  1   
 31  15  17  1   
 32  16  18  ar  
 33  16  19  ar  
 34  17  20  1   
 35  20  21  1   
 36  20  36  1   
 37  20  37  1   
 38  21  22  1   
 39  21  38  1   
 40  21  39  1   
 41  22  40  1   
 42  22  41  1   
 43  22  42  1   
@<TRIPOS>SUBSTRUCTURE
  1 ****   7 GROUP 4 **** **** 0

# MOE 2024.06 (io_trps.svl 2023.06)
