@<TRIPOS>MOLECULE
NONAME
48 50 1 0 0 
SMALL
USER_CHARGES


@<TRIPOS>ATOM
  1 CL       0.3620    -1.2610    -0.2220 Cl    1 <1>  -0.1770 
  2 C       -1.2900    -1.8230    -0.2520 C.ar  1 <1>   0.1770 
  3 C       -1.8540    -2.2050    -1.4550 C.ar  1 <1>  -0.1500 
  4 C       -2.0090    -1.8780     0.9270 C.ar  1 <1>  -0.1500 
  5 C       -3.1660    -2.6480    -1.4760 C.ar  1 <1>  -0.1500 
  6 C       -3.3200    -2.3220     0.8990 C.ar  1 <1>  -0.1500 
  7 C       -3.9050    -2.7060    -0.3010 C.ar  1 <1>  -0.1430 
  8 C       -5.3470    -3.1850    -0.3260 C.3   1 <1>   0.2140 
  9 S       -5.3790    -4.9130     0.2220 S.3   1 <1>  -0.4600 
 10 C       -7.1280    -5.3580     0.1000 C.3   1 <1>   0.0700 
 11 C       -7.2630    -6.8150     0.5380 C.3   1 <1>  -0.1600 
 12 C       -8.7120    -7.2760     0.4300 C.3   1 <1>   0.2090 
 13 N       -8.8010    -8.6770     0.8710 N.pl3 1 <1>  -0.8690 
 14 C       -9.8440    -9.4750     0.5440 C.ar  1 <1>   0.7200 
 15 N       -9.5390   -10.7600     0.5040 N.ar  1 <1>  -0.6200 
 16 N      -11.0150    -8.8940     0.2980 N.ar  1 <1>  -0.6200 
 17 C      -10.5200   -11.5850     0.1870 C.ar  1 <1>   0.4100 
 18 C      -11.9930    -9.7230    -0.0080 C.ar  1 <1>   0.1600 
 19 N      -10.2080   -12.9380     0.1360 N.pl3 1 <1>  -0.8380 
 20 C      -11.7900   -11.0730    -0.0740 C.ar  1 <1>   0.1900 
 21 C      -10.4170   -13.7020    -1.1290 C.3   1 <1>   0.2090 
 22 C       -9.0570   -13.4690     0.9290 C.3   1 <1>   0.2090 
 23 F      -12.8040   -11.8590    -0.3740 F     1 <1>  -0.1900 
 24 C      -10.4580   -15.2160    -0.8510 C.3   1 <1>   0.1200 
 25 C       -9.1620   -14.9960     1.0910 C.3   1 <1>   0.1200 
 26 O       -9.3160   -15.6290    -0.1510 O.3   1 <1>  -0.5600 
 27 H       -1.2730    -2.1560    -2.3570 H     1 <1>   0.1500 
 28 H       -1.5460    -1.5800     1.8500 H     1 <1>   0.1500 
 29 H       -3.6070    -2.9520    -2.4100 H     1 <1>   0.1500 
 30 H       -3.8840    -2.3760     1.8150 H     1 <1>   0.1500 
 31 H       -5.7610    -3.1520    -1.3170 H     1 <1>   0.0800 
 32 H       -5.9610    -2.6190     0.3520 H     1 <1>   0.0800 
 33 H       -7.4250    -5.2210    -0.9260 H     1 <1>   0.0800 
 34 H       -7.6780    -4.6950     0.7440 H     1 <1>   0.0800 
 35 H       -6.9340    -6.9070     1.5580 H     1 <1>   0.0800 
 36 H       -6.6430    -7.4300    -0.0900 H     1 <1>   0.0800 
 37 H       -9.0540    -7.1970    -0.5900 H     1 <1>   0.0800 
 38 H       -9.3480    -6.6720     1.0550 H     1 <1>   0.0800 
 39 H       -7.9260    -9.1990     0.8660 H     1 <1>   0.4000 
 40 H      -12.9680    -9.3160    -0.2060 H     1 <1>   0.1500 
 41 H       -9.6100   -13.4910    -1.8080 H     1 <1>   0.0800 
 42 H      -11.3350   -13.4040    -1.6020 H     1 <1>   0.0800 
 43 H       -9.0440   -13.0060     1.9000 H     1 <1>   0.0800 
 44 H       -8.1360   -13.2250     0.4300 H     1 <1>   0.0800 
 45 H      -10.4910   -15.7620    -1.7760 H     1 <1>   0.0800 
 46 H      -11.3280   -15.4650    -0.2690 H     1 <1>   0.0800 
 47 H      -10.0040   -15.2480     1.7120 H     1 <1>   0.0800 
 48 H       -8.2680   -15.3810     1.5480 H     1 <1>   0.0800 
@<TRIPOS>BOND
  1   1   2  1   
  2   2   3  ar  
  3   2   4  ar  
  4   3   5  ar  
  5   3  27  1   
  6   4   6  ar  
  7   4  28  1   
  8   5   7  ar  
  9   5  29  1   
 10   6   7  ar  
 11   6  30  1   
 12   7   8  1   
 13   8   9  1   
 14   8  31  1   
 15   8  32  1   
 16   9  10  1   
 17  10  11  1   
 18  10  33  1   
 19  10  34  1   
 20  11  12  1   
 21  11  35  1   
 22  11  36  1   
 23  12  13  1   
 24  12  37  1   
 25  12  38  1   
 26  13  14  1   
 27  13  39  1   
 28  14  15  ar  
 29  14  16  ar  
 30  15  17  ar  
 31  16  18  ar  
 32  17  19  1   
 33  17  20  ar  
 34  18  20  ar  
 35  18  40  1   
 36  19  21  1   
 37  19  22  1   
 38  20  23  1   
 39  21  24  1   
 40  21  41  1   
 41  21  42  1   
 42  22  25  1   
 43  22  43  1   
 44  22  44  1   
 45  24  26  1   
 46  24  45  1   
 47  24  46  1   
 48  25  26  1   
 49  25  47  1   
 50  25  48  1   
@<TRIPOS>SUBSTRUCTURE
  1 ****  11 GROUP 4 **** **** 0

# MOE 2024.06 (io_trps.svl 2023.06)
