@<TRIPOS>MOLECULE
NONAME
51 53 1 0 0 
SMALL
USER_CHARGES


@<TRIPOS>ATOM
  1 CL      -0.0050    -2.0910    -2.3050 Cl    1 <1>  -0.1770 
  2 C       -1.1910    -2.1420    -1.0240 C.ar  1 <1>   0.1770 
  3 C       -1.7100    -0.9770    -0.4850 C.ar  1 <1>   0.1770 
  4 C       -1.6080    -3.3760    -0.5590 C.ar  1 <1>  -0.1500 
  5 CL      -1.1960     0.5880    -1.0670 Cl    1 <1>  -0.1770 
  6 C       -2.6510    -1.0380     0.5280 C.ar  1 <1>  -0.1500 
  7 C       -2.5600    -3.4460     0.4520 C.ar  1 <1>  -0.1440 
  8 C       -3.0740    -2.2730     0.9950 C.ar  1 <1>  -0.1500 
  9 C       -3.0220    -4.8040     0.9450 C.3   1 <1>   0.4870 
 10 N       -4.0100    -5.3200    -0.0360 N.4   1 <1>  -0.9590 
 11 C       -4.0500    -6.8180    -0.0220 C.3   1 <1>   0.5660 
 12 C       -5.3700    -4.7200     0.1620 C.3   1 <1>   0.3430 
 13 C       -2.7040    -7.3040    -0.5440 C.ar  1 <1>  -0.1430 
 14 C       -5.2260    -7.4200    -0.8400 C.3   1 <1>   0.2000 
 15 C       -6.4130    -5.3680    -0.7650 C.3   1 <1>   0.1200 
 16 C       -1.8880    -8.0470     0.2970 C.ar  1 <1>  -0.1500 
 17 C       -2.2660    -7.0100    -1.8310 C.ar  1 <1>  -0.1500 
 18 O       -6.4330    -6.7490    -0.5650 O.3   1 <1>  -0.5600 
 19 C       -5.4060    -8.9090    -0.5000 C.3   1 <1>   0.1200 
 20 C       -0.6430    -8.4790    -0.1240 C.ar  1 <1>   0.0830 
 21 C       -1.0170    -7.4320    -2.2550 C.ar  1 <1>  -0.1500 
 22 O       -5.3760    -9.0910     0.8810 O.3   1 <1>  -0.6800 
 23 O        0.0820    -9.2120     0.7540 O.3   1 <1>  -0.3630 
 24 C       -0.1920    -8.1470    -1.4060 C.ar  1 <1>   0.0830 
 25 C        0.3790   -10.5420     0.3830 C.3   1 <1>   0.0400 
 26 O        1.0300    -8.4940    -1.8760 O.3   1 <1>  -0.3630 
 27 C        2.1470    -7.9130    -1.2380 C.3   1 <1>   0.0400 
 28 H       -1.1750    -4.2620    -0.9930 H     1 <1>   0.1500 
 29 H       -3.0410    -0.1240     0.9420 H     1 <1>   0.1500 
 30 H       -3.8010    -2.3030     1.7900 H     1 <1>   0.1500 
 31 H       -3.4600    -4.7280     1.9270 H     1 <1>   0.0800 
 32 H       -2.1670    -5.4590     1.0030 H     1 <1>   0.0800 
 33 H       -3.6610    -5.0520    -0.9600 H     1 <1>   0.4500 
 34 H       -4.1650    -7.1510     0.9970 H     1 <1>   0.0800 
 35 H       -5.6910    -4.8660     1.1810 H     1 <1>   0.0800 
 36 H       -5.3350    -3.6590    -0.0270 H     1 <1>   0.0800 
 37 H       -5.0420    -7.3270    -1.8950 H     1 <1>   0.0800 
 38 H       -6.2020    -5.1650    -1.8010 H     1 <1>   0.0800 
 39 H       -7.3960    -4.9930    -0.5350 H     1 <1>   0.0800 
 40 H       -2.2040    -8.3120     1.2920 H     1 <1>   0.1500 
 41 H       -2.8760    -6.4560    -2.5240 H     1 <1>   0.1500 
 42 H       -4.6100    -9.4950    -0.9260 H     1 <1>   0.0800 
 43 H       -6.3500    -9.2650    -0.8790 H     1 <1>   0.0800 
 44 H       -0.6690    -7.2070    -3.2490 H     1 <1>   0.1500 
 45 H       -5.7230    -9.9780     1.1190 H     1 <1>   0.4000 
 46 H        0.8420   -11.0290     1.2220 H     1 <1>   0.0800 
 47 H        1.0530   -10.5410    -0.4540 H     1 <1>   0.0800 
 48 H       -0.5360   -11.0450     0.1250 H     1 <1>   0.0800 
 49 H        3.0320    -8.2200    -1.7660 H     1 <1>   0.0800 
 50 H        2.1960    -8.2510    -0.2190 H     1 <1>   0.0800 
 51 H        2.0510    -6.8420    -1.2740 H     1 <1>   0.0800 
@<TRIPOS>BOND
  1   1   2  1   
  2   2   3  ar  
  3   2   4  ar  
  4   3   5  1   
  5   3   6  ar  
  6   4   7  ar  
  7   4  28  1   
  8   6   8  ar  
  9   6  29  1   
 10   7   8  ar  
 11   7   9  1   
 12   8  30  1   
 13   9  10  1   
 14   9  31  1   
 15   9  32  1   
 16  10  11  1   
 17  10  12  1   
 18  10  33  1   
 19  11  13  1   
 20  11  14  1   
 21  11  34  1   
 22  12  15  1   
 23  12  35  1   
 24  12  36  1   
 25  13  16  ar  
 26  13  17  ar  
 27  14  18  1   
 28  14  19  1   
 29  14  37  1   
 30  15  18  1   
 31  15  38  1   
 32  15  39  1   
 33  16  20  ar  
 34  16  40  1   
 35  17  21  ar  
 36  17  41  1   
 37  19  22  1   
 38  19  42  1   
 39  19  43  1   
 40  20  23  1   
 41  20  24  ar  
 42  21  24  ar  
 43  21  44  1   
 44  22  45  1   
 45  23  25  1   
 46  24  26  1   
 47  25  46  1   
 48  25  47  1   
 49  25  48  1   
 50  26  27  1   
 51  27  49  1   
 52  27  50  1   
 53  27  51  1   
@<TRIPOS>SUBSTRUCTURE
  1 ****  13 GROUP 4 **** **** 0

# MOE 2024.06 (io_trps.svl 2023.06)
