@<TRIPOS>MOLECULE
NONAME
39 40 1 0 0 
SMALL
USER_CHARGES


@<TRIPOS>ATOM
  1 O       -0.5900     1.9760    -2.6440 O.2   1 <1>  -0.5700 
  2 C       -0.5200     2.9210    -1.9000 C.2   1 <1>   0.5690 
  3 N       -1.3000     2.9970    -0.8010 N.am  1 <1>  -0.7300 
  4 C        0.4350     4.0740    -2.2010 C.3   1 <1>   0.1810 
  5 C       -1.3270     4.1650     0.1170 C.3   1 <1>   0.3640 
  6 O        0.7830     4.7890    -1.0370 O.3   1 <1>  -0.5600 
  7 C       -2.7600     4.6950     0.1560 C.ar  1 <1>  -0.1440 
  8 C       -0.3250     5.2860    -0.2860 C.3   1 <1>   0.2610 
  9 C       -3.4880     4.8910    -1.0100 C.ar  1 <1>  -0.1500 
 10 C       -3.3580     4.9970     1.3680 C.ar  1 <1>  -0.1500 
 11 C        0.1780     6.0130     0.9700 C.2   1 <1>   0.5690 
 12 C       -4.7860     5.3750    -0.9840 C.ar  1 <1>   0.0830 
 13 C       -4.6510     5.4900     1.4160 C.ar  1 <1>  -0.1500 
 14 O       -0.6140     6.4110     1.7920 O.2   1 <1>  -0.5700 
 15 N        1.5180     6.1860     1.1380 N.am  1 <1>  -0.7300 
 16 O       -5.3730     5.5000    -2.2080 O.3   1 <1>  -0.3630 
 17 C       -5.3810     5.6950     0.2480 C.ar  1 <1>   0.0830 
 18 C        2.1840     6.8650     2.2770 C.3   1 <1>   0.0600 
 19 C       -6.7610     5.3130    -2.3740 C.3   1 <1>   0.0400 
 20 O       -6.6420     6.2160     0.2850 O.3   1 <1>  -0.3630 
 21 C       -7.1490     6.8510     1.4390 C.3   1 <1>   0.0400 
 22 H       -1.9920     2.2640    -0.6410 H     1 <1>   0.3700 
 23 H       -0.0220     4.7520    -2.8980 H     1 <1>   0.0800 
 24 H        1.3390     3.6840    -2.6310 H     1 <1>   0.0800 
 25 H       -1.0620     3.8110     1.0980 H     1 <1>   0.0800 
 26 H       -0.8300     6.0090    -0.9010 H     1 <1>   0.0800 
 27 H       -3.0580     4.6650    -1.9690 H     1 <1>   0.1500 
 28 H       -2.8160     4.8630     2.2900 H     1 <1>   0.1500 
 29 H       -5.0660     5.7100     2.3800 H     1 <1>   0.1500 
 30 H        2.1220     5.7980     0.4040 H     1 <1>   0.3700 
 31 H        1.4500     7.2340     2.9730 H     1 <1>   0.0800 
 32 H        2.7670     7.6940     1.9150 H     1 <1>   0.0800 
 33 H        2.8300     6.1720     2.7860 H     1 <1>   0.0800 
 34 H       -6.9470     5.0950    -3.4100 H     1 <1>   0.0800 
 35 H       -7.2680     6.2190    -2.0970 H     1 <1>   0.0800 
 36 H       -7.0820     4.4910    -1.7590 H     1 <1>   0.0800 
 37 H       -8.0950     7.2940     1.1880 H     1 <1>   0.0800 
 38 H       -6.4580     7.6150     1.7500 H     1 <1>   0.0800 
 39 H       -7.2860     6.1150     2.2120 H     1 <1>   0.0800 
@<TRIPOS>BOND
  1   1   2  2   
  2   2   3  am  
  3   2   4  1   
  4   3   5  1   
  5   3  22  1   
  6   4   6  1   
  7   4  23  1   
  8   4  24  1   
  9   5   7  1   
 10   5   8  1   
 11   5  25  1   
 12   6   8  1   
 13   7   9  ar  
 14   7  10  ar  
 15   8  11  1   
 16   8  26  1   
 17   9  12  ar  
 18   9  27  1   
 19  10  13  ar  
 20  10  28  1   
 21  11  14  2   
 22  11  15  am  
 23  12  16  1   
 24  12  17  ar  
 25  13  17  ar  
 26  13  29  1   
 27  15  18  1   
 28  15  30  1   
 29  16  19  1   
 30  17  20  1   
 31  18  31  1   
 32  18  32  1   
 33  18  33  1   
 34  19  34  1   
 35  19  35  1   
 36  19  36  1   
 37  20  21  1   
 38  21  37  1   
 39  21  38  1   
 40  21  39  1   
@<TRIPOS>SUBSTRUCTURE
  1 ****   7 GROUP 4 **** **** 0

# MOE 2024.06 (io_trps.svl 2023.06)
