@<TRIPOS>MOLECULE
NONAME
49 53 1 0 0 
SMALL
USER_CHARGES


@<TRIPOS>ATOM
  1 S       -0.4640     0.4750     1.7370 S.3   1 <1>  -0.0800 
  2 C       -0.3980     1.9400     0.7810 C.2   1 <1>  -0.1400 
  3 C        1.2700     0.5570     2.0140 C.2   1 <1>  -0.1100 
  4 C        0.8470     2.4220     0.6860 C.2   1 <1>  -0.1810 
  5 C       -1.6190     2.5580     0.1580 C.3   1 <1>   0.0200 
  6 C        1.8080     1.6290     1.4000 C.2   1 <1>  -0.1500 
  7 C        1.1480     3.6870    -0.1250 C.3   1 <1>   0.4610 
  8 C       -1.2680     4.0170    -0.1690 C.3   1 <1>   0.1200 
  9 O       -0.0150     4.1150    -0.8100 O.3   1 <1>  -0.5600 
 10 C        1.6060     4.8270     0.7990 C.3   1 <1>  -0.1600 
 11 C        2.1750     3.3830    -1.2340 C.3   1 <1>  -0.1600 
 12 C        2.3270     5.9120     0.0030 C.3   1 <1>   0.1400 
 13 C        3.5820     3.8860    -0.9070 C.3   1 <1>   0.1400 
 14 N        3.5660     5.3500    -0.6130 N.am  1 <1>  -0.6600 
 15 C        4.7170     6.0950    -0.7640 C.2   1 <1>   0.5440 
 16 O        5.7710     5.5170    -0.9550 O.2   1 <1>  -0.5700 
 17 C        4.7030     7.5430    -0.6910 C.ar  1 <1>   0.0860 
 18 C        5.5300     8.2260     0.1890 C.ar  1 <1>  -0.1500 
 19 C        3.8600     8.3040    -1.5060 C.ar  1 <1>  -0.1500 
 20 C        5.5230     9.6110     0.2890 C.ar  1 <1>   0.1790 
 21 C        3.8400     9.6800    -1.4260 C.ar  1 <1>  -0.1500 
 22 N        6.3620    10.2220     1.2000 N.2   1 <1>  -0.6290 
 23 C        4.6670    10.3590    -0.5280 C.ar  1 <1>   0.0860 
 24 C        6.3580    11.4980     1.2870 C.2   1 <1>   0.4500 
 25 C        4.6970    11.7870    -0.3880 C.2   1 <1>   0.5440 
 26 N        5.5640    12.3300     0.5330 N.am  1 <1>  -0.4200 
 27 O        3.9810    12.5190    -1.0540 O.2   1 <1>  -0.5700 
 28 C        5.6370    13.8030     0.7100 C.3   1 <1>   0.0600 
 29 H        1.7090    -0.2190     2.6150 H     1 <1>   0.1500 
 30 H       -2.4480     2.5260     0.8410 H     1 <1>   0.0800 
 31 H       -1.8850     2.0270    -0.7380 H     1 <1>   0.0800 
 32 H        2.8490     1.8960     1.4220 H     1 <1>   0.1500 
 33 H       -1.2380     4.6020     0.7320 H     1 <1>   0.0800 
 34 H       -2.0070     4.4380    -0.8280 H     1 <1>   0.0800 
 35 H        2.2850     4.4480     1.5400 H     1 <1>   0.0800 
 36 H        0.7710     5.2460     1.3250 H     1 <1>   0.0800 
 37 H        1.8710     3.8520    -2.1520 H     1 <1>   0.0800 
 38 H        2.2130     2.3240    -1.4140 H     1 <1>   0.0800 
 39 H        2.5790     6.7260     0.6610 H     1 <1>   0.0800 
 40 H        1.6790     6.2840    -0.7730 H     1 <1>   0.0800 
 41 H        4.2350     3.6940    -1.7430 H     1 <1>   0.0800 
 42 H        3.9770     3.3640    -0.0530 H     1 <1>   0.0800 
 43 H        6.2030     7.6690     0.8170 H     1 <1>   0.1500 
 44 H        3.2220     7.7960    -2.2090 H     1 <1>   0.1500 
 45 H        3.1840    10.2520    -2.0620 H     1 <1>   0.1500 
 46 H        7.0130    11.9760     1.9940 H     1 <1>   0.0600 
 47 H        6.3640    14.0640     1.4580 H     1 <1>   0.0800 
 48 H        4.6720    14.1760     1.0090 H     1 <1>   0.0800 
 49 H        5.9110    14.2630    -0.2240 H     1 <1>   0.0800 
@<TRIPOS>BOND
  1   1   2  1   
  2   1   3  1   
  3   2   4  2   
  4   2   5  1   
  5   3   6  2   
  6   3  29  1   
  7   4   6  1   
  8   4   7  1   
  9   5   8  1   
 10   5  30  1   
 11   5  31  1   
 12   6  32  1   
 13   7   9  1   
 14   7  10  1   
 15   7  11  1   
 16   8   9  1   
 17   8  33  1   
 18   8  34  1   
 19  10  12  1   
 20  10  35  1   
 21  10  36  1   
 22  11  13  1   
 23  11  37  1   
 24  11  38  1   
 25  12  14  1   
 26  12  39  1   
 27  12  40  1   
 28  13  14  1   
 29  13  41  1   
 30  13  42  1   
 31  14  15  am  
 32  15  16  2   
 33  15  17  1   
 34  17  18  ar  
 35  17  19  ar  
 36  18  20  ar  
 37  18  43  1   
 38  19  21  ar  
 39  19  44  1   
 40  20  22  1   
 41  20  23  ar  
 42  21  23  ar  
 43  21  45  1   
 44  22  24  2   
 45  23  25  1   
 46  24  26  1   
 47  24  46  1   
 48  25  26  am  
 49  25  27  2   
 50  26  28  1   
 51  28  47  1   
 52  28  48  1   
 53  28  49  1   
@<TRIPOS>SUBSTRUCTURE
  1 ****  12 GROUP 4 **** **** 0

# MOE 2024.06 (io_trps.svl 2023.06)
