@<TRIPOS>MOLECULE
NONAME
57 60 1 0 0 
SMALL
USER_CHARGES


@<TRIPOS>ATOM
  1 F       -1.2310    -1.7150     2.0650 F     1 <1>  -0.1900 
  2 C       -1.0340    -2.4340     0.9840 C.ar  1 <1>   0.1900 
  3 C       -1.9260    -2.3260    -0.0890 C.ar  1 <1>   0.1000 
  4 C        0.0630    -3.2730     0.9650 C.ar  1 <1>  -0.1500 
  5 N       -3.0500    -1.4880    -0.1090 N.pl3 1 <1>  -0.8380 
  6 C       -1.6640    -3.1120    -1.2040 C.ar  1 <1>  -0.1500 
  7 C        0.2960    -4.0440    -0.1620 C.ar  1 <1>  -0.1500 
  8 C       -2.7530    -0.0440    -0.1290 C.3   1 <1>   0.2090 
  9 C       -4.1210    -1.8530     0.8360 C.3   1 <1>   0.2090 
 10 C       -0.5690    -3.9600    -1.2430 C.ar  1 <1>  -0.1500 
 11 C       -3.9980     0.6820    -0.6290 C.3   1 <1>  -0.1600 
 12 C       -5.4080    -1.1820     0.3670 C.3   1 <1>  -0.1600 
 13 C       -5.2320     0.3410     0.2250 C.3   1 <1>   0.4230 
 14 N       -6.4640     0.9420    -0.3890 N.4   1 <1>  -0.9590 
 15 C       -7.7230     0.6320     0.3760 C.3   1 <1>   0.3430 
 16 C       -6.3610     2.4190    -0.6160 C.3   1 <1>   0.3430 
 17 C       -8.9890     1.0670    -0.3880 C.3   1 <1>   0.0000 
 18 C       -7.5680     2.9170    -1.4100 C.3   1 <1>  -0.1600 
 19 C      -10.2190     0.7030     0.4690 C.3   1 <1>   0.2000 
 20 C       -8.8940     2.5730    -0.7180 C.3   1 <1>  -0.1600 
 21 C       -9.1860     0.1960    -1.6430 C.3   1 <1>  -0.1600 
 22 O      -11.3230     1.4040    -0.0140 O.3   1 <1>  -0.5600 
 23 C      -10.4390    -0.7960     0.2190 C.3   1 <1>  -0.1600 
 24 C       -9.8120    -1.1110    -1.1460 C.3   1 <1>  -0.1600 
 25 C      -12.3810     1.5550     0.8830 C.3   1 <1>   0.0400 
 26 H        0.7200    -3.3210     1.8150 H     1 <1>   0.1500 
 27 H       -2.3300    -3.0530    -2.0450 H     1 <1>   0.1500 
 28 H        1.1450    -4.7050    -0.1990 H     1 <1>   0.1500 
 29 H       -2.4840     0.2900     0.8600 H     1 <1>   0.0800 
 30 H       -1.9220     0.1440    -0.7900 H     1 <1>   0.0800 
 31 H       -4.2430    -2.9240     0.8460 H     1 <1>   0.0800 
 32 H       -3.8590    -1.5300     1.8300 H     1 <1>   0.0800 
 33 H       -0.3880    -4.5590    -2.1190 H     1 <1>   0.1500 
 34 H       -4.1600     0.3940    -1.6530 H     1 <1>   0.0800 
 35 H       -3.7800     1.7320    -0.5910 H     1 <1>   0.0800 
 36 H       -6.1610    -1.4190     1.0930 H     1 <1>   0.0800 
 37 H       -5.6820    -1.6160    -0.5780 H     1 <1>   0.0800 
 38 H       -5.0850     0.7570     1.2090 H     1 <1>   0.0800 
 39 H       -6.5700     0.5070    -1.3140 H     1 <1>   0.4500 
 40 H       -7.7960    -0.4260     0.5570 H     1 <1>   0.0800 
 41 H       -7.6970     1.1340     1.3290 H     1 <1>   0.0800 
 42 H       -6.3160     2.9310     0.3320 H     1 <1>   0.0800 
 43 H       -5.4700     2.6540    -1.1720 H     1 <1>   0.0800 
 44 H       -7.4980     3.9860    -1.5200 H     1 <1>   0.0800 
 45 H       -7.5470     2.4950    -2.4000 H     1 <1>   0.0800 
 46 H      -10.0800     0.9420     1.5100 H     1 <1>   0.0800 
 47 H       -9.7140     2.8690    -1.3510 H     1 <1>   0.0800 
 48 H       -8.9770     3.1400     0.1940 H     1 <1>   0.0800 
 49 H       -9.9000     0.6780    -2.2920 H     1 <1>   0.0800 
 50 H       -8.2890     0.0210    -2.2080 H     1 <1>   0.0800 
 51 H       -9.9370    -1.3660     0.9810 H     1 <1>   0.0800 
 52 H      -11.4830    -1.0570     0.2370 H     1 <1>   0.0800 
 53 H       -9.0640    -1.8790    -1.0430 H     1 <1>   0.0800 
 54 H      -10.5620    -1.4530    -1.8410 H     1 <1>   0.0800 
 55 H      -13.1700     2.0860     0.3800 H     1 <1>   0.0800 
 56 H      -12.0490     2.1250     1.7330 H     1 <1>   0.0800 
 57 H      -12.7390     0.5880     1.1910 H     1 <1>   0.0800 
@<TRIPOS>BOND
  1   1   2  1   
  2   2   3  ar  
  3   2   4  ar  
  4   3   5  1   
  5   3   6  ar  
  6   4   7  ar  
  7   4  26  1   
  8   5   8  1   
  9   5   9  1   
 10   6  10  ar  
 11   6  27  1   
 12   7  10  ar  
 13   7  28  1   
 14   8  11  1   
 15   8  29  1   
 16   8  30  1   
 17   9  12  1   
 18   9  31  1   
 19   9  32  1   
 20  10  33  1   
 21  11  13  1   
 22  11  34  1   
 23  11  35  1   
 24  12  13  1   
 25  12  36  1   
 26  12  37  1   
 27  13  14  1   
 28  13  38  1   
 29  14  15  1   
 30  14  16  1   
 31  14  39  1   
 32  15  17  1   
 33  15  40  1   
 34  15  41  1   
 35  16  18  1   
 36  16  42  1   
 37  16  43  1   
 38  17  19  1   
 39  17  20  1   
 40  17  21  1   
 41  18  20  1   
 42  18  44  1   
 43  18  45  1   
 44  19  22  1   
 45  19  23  1   
 46  19  46  1   
 47  20  47  1   
 48  20  48  1   
 49  21  24  1   
 50  21  49  1   
 51  21  50  1   
 52  22  25  1   
 53  23  24  1   
 54  23  51  1   
 55  23  52  1   
 56  24  53  1   
 57  24  54  1   
 58  25  55  1   
 59  25  56  1   
 60  25  57  1   
@<TRIPOS>SUBSTRUCTURE
  1 ****  12 GROUP 4 **** **** 0

# MOE 2024.06 (io_trps.svl 2023.06)
