@<TRIPOS>MOLECULE
NONAME
40 41 1 0 0 
SMALL
USER_CHARGES


@<TRIPOS>ATOM
  1 O        2.2270     0.8190    -2.1800 O.2   1 <1>  -0.5700 
  2 C        2.3520     0.4900    -1.0270 C.2   1 <1>   0.5950 
  3 C        2.4490    -0.8780    -0.5940 C.2   1 <1>  -0.0860 
  4 C        2.4040     1.5860     0.0140 C.3   1 <1>  -0.1790 
  5 C        2.5560    -1.4020     0.6720 C.2   1 <1>  -0.3020 
  6 C        2.4440    -1.9990    -1.4470 C.2   1 <1>  -0.1500 
  7 N        2.6170    -2.7510     0.6280 N.pl3 1 <1>   0.0480 
  8 C        2.5450    -3.1160    -0.6830 C.2   1 <1>  -0.3320 
  9 C        2.6820    -3.6540     1.7910 C.3   1 <1>   0.0160 
 10 C        2.5860    -4.5560    -1.1610 C.3   1 <1>   0.2900 
 11 N        1.4380    -5.3270    -0.6520 N.3   1 <1>  -0.8100 
 12 C        1.5980    -6.7510    -1.0290 C.3   1 <1>   0.2900 
 13 C        0.1440    -4.7800    -1.1410 C.3   1 <1>   0.1100 
 14 C        0.7080    -7.6570    -0.1960 C.2   1 <1>   0.0060 
 15 C       -0.5690    -3.8950    -0.0990 C.3   1 <1>   0.1200 
 16 N        0.3290    -8.8470    -0.5400 N.2   1 <1>  -0.5650 
 17 N        0.2420    -7.2710     1.0080 N.pl3 1 <1>   0.0330 
 18 O       -0.9100    -4.6250     1.0380 O.3   1 <1>  -0.6800 
 19 C       -0.4250    -9.2570     0.5000 C.2   1 <1>   0.0770 
 20 C       -0.4920    -8.3050     1.4560 C.2   1 <1>  -0.3020 
 21 H        3.3290     1.5250     0.5560 H     1 <1>   0.0800 
 22 H        1.5810     1.4760     0.6950 H     1 <1>   0.0800 
 23 H        2.3400     2.5470    -0.4620 H     1 <1>   0.0800 
 24 H        2.5860    -0.8640     1.6020 H     1 <1>   0.1500 
 25 H        2.3720    -1.9290    -2.5190 H     1 <1>   0.1500 
 26 H        2.8510    -3.0830     2.6850 H     1 <1>   0.0800 
 27 H        3.4840    -4.3550     1.6540 H     1 <1>   0.0800 
 28 H        1.7520    -4.1840     1.8750 H     1 <1>   0.0800 
 29 H        3.5030    -5.0010    -0.8140 H     1 <1>   0.0800 
 30 H        2.5930    -4.5770    -2.2380 H     1 <1>   0.0800 
 31 H        2.6150    -7.0600    -0.8570 H     1 <1>   0.0800 
 32 H        1.3800    -6.8910    -2.0740 H     1 <1>   0.0800 
 33 H       -0.5260    -5.5790    -1.4090 H     1 <1>   0.0800 
 34 H        0.3070    -4.1980    -2.0330 H     1 <1>   0.0800 
 35 H       -1.4760    -3.4940    -0.5170 H     1 <1>   0.0800 
 36 H        0.0530    -3.0730     0.2000 H     1 <1>   0.0800 
 37 H        0.3880    -6.3320     1.4060 H     1 <1>   0.2700 
 38 H       -1.5680    -5.3100     0.8040 H     1 <1>   0.4000 
 39 H       -0.8870   -10.2310     0.5040 H     1 <1>   0.1500 
 40 H       -1.0060    -8.3030     2.4000 H     1 <1>   0.1500 
@<TRIPOS>BOND
  1   1   2  2   
  2   2   3  1   
  3   2   4  1   
  4   3   5  2   
  5   3   6  1   
  6   4  21  1   
  7   4  22  1   
  8   4  23  1   
  9   5   7  1   
 10   5  24  1   
 11   6   8  2   
 12   6  25  1   
 13   7   8  1   
 14   7   9  1   
 15   8  10  1   
 16   9  26  1   
 17   9  27  1   
 18   9  28  1   
 19  10  11  1   
 20  10  29  1   
 21  10  30  1   
 22  11  12  1   
 23  11  13  1   
 24  12  14  1   
 25  12  31  1   
 26  12  32  1   
 27  13  15  1   
 28  13  33  1   
 29  13  34  1   
 30  14  16  2   
 31  14  17  1   
 32  15  18  1   
 33  15  35  1   
 34  15  36  1   
 35  16  19  1   
 36  17  20  1   
 37  17  37  1   
 38  18  38  1   
 39  19  20  2   
 40  19  39  1   
 41  20  40  1   
@<TRIPOS>SUBSTRUCTURE
  1 ****  11 GROUP 4 **** **** 0

# MOE 2024.06 (io_trps.svl 2023.06)
