@<TRIPOS>MOLECULE
NONAME
30 30 1 0 0 
SMALL
USER_CHARGES


@<TRIPOS>ATOM
  1 O        6.6990     1.6050     1.8230 O.2   1 <1>  -0.5700 
  2 C        6.6780     0.9300     0.8160 C.2   1 <1>   0.5690 
  3 N        5.5200     0.7950     0.0780 N.am  1 <1>  -0.6600 
  4 C        7.9950     0.2350     0.3710 C.3   1 <1>   0.2510 
  5 C        5.3570    -0.1460    -1.0660 C.3   1 <1>   0.0600 
  6 C        4.2770     1.5330     0.4390 C.3   1 <1>   0.0600 
  7 N        8.0380    -1.2160     0.6570 N.3   1 <1>  -0.9900 
  8 C        9.2390     0.9000     0.9850 C.3   1 <1>  -0.0170 
  9 C       10.5340     0.2590     0.4980 C.ar  1 <1>  -0.1440 
 10 C       11.0130     0.5310    -0.7740 C.ar  1 <1>  -0.1500 
 11 C       11.2410    -0.6070     1.3200 C.ar  1 <1>  -0.1500 
 12 C       12.1820    -0.0590    -1.2220 C.ar  1 <1>  -0.1500 
 13 C       12.4100    -1.1970     0.8730 C.ar  1 <1>  -0.1500 
 14 C       12.8810    -0.9240    -0.3990 C.ar  1 <1>  -0.1500 
 15 H        8.0680     0.3580    -0.6950 H     1 <1>   0.0800 
 16 H        4.4330    -0.6880    -0.9600 H     1 <1>   0.0800 
 17 H        6.1570    -0.8630    -1.1060 H     1 <1>   0.0800 
 18 H        5.3350     0.4070    -1.9890 H     1 <1>   0.0800 
 19 H        3.8760     2.0200    -0.4320 H     1 <1>   0.0800 
 20 H        4.4770     2.2810     1.1860 H     1 <1>   0.0800 
 21 H        3.5490     0.8440     0.8290 H     1 <1>   0.0800 
 22 H        7.8760    -1.3400     1.6630 H     1 <1>   0.3600 
 23 H        9.0030    -1.5250     0.4740 H     1 <1>   0.3600 
 24 H        9.2430     1.9430     0.7210 H     1 <1>   0.0800 
 25 H        9.1820     0.8490     2.0580 H     1 <1>   0.0800 
 26 H       10.4790     1.2030    -1.4220 H     1 <1>   0.1500 
 27 H       10.8850    -0.8250     2.3120 H     1 <1>   0.1500 
 28 H       12.5480     0.1560    -2.2110 H     1 <1>   0.1500 
 29 H       12.9530    -1.8680     1.5150 H     1 <1>   0.1500 
 30 H       13.7900    -1.3830    -0.7480 H     1 <1>   0.1500 
@<TRIPOS>BOND
  1   1   2  2   
  2   2   3  am  
  3   2   4  1   
  4   3   5  1   
  5   3   6  1   
  6   4   7  1   
  7   4   8  1   
  8   4  15  1   
  9   5  16  1   
 10   5  17  1   
 11   5  18  1   
 12   6  19  1   
 13   6  20  1   
 14   6  21  1   
 15   7  22  1   
 16   7  23  1   
 17   8   9  1   
 18   8  24  1   
 19   8  25  1   
 20   9  10  ar  
 21   9  11  ar  
 22  10  12  ar  
 23  10  26  1   
 24  11  13  ar  
 25  11  27  1   
 26  12  14  ar  
 27  12  28  1   
 28  13  14  ar  
 29  13  29  1   
 30  14  30  1   
@<TRIPOS>SUBSTRUCTURE
  1 ****   4 GROUP 4 **** **** 0

# MOE 2024.06 (io_trps.svl 2023.06)
