@<TRIPOS>MOLECULE
NONAME
46 47 1 0 0 
SMALL
USER_CHARGES


@<TRIPOS>ATOM
  1 O        2.6130     0.6030    -1.3550 O.2   1 <1>  -0.5700 
  2 C        2.8400     1.3270    -0.3890 C.2   1 <1>   0.5410 
  3 C        2.4000     2.6910    -0.3720 C.2   1 <1>  -0.1240 
  4 C        3.5690     0.8410     0.7360 C.2   1 <1>  -0.1240 
  5 C        2.7060     3.4950     0.6920 C.2   1 <1>  -0.0380 
  6 C        1.5990     3.1490    -1.5960 C.3   1 <1>  -0.1020 
  7 C        3.8370     1.6700     1.7770 C.2   1 <1>  -0.0500 
  8 C        4.0290    -0.6120     0.7470 C.3   1 <1>  -0.1020 
  9 N        3.4190     2.9780     1.7600 N.pl3 1 <1>  -0.6000 
 10 C        2.3300     4.9690     0.7900 C.3   1 <1>   0.4810 
 11 N        3.5660     5.7810     0.6170 N.4   1 <1>  -0.9590 
 12 C        3.4760     7.1030     1.2840 C.3   1 <1>   0.4230 
 13 C        4.0260     5.7890    -0.7970 C.3   1 <1>   0.5240 
 14 C        2.4730     8.0200     0.5810 C.3   1 <1>  -0.2400 
 15 C        4.8550     7.7500     1.3520 C.3   1 <1>  -0.2400 
 16 C        5.4330     5.2440    -0.7970 C.2   1 <1>  -0.1810 
 17 C        6.5910     5.9680    -1.0540 C.2   1 <1>   0.1390 
 18 C        5.8660     3.9850    -0.5590 C.2   1 <1>  -0.3020 
 19 N        7.6510     5.2310    -0.9680 N.2   1 <1>  -0.7070 
 20 N        7.2080     4.0000    -0.6720 N.pl3 1 <1>   0.3140 
 21 C        8.1280     2.8660    -0.5240 C.3   1 <1>   0.0160 
 22 H        0.7420     2.5090    -1.7200 H     1 <1>   0.0800 
 23 H        2.2060     3.0540    -2.4800 H     1 <1>   0.0800 
 24 H        1.2450     4.1580    -1.5340 H     1 <1>   0.0800 
 25 H        4.3780     1.3300     2.6470 H     1 <1>   0.1500 
 26 H        4.6740    -0.7990    -0.0940 H     1 <1>   0.0800 
 27 H        3.1760    -1.2650     0.6710 H     1 <1>   0.0800 
 28 H        4.5610    -0.8480     1.6500 H     1 <1>   0.0800 
 29 H        3.5920     3.5280     2.6150 H     1 <1>   0.4000 
 30 H        1.9010     5.1480     1.7620 H     1 <1>   0.0800 
 31 H        1.5980     5.2400     0.0510 H     1 <1>   0.0800 
 32 H        4.3100     5.2420     1.0810 H     1 <1>   0.4500 
 33 H        3.1390     6.9510     2.2980 H     1 <1>   0.0800 
 34 H        4.0130     6.7840    -1.2070 H     1 <1>   0.0800 
 35 H        3.4040     5.1530    -1.4050 H     1 <1>   0.0800 
 36 H        2.7820     8.2670    -0.4180 H     1 <1>   0.0800 
 37 H        2.3990     8.9430     1.1300 H     1 <1>   0.0800 
 38 H        1.4910     7.5850     0.5580 H     1 <1>   0.0800 
 39 H        5.1960     8.0670     0.3840 H     1 <1>   0.0800 
 40 H        5.5750     7.0780     1.7850 H     1 <1>   0.0800 
 41 H        4.8070     8.6250     1.9780 H     1 <1>   0.0800 
 42 H        6.6360     7.0170    -1.2980 H     1 <1>   0.1500 
 43 H        5.3210     3.0870    -0.3270 H     1 <1>   0.1500 
 44 H        7.5790     1.9860    -0.2460 H     1 <1>   0.0800 
 45 H        8.8520     3.1010     0.2340 H     1 <1>   0.0800 
 46 H        8.6300     2.7030    -1.4590 H     1 <1>   0.0800 
@<TRIPOS>BOND
  1   1   2  2   
  2   2   3  1   
  3   2   4  1   
  4   3   5  2   
  5   3   6  1   
  6   4   7  2   
  7   4   8  1   
  8   5   9  1   
  9   5  10  1   
 10   6  22  1   
 11   6  23  1   
 12   6  24  1   
 13   7   9  1   
 14   7  25  1   
 15   8  26  1   
 16   8  27  1   
 17   8  28  1   
 18   9  29  1   
 19  10  11  1   
 20  10  30  1   
 21  10  31  1   
 22  11  12  1   
 23  11  13  1   
 24  11  32  1   
 25  12  14  1   
 26  12  15  1   
 27  12  33  1   
 28  13  16  1   
 29  13  34  1   
 30  13  35  1   
 31  14  36  1   
 32  14  37  1   
 33  14  38  1   
 34  15  39  1   
 35  15  40  1   
 36  15  41  1   
 37  16  17  1   
 38  16  18  2   
 39  17  19  2   
 40  17  42  1   
 41  18  20  1   
 42  18  43  1   
 43  19  20  1   
 44  20  21  1   
 45  21  44  1   
 46  21  45  1   
 47  21  46  1   
@<TRIPOS>SUBSTRUCTURE
  1 ****   5 GROUP 4 **** **** 0

# MOE 2024.06 (io_trps.svl 2023.06)
