@<TRIPOS>MOLECULE
NONAME
46 48 1 0 0 
SMALL
USER_CHARGES


@<TRIPOS>ATOM
  1 S        0.5050    -0.8740    -0.1800 S.3   1 <1>  -0.0800 
  2 C       -1.1010    -1.5080    -0.2350 C.2   1 <1>   0.1980 
  3 C        0.5840    -1.4520     1.4480 C.2   1 <1>   0.1980 
  4 N       -1.4540    -2.0620     0.8550 N.2   1 <1>  -0.3380 
  5 C       -1.8940    -1.3460    -1.5260 C.3   1 <1>   0.5230 
  6 N       -0.4880    -2.0270     1.8200 N.2   1 <1>  -0.3380 
  7 C        1.8600    -1.2260     2.2280 C.3   1 <1>  -0.0600 
  8 N       -3.3060    -1.8240    -1.3710 N.4   1 <1>  -0.9590 
  9 C       -3.9820    -2.1140    -2.6760 C.3   1 <1>   0.3430 
 10 C       -4.1240    -1.0100    -0.4210 C.3   1 <1>   0.3430 
 11 C       -5.2610    -2.9630    -2.4990 C.3   1 <1>   0.1400 
 12 C       -4.8910    -1.9160     0.5530 C.3   1 <1>  -0.1600 
 13 N       -5.3190    -3.6480    -1.1660 N.am  1 <1>  -0.6600 
 14 C       -5.9370    -2.8460    -0.0780 C.3   1 <1>   0.1400 
 15 C       -4.4690    -4.6930    -0.8700 C.2   1 <1>   0.7160 
 16 O       -3.4600    -4.7890    -1.5460 O.2   1 <1>  -0.5700 
 17 C       -4.6740    -5.5360     0.2770 C.2   1 <1>  -0.0860 
 18 C       -5.8370    -6.2230     0.6470 C.2   1 <1>   0.1080 
 19 C       -3.8020    -5.8470     1.2750 C.2   1 <1>  -0.3020 
 20 N       -5.7030    -6.8640     1.7620 N.2   1 <1>  -0.7070 
 21 C       -7.1350    -6.2650    -0.1300 C.3   1 <1>  -0.0590 
 22 N       -4.4390    -6.6380     2.1470 N.pl3 1 <1>   0.3140 
 23 C       -3.8990    -7.2250     3.3780 C.3   1 <1>   0.0160 
 24 H       -1.4020    -1.9210    -2.2920 H     1 <1>   0.0800 
 25 H       -1.8870    -0.3100    -1.8210 H     1 <1>   0.0800 
 26 H        2.6830    -1.7060     1.7310 H     1 <1>   0.0800 
 27 H        1.7610    -1.6390     3.2160 H     1 <1>   0.0800 
 28 H        2.0590    -0.1740     2.3080 H     1 <1>   0.0800 
 29 H       -3.2150    -2.7590    -0.9270 H     1 <1>   0.4500 
 30 H       -3.3070    -2.6780    -3.2990 H     1 <1>   0.0800 
 31 H       -4.2190    -1.2000    -3.1950 H     1 <1>   0.0800 
 32 H       -4.8120    -0.3820    -0.9630 H     1 <1>   0.0800 
 33 H       -3.4760    -0.3730     0.1600 H     1 <1>   0.0800 
 34 H       -5.2950    -3.7060    -3.2780 H     1 <1>   0.0800 
 35 H       -6.1280    -2.3380    -2.6240 H     1 <1>   0.0800 
 36 H       -5.3990    -1.2850     1.2600 H     1 <1>   0.0800 
 37 H       -4.1920    -2.5020     1.1250 H     1 <1>   0.0800 
 38 H       -6.7590    -2.2710    -0.4710 H     1 <1>   0.0800 
 39 H       -6.3360    -3.4990     0.6810 H     1 <1>   0.0800 
 40 H       -2.7780    -5.5410     1.3930 H     1 <1>   0.1500 
 41 H       -6.9590    -6.0980    -1.1760 H     1 <1>   0.0800 
 42 H       -7.8080    -5.5180     0.2460 H     1 <1>   0.0800 
 43 H       -7.5910    -7.2310    -0.0100 H     1 <1>   0.0800 
 44 H       -2.8850    -6.9020     3.5190 H     1 <1>   0.0800 
 45 H       -3.9340    -8.2950     3.2970 H     1 <1>   0.0800 
 46 H       -4.5030    -6.9080     4.2080 H     1 <1>   0.0800 
@<TRIPOS>BOND
  1   1   2  1   
  2   1   3  1   
  3   2   4  2   
  4   2   5  1   
  5   3   6  2   
  6   3   7  1   
  7   4   6  1   
  8   5   8  1   
  9   5  24  1   
 10   5  25  1   
 11   7  26  1   
 12   7  27  1   
 13   7  28  1   
 14   8   9  1   
 15   8  10  1   
 16   8  29  1   
 17   9  11  1   
 18   9  30  1   
 19   9  31  1   
 20  10  12  1   
 21  10  32  1   
 22  10  33  1   
 23  11  13  1   
 24  11  34  1   
 25  11  35  1   
 26  12  14  1   
 27  12  36  1   
 28  12  37  1   
 29  13  14  1   
 30  13  15  am  
 31  14  38  1   
 32  14  39  1   
 33  15  16  2   
 34  15  17  1   
 35  17  18  1   
 36  17  19  2   
 37  18  20  2   
 38  18  21  1   
 39  19  22  1   
 40  19  40  1   
 41  20  22  1   
 42  21  41  1   
 43  21  42  1   
 44  21  43  1   
 45  22  23  1   
 46  23  44  1   
 47  23  45  1   
 48  23  46  1   
@<TRIPOS>SUBSTRUCTURE
  1 ****  15 GROUP 4 **** **** 0

# MOE 2024.06 (io_trps.svl 2023.06)
