@<TRIPOS>MOLECULE
NONAME
48 51 1 0 0 
SMALL
USER_CHARGES


@<TRIPOS>ATOM
  1 O        0.2700    -1.6840    -2.0060 O.3   1 <1>  -0.6800 
  2 C       -0.0060    -2.2100    -0.7550 C.3   1 <1>   0.1200 
  3 C        1.2010    -2.1050     0.2240 C.3   1 <1>   0.0000 
  4 C        2.5720    -2.5510    -0.3730 C.3   1 <1>   0.4230 
  5 C        1.3190    -0.6410     0.7430 C.3   1 <1>  -0.1600 
  6 C        0.8960    -3.0270     1.4420 C.3   1 <1>  -0.1600 
  7 N        2.5830    -3.9850    -0.8870 N.4   1 <1>  -0.9590 
  8 C        3.2150    -1.5120    -1.3250 C.3   1 <1>   0.2090 
  9 C        1.9630     0.3400    -0.2480 C.3   1 <1>   0.2090 
 10 C        1.5380    -4.4280     1.3410 C.3   1 <1>  -0.1600 
 11 C        1.7070    -4.9100    -0.1010 C.3   1 <1>   0.3430 
 12 C        2.2760    -4.1020    -2.3490 C.3   1 <1>   0.2630 
 13 N        3.2900    -0.1910    -0.6480 N.pl3 1 <1>  -0.8380 
 14 C        4.4080     0.1490     0.0800 C.ar  1 <1>   0.4100 
 15 N        4.9650    -0.8100     0.7680 N.ar  1 <1>  -0.6200 
 16 C        4.9030     1.4780     0.0950 C.ar  1 <1>   0.0000 
 17 C        6.0010    -0.4540     1.5380 C.ar  1 <1>   0.4700 
 18 C        5.9790     1.7200     0.9540 C.ar  1 <1>   0.3100 
 19 C        4.4140     2.5450    -0.6860 C.ar  1 <1>  -0.1500 
 20 N        6.5210     0.7220     1.6810 N.ar  1 <1>  -0.6200 
 21 C        6.5080     3.0140     1.0480 C.ar  1 <1>  -0.1500 
 22 C        4.9480     3.8040    -0.5850 C.ar  1 <1>  -0.1500 
 23 C        6.0040     4.0450     0.2960 C.ar  1 <1>  -0.1500 
 24 H       -0.5600    -1.4850    -2.4910 H     1 <1>   0.4000 
 25 H       -0.8510    -1.6760    -0.3530 H     1 <1>   0.0800 
 26 H       -0.3030    -3.2330    -0.9000 H     1 <1>   0.0800 
 27 H        3.2340    -2.5460     0.4770 H     1 <1>   0.0800 
 28 H        1.9320    -0.6150     1.6270 H     1 <1>   0.0800 
 29 H        0.3520    -0.2660     1.0250 H     1 <1>   0.0800 
 30 H        1.2570    -2.5840     2.3550 H     1 <1>   0.0800 
 31 H       -0.1700    -3.1290     1.5660 H     1 <1>   0.0800 
 32 H        3.5530    -4.3000    -0.7480 H     1 <1>   0.4500 
 33 H        2.6580    -1.4000    -2.2350 H     1 <1>   0.0800 
 34 H        4.2120    -1.8280    -1.5780 H     1 <1>   0.0800 
 35 H        2.0780     1.3000     0.2260 H     1 <1>   0.0800 
 36 H        1.3460     0.4700    -1.1200 H     1 <1>   0.0800 
 37 H        0.9310    -5.1340     1.8820 H     1 <1>   0.0800 
 38 H        2.5040    -4.4200     1.8160 H     1 <1>   0.0800 
 39 H        0.7330    -4.9620    -0.5600 H     1 <1>   0.0800 
 40 H        2.1260    -5.9040    -0.1080 H     1 <1>   0.0800 
 41 H        1.2790    -3.7480    -2.5530 H     1 <1>   0.0800 
 42 H        2.3470    -5.1310    -2.6650 H     1 <1>   0.0800 
 43 H        2.9710    -3.5200    -2.9310 H     1 <1>   0.0800 
 44 H        6.4450    -1.2530     2.1080 H     1 <1>   0.1500 
 45 H        3.6110     2.3560    -1.3750 H     1 <1>   0.1500 
 46 H        7.3250     3.1740     1.7270 H     1 <1>   0.1500 
 47 H        4.5660     4.6140    -1.1820 H     1 <1>   0.1500 
 48 H        6.4160     5.0370     0.3720 H     1 <1>   0.1500 
@<TRIPOS>BOND
  1   1   2  1   
  2   1  24  1   
  3   2   3  1   
  4   2  25  1   
  5   2  26  1   
  6   3   4  1   
  7   3   5  1   
  8   3   6  1   
  9   4   7  1   
 10   4   8  1   
 11   4  27  1   
 12   5   9  1   
 13   5  28  1   
 14   5  29  1   
 15   6  10  1   
 16   6  30  1   
 17   6  31  1   
 18   7  11  1   
 19   7  12  1   
 20   7  32  1   
 21   8  13  1   
 22   8  33  1   
 23   8  34  1   
 24   9  13  1   
 25   9  35  1   
 26   9  36  1   
 27  10  11  1   
 28  10  37  1   
 29  10  38  1   
 30  11  39  1   
 31  11  40  1   
 32  12  41  1   
 33  12  42  1   
 34  12  43  1   
 35  13  14  1   
 36  14  15  ar  
 37  14  16  ar  
 38  15  17  ar  
 39  16  18  ar  
 40  16  19  ar  
 41  17  20  ar  
 42  17  44  1   
 43  18  20  ar  
 44  18  21  ar  
 45  19  22  ar  
 46  19  45  1   
 47  21  23  ar  
 48  21  46  1   
 49  22  23  ar  
 50  22  47  1   
 51  23  48  1   
@<TRIPOS>SUBSTRUCTURE
  1 ****  13 GROUP 4 **** **** 0

# MOE 2024.06 (io_trps.svl 2023.06)
