@<TRIPOS>MOLECULE
NONAME
35 36 1 0 0 
SMALL
USER_CHARGES


@<TRIPOS>ATOM
  1 F        1.2080    -1.9390    -1.9690 F     1 <1>  -0.3400 
  2 C        0.1060    -2.1220    -1.2480 C.3   1 <1>   1.1640 
  3 F        0.2560    -1.3600    -0.1650 F     1 <1>  -0.3400 
  4 F       -0.8880    -1.5680    -1.9360 F     1 <1>  -0.3400 
  5 C       -0.1500    -3.6220    -0.9060 C.ar  1 <1>   0.1660 
  6 N       -0.4230    -4.4750    -1.9020 N.ar  1 <1>  -0.6200 
  7 C       -0.0850    -4.0490     0.4190 C.ar  1 <1>  -0.1500 
  8 C       -0.6330    -5.7390    -1.5720 C.ar  1 <1>   0.1600 
  9 C       -0.3100    -5.3710     0.7410 C.ar  1 <1>  -0.1500 
 10 C       -0.6070    -6.2590    -0.2820 C.ar  1 <1>   0.0860 
 11 C       -0.8680    -7.6650    -0.0580 C.2   1 <1>   0.5440 
 12 O       -0.3650    -8.4890    -0.7990 O.2   1 <1>  -0.5700 
 13 N       -1.6970    -8.1120     0.9480 N.am  1 <1>  -0.6600 
 14 C       -1.7080    -9.5570     1.3280 C.3   1 <1>   0.3200 
 15 C       -2.8660    -7.3270     1.4530 C.3   1 <1>   0.1400 
 16 C       -2.6870   -10.3220     0.4560 C.2   1 <1>   0.0060 
 17 C       -3.9630    -7.2180     0.3870 C.3   1 <1>   0.1200 
 18 N       -3.7930   -10.8600     0.8650 N.2   1 <1>  -0.5650 
 19 N       -2.4620   -10.4830    -0.8640 N.pl3 1 <1>   0.0330 
 20 O       -5.0310    -6.5080     0.9120 O.3   1 <1>  -0.6800 
 21 C       -4.3130   -11.4060    -0.2520 C.2   1 <1>   0.0770 
 22 C       -3.5150   -11.1840    -1.3190 C.2   1 <1>  -0.3020 
 23 H        0.1430    -3.3570     1.2120 H     1 <1>   0.1500 
 24 H       -0.8410    -6.4210    -2.3800 H     1 <1>   0.1500 
 25 H       -0.2520    -5.7120     1.7610 H     1 <1>   0.1500 
 26 H       -1.9880    -9.6630     2.3610 H     1 <1>   0.0800 
 27 H       -0.7230    -9.9750     1.2100 H     1 <1>   0.0800 
 28 H       -2.5510    -6.3390     1.7350 H     1 <1>   0.0800 
 29 H       -3.2700    -7.8110     2.3250 H     1 <1>   0.0800 
 30 H       -4.3200    -8.1880     0.0860 H     1 <1>   0.0800 
 31 H       -3.6050    -6.6790    -0.4720 H     1 <1>   0.0800 
 32 H       -1.6510   -10.1000    -1.3710 H     1 <1>   0.2700 
 33 H       -5.5770    -7.0860     1.4840 H     1 <1>   0.4000 
 34 H       -5.2500   -11.9390    -0.2300 H     1 <1>   0.1500 
 35 H       -3.6330   -11.4760    -2.3470 H     1 <1>   0.1500 
@<TRIPOS>BOND
  1   1   2  1   
  2   2   3  1   
  3   2   4  1   
  4   2   5  1   
  5   5   6  ar  
  6   5   7  ar  
  7   6   8  ar  
  8   7   9  ar  
  9   7  23  1   
 10   8  10  ar  
 11   8  24  1   
 12   9  10  ar  
 13   9  25  1   
 14  10  11  1   
 15  11  12  2   
 16  11  13  am  
 17  13  14  1   
 18  13  15  1   
 19  14  16  1   
 20  14  26  1   
 21  14  27  1   
 22  15  17  1   
 23  15  28  1   
 24  15  29  1   
 25  16  18  2   
 26  16  19  1   
 27  17  20  1   
 28  17  30  1   
 29  17  31  1   
 30  18  21  1   
 31  19  22  1   
 32  19  32  1   
 33  20  33  1   
 34  21  22  2   
 35  21  34  1   
 36  22  35  1   
@<TRIPOS>SUBSTRUCTURE
  1 ****  10 GROUP 4 **** **** 0

# MOE 2024.06 (io_trps.svl 2023.06)
