@<TRIPOS>MOLECULE
NONAME
56 58 1 0 0 
SMALL
USER_CHARGES


@<TRIPOS>ATOM
  1 O       -2.8720     2.3920    -2.0870 O.2   1 <1>  -0.5700 
  2 C       -2.7130     1.7800    -1.0470 C.2   1 <1>   0.6900 
  3 N       -3.6890     0.9480    -0.5610 N.am  1 <1>  -0.6600 
  4 N       -1.5450     1.9030    -0.3690 N.am  1 <1>  -0.7300 
  5 C       -4.8920     0.6160    -1.3700 C.3   1 <1>   0.1400 
  6 C       -3.7550     0.4440     0.8370 C.3   1 <1>   0.1400 
  7 C       -0.4080     2.7470    -0.7840 C.3   1 <1>   0.1400 
  8 C       -5.0650    -0.9040    -1.4130 C.3   1 <1>  -0.1600 
  9 C       -3.9060    -1.0790     0.8150 C.3   1 <1>  -0.1600 
 10 C        0.2620     3.3270     0.4610 C.3   1 <1>  -0.1600 
 11 C       -5.1310    -1.5170    -0.0030 C.3   1 <1>   0.4240 
 12 C        1.4520     4.2200     0.0840 C.3   1 <1>  -0.1600 
 13 O       -6.2380    -0.9620     0.6680 O.3   1 <1>  -0.5600 
 14 C       -5.2180    -3.0580    -0.0640 C.ar  1 <1>  -0.1430 
 15 C        2.1210     4.8010     1.3320 C.3   1 <1>  -0.2400 
 16 C       -7.4870    -1.5340     0.4330 C.3   1 <1>   0.1200 
 17 C       -6.3310    -3.7380     0.4100 C.ar  1 <1>  -0.1440 
 18 C       -4.1760    -3.8020    -0.6040 C.ar  1 <1>  -0.1500 
 19 C       -7.4900    -2.9530     0.9930 C.3   1 <1>  -0.0170 
 20 C       -6.3930    -5.1210     0.3490 C.ar  1 <1>  -0.1500 
 21 C       -4.2150    -5.1840    -0.6690 C.ar  1 <1>   0.0820 
 22 C       -5.3480    -5.8650    -0.1930 C.ar  1 <1>   0.0820 
 23 O       -3.1000    -5.7520    -1.2150 O.3   1 <1>  -0.3620 
 24 O       -5.4200    -7.2270    -0.2790 O.3   1 <1>  -0.3620 
 25 C       -2.7150    -7.0780    -0.9280 C.3   1 <1>   0.0400 
 26 C       -6.5850    -7.9450     0.0640 C.3   1 <1>   0.0400 
 27 H       -1.3690     1.2360     0.3740 H     1 <1>   0.3700 
 28 H       -4.7930     0.9940    -2.3740 H     1 <1>   0.0800 
 29 H       -5.7560     1.0760    -0.9220 H     1 <1>   0.0800 
 30 H       -4.6060     0.8880     1.3270 H     1 <1>   0.0800 
 31 H       -2.8780     0.7160     1.3950 H     1 <1>   0.0800 
 32 H       -0.7590     3.5440    -1.4190 H     1 <1>   0.0800 
 33 H        0.2910     2.1480    -1.3420 H     1 <1>   0.0800 
 34 H       -4.2280    -1.3170    -1.9450 H     1 <1>   0.0800 
 35 H       -5.9460    -1.1590    -1.9710 H     1 <1>   0.0800 
 36 H       -4.0030    -1.4530     1.8170 H     1 <1>   0.0800 
 37 H       -3.0110    -1.5000     0.3970 H     1 <1>   0.0800 
 38 H        0.6060     2.5240     1.0890 H     1 <1>   0.0800 
 39 H       -0.4600     3.9100     1.0060 H     1 <1>   0.0800 
 40 H        1.1130     5.0270    -0.5440 H     1 <1>   0.0800 
 41 H        2.1750     3.6470    -0.4710 H     1 <1>   0.0800 
 42 H        1.4220     5.3980     1.8910 H     1 <1>   0.0800 
 43 H        2.9500     5.4250     1.0480 H     1 <1>   0.0800 
 44 H        2.4890     4.0130     1.9660 H     1 <1>   0.0800 
 45 H       -7.6860    -1.5330    -0.6240 H     1 <1>   0.0800 
 46 H       -8.2250    -0.9310     0.9310 H     1 <1>   0.0800 
 47 H       -3.3010    -3.3120    -0.9890 H     1 <1>   0.1500 
 48 H       -8.4230    -3.4270     0.7480 H     1 <1>   0.0800 
 49 H       -7.4000    -2.9150     2.0640 H     1 <1>   0.0800 
 50 H       -7.2710    -5.6020     0.7310 H     1 <1>   0.1500 
 51 H       -1.6890    -7.2000    -1.2240 H     1 <1>   0.0800 
 52 H       -3.3380    -7.7490    -1.4910 H     1 <1>   0.0800 
 53 H       -2.8180    -7.2530     0.1280 H     1 <1>   0.0800 
 54 H       -6.4080    -8.9850    -0.1420 H     1 <1>   0.0800 
 55 H       -7.4050    -7.5890    -0.5350 H     1 <1>   0.0800 
 56 H       -6.7830    -7.8100     1.1130 H     1 <1>   0.0800 
@<TRIPOS>BOND
  1   1   2  2   
  2   2   3  am  
  3   2   4  am  
  4   3   5  1   
  5   3   6  1   
  6   4   7  1   
  7   4  27  1   
  8   5   8  1   
  9   5  28  1   
 10   5  29  1   
 11   6   9  1   
 12   6  30  1   
 13   6  31  1   
 14   7  10  1   
 15   7  32  1   
 16   7  33  1   
 17   8  11  1   
 18   8  34  1   
 19   8  35  1   
 20   9  11  1   
 21   9  36  1   
 22   9  37  1   
 23  10  12  1   
 24  10  38  1   
 25  10  39  1   
 26  11  13  1   
 27  11  14  1   
 28  12  15  1   
 29  12  40  1   
 30  12  41  1   
 31  13  16  1   
 32  14  17  ar  
 33  14  18  ar  
 34  15  42  1   
 35  15  43  1   
 36  15  44  1   
 37  16  19  1   
 38  16  45  1   
 39  16  46  1   
 40  17  19  1   
 41  17  20  ar  
 42  18  21  ar  
 43  18  47  1   
 44  19  48  1   
 45  19  49  1   
 46  20  22  ar  
 47  20  50  1   
 48  21  22  ar  
 49  21  23  1   
 50  22  24  1   
 51  23  25  1   
 52  24  26  1   
 53  25  51  1   
 54  25  52  1   
 55  25  53  1   
 56  26  54  1   
 57  26  55  1   
 58  26  56  1   
@<TRIPOS>SUBSTRUCTURE
  1 ****   9 GROUP 4 **** **** 0

# MOE 2024.06 (io_trps.svl 2023.06)
