@<TRIPOS>MOLECULE
NONAME
39 42 1 0 0 
SMALL
USER_CHARGES


@<TRIPOS>ATOM
  1 S       -0.2770     0.1410    -2.0880 S.3   1 <1>  -0.0800 
  2 C       -1.2030     0.9740    -0.8490 C.2   1 <1>  -0.1400 
  3 C       -1.5280    -1.0860    -2.2420 C.2   1 <1>  -0.1100 
  4 C       -2.3610     0.3410    -0.6170 C.2   1 <1>  -0.1810 
  5 C       -0.7090     2.2410    -0.1620 C.3   1 <1>   0.4600 
  6 C       -2.5520    -0.8390    -1.4020 C.2   1 <1>  -0.1500 
  7 C       -3.3230     0.9010     0.4070 C.3   1 <1>   0.0210 
  8 O       -1.6060     2.5690     0.8820 O.3   1 <1>  -0.5600 
  9 C       -0.6330     3.4200    -1.1420 C.3   1 <1>  -0.1600 
 10 C        0.6500     2.0030     0.5010 C.3   1 <1>  -0.1600 
 11 C       -2.9850     2.3840     0.6570 C.3   1 <1>   0.1200 
 12 C       -0.0820     4.6750    -0.4670 C.3   1 <1>   0.2090 
 13 C        1.1730     3.2780     1.1560 C.3   1 <1>   0.2090 
 14 N        1.2500     4.3570     0.1260 N.pl3 1 <1>  -0.8380 
 15 C        2.4060     4.9690    -0.2400 C.ar  1 <1>   0.1000 
 16 C        2.4500     6.3340    -0.5550 C.ar  1 <1>  -0.1500 
 17 C        3.6150     4.2660    -0.3210 C.ar  1 <1>  -0.1500 
 18 C        3.6230     6.9370    -0.9240 C.ar  1 <1>   0.2110 
 19 C        4.7750     4.8940    -0.6920 C.ar  1 <1>   0.2110 
 20 N        4.7720     6.2170    -0.9890 N.ar  1 <1>  -0.1790 
 21 H       -1.3610    -1.8740    -2.9540 H     1 <1>   0.1500 
 22 H       -3.4390    -1.4390    -1.3020 H     1 <1>   0.1500 
 23 H       -3.2410     0.3460     1.3240 H     1 <1>   0.0800 
 24 H       -4.3330     0.8210     0.0480 H     1 <1>   0.0800 
 25 H       -1.6010     3.6170    -1.5600 H     1 <1>   0.0800 
 26 H        0.0180     3.1590    -1.9550 H     1 <1>   0.0800 
 27 H        1.3610     1.6760    -0.2340 H     1 <1>   0.0800 
 28 H        0.5530     1.2240     1.2350 H     1 <1>   0.0800 
 29 H       -3.5100     2.7410     1.5250 H     1 <1>   0.0800 
 30 H       -3.2750     2.9800    -0.1900 H     1 <1>   0.0800 
 31 H       -0.7530     5.0030     0.3110 H     1 <1>   0.0800 
 32 H        0.0020     5.4580    -1.1990 H     1 <1>   0.0800 
 33 H        2.1370     3.1020     1.5990 H     1 <1>   0.0800 
 34 H        0.5040     3.5860     1.9420 H     1 <1>   0.0800 
 35 H        1.5440     6.9080    -0.4890 H     1 <1>   0.1500 
 36 H        3.6170     3.2140    -0.0990 H     1 <1>   0.1500 
 37 H        3.6530     7.9880    -1.1630 H     1 <1>   0.1500 
 38 H        5.7030     4.3470    -0.7550 H     1 <1>   0.1500 
 39 H        5.6460     6.6790    -1.2660 H     1 <1>   0.4570 
@<TRIPOS>BOND
  1   1   2  1   
  2   1   3  1   
  3   2   4  2   
  4   2   5  1   
  5   3   6  2   
  6   3  21  1   
  7   4   6  1   
  8   4   7  1   
  9   5   8  1   
 10   5   9  1   
 11   5  10  1   
 12   6  22  1   
 13   7  11  1   
 14   7  23  1   
 15   7  24  1   
 16   8  11  1   
 17   9  12  1   
 18   9  25  1   
 19   9  26  1   
 20  10  13  1   
 21  10  27  1   
 22  10  28  1   
 23  11  29  1   
 24  11  30  1   
 25  12  14  1   
 26  12  31  1   
 27  12  32  1   
 28  13  14  1   
 29  13  33  1   
 30  13  34  1   
 31  14  15  1   
 32  15  16  ar  
 33  15  17  ar  
 34  16  18  ar  
 35  16  35  1   
 36  17  19  ar  
 37  17  36  1   
 38  18  20  ar  
 39  18  37  1   
 40  19  20  ar  
 41  19  38  1   
 42  20  39  1   
@<TRIPOS>SUBSTRUCTURE
  1 ****   9 GROUP 4 **** **** 0

# MOE 2024.06 (io_trps.svl 2023.06)
