@<TRIPOS>MOLECULE
NONAME
51 54 1 0 0 
SMALL
USER_CHARGES


@<TRIPOS>ATOM
  1 O       -0.8360     0.4810     2.2260 O.2   1 <1>  -0.5700 
  2 C       -1.6160     1.1130     1.5420 C.2   1 <1>   0.6160 
  3 N       -2.6710     0.4610     0.9550 N.am  1 <1>  -0.6600 
  4 C       -1.4350     2.5330     1.3480 C.2   1 <1>  -0.0140 
  5 C       -3.5260     1.0140    -0.1270 C.3   1 <1>   0.1400 
  6 C       -2.9290    -0.9870     1.1130 C.3   1 <1>   0.1400 
  7 C       -0.2970     3.0310     0.6060 C.ar  1 <1>   0.0280 
  8 C       -2.3370     3.4270     1.8450 C.2   1 <1>  -0.1360 
  9 C       -4.3990    -0.1560    -0.6070 C.3   1 <1>   0.2000 
 10 C       -3.6060    -1.4010    -0.1950 C.3   1 <1>  -0.0800 
 11 C       -0.1760     4.4190     0.4090 C.ar  1 <1>   0.1170 
 12 C        0.6950     2.2070     0.0610 C.ar  1 <1>  -0.1500 
 13 C       -2.2090     4.8240     1.6460 C.2   1 <1>   0.6160 
 14 O       -5.6180    -0.1520     0.0800 O.3   1 <1>  -0.5600 
 15 C       -4.4440    -2.6870    -0.0730 C.3   1 <1>   0.0200 
 16 N       -1.1400     5.2680     0.9380 N.am  1 <1>  -0.5470 
 17 C        0.8970     4.9340    -0.3110 C.ar  1 <1>  -0.1500 
 18 C        1.7570     2.7250    -0.6520 C.ar  1 <1>  -0.1440 
 19 O       -3.0140     5.6350     2.0630 O.2   1 <1>  -0.5700 
 20 C       -6.6120     0.6510    -0.4750 C.3   1 <1>   0.0400 
 21 C       -3.6020    -3.9290     0.1660 C.2   1 <1>  -0.0400 
 22 C        1.8550     4.0970    -0.8380 C.ar  1 <1>  -0.1500 
 23 C        2.8260     1.8160    -1.2330 C.3   1 <1>  -0.0970 
 24 O       -4.2080    -5.0670     0.3760 O.3   1 <1>  -0.0190 
 25 C       -2.2790    -4.1580     0.2140 C.2   1 <1>  -0.1500 
 26 N       -3.3670    -6.0420     0.5640 N.2   1 <1>  -0.4100 
 27 C       -2.1960    -5.5230     0.4730 C.2   1 <1>   0.1080 
 28 C       -0.9070    -6.2990     0.6290 C.3   1 <1>  -0.0590 
 29 H       -4.1260     1.8300     0.2350 H     1 <1>   0.0800 
 30 H       -2.8950     1.3530    -0.9300 H     1 <1>   0.0800 
 31 H       -2.0170    -1.5310     1.2870 H     1 <1>   0.0800 
 32 H       -3.5960    -1.1300     1.9460 H     1 <1>   0.0800 
 33 H       -3.1920     3.1110     2.4130 H     1 <1>   0.1500 
 34 H       -4.5870    -0.1300    -1.6670 H     1 <1>   0.0800 
 35 H       -2.8360    -1.5570    -0.9300 H     1 <1>   0.0800 
 36 H        0.6350     1.1430     0.2050 H     1 <1>   0.1500 
 37 H       -5.0090    -2.8310    -0.9770 H     1 <1>   0.0800 
 38 H       -5.1470    -2.5880     0.7360 H     1 <1>   0.0800 
 39 H       -1.0760     6.2780     0.8280 H     1 <1>   0.3700 
 40 H        0.9780     5.9960    -0.4550 H     1 <1>   0.1500 
 41 H       -7.4860     0.5760     0.1480 H     1 <1>   0.0800 
 42 H       -6.8450     0.2970    -1.4640 H     1 <1>   0.0800 
 43 H       -6.2790     1.6730    -0.5050 H     1 <1>   0.0800 
 44 H        2.6820     4.5050    -1.3930 H     1 <1>   0.1500 
 45 H        3.7910     2.0910    -0.8450 H     1 <1>   0.0800 
 46 H        2.8430     1.9070    -2.3040 H     1 <1>   0.0800 
 47 H        2.6390     0.7880    -0.9790 H     1 <1>   0.0800 
 48 H       -1.4480    -3.4900     0.0880 H     1 <1>   0.1500 
 49 H       -0.3320    -5.8910     1.4390 H     1 <1>   0.0800 
 50 H       -0.3350    -6.2410    -0.2780 H     1 <1>   0.0800 
 51 H       -1.1230    -7.3310     0.8390 H     1 <1>   0.0800 
@<TRIPOS>BOND
  1   1   2  2   
  2   2   3  am  
  3   2   4  1   
  4   3   5  1   
  5   3   6  1   
  6   4   7  1   
  7   4   8  2   
  8   5   9  1   
  9   5  29  1   
 10   5  30  1   
 11   6  10  1   
 12   6  31  1   
 13   6  32  1   
 14   7  11  ar  
 15   7  12  ar  
 16   8  13  1   
 17   8  33  1   
 18   9  10  1   
 19   9  14  1   
 20   9  34  1   
 21  10  15  1   
 22  10  35  1   
 23  11  16  1   
 24  11  17  ar  
 25  12  18  ar  
 26  12  36  1   
 27  13  16  am  
 28  13  19  2   
 29  14  20  1   
 30  15  21  1   
 31  15  37  1   
 32  15  38  1   
 33  16  39  1   
 34  17  22  ar  
 35  17  40  1   
 36  18  22  ar  
 37  18  23  1   
 38  20  41  1   
 39  20  42  1   
 40  20  43  1   
 41  21  24  1   
 42  21  25  2   
 43  22  44  1   
 44  23  45  1   
 45  23  46  1   
 46  23  47  1   
 47  24  26  1   
 48  25  27  1   
 49  25  48  1   
 50  26  27  2   
 51  27  28  1   
 52  28  49  1   
 53  28  50  1   
 54  28  51  1   
@<TRIPOS>SUBSTRUCTURE
  1 ****   3 GROUP 4 **** **** 0

# MOE 2024.06 (io_trps.svl 2023.06)
