@<TRIPOS>MOLECULE
NONAME
42 44 1 0 0 
SMALL
USER_CHARGES


@<TRIPOS>ATOM
  1 O       -0.1030     0.2130    -0.3700 O.2   1 <1>  -0.5700 
  2 C       -1.1470     0.8250    -0.3980 C.2   1 <1>   0.5690 
  3 N       -2.3470     0.1700    -0.5090 N.am  1 <1>  -0.6600 
  4 C       -1.0680     2.3560    -0.3590 C.3   1 <1>   0.1810 
  5 C       -3.6900     0.7990    -0.4500 C.3   1 <1>   0.1400 
  6 C       -2.4590    -1.3070    -0.5390 C.3   1 <1>   0.1400 
  7 O       -1.8790     2.9310     0.6380 O.3   1 <1>  -0.5600 
  8 C       -4.6770    -0.3670    -0.5220 C.3   1 <1>   0.2000 
  9 C       -3.8900    -1.6010    -0.0840 C.3   1 <1>  -0.0800 
 10 C       -1.7380     4.3100     0.7550 C.3   1 <1>   0.0400 
 11 O       -5.7600    -0.1720     0.3210 O.3   1 <1>  -0.6800 
 12 C       -4.4690    -2.9070    -0.6510 C.3   1 <1>  -0.0170 
 13 C       -3.6460    -4.1090    -0.2220 C.ar  1 <1>   0.1670 
 14 N       -2.6700    -4.4730    -0.9960 N.ar  1 <1>  -0.6200 
 15 C       -3.9670    -4.7570     0.9820 C.ar  1 <1>  -0.1500 
 16 C       -1.9180    -5.5350    -0.6090 C.ar  1 <1>   0.3100 
 17 C       -3.2330    -5.8280     1.3920 C.ar  1 <1>  -0.1500 
 18 C       -2.1640    -6.2490     0.5840 C.ar  1 <1>   0.0000 
 19 C       -0.8490    -5.9420    -1.4240 C.ar  1 <1>  -0.1500 
 20 C       -1.3350    -7.3400     0.9120 C.ar  1 <1>  -0.1500 
 21 C       -0.0540    -7.0060    -1.0870 C.ar  1 <1>  -0.1500 
 22 C       -0.3010    -7.7120     0.0950 C.ar  1 <1>  -0.1500 
 23 H       -1.3740     2.7450    -1.3130 H     1 <1>   0.0800 
 24 H       -0.0480     2.6410    -0.1710 H     1 <1>   0.0800 
 25 H       -3.7940     1.3270     0.4810 H     1 <1>   0.0800 
 26 H       -3.8260     1.4710    -1.2780 H     1 <1>   0.0800 
 27 H       -2.2960    -1.6520    -1.5460 H     1 <1>   0.0800 
 28 H       -1.7340    -1.7670     0.1120 H     1 <1>   0.0800 
 29 H       -5.0430    -0.4730    -1.5290 H     1 <1>   0.0800 
 30 H       -3.8730    -1.6530     0.9910 H     1 <1>   0.0800 
 31 H       -2.4010     4.6500     1.5300 H     1 <1>   0.0800 
 32 H       -2.0020     4.7760    -0.1790 H     1 <1>   0.0800 
 33 H       -0.7210     4.5420     1.0220 H     1 <1>   0.0800 
 34 H       -5.4500    -0.0300     1.2360 H     1 <1>   0.4000 
 35 H       -4.4880    -2.8630    -1.7260 H     1 <1>   0.0800 
 36 H       -5.4830    -3.0270    -0.3140 H     1 <1>   0.0800 
 37 H       -4.7920    -4.3960     1.5690 H     1 <1>   0.1500 
 38 H       -3.4480    -6.3500     2.3070 H     1 <1>   0.1500 
 39 H       -0.6760    -5.3850    -2.3260 H     1 <1>   0.1500 
 40 H       -1.5290    -7.8790     1.8220 H     1 <1>   0.1500 
 41 H        0.7620    -7.3070    -1.7210 H     1 <1>   0.1500 
 42 H        0.3310    -8.5460     0.3480 H     1 <1>   0.1500 
@<TRIPOS>BOND
  1   1   2  2   
  2   2   3  am  
  3   2   4  1   
  4   3   5  1   
  5   3   6  1   
  6   4   7  1   
  7   4  23  1   
  8   4  24  1   
  9   5   8  1   
 10   5  25  1   
 11   5  26  1   
 12   6   9  1   
 13   6  27  1   
 14   6  28  1   
 15   7  10  1   
 16   8   9  1   
 17   8  11  1   
 18   8  29  1   
 19   9  12  1   
 20   9  30  1   
 21  10  31  1   
 22  10  32  1   
 23  10  33  1   
 24  11  34  1   
 25  12  13  1   
 26  12  35  1   
 27  12  36  1   
 28  13  14  ar  
 29  13  15  ar  
 30  14  16  ar  
 31  15  17  ar  
 32  15  37  1   
 33  16  18  ar  
 34  16  19  ar  
 35  17  18  ar  
 36  17  38  1   
 37  18  20  ar  
 38  19  21  ar  
 39  19  39  1   
 40  20  22  ar  
 41  20  40  1   
 42  21  22  ar  
 43  21  41  1   
 44  22  42  1   
@<TRIPOS>SUBSTRUCTURE
  1 ****   6 GROUP 4 **** **** 0

# MOE 2024.06 (io_trps.svl 2023.06)
