@<TRIPOS>MOLECULE
NONAME
45 47 1 0 0 
SMALL
USER_CHARGES


@<TRIPOS>ATOM
  1 S       -1.7850     0.3850    -0.2100 S.3   1 <1>  -0.0800 
  2 C       -3.1190    -0.7390    -0.3920 C.2   1 <1>  -0.1100 
  3 C       -2.4220     0.9530     1.3220 C.2   1 <1>  -0.1100 
  4 C       -3.9680    -0.6540     0.6510 C.2   1 <1>  -0.1810 
  5 C       -3.5640     0.3120     1.6300 C.2   1 <1>  -0.1500 
  6 C       -5.2460    -1.4640     0.8460 C.3   1 <1>   0.0820 
  7 C       -5.6790    -2.2470    -0.3870 C.2   1 <1>   0.5690 
  8 O       -5.4630    -3.4390    -0.3970 O.2   1 <1>  -0.5700 
  9 N       -6.3150    -1.6280    -1.4360 N.am  1 <1>  -0.6600 
 10 C       -6.9940    -2.4440    -2.4830 C.3   1 <1>   0.1400 
 11 C       -6.4600    -0.1540    -1.6090 C.3   1 <1>   0.1400 
 12 C       -8.4290    -2.8220    -2.0720 C.3   1 <1>   0.1400 
 13 C       -7.8510     0.3510    -1.1970 C.3   1 <1>  -0.1600 
 14 N       -9.1570    -1.7390    -1.3300 N.am  1 <1>  -0.6600 
 15 C       -9.0290    -0.3620    -1.8760 C.3   1 <1>   0.1400 
 16 C       -9.8180    -1.9520    -0.1330 C.2   1 <1>   0.7150 
 17 O      -10.6930    -1.1650     0.1880 O.2   1 <1>  -0.5700 
 18 C       -9.5020    -3.0540     0.7500 C.2   1 <1>   0.0550 
 19 O       -8.2440    -3.4300     0.9280 O.3   1 <1>  -0.2800 
 20 C      -10.2930    -3.8360     1.5140 C.2   1 <1>   0.0460 
 21 C       -8.3690    -4.4350     1.7650 C.2   1 <1>   0.2980 
 22 N       -9.5510    -4.7300     2.1590 N.2   1 <1>  -0.5650 
 23 C      -11.7960    -3.8220     1.7020 C.3   1 <1>  -0.0590 
 24 C       -7.1080    -5.1530     2.1790 C.3   1 <1>  -0.0600 
 25 H       -3.1270    -1.3560    -1.2750 H     1 <1>   0.1500 
 26 H       -1.8640     1.7160     1.8350 H     1 <1>   0.1500 
 27 H       -4.1460     0.4800     2.5200 H     1 <1>   0.1500 
 28 H       -6.0490    -0.8120     1.1320 H     1 <1>   0.0800 
 29 H       -5.0940    -2.1570     1.6530 H     1 <1>   0.0800 
 30 H       -6.4330    -3.3450    -2.6650 H     1 <1>   0.0800 
 31 H       -7.0190    -1.8970    -3.4080 H     1 <1>   0.0800 
 32 H       -6.2840     0.0920    -2.6420 H     1 <1>   0.0800 
 33 H       -5.7130     0.3650    -1.0350 H     1 <1>   0.0800 
 34 H       -8.3820    -3.7180    -1.4810 H     1 <1>   0.0800 
 35 H       -8.9870    -3.0690    -2.9580 H     1 <1>   0.0800 
 36 H       -7.9060     1.3950    -1.4490 H     1 <1>   0.0800 
 37 H       -7.9610     0.2850    -0.1300 H     1 <1>   0.0800 
 38 H       -8.8920    -0.3950    -2.9430 H     1 <1>   0.0800 
 39 H       -9.9350     0.1860    -1.6820 H     1 <1>   0.0800 
 40 H      -12.2540    -3.0680     1.0900 H     1 <1>   0.0800 
 41 H      -12.0270    -3.6210     2.7320 H     1 <1>   0.0800 
 42 H      -12.2020    -4.7810     1.4360 H     1 <1>   0.0800 
 43 H       -6.4590    -4.4730     2.6970 H     1 <1>   0.0800 
 44 H       -6.6030    -5.5230     1.3050 H     1 <1>   0.0800 
 45 H       -7.3490    -5.9770     2.8250 H     1 <1>   0.0800 
@<TRIPOS>BOND
  1   1   2  1   
  2   1   3  1   
  3   2   4  2   
  4   2  25  1   
  5   3   5  2   
  6   3  26  1   
  7   4   5  1   
  8   4   6  1   
  9   5  27  1   
 10   6   7  1   
 11   6  28  1   
 12   6  29  1   
 13   7   8  2   
 14   7   9  am  
 15   9  10  1   
 16   9  11  1   
 17  10  12  1   
 18  10  30  1   
 19  10  31  1   
 20  11  13  1   
 21  11  32  1   
 22  11  33  1   
 23  12  14  1   
 24  12  34  1   
 25  12  35  1   
 26  13  15  1   
 27  13  36  1   
 28  13  37  1   
 29  14  15  1   
 30  14  16  am  
 31  15  38  1   
 32  15  39  1   
 33  16  17  2   
 34  16  18  1   
 35  18  19  1   
 36  18  20  2   
 37  19  21  1   
 38  20  22  1   
 39  20  23  1   
 40  21  22  2   
 41  21  24  1   
 42  23  40  1   
 43  23  41  1   
 44  23  42  1   
 45  24  43  1   
 46  24  44  1   
 47  24  45  1   
@<TRIPOS>SUBSTRUCTURE
  1 ****   7 GROUP 4 **** **** 0

# MOE 2024.06 (io_trps.svl 2023.06)
