@<TRIPOS>MOLECULE
NONAME
45 47 1 0 0 
SMALL
USER_CHARGES


@<TRIPOS>ATOM
  1 F       -2.9510    -0.8260    -4.0850 F     1 <1>  -0.1900 
  2 C       -3.6800    -0.7650    -3.0040 C.ar  1 <1>   0.1900 
  3 C       -3.7480    -1.8710    -2.1810 C.ar  1 <1>  -0.1500 
  4 C       -4.3580     0.4050    -2.7230 C.ar  1 <1>  -0.1500 
  5 C       -4.5260    -1.8020    -1.0380 C.ar  1 <1>  -0.1500 
  6 C       -5.1330     0.4630    -1.5770 C.ar  1 <1>  -0.1500 
  7 C       -5.2290    -0.6390    -0.7320 C.ar  1 <1>  -0.1430 
  8 C       -6.1090    -0.5510     0.5170 C.3   1 <1>   0.4050 
  9 O       -5.2930    -0.1700     1.5800 O.3   1 <1>  -0.6800 
 10 C       -6.8600    -1.8700     0.8270 C.2   1 <1>   0.5690 
 11 O       -6.3880    -2.5960     1.6780 O.2   1 <1>  -0.5700 
 12 N       -8.0200    -2.2130     0.1640 N.am  1 <1>  -0.6600 
 13 C       -8.7770    -3.4530     0.5220 C.3   1 <1>   0.1400 
 14 C       -8.6110    -1.4240    -0.9510 C.3   1 <1>   0.1400 
 15 C      -10.2010    -3.1410     1.0100 C.3   1 <1>   0.1400 
 16 C       -9.7510    -0.5590    -0.4060 C.3   1 <1>  -0.1600 
 17 N      -11.0930    -2.7110    -0.1140 N.am  1 <1>  -0.6600 
 18 C      -11.1250    -1.2460    -0.4210 C.3   1 <1>   0.1400 
 19 C      -11.9890    -3.5750    -0.7370 C.2   1 <1>   0.5440 
 20 O      -12.8470    -3.0740    -1.4460 O.2   1 <1>  -0.5700 
 21 C      -11.9980    -5.0330    -0.5790 C.ar  1 <1>   0.3960 
 22 N      -10.8600    -5.7380    -0.4400 N.ar  1 <1>  -0.6200 
 23 C      -13.2410    -5.6800    -0.5890 C.ar  1 <1>   0.1600 
 24 C      -11.0560    -7.0380    -0.3210 C.ar  1 <1>   0.1600 
 25 N      -13.4400    -6.9830    -0.4580 N.ar  1 <1>  -0.6200 
 26 C      -12.3050    -7.6420    -0.3280 C.ar  1 <1>   0.1600 
 27 H       -3.2030    -2.7640    -2.4300 H     1 <1>   0.1500 
 28 H       -4.2750     1.2480    -3.3850 H     1 <1>   0.1500 
 29 H       -4.5780    -2.6610    -0.3890 H     1 <1>   0.1500 
 30 H       -5.6580     1.3730    -1.3420 H     1 <1>   0.1500 
 31 H       -6.8310     0.2350     0.3950 H     1 <1>   0.0800 
 32 H       -4.9880    -0.9950     2.0140 H     1 <1>   0.4000 
 33 H       -8.2650    -3.9850     1.3050 H     1 <1>   0.0800 
 34 H       -8.8170    -4.1040    -0.3320 H     1 <1>   0.0800 
 35 H       -8.9750    -2.0870    -1.7200 H     1 <1>   0.0800 
 36 H       -7.8630    -0.7970    -1.4020 H     1 <1>   0.0800 
 37 H      -10.1630    -2.3760     1.7660 H     1 <1>   0.0800 
 38 H      -10.6080    -4.0200     1.4760 H     1 <1>   0.0800 
 39 H       -9.8320     0.3230    -1.0160 H     1 <1>   0.0800 
 40 H       -9.5200    -0.2250     0.5900 H     1 <1>   0.0800 
 41 H      -11.5440    -1.1050    -1.4030 H     1 <1>   0.0800 
 42 H      -11.7810    -0.7570     0.2790 H     1 <1>   0.0800 
 43 H      -14.1200    -5.0700    -0.7120 H     1 <1>   0.1500 
 44 H      -10.1850    -7.6620    -0.2120 H     1 <1>   0.1500 
 45 H      -12.3660    -8.7120    -0.2220 H     1 <1>   0.1500 
@<TRIPOS>BOND
  1   1   2  1   
  2   2   3  ar  
  3   2   4  ar  
  4   3   5  ar  
  5   3  27  1   
  6   4   6  ar  
  7   4  28  1   
  8   5   7  ar  
  9   5  29  1   
 10   6   7  ar  
 11   6  30  1   
 12   7   8  1   
 13   8   9  1   
 14   8  10  1   
 15   8  31  1   
 16   9  32  1   
 17  10  11  2   
 18  10  12  am  
 19  12  13  1   
 20  12  14  1   
 21  13  15  1   
 22  13  33  1   
 23  13  34  1   
 24  14  16  1   
 25  14  35  1   
 26  14  36  1   
 27  15  17  1   
 28  15  37  1   
 29  15  38  1   
 30  16  18  1   
 31  16  39  1   
 32  16  40  1   
 33  17  18  1   
 34  17  19  am  
 35  18  41  1   
 36  18  42  1   
 37  19  20  2   
 38  19  21  1   
 39  21  22  ar  
 40  21  23  ar  
 41  22  24  ar  
 42  23  25  ar  
 43  23  43  1   
 44  24  26  ar  
 45  24  44  1   
 46  25  26  ar  
 47  26  45  1   
@<TRIPOS>SUBSTRUCTURE
  1 ****  12 GROUP 4 **** **** 0

# MOE 2024.06 (io_trps.svl 2023.06)
