@<TRIPOS>MOLECULE
NONAME
46 49 1 0 0 
SMALL
USER_CHARGES


@<TRIPOS>ATOM
  1 O        0.2920    -0.4900    -0.5250 O.2   1 <1>  -0.5700 
  2 C        0.1050    -1.6590    -0.3090 C.2   1 <1>   0.5690 
  3 N       -0.8060    -2.3960    -1.0110 N.am  1 <1>  -0.3680 
  4 C        0.8560    -2.3770     0.7870 C.3   1 <1>  -0.0990 
  5 N       -1.0560    -3.7470    -0.8890 N.2   1 <1>  -0.5120 
  6 C        0.9920    -3.8770     0.4640 C.3   1 <1>  -0.0990 
  7 C       -0.2670    -4.4950    -0.1830 C.2   1 <1>   0.3890 
  8 C       -0.4440    -5.9290     0.0240 C.2   1 <1>   0.6300 
  9 O        0.4610    -6.5910     0.5140 O.2   1 <1>  -0.5700 
 10 N       -1.5940    -6.6360    -0.3030 N.am  1 <1>  -0.6600 
 11 C       -2.8840    -6.0730    -0.7850 C.3   1 <1>   0.1400 
 12 C       -1.6810    -8.1180    -0.2270 C.3   1 <1>   0.1400 
 13 C       -3.8860    -7.2140    -0.6200 C.3   1 <1>   0.2000 
 14 C       -3.0420    -8.4750    -0.8420 C.3   1 <1>  -0.0800 
 15 O       -4.3570    -7.1910     0.6850 O.3   1 <1>  -0.6800 
 16 C       -3.6670    -9.7720    -0.2860 C.3   1 <1>  -0.0170 
 17 C       -2.9410   -11.0840    -0.6110 C.ar  1 <1>  -0.1430 
 18 C       -3.3430   -12.2840     0.0280 C.ar  1 <1>   0.0000 
 19 C       -1.9120   -11.1780    -1.5080 C.ar  1 <1>  -0.1500 
 20 C       -2.6400   -13.4740    -0.2850 C.ar  1 <1>   0.3100 
 21 C       -4.4080   -12.3760     0.9560 C.ar  1 <1>  -0.1500 
 22 C       -1.2880   -12.4080    -1.7480 C.ar  1 <1>   0.1600 
 23 N       -1.6160   -13.5180    -1.1720 N.ar  1 <1>  -0.6200 
 24 C       -3.0140   -14.6740     0.3430 C.ar  1 <1>  -0.1500 
 25 C       -4.7490   -13.5620     1.5490 C.ar  1 <1>  -0.1500 
 26 C       -4.0430   -14.7270     1.2420 C.ar  1 <1>  -0.1500 
 27 H       -1.3610    -1.8470    -1.6770 H     1 <1>   0.3700 
 28 H        1.8250    -1.9310     0.9160 H     1 <1>   0.0800 
 29 H        0.3010    -2.2530     1.6980 H     1 <1>   0.0800 
 30 H        1.2440    -4.3950     1.3720 H     1 <1>   0.0800 
 31 H        1.8070    -4.0140    -0.2250 H     1 <1>   0.0800 
 32 H       -3.1820    -5.2030    -0.2240 H     1 <1>   0.0800 
 33 H       -2.7870    -5.8160    -1.8250 H     1 <1>   0.0800 
 34 H       -0.8650    -8.5720    -0.7620 H     1 <1>   0.0800 
 35 H       -1.6340    -8.4200     0.8060 H     1 <1>   0.0800 
 36 H       -4.7270    -7.1380    -1.2880 H     1 <1>   0.0800 
 37 H       -2.9140    -8.5780    -1.9050 H     1 <1>   0.0800 
 38 H       -3.5970    -7.0990     1.2940 H     1 <1>   0.4000 
 39 H       -4.6740    -9.8490    -0.6570 H     1 <1>   0.0800 
 40 H       -3.7250    -9.6810     0.7850 H     1 <1>   0.0800 
 41 H       -1.5420   -10.3380    -2.0610 H     1 <1>   0.1500 
 42 H       -4.9730   -11.4980     1.2070 H     1 <1>   0.1500 
 43 H       -0.4800   -12.4300    -2.4600 H     1 <1>   0.1500 
 44 H       -2.4580   -15.5570     0.0880 H     1 <1>   0.1500 
 45 H       -5.5610   -13.6140     2.2540 H     1 <1>   0.1500 
 46 H       -4.3190   -15.6540     1.7140 H     1 <1>   0.1500 
@<TRIPOS>BOND
  1   1   2  2   
  2   2   3  am  
  3   2   4  1   
  4   3   5  1   
  5   3  27  1   
  6   4   6  1   
  7   4  28  1   
  8   4  29  1   
  9   5   7  2   
 10   6   7  1   
 11   6  30  1   
 12   6  31  1   
 13   7   8  1   
 14   8   9  2   
 15   8  10  am  
 16  10  11  1   
 17  10  12  1   
 18  11  13  1   
 19  11  32  1   
 20  11  33  1   
 21  12  14  1   
 22  12  34  1   
 23  12  35  1   
 24  13  14  1   
 25  13  15  1   
 26  13  36  1   
 27  14  16  1   
 28  14  37  1   
 29  15  38  1   
 30  16  17  1   
 31  16  39  1   
 32  16  40  1   
 33  17  18  ar  
 34  17  19  ar  
 35  18  20  ar  
 36  18  21  ar  
 37  19  22  ar  
 38  19  41  1   
 39  20  23  ar  
 40  20  24  ar  
 41  21  25  ar  
 42  21  42  1   
 43  22  23  ar  
 44  22  43  1   
 45  24  26  ar  
 46  24  44  1   
 47  25  26  ar  
 48  25  45  1   
 49  26  46  1   
@<TRIPOS>SUBSTRUCTURE
  1 ****  12 GROUP 4 **** **** 0

# MOE 2024.06 (io_trps.svl 2023.06)
