@<TRIPOS>MOLECULE
NONAME
57 62 1 0 0 
SMALL
USER_CHARGES


@<TRIPOS>ATOM
  1 O        0.1820     0.6950    -2.3050 O.2   1 <1>  -0.5700 
  2 C       -0.1760     1.7080    -1.7300 C.2   1 <1>   0.5440 
  3 N       -1.4940     1.8210    -1.3350 N.am  1 <1>  -0.6600 
  4 C        0.7940     2.7390    -1.4330 C.ar  1 <1>   0.0860 
  5 C       -1.9070     2.6240    -0.1390 C.3   1 <1>   0.1400 
  6 C       -2.5170     0.8380    -1.7860 C.3   1 <1>   0.1400 
  7 C        1.9170     2.4520    -0.6400 C.ar  1 <1>  -0.1520 
  8 C        0.6690     4.0450    -1.8840 C.ar  1 <1>  -0.1500 
  9 C       -3.2320     3.3750    -0.3840 C.3   1 <1>   0.1440 
 10 C       -3.8410     1.5510    -2.0790 C.3   1 <1>  -0.1600 
 11 N        2.3130     1.2540    -0.1050 N.pl3 1 <1>   0.0330 
 12 C        2.8370     3.4300    -0.2750 C.ar  1 <1>   0.0000 
 13 C        1.5900     5.0360    -1.5360 C.ar  1 <1>  -0.1500 
 14 C       -3.7130     4.0550     0.8860 C.ar  1 <1>   0.1660 
 15 C       -4.3170     2.3960    -0.8830 C.3   1 <1>  -0.1600 
 16 C       -3.0570     4.5810    -1.3460 C.3   1 <1>  -0.1600 
 17 C        3.4590     1.4720     0.6060 C.2   1 <1>  -0.3320 
 18 C        3.7960     2.7770     0.5300 C.2   1 <1>  -0.1810 
 19 C        2.6670     4.7380    -0.7310 C.ar  1 <1>  -0.1500 
 20 N       -3.7670     3.5000     2.0740 N.ar  1 <1>  -0.6200 
 21 C       -4.1020     5.3410     0.6500 C.ar  1 <1>  -0.1440 
 22 C       -3.9380     5.7180    -0.8000 C.3   1 <1>  -0.0170 
 23 C        4.2340     0.4130     1.3650 C.3   1 <1>   0.0200 
 24 C        5.0130     3.3780     1.2040 C.3   1 <1>   0.0210 
 25 C       -4.2200     4.3040     3.0240 C.ar  1 <1>   0.7200 
 26 C       -4.5670     6.0760     1.7140 C.ar  1 <1>   0.1600 
 27 C        5.6260     0.9550     1.7390 C.3   1 <1>  -0.1600 
 28 C        5.5670     2.4050     2.2620 C.3   1 <1>  -0.1600 
 29 N       -4.6360     5.5590     2.9200 N.ar  1 <1>  -0.6200 
 30 N       -4.2970     3.7720     4.2450 N.pl3 1 <1>  -0.9000 
 31 H       -1.1400     3.3230     0.1450 H     1 <1>   0.0800 
 32 H       -2.0410     1.9480     0.6880 H     1 <1>   0.0800 
 33 H       -2.6580     0.1020    -1.0130 H     1 <1>   0.0800 
 34 H       -2.1820     0.3300    -2.6750 H     1 <1>   0.0800 
 35 H       -0.1570     4.2980    -2.5230 H     1 <1>   0.1500 
 36 H       -4.5890     0.8140    -2.3150 H     1 <1>   0.0800 
 37 H       -3.7150     2.1680    -2.9500 H     1 <1>   0.0800 
 38 H        1.8400     0.3590    -0.2760 H     1 <1>   0.2700 
 39 H        1.4530     6.0380    -1.9040 H     1 <1>   0.1500 
 40 H       -5.2090     2.9360    -1.1480 H     1 <1>   0.0800 
 41 H       -4.5720     1.7300    -0.0760 H     1 <1>   0.0800 
 42 H       -3.2920     4.3460    -2.3670 H     1 <1>   0.0800 
 43 H       -2.0370     4.9160    -1.3040 H     1 <1>   0.0800 
 44 H        3.3830     5.4880    -0.4500 H     1 <1>   0.1500 
 45 H       -4.8990     5.7210    -1.2850 H     1 <1>   0.0800 
 46 H       -3.4640     6.6780    -0.9150 H     1 <1>   0.0800 
 47 H        4.3410    -0.4730     0.7640 H     1 <1>   0.0800 
 48 H        3.6900     0.1580     2.2580 H     1 <1>   0.0800 
 49 H        4.7500     4.3120     1.6690 H     1 <1>   0.0800 
 50 H        5.7610     3.5680     0.4540 H     1 <1>   0.0800 
 51 H       -4.8870     7.0940     1.5750 H     1 <1>   0.1500 
 52 H        6.2520     0.9300     0.8640 H     1 <1>   0.0800 
 53 H        6.0700     0.3150     2.4810 H     1 <1>   0.0800 
 54 H        4.9270     2.4350     3.1270 H     1 <1>   0.0800 
 55 H        6.5480     2.7270     2.5640 H     1 <1>   0.0800 
 56 H       -4.9180     4.2540     4.8880 H     1 <1>   0.4000 
 57 H       -4.2920     2.7570     4.2760 H     1 <1>   0.4000 
@<TRIPOS>BOND
  1   1   2  2   
  2   2   3  am  
  3   2   4  1   
  4   3   5  1   
  5   3   6  1   
  6   4   7  ar  
  7   4   8  ar  
  8   5   9  1   
  9   5  31  1   
 10   5  32  1   
 11   6  10  1   
 12   6  33  1   
 13   6  34  1   
 14   7  11  1   
 15   7  12  ar  
 16   8  13  ar  
 17   8  35  1   
 18   9  14  1   
 19   9  15  1   
 20   9  16  1   
 21  10  15  1   
 22  10  36  1   
 23  10  37  1   
 24  11  17  1   
 25  11  38  1   
 26  12  18  1   
 27  12  19  ar  
 28  13  19  ar  
 29  13  39  1   
 30  14  20  ar  
 31  14  21  ar  
 32  15  40  1   
 33  15  41  1   
 34  16  22  1   
 35  16  42  1   
 36  16  43  1   
 37  17  18  2   
 38  17  23  1   
 39  18  24  1   
 40  19  44  1   
 41  20  25  ar  
 42  21  22  1   
 43  21  26  ar  
 44  22  45  1   
 45  22  46  1   
 46  23  27  1   
 47  23  47  1   
 48  23  48  1   
 49  24  28  1   
 50  24  49  1   
 51  24  50  1   
 52  25  29  ar  
 53  25  30  1   
 54  26  29  ar  
 55  26  51  1   
 56  27  28  1   
 57  27  52  1   
 58  27  53  1   
 59  28  54  1   
 60  28  55  1   
 61  30  56  1   
 62  30  57  1   
@<TRIPOS>SUBSTRUCTURE
  1 ****   5 GROUP 4 **** **** 0

# MOE 2024.06 (io_trps.svl 2023.06)
