@<TRIPOS>MOLECULE
NONAME
48 50 1 0 0 
SMALL
USER_CHARGES


@<TRIPOS>ATOM
  1 CL      -2.8500    -0.6040     2.6080 Cl    1 <1>  -0.1770 
  2 C       -2.9800    -1.4490     1.0860 C.ar  1 <1>   0.1770 
  3 C       -3.2960    -2.7930     1.0810 C.ar  1 <1>  -0.1500 
  4 C       -2.7630    -0.7570    -0.0910 C.ar  1 <1>  -0.1500 
  5 C       -3.3990    -3.4660    -0.1250 C.ar  1 <1>   0.0830 
  6 C       -2.8650    -1.4270    -1.2980 C.ar  1 <1>  -0.1500 
  7 O       -3.7130    -4.7820    -0.0610 O.3   1 <1>  -0.3630 
  8 C       -3.1810    -2.7770    -1.3180 C.ar  1 <1>  -0.1500 
  9 C       -3.9370    -5.5460    -1.2370 C.3   1 <1>   0.1810 
 10 C       -4.3260    -6.9860    -0.9060 C.2   1 <1>   0.5690 
 11 O       -3.6720    -7.8670    -1.4180 O.2   1 <1>  -0.5700 
 12 N       -5.4020    -7.2880    -0.1060 N.am  1 <1>  -0.6600 
 13 C       -5.7020    -8.6950     0.2970 C.3   1 <1>   0.1400 
 14 C       -6.4340    -6.3150     0.3560 C.3   1 <1>   0.1400 
 15 C       -7.0430    -9.1260    -0.3390 C.3   1 <1>   0.4230 
 16 C       -7.7900    -6.7250    -0.2380 C.3   1 <1>  -0.1600 
 17 N       -7.4160   -10.5610    -0.0930 N.4   1 <1>  -0.9590 
 18 C       -8.1770    -8.1870     0.1310 C.3   1 <1>  -0.1060 
 19 C       -8.6410   -10.9530    -0.8350 C.3   1 <1>   0.3430 
 20 C       -6.3120   -11.5450    -0.2510 C.3   1 <1>   0.2630 
 21 C       -8.3470    -8.3360     1.6560 C.2   1 <1>   0.9060 
 22 C       -9.4880    -8.5580    -0.6030 C.3   1 <1>  -0.1600 
 23 C       -9.8160   -10.0520    -0.4470 C.3   1 <1>  -0.1600 
 24 O       -8.1000    -9.4330     2.1840 O.co2 1 <1>  -0.9000 
 25 O       -8.7170    -7.3700     2.3200 O.co2 1 <1>  -0.9000 
 26 H       -3.4610    -3.3160     2.0050 H     1 <1>   0.1500 
 27 H       -2.5180     0.2900    -0.0580 H     1 <1>   0.1500 
 28 H       -2.6970    -0.8980    -2.2210 H     1 <1>   0.1500 
 29 H       -3.2490    -3.2690    -2.2700 H     1 <1>   0.1500 
 30 H       -4.7240    -5.0830    -1.8010 H     1 <1>   0.0800 
 31 H       -3.0280    -5.5490    -1.8100 H     1 <1>   0.0800 
 32 H       -4.9080    -9.3390    -0.0310 H     1 <1>   0.0800 
 33 H       -5.7540    -8.7470     1.3710 H     1 <1>   0.0800 
 34 H       -6.4800    -6.3260     1.4340 H     1 <1>   0.0800 
 35 H       -6.1960    -5.3120     0.0510 H     1 <1>   0.0800 
 36 H       -6.9280    -8.9970    -1.4010 H     1 <1>   0.0800 
 37 H       -8.5430    -6.0500     0.1340 H     1 <1>   0.0800 
 38 H       -7.7490    -6.6030    -1.3060 H     1 <1>   0.0800 
 39 H       -7.6930   -10.5160     0.9260 H     1 <1>   0.4500 
 40 H       -8.4610   -10.8740    -1.8940 H     1 <1>   0.0800 
 41 H       -8.8930   -11.9760    -0.6060 H     1 <1>   0.0800 
 42 H       -5.9350   -11.5260    -1.2600 H     1 <1>   0.0800 
 43 H       -6.6670   -12.5370    -0.0270 H     1 <1>   0.0800 
 44 H       -5.5080   -11.3140     0.4280 H     1 <1>   0.0800 
 45 H      -10.2980    -7.9710    -0.2020 H     1 <1>   0.0800 
 46 H       -9.3990    -8.3260    -1.6510 H     1 <1>   0.0800 
 47 H      -10.6660   -10.2970    -1.0580 H     1 <1>   0.0800 
 48 H      -10.0910   -10.2580     0.5750 H     1 <1>   0.0800 
@<TRIPOS>BOND
  1   1   2  1   
  2   2   3  ar  
  3   2   4  ar  
  4   3   5  ar  
  5   3  26  1   
  6   4   6  ar  
  7   4  27  1   
  8   5   7  1   
  9   5   8  ar  
 10   6   8  ar  
 11   6  28  1   
 12   7   9  1   
 13   8  29  1   
 14   9  10  1   
 15   9  30  1   
 16   9  31  1   
 17  10  11  2   
 18  10  12  am  
 19  12  13  1   
 20  12  14  1   
 21  13  15  1   
 22  13  32  1   
 23  13  33  1   
 24  14  16  1   
 25  14  34  1   
 26  14  35  1   
 27  15  17  1   
 28  15  18  1   
 29  15  36  1   
 30  16  18  1   
 31  16  37  1   
 32  16  38  1   
 33  17  19  1   
 34  17  20  1   
 35  17  39  1   
 36  18  21  1   
 37  18  22  1   
 38  19  23  1   
 39  19  40  1   
 40  19  41  1   
 41  20  42  1   
 42  20  43  1   
 43  20  44  1   
 44  21  24  ar  
 45  21  25  ar  
 46  22  23  1   
 47  22  45  1   
 48  22  46  1   
 49  23  47  1   
 50  23  48  1   
@<TRIPOS>SUBSTRUCTURE
  1 ****  14 GROUP 4 **** **** 0

# MOE 2024.06 (io_trps.svl 2023.06)
