@<TRIPOS>MOLECULE
NONAME
50 52 1 0 0 
SMALL
USER_CHARGES


@<TRIPOS>ATOM
  1 S       -0.2760    -0.3600    -1.5780 S.o2  1 <1>   1.5760 
  2 O        1.0580    -0.5790    -2.0940 O.2   1 <1>  -0.6500 
  3 O       -1.3930    -0.2000    -2.4830 O.2   1 <1>  -0.6500 
  4 N       -0.6550    -1.5820    -0.4770 N.am  1 <1>  -0.8490 
  5 N       -0.2130     0.9700    -0.5410 N.am  1 <1>  -0.8490 
  6 C       -2.0220    -1.3930     0.0570 C.3   1 <1>   0.1960 
  7 C       -0.4940    -2.9060    -1.0870 C.3   1 <1>   0.1960 
  8 C        0.9460     0.8980     0.3520 C.3   1 <1>   0.1960 
  9 C       -0.2180     2.2200    -1.3000 C.3   1 <1>   0.1960 
 10 C       -2.3910    -2.3620     1.1900 C.3   1 <1>   0.2090 
 11 C       -0.2910    -3.9770    -0.0110 C.3   1 <1>  -0.1600 
 12 C        0.8970     2.0400     1.3720 C.3   1 <1>  -0.1600 
 13 C       -0.3040     3.4170    -0.3460 C.3   1 <1>  -0.1600 
 14 N       -2.7110    -3.7180     0.6540 N.pl3 1 <1>  -0.8380 
 15 C       -1.5870    -4.6670     0.4300 C.3   1 <1>   0.2090 
 16 C        0.8390     3.4050     0.6760 C.3   1 <1>  -0.1600 
 17 C       -4.0150    -4.1090     0.4130 C.ar  1 <1>   0.7200 
 18 N       -4.2400    -5.4110     0.3040 N.ar  1 <1>  -0.6200 
 19 N       -4.9230    -3.1400     0.3080 N.ar  1 <1>  -0.6200 
 20 C       -5.4890    -5.8240     0.0570 C.ar  1 <1>   0.1310 
 21 C       -6.1470    -3.5320     0.0710 C.ar  1 <1>   0.1670 
 22 C       -5.8610    -7.2440    -0.0970 C.2   1 <1>   0.9790 
 23 C       -6.4760    -4.8570    -0.0610 C.ar  1 <1>  -0.1500 
 24 C       -7.2000    -2.4520    -0.0550 C.3   1 <1>  -0.0960 
 25 O       -5.0220    -8.1680    -0.1390 O.co2 1 <1>  -0.9000 
 26 O       -7.0650    -7.5650    -0.2080 O.co2 1 <1>  -0.9000 
 27 H       -2.7530    -1.4840    -0.7300 H     1 <1>   0.0800 
 28 H       -2.1030    -0.3970     0.4570 H     1 <1>   0.0800 
 29 H        0.3890    -2.9060    -1.7040 H     1 <1>   0.0800 
 30 H       -1.3360    -3.1420    -1.7200 H     1 <1>   0.0800 
 31 H        1.8580     0.9570    -0.2200 H     1 <1>   0.0800 
 32 H        0.9420    -0.0420     0.8790 H     1 <1>   0.0800 
 33 H       -1.0710     2.2410    -1.9590 H     1 <1>   0.0800 
 34 H        0.6740     2.2870    -1.9010 H     1 <1>   0.0800 
 35 H       -3.2480    -1.9740     1.7110 H     1 <1>   0.0800 
 36 H       -1.5880    -2.4200     1.9020 H     1 <1>   0.0800 
 37 H        0.2200    -3.5600     0.8380 H     1 <1>   0.0800 
 38 H        0.3470    -4.7420    -0.4130 H     1 <1>   0.0800 
 39 H        1.7650     1.9920     2.0050 H     1 <1>   0.0800 
 40 H        0.0280     1.9100     1.9930 H     1 <1>   0.0800 
 41 H       -1.2500     3.3800     0.1660 H     1 <1>   0.0800 
 42 H       -0.2730     4.3290    -0.9150 H     1 <1>   0.0800 
 43 H       -1.4180    -5.2300     1.3320 H     1 <1>   0.0800 
 44 H       -1.8660    -5.3680    -0.3400 H     1 <1>   0.0800 
 45 H        1.7720     3.5870     0.1700 H     1 <1>   0.0800 
 46 H        0.6930     4.1850     1.4030 H     1 <1>   0.0800 
 47 H       -7.4880    -5.1610    -0.2560 H     1 <1>   0.1500 
 48 H       -6.9410    -1.7940    -0.8640 H     1 <1>   0.0800 
 49 H       -7.2420    -1.8850     0.8560 H     1 <1>   0.0800 
 50 H       -8.1660    -2.8790    -0.2470 H     1 <1>   0.0800 
@<TRIPOS>BOND
  1   1   2  2   
  2   1   3  2   
  3   1   4  am  
  4   1   5  am  
  5   4   6  1   
  6   4   7  1   
  7   5   8  1   
  8   5   9  1   
  9   6  10  1   
 10   6  27  1   
 11   6  28  1   
 12   7  11  1   
 13   7  29  1   
 14   7  30  1   
 15   8  12  1   
 16   8  31  1   
 17   8  32  1   
 18   9  13  1   
 19   9  33  1   
 20   9  34  1   
 21  10  14  1   
 22  10  35  1   
 23  10  36  1   
 24  11  15  1   
 25  11  37  1   
 26  11  38  1   
 27  12  16  1   
 28  12  39  1   
 29  12  40  1   
 30  13  16  1   
 31  13  41  1   
 32  13  42  1   
 33  14  15  1   
 34  14  17  1   
 35  15  43  1   
 36  15  44  1   
 37  16  45  1   
 38  16  46  1   
 39  17  18  ar  
 40  17  19  ar  
 41  18  20  ar  
 42  19  21  ar  
 43  20  22  1   
 44  20  23  ar  
 45  21  23  ar  
 46  21  24  1   
 47  22  25  ar  
 48  22  26  ar  
 49  23  47  1   
 50  24  48  1   
 51  24  49  1   
 52  24  50  1   
@<TRIPOS>SUBSTRUCTURE
  1 ****   6 GROUP 4 **** **** 0

# MOE 2024.06 (io_trps.svl 2023.06)
