@<TRIPOS>MOLECULE
NONAME
53 55 1 0 0 
SMALL
USER_CHARGES


@<TRIPOS>ATOM
  1 CL       1.1990     1.3100    -1.9240 Cl    1 <1>  -0.1770 
  2 C        0.6110     2.3080    -0.6120 C.ar  1 <1>   0.1770 
  3 C        1.3810     2.5520     0.5230 C.ar  1 <1>  -0.1440 
  4 C       -0.6550     2.8460    -0.7570 C.ar  1 <1>  -0.1500 
  5 C        0.8380     3.3600     1.5150 C.ar  1 <1>  -0.1500 
  6 C        2.7820     1.9790     0.7270 C.3   1 <1>   0.3640 
  7 C       -1.1780     3.6470     0.2410 C.ar  1 <1>  -0.1500 
  8 C       -0.4290     3.9030     1.3760 C.ar  1 <1>  -0.1500 
  9 N        2.6910     0.5000     0.7530 N.am  1 <1>  -0.7300 
 10 C        3.8160     2.5110    -0.3070 C.3   1 <1>   0.2610 
 11 C        3.4890    -0.3120     0.0260 C.2   1 <1>   0.5690 
 12 O        4.9080     1.6120    -0.4820 O.3   1 <1>  -0.5600 
 13 C        4.3390     3.8830     0.1350 C.2   1 <1>   0.5690 
 14 O        3.3780    -1.5100     0.0950 O.2   1 <1>  -0.5700 
 15 C        4.5310     0.3160    -0.9000 C.3   1 <1>   0.1810 
 16 O        3.5710     4.7880     0.3550 O.2   1 <1>  -0.5700 
 17 N        5.6800     4.0750     0.2650 N.am  1 <1>  -0.7300 
 18 C        6.3180     5.3370     0.7400 C.3   1 <1>   0.1400 
 19 C        6.8190     6.2850    -0.3960 C.3   1 <1>   0.5030 
 20 N        7.2200     7.6060     0.1910 N.4   1 <1>  -0.9590 
 21 C        8.0060     5.6390    -1.1270 C.3   1 <1>  -0.2400 
 22 C        5.6960     6.5660    -1.4040 C.3   1 <1>  -0.2400 
 23 C        7.7430     8.6310    -0.7540 C.3   1 <1>   0.3430 
 24 C        8.2060     7.5640     1.3030 C.3   1 <1>   0.3430 
 25 C        8.3400     9.7040     0.1450 C.3   1 <1>  -0.1600 
 26 C        8.6600     9.0070     1.4700 C.3   1 <1>  -0.1600 
 27 H       -1.2240     2.6380    -1.6450 H     1 <1>   0.1500 
 28 H        1.3980     3.5820     2.4070 H     1 <1>   0.1500 
 29 H        3.1280     2.2820     1.7000 H     1 <1>   0.0800 
 30 H       -2.1620     4.0710     0.1360 H     1 <1>   0.1500 
 31 H       -0.8320     4.5290     2.1540 H     1 <1>   0.1500 
 32 H        1.9590     0.0770     1.3260 H     1 <1>   0.3700 
 33 H        3.3500     2.6400    -1.2650 H     1 <1>   0.0800 
 34 H        4.1360     0.3760    -1.8980 H     1 <1>   0.0800 
 35 H        5.4140    -0.2980    -0.9100 H     1 <1>   0.0800 
 36 H        6.2770     3.2580     0.0730 H     1 <1>   0.3700 
 37 H        5.5960     5.8700     1.3350 H     1 <1>   0.0800 
 38 H        7.1380     5.0690     1.3800 H     1 <1>   0.0800 
 39 H        6.3580     8.0070     0.5790 H     1 <1>   0.4500 
 40 H        7.7020     4.6930    -1.5390 H     1 <1>   0.0800 
 41 H        8.8260     5.4510    -0.4590 H     1 <1>   0.0800 
 42 H        8.3450     6.2420    -1.9490 H     1 <1>   0.0800 
 43 H        5.3730     5.6500    -1.8640 H     1 <1>   0.0800 
 44 H        6.0160     7.2120    -2.2000 H     1 <1>   0.0800 
 45 H        4.8420     6.9980    -0.9130 H     1 <1>   0.0800 
 46 H        8.5230     8.2090    -1.3660 H     1 <1>   0.0800 
 47 H        6.9660     9.0310    -1.3860 H     1 <1>   0.0800 
 48 H        7.7720     7.1800     2.2130 H     1 <1>   0.0800 
 49 H        9.0510     6.9560     1.0240 H     1 <1>   0.0800 
 50 H        9.2190    10.1290    -0.3080 H     1 <1>   0.0800 
 51 H        7.6210    10.4910     0.2980 H     1 <1>   0.0800 
 52 H        8.1210     9.4710     2.2790 H     1 <1>   0.0800 
 53 H        9.7120     9.0450     1.6960 H     1 <1>   0.0800 
@<TRIPOS>BOND
  1   1   2  1   
  2   2   3  ar  
  3   2   4  ar  
  4   3   5  ar  
  5   3   6  1   
  6   4   7  ar  
  7   4  27  1   
  8   5   8  ar  
  9   5  28  1   
 10   6   9  1   
 11   6  10  1   
 12   6  29  1   
 13   7   8  ar  
 14   7  30  1   
 15   8  31  1   
 16   9  11  am  
 17   9  32  1   
 18  10  12  1   
 19  10  13  1   
 20  10  33  1   
 21  11  14  2   
 22  11  15  1   
 23  12  15  1   
 24  13  16  2   
 25  13  17  am  
 26  15  34  1   
 27  15  35  1   
 28  17  18  1   
 29  17  36  1   
 30  18  19  1   
 31  18  37  1   
 32  18  38  1   
 33  19  20  1   
 34  19  21  1   
 35  19  22  1   
 36  20  23  1   
 37  20  24  1   
 38  20  39  1   
 39  21  40  1   
 40  21  41  1   
 41  21  42  1   
 42  22  43  1   
 43  22  44  1   
 44  22  45  1   
 45  23  25  1   
 46  23  46  1   
 47  23  47  1   
 48  24  26  1   
 49  24  48  1   
 50  24  49  1   
 51  25  26  1   
 52  25  50  1   
 53  25  51  1   
 54  26  52  1   
 55  26  53  1   
@<TRIPOS>SUBSTRUCTURE
  1 ****  13 GROUP 4 **** **** 0

# MOE 2024.06 (io_trps.svl 2023.06)
