@<TRIPOS>MOLECULE
NONAME
50 52 1 0 0 
SMALL
USER_CHARGES


@<TRIPOS>ATOM
  1 O       -0.4620    -1.4650    -0.4160 O.2   1 <1>  -0.5700 
  2 C        0.6320    -1.7180     0.0570 C.2   1 <1>   0.6900 
  3 N        1.7850    -1.4240    -0.6250 N.am  1 <1>  -0.6600 
  4 N        0.7120    -2.3290     1.2610 N.am  1 <1>  -0.7300 
  5 C        1.7450    -0.9220    -2.0270 C.3   1 <1>   0.0600 
  6 C        3.1410    -1.4390    -0.0100 C.3   1 <1>   0.0600 
  7 C       -0.4580    -2.7700     2.0810 C.3   1 <1>   0.2010 
  8 C       -0.6640    -4.2880     2.0620 C.2   1 <1>   0.5690 
  9 O       -0.2290    -4.9290     2.9920 O.2   1 <1>  -0.5700 
 10 N       -1.3140    -4.9020     1.0250 N.am  1 <1>  -0.6600 
 11 C       -1.7910    -4.2480    -0.2230 C.3   1 <1>   0.1400 
 12 C       -1.4710    -6.3730     0.9280 C.3   1 <1>   0.1400 
 13 C       -2.6390    -5.3170    -0.9070 C.3   1 <1>   0.2000 
 14 C       -1.9530    -6.6310    -0.5080 C.3   1 <1>  -0.0800 
 15 O       -3.9140    -5.2730    -0.3590 O.3   1 <1>  -0.6800 
 16 C       -2.8370    -7.8870    -0.6620 C.3   1 <1>  -0.0160 
 17 C       -2.1610    -9.2430    -0.4200 C.ar  1 <1>  -0.1440 
 18 C       -2.9520   -10.4170    -0.3530 C.ar  1 <1>   0.0000 
 19 C       -0.8110    -9.4000    -0.2710 C.ar  1 <1>  -0.1500 
 20 C       -2.2960   -11.6500    -0.1130 C.ar  1 <1>   0.3100 
 21 C       -4.3580   -10.4430    -0.5170 C.ar  1 <1>  -0.1500 
 22 C       -0.2620   -10.6670    -0.0430 C.ar  1 <1>   0.1600 
 23 N       -0.9540   -11.7570     0.0400 N.ar  1 <1>  -0.6200 
 24 C       -3.0590   -12.8260    -0.0330 C.ar  1 <1>  -0.1500 
 25 C       -5.0730   -11.6070    -0.4350 C.ar  1 <1>  -0.1500 
 26 C       -4.4180   -12.8160    -0.1890 C.ar  1 <1>  -0.1500 
 27 H        1.6100    -2.7250     1.5240 H     1 <1>   0.3700 
 28 H        2.4840    -1.4320    -2.6190 H     1 <1>   0.0800 
 29 H        1.9460     0.1350    -2.0380 H     1 <1>   0.0800 
 30 H        0.7770    -1.0930    -2.4670 H     1 <1>   0.0800 
 31 H        3.7230    -0.6170    -0.3880 H     1 <1>   0.0800 
 32 H        3.6380    -2.3620    -0.2540 H     1 <1>   0.0800 
 33 H        3.0770    -1.3390     1.0590 H     1 <1>   0.0800 
 34 H       -0.2980    -2.4630     3.0980 H     1 <1>   0.0800 
 35 H       -1.3530    -2.2860     1.7370 H     1 <1>   0.0800 
 36 H       -2.3560    -3.3530    -0.0280 H     1 <1>   0.0800 
 37 H       -0.9420    -4.0090    -0.8390 H     1 <1>   0.0800 
 38 H       -0.5370    -6.8670     1.1360 H     1 <1>   0.0800 
 39 H       -2.2070    -6.6940     1.6450 H     1 <1>   0.0800 
 40 H       -2.7170    -5.1780    -1.9710 H     1 <1>   0.0800 
 41 H       -1.0890    -6.7320    -1.1400 H     1 <1>   0.0800 
 42 H       -3.8320    -5.2030     0.6140 H     1 <1>   0.4000 
 43 H       -3.2460    -7.8920    -1.6570 H     1 <1>   0.0800 
 44 H       -3.6610    -7.7980     0.0240 H     1 <1>   0.0800 
 45 H       -0.1190    -8.5820    -0.3230 H     1 <1>   0.1500 
 46 H       -4.8870    -9.5300    -0.7140 H     1 <1>   0.1500 
 47 H        0.8060   -10.7390     0.0730 H     1 <1>   0.1500 
 48 H       -2.5330   -13.7440     0.1550 H     1 <1>   0.1500 
 49 H       -6.1420   -11.6090    -0.5610 H     1 <1>   0.1500 
 50 H       -4.9910   -13.7250    -0.1250 H     1 <1>   0.1500 
@<TRIPOS>BOND
  1   1   2  2   
  2   2   3  am  
  3   2   4  am  
  4   3   5  1   
  5   3   6  1   
  6   4   7  1   
  7   4  27  1   
  8   5  28  1   
  9   5  29  1   
 10   5  30  1   
 11   6  31  1   
 12   6  32  1   
 13   6  33  1   
 14   7   8  1   
 15   7  34  1   
 16   7  35  1   
 17   8   9  2   
 18   8  10  am  
 19  10  11  1   
 20  10  12  1   
 21  11  13  1   
 22  11  36  1   
 23  11  37  1   
 24  12  14  1   
 25  12  38  1   
 26  12  39  1   
 27  13  14  1   
 28  13  15  1   
 29  13  40  1   
 30  14  16  1   
 31  14  41  1   
 32  15  42  1   
 33  16  17  1   
 34  16  43  1   
 35  16  44  1   
 36  17  18  ar  
 37  17  19  ar  
 38  18  20  ar  
 39  18  21  ar  
 40  19  22  ar  
 41  19  45  1   
 42  20  23  ar  
 43  20  24  ar  
 44  21  25  ar  
 45  21  46  1   
 46  22  23  ar  
 47  22  47  1   
 48  24  26  ar  
 49  24  48  1   
 50  25  26  ar  
 51  25  49  1   
 52  26  50  1   
@<TRIPOS>SUBSTRUCTURE
  1 ****  14 GROUP 4 **** **** 0

# MOE 2024.06 (io_trps.svl 2023.06)
