@<TRIPOS>MOLECULE
NONAME
47 50 1 0 0 
SMALL
USER_CHARGES


@<TRIPOS>ATOM
  1 O        1.8000    -1.0510     1.9710 O.2   1 <1>  -0.5700 
  2 C        2.4310    -1.4400     1.0070 C.2   1 <1>   0.7030 
  3 N        3.4930    -0.6580     0.5610 N.am  1 <1>  -0.6600 
  4 C        1.9870    -2.6850     0.3880 C.2   1 <1>   0.2770 
  5 C        3.9080     0.5170     1.4410 C.3   1 <1>   0.2200 
  6 C        3.8430    -0.6300    -0.9010 C.3   1 <1>   0.1400 
  7 N        0.7080    -3.1960     0.5330 N.pl3 1 <1>  -0.7000 
  8 C        2.6460    -3.5880    -0.3810 C.2   1 <1>   0.2000 
  9 C        3.1350     1.7980     1.0830 C.3   1 <1>   0.1200 
 10 C        5.4300     0.7980     1.5140 C.3   1 <1>   0.3430 
 11 C        4.4550     0.6830    -1.4260 C.3   1 <1>  -0.0800 
 12 C        0.6020    -4.3550    -0.1270 C.cat 1 <1>   0.7910 
 13 N        1.7940    -4.6160    -0.7150 N.pl3 1 <1>  -0.6290 
 14 O        3.7340     2.4590     0.0130 O.3   1 <1>  -0.5600 
 15 N        6.2440     0.3010     0.3500 N.4   1 <1>  -0.9590 
 16 C        3.5310     1.8950    -1.2380 C.3   1 <1>   0.1200 
 17 C        5.8860     0.9780    -0.9380 C.3   1 <1>   0.3430 
 18 C       -0.4910    -5.2400    -0.2610 C.2   1 <1>  -0.1290 
 19 C        1.9630    -5.7650    -1.4590 C.2   1 <1>   0.2290 
 20 C        7.7020     0.4840     0.6350 C.3   1 <1>   0.2630 
 21 C       -0.3240    -6.3790    -1.0040 C.2   1 <1>  -0.1500 
 22 C       -1.8260    -4.9310     0.4080 C.3   1 <1>  -0.1020 
 23 C        0.9240    -6.6370    -1.6070 C.2   1 <1>  -0.1500 
 24 H        3.6240     0.2960     2.4560 H     1 <1>   0.0800 
 25 H        4.5290    -1.4320    -1.1120 H     1 <1>   0.0800 
 26 H        2.9470    -0.8180    -1.4710 H     1 <1>   0.0800 
 27 H       -0.0200    -2.7670     1.1140 H     1 <1>   0.4500 
 28 H        3.6730    -3.5730    -0.7050 H     1 <1>   0.1500 
 29 H        3.1640     2.4760     1.9180 H     1 <1>   0.0800 
 30 H        2.1010     1.5930     0.8590 H     1 <1>   0.0800 
 31 H        5.7990     0.3380     2.4150 H     1 <1>   0.0800 
 32 H        5.5740     1.8610     1.6250 H     1 <1>   0.0800 
 33 H        4.5310     0.5610    -2.4920 H     1 <1>   0.0800 
 34 H        6.0450    -0.7020     0.2600 H     1 <1>   0.4500 
 35 H        2.4890     1.6440    -1.3590 H     1 <1>   0.0800 
 36 H        3.7770     2.6560    -1.9600 H     1 <1>   0.0800 
 37 H        6.0090     2.0450    -0.8340 H     1 <1>   0.0800 
 38 H        6.5740     0.6500    -1.7010 H     1 <1>   0.0800 
 39 H        2.9260    -5.9480    -1.9110 H     1 <1>   0.1500 
 40 H        7.9320     1.5320     0.7480 H     1 <1>   0.0800 
 41 H        8.2960     0.0880    -0.1730 H     1 <1>   0.0800 
 42 H        7.9760    -0.0270     1.5430 H     1 <1>   0.0800 
 43 H       -1.1220    -7.0920    -1.1420 H     1 <1>   0.1500 
 44 H       -2.2210    -3.9980     0.0470 H     1 <1>   0.0800 
 45 H       -1.7060    -4.8710     1.4760 H     1 <1>   0.0800 
 46 H       -2.5470    -5.7020     0.1970 H     1 <1>   0.0800 
 47 H        1.0390    -7.5380    -2.1860 H     1 <1>   0.1500 
@<TRIPOS>BOND
  1   1   2  2   
  2   2   3  am  
  3   2   4  1   
  4   3   5  1   
  5   3   6  1   
  6   4   7  1   
  7   4   8  2   
  8   5   9  1   
  9   5  10  1   
 10   5  24  1   
 11   6  11  1   
 12   6  25  1   
 13   6  26  1   
 14   7  12  ar  
 15   7  27  1   
 16   8  13  1   
 17   8  28  1   
 18   9  14  1   
 19   9  29  1   
 20   9  30  1   
 21  10  15  1   
 22  10  31  1   
 23  10  32  1   
 24  11  16  1   
 25  11  17  1   
 26  11  33  1   
 27  12  13  ar  
 28  12  18  1   
 29  13  19  1   
 30  14  16  1   
 31  15  17  1   
 32  15  20  1   
 33  15  34  1   
 34  16  35  1   
 35  16  36  1   
 36  17  37  1   
 37  17  38  1   
 38  18  21  2   
 39  18  22  1   
 40  19  23  2   
 41  19  39  1   
 42  20  40  1   
 43  20  41  1   
 44  20  42  1   
 45  21  23  1   
 46  21  43  1   
 47  22  44  1   
 48  22  45  1   
 49  22  46  1   
 50  23  47  1   
@<TRIPOS>SUBSTRUCTURE
  1 ****   2 GROUP 4 **** **** 0

# MOE 2024.06 (io_trps.svl 2023.06)
