@<TRIPOS>MOLECULE
NONAME
43 44 1 0 0 
SMALL
USER_CHARGES


@<TRIPOS>ATOM
  1 CL      -1.8080    -0.3470     0.6200 Cl    1 <1>  -0.1230 
  2 C       -1.9220    -2.0840     0.7850 C.2   1 <1>   0.4120 
  3 N       -2.1190    -2.6860     1.9010 N.2   1 <1>  -0.4100 
  4 C       -1.8110    -2.9640    -0.2830 C.2   1 <1>  -0.1500 
  5 O       -2.1390    -3.9560     1.5970 O.3   1 <1>  -0.0190 
  6 C       -1.9610    -4.1580     0.3130 C.2   1 <1>  -0.0400 
  7 C       -1.9550    -5.5710    -0.2390 C.3   1 <1>   0.0200 
  8 C       -3.3150    -6.2460    -0.0300 C.3   1 <1>  -0.0990 
  9 C       -3.3160    -7.6460    -0.6010 C.2   1 <1>   0.5690 
 10 O       -3.1880    -7.7920    -1.7900 O.2   1 <1>  -0.5700 
 11 N       -3.4740    -8.6990     0.2340 N.am  1 <1>  -0.7300 
 12 C       -3.4430   -10.1230    -0.1820 C.3   1 <1>   0.2200 
 13 C       -4.8500   -10.6930    -0.2790 C.3   1 <1>  -0.0800 
 14 C       -2.8860   -10.9560     0.9630 C.3   1 <1>   0.1200 
 15 C       -5.1640   -11.0710     1.1750 C.3   1 <1>   0.1200 
 16 C       -5.8820    -9.7650    -0.9570 C.3   1 <1>  -0.0550 
 17 O       -3.9450   -11.0780     1.8620 O.3   1 <1>  -0.5600 
 18 S       -7.4760   -10.5320    -1.2600 S.o2  1 <1>   1.3330 
 19 O       -8.3320    -9.5910    -1.9470 O.2   1 <1>  -0.6500 
 20 O       -7.2410   -11.8390    -1.8310 O.2   1 <1>  -0.6500 
 21 N       -8.1190   -10.7510     0.2980 N.am  1 <1>  -0.8490 
 22 C       -8.7660    -9.5480     0.8340 C.3   1 <1>   0.1160 
 23 C       -9.0520   -11.8810     0.3570 C.3   1 <1>   0.1160 
 24 H       -1.6460    -2.7020    -1.3100 H     1 <1>   0.1500 
 25 H       -1.7260    -5.5400    -1.2910 H     1 <1>   0.0800 
 26 H       -1.1850    -6.1400     0.2530 H     1 <1>   0.0800 
 27 H       -4.0780    -5.6760    -0.5280 H     1 <1>   0.0800 
 28 H       -3.5490    -6.2780     1.0180 H     1 <1>   0.0800 
 29 H       -3.6130    -8.5690     1.2390 H     1 <1>   0.3700 
 30 H       -2.8790   -10.2440    -1.0930 H     1 <1>   0.0800 
 31 H       -4.7940   -11.6070    -0.8460 H     1 <1>   0.0800 
 32 H       -2.0450   -10.4950     1.4490 H     1 <1>   0.0800 
 33 H       -2.6220   -11.9440     0.6250 H     1 <1>   0.0800 
 34 H       -5.6140   -12.0460     1.2450 H     1 <1>   0.0800 
 35 H       -5.7980   -10.3430     1.6510 H     1 <1>   0.0800 
 36 H       -5.4760    -9.4560    -1.9020 H     1 <1>   0.0800 
 37 H       -6.0220    -8.8820    -0.3680 H     1 <1>   0.0800 
 38 H       -9.0720    -9.7160     1.8530 H     1 <1>   0.0800 
 39 H       -9.6330    -9.2920     0.2460 H     1 <1>   0.0800 
 40 H       -8.0820    -8.7180     0.8180 H     1 <1>   0.0800 
 41 H       -9.4330   -12.0000     1.3570 H     1 <1>   0.0800 
 42 H       -8.5470   -12.7910     0.0800 H     1 <1>   0.0800 
 43 H       -9.8740   -11.7230    -0.3210 H     1 <1>   0.0800 
@<TRIPOS>BOND
  1   1   2  1   
  2   2   3  2   
  3   2   4  1   
  4   3   5  1   
  5   4   6  2   
  6   4  24  1   
  7   5   6  1   
  8   6   7  1   
  9   7   8  1   
 10   7  25  1   
 11   7  26  1   
 12   8   9  1   
 13   8  27  1   
 14   8  28  1   
 15   9  10  2   
 16   9  11  am  
 17  11  12  1   
 18  11  29  1   
 19  12  13  1   
 20  12  14  1   
 21  12  30  1   
 22  13  15  1   
 23  13  16  1   
 24  13  31  1   
 25  14  17  1   
 26  14  32  1   
 27  14  33  1   
 28  15  17  1   
 29  15  34  1   
 30  15  35  1   
 31  16  18  1   
 32  16  36  1   
 33  16  37  1   
 34  18  19  2   
 35  18  20  2   
 36  18  21  am  
 37  21  22  1   
 38  21  23  1   
 39  22  38  1   
 40  22  39  1   
 41  22  40  1   
 42  23  41  1   
 43  23  42  1   
 44  23  43  1   
@<TRIPOS>SUBSTRUCTURE
  1 ****  11 GROUP 4 **** **** 0

# MOE 2024.06 (io_trps.svl 2023.06)
