@<TRIPOS>MOLECULE
NONAME
51 54 1 0 0 
SMALL
USER_CHARGES


@<TRIPOS>ATOM
  1 CL      -2.6460    -3.6520     3.3580 Cl    1 <1>  -0.1770 
  2 C       -3.6300    -3.1990     1.9880 C.ar  1 <1>   0.1770 
  3 C       -4.6090    -2.2360     2.1460 C.ar  1 <1>  -0.1500 
  4 C       -3.4140    -3.8100     0.7680 C.ar  1 <1>  -0.1500 
  5 C       -5.3960    -1.8710     1.0650 C.ar  1 <1>  -0.1440 
  6 C       -4.1950    -3.4490    -0.3160 C.ar  1 <1>  -0.1500 
  7 C       -5.1910    -2.4840    -0.1710 C.ar  1 <1>   0.0830 
  8 C       -6.4750    -0.8110     1.2470 C.3   1 <1>  -0.0960 
  9 O       -5.9940    -2.1040    -1.2000 O.3   1 <1>  -0.3630 
 10 C       -6.1890    -2.9170    -2.3530 C.3   1 <1>   0.1810 
 11 C       -6.6800    -4.3340    -2.0380 C.2   1 <1>   0.5690 
 12 O       -6.0560    -5.2380    -2.5480 O.2   1 <1>  -0.5700 
 13 N       -7.7750    -4.5830    -1.2400 N.am  1 <1>  -0.6600 
 14 C       -8.5750    -3.5270    -0.5390 C.3   1 <1>   0.1400 
 15 C       -8.1380    -5.9750    -0.8450 C.3   1 <1>   0.1400 
 16 C      -10.0880    -3.7330    -0.7320 C.3   1 <1>   0.1440 
 17 C       -9.6400    -6.2160    -1.0430 C.3   1 <1>  -0.1600 
 18 C      -10.8120    -2.6640     0.0660 C.ar  1 <1>   0.1670 
 19 C      -10.4850    -5.1620    -0.3080 C.3   1 <1>  -0.1600 
 20 C      -10.5230    -3.4150    -2.1890 C.3   1 <1>  -0.1600 
 21 N      -10.9170    -2.6300     1.3760 N.ar  1 <1>  -0.6200 
 22 C      -11.3370    -1.7010    -0.7430 C.ar  1 <1>  -0.1430 
 23 C      -11.0510    -1.9700    -2.1990 C.3   1 <1>  -0.0170 
 24 C      -11.5880    -1.5880     1.8460 C.ar  1 <1>   0.4770 
 25 C      -12.0120    -0.6640    -0.1490 C.ar  1 <1>   0.1600 
 26 N      -12.1440    -0.5980     1.1590 N.ar  1 <1>  -0.6200 
 27 C      -11.7410    -1.5230     3.3460 C.3   1 <1>  -0.0970 
 28 H       -4.7460    -1.7840     3.1120 H     1 <1>   0.1500 
 29 H       -2.6460    -4.5550     0.6710 H     1 <1>   0.1500 
 30 H       -4.0120    -3.9300    -1.2600 H     1 <1>   0.1500 
 31 H       -6.3840    -0.3270     2.2020 H     1 <1>   0.0800 
 32 H       -7.4480    -1.2630     1.1830 H     1 <1>   0.0800 
 33 H       -6.3890    -0.0630     0.4790 H     1 <1>   0.0800 
 34 H       -5.2590    -2.9610    -2.8890 H     1 <1>   0.0800 
 35 H       -6.9140    -2.4260    -2.9720 H     1 <1>   0.0800 
 36 H       -8.3230    -2.5460    -0.8920 H     1 <1>   0.0800 
 37 H       -8.3450    -3.5670     0.5130 H     1 <1>   0.0800 
 38 H       -7.8800    -6.1170     0.1900 H     1 <1>   0.0800 
 39 H       -7.5830    -6.6930    -1.4250 H     1 <1>   0.0800 
 40 H       -9.8880    -7.1950    -0.6730 H     1 <1>   0.0800 
 41 H       -9.8580    -6.2030    -2.0960 H     1 <1>   0.0800 
 42 H      -11.5320    -5.3270    -0.4930 H     1 <1>   0.0800 
 43 H      -10.3250    -5.2670     0.7510 H     1 <1>   0.0800 
 44 H      -11.3330    -4.0660    -2.4700 H     1 <1>   0.0800 
 45 H       -9.7240    -3.5530    -2.8960 H     1 <1>   0.0800 
 46 H      -11.9380    -1.8770    -2.8020 H     1 <1>   0.0800 
 47 H      -10.2950    -1.2900    -2.5510 H     1 <1>   0.0800 
 48 H      -12.4450     0.1200    -0.7460 H     1 <1>   0.1500 
 49 H      -10.8760    -1.9450     3.8230 H     1 <1>   0.0800 
 50 H      -12.6120    -2.0780     3.6360 H     1 <1>   0.0800 
 51 H      -11.8510    -0.5020     3.6630 H     1 <1>   0.0800 
@<TRIPOS>BOND
  1   1   2  1   
  2   2   3  ar  
  3   2   4  ar  
  4   3   5  ar  
  5   3  28  1   
  6   4   6  ar  
  7   4  29  1   
  8   5   7  ar  
  9   5   8  1   
 10   6   7  ar  
 11   6  30  1   
 12   7   9  1   
 13   8  31  1   
 14   8  32  1   
 15   8  33  1   
 16   9  10  1   
 17  10  11  1   
 18  10  34  1   
 19  10  35  1   
 20  11  12  2   
 21  11  13  am  
 22  13  14  1   
 23  13  15  1   
 24  14  16  1   
 25  14  36  1   
 26  14  37  1   
 27  15  17  1   
 28  15  38  1   
 29  15  39  1   
 30  16  18  1   
 31  16  19  1   
 32  16  20  1   
 33  17  19  1   
 34  17  40  1   
 35  17  41  1   
 36  18  21  ar  
 37  18  22  ar  
 38  19  42  1   
 39  19  43  1   
 40  20  23  1   
 41  20  44  1   
 42  20  45  1   
 43  21  24  ar  
 44  22  23  1   
 45  22  25  ar  
 46  23  46  1   
 47  23  47  1   
 48  24  26  ar  
 49  24  27  1   
 50  25  26  ar  
 51  25  48  1   
 52  27  49  1   
 53  27  50  1   
 54  27  51  1   
@<TRIPOS>SUBSTRUCTURE
  1 ****  14 GROUP 4 **** **** 0

# MOE 2024.06 (io_trps.svl 2023.06)
