@<TRIPOS>MOLECULE
NONAME
42 44 1 0 0 
SMALL
USER_CHARGES


@<TRIPOS>ATOM
  1 CL      -1.2020    -3.1690    -0.0920 Cl    1 <1>  -0.1770 
  2 C       -1.8280    -1.5780    -0.4490 C.ar  1 <1>   0.1770 
  3 C       -2.8270    -1.0380     0.3460 C.ar  1 <1>  -0.1440 
  4 C       -1.3090    -0.8880    -1.5290 C.ar  1 <1>  -0.1500 
  5 C       -3.3050     0.2310     0.0450 C.ar  1 <1>  -0.1500 
  6 C       -3.3730    -1.8260     1.5180 C.3   1 <1>   0.4870 
  7 C       -1.7970     0.3730    -1.8240 C.ar  1 <1>  -0.1500 
  8 C       -2.7920     0.9290    -1.0370 C.ar  1 <1>  -0.1500 
  9 N       -4.4260    -2.7490     1.0310 N.4   1 <1>  -0.9590 
 10 C       -5.6230    -2.1050     0.4140 C.3   1 <1>   0.3430 
 11 C       -4.9130    -3.7590     1.9950 C.3   1 <1>   0.3430 
 12 C       -6.7940    -3.0670     0.6510 C.3   1 <1>   0.2000 
 13 C       -6.2160    -4.2830     1.3870 C.3   1 <1>  -0.0800 
 14 O       -7.7360    -2.4520     1.4680 O.3   1 <1>  -0.6800 
 15 C       -5.9930    -5.4960     0.4530 C.3   1 <1>   0.0210 
 16 C       -4.7960    -5.4020    -0.4860 C.2   1 <1>   0.1080 
 17 N       -4.5720    -4.4070    -1.2910 N.2   1 <1>  -0.7070 
 18 C       -3.8170    -6.3830    -0.5870 C.2   1 <1>  -0.1500 
 19 N       -3.4520    -4.7550    -1.9640 N.pl3 1 <1>   0.3000 
 20 C       -2.9700    -5.9370    -1.5370 C.2   1 <1>  -0.3320 
 21 C       -1.7110    -6.5870    -2.0820 C.3   1 <1>  -0.0600 
 22 H       -0.5310    -1.3280    -2.1280 H     1 <1>   0.1500 
 23 H       -4.0720     0.6930     0.6440 H     1 <1>   0.1500 
 24 H       -3.7790    -1.1540     2.2550 H     1 <1>   0.0800 
 25 H       -2.5730    -2.3890     1.9720 H     1 <1>   0.0800 
 26 H       -1.4020     0.9230    -2.6620 H     1 <1>   0.1500 
 27 H       -3.1640     1.9140    -1.2690 H     1 <1>   0.1500 
 28 H       -4.0300    -3.3030     0.2390 H     1 <1>   0.4500 
 29 H       -5.8340    -1.1520     0.8690 H     1 <1>   0.0800 
 30 H       -5.4600    -1.9720    -0.6440 H     1 <1>   0.0800 
 31 H       -4.1940    -4.5510     2.1330 H     1 <1>   0.0800 
 32 H       -5.1190    -3.2900     2.9430 H     1 <1>   0.0800 
 33 H       -7.2810    -3.3250    -0.2750 H     1 <1>   0.0800 
 34 H       -6.8850    -4.6030     2.1670 H     1 <1>   0.0800 
 35 H       -7.4370    -2.3490     2.3920 H     1 <1>   0.4000 
 36 H       -6.8760    -5.6610    -0.1390 H     1 <1>   0.0800 
 37 H       -5.8630    -6.3730     1.0620 H     1 <1>   0.0800 
 38 H       -3.7660    -7.3020    -0.0280 H     1 <1>   0.1500 
 39 H       -3.0420    -4.1760    -2.7100 H     1 <1>   0.2700 
 40 H       -1.5350    -7.5270    -1.5890 H     1 <1>   0.0800 
 41 H       -0.8590    -5.9510    -1.9160 H     1 <1>   0.0800 
 42 H       -1.8110    -6.7710    -3.1370 H     1 <1>   0.0800 
@<TRIPOS>BOND
  1   1   2  1   
  2   2   3  ar  
  3   2   4  ar  
  4   3   5  ar  
  5   3   6  1   
  6   4   7  ar  
  7   4  22  1   
  8   5   8  ar  
  9   5  23  1   
 10   6   9  1   
 11   6  24  1   
 12   6  25  1   
 13   7   8  ar  
 14   7  26  1   
 15   8  27  1   
 16   9  10  1   
 17   9  11  1   
 18   9  28  1   
 19  10  12  1   
 20  10  29  1   
 21  10  30  1   
 22  11  13  1   
 23  11  31  1   
 24  11  32  1   
 25  12  13  1   
 26  12  14  1   
 27  12  33  1   
 28  13  15  1   
 29  13  34  1   
 30  14  35  1   
 31  15  16  1   
 32  15  36  1   
 33  15  37  1   
 34  16  17  2   
 35  16  18  1   
 36  17  19  1   
 37  18  20  2   
 38  18  38  1   
 39  19  20  1   
 40  19  39  1   
 41  20  21  1   
 42  21  40  1   
 43  21  41  1   
 44  21  42  1   
@<TRIPOS>SUBSTRUCTURE
  1 ****   9 GROUP 4 **** **** 0

# MOE 2024.06 (io_trps.svl 2023.06)
