@<TRIPOS>MOLECULE
NONAME
46 48 1 0 0 
SMALL
USER_CHARGES


@<TRIPOS>ATOM
  1 CL       2.1180    -3.4800    -1.0550 Cl    1 <1>  -0.1240 
  2 C        0.9090    -4.0580     0.0560 C.2   1 <1>   0.1640 
  3 S       -0.7100    -4.2480    -0.5690 S.3   1 <1>  -0.0800 
  4 C        0.9910    -4.4000     1.3530 C.2   1 <1>  -0.1500 
  5 C       -1.2900    -4.8480     0.9940 C.2   1 <1>  -0.0450 
  6 C       -0.2580    -4.8400     1.8810 C.2   1 <1>  -0.1500 
  7 C       -2.6680    -5.2400     1.1390 C.2   1 <1>   0.7150 
  8 O       -3.2250    -5.1230     2.2150 O.2   1 <1>  -0.5700 
  9 N       -3.3850    -5.7770     0.1020 N.am  1 <1>  -0.6600 
 10 C       -3.3170    -7.2690    -0.0420 C.3   1 <1>   0.3640 
 11 C       -4.7240    -5.1880    -0.1660 C.3   1 <1>   0.1400 
 12 C       -1.8520    -7.6610    -0.2600 C.ar  1 <1>  -0.1440 
 13 C       -4.2300    -7.8470    -1.1700 C.3   1 <1>   0.2000 
 14 C       -5.3490    -5.7900    -1.4260 C.3   1 <1>   0.1200 
 15 C       -1.1550    -8.2980     0.7580 C.ar  1 <1>  -0.1500 
 16 C       -1.1930    -7.3720    -1.4490 C.ar  1 <1>  -0.1500 
 17 O       -5.4550    -7.1700    -1.2720 O.3   1 <1>  -0.5600 
 18 C       -4.5890    -9.3300    -0.9580 C.3   1 <1>   0.1200 
 19 C        0.1780    -8.6360     0.6010 C.ar  1 <1>   0.0830 
 20 C        0.1420    -7.7010    -1.6130 C.ar  1 <1>  -0.1500 
 21 O       -3.4730   -10.1190    -0.6990 O.3   1 <1>  -0.6800 
 22 O        0.7910    -9.2700     1.6300 O.3   1 <1>  -0.3630 
 23 C        0.8390    -8.3140    -0.5880 C.ar  1 <1>   0.0830 
 24 C        1.1710   -10.6070     1.3960 C.3   1 <1>   0.0400 
 25 O        2.1550    -8.5660    -0.7860 O.3   1 <1>  -0.3630 
 26 C        3.0490    -7.7890    -0.0210 C.3   1 <1>   0.0400 
 27 H        1.8810    -4.3620     1.9530 H     1 <1>   0.1500 
 28 H       -0.3490    -5.1490     2.9090 H     1 <1>   0.1500 
 29 H       -3.6520    -7.6980     0.8870 H     1 <1>   0.0800 
 30 H       -5.3730    -5.3680     0.6740 H     1 <1>   0.0800 
 31 H       -4.6240    -4.1230    -0.2880 H     1 <1>   0.0800 
 32 H       -3.7440    -7.7470    -2.1220 H     1 <1>   0.0800 
 33 H       -4.7550    -5.5730    -2.2970 H     1 <1>   0.0800 
 34 H       -6.3410    -5.3980    -1.5710 H     1 <1>   0.0800 
 35 H       -1.6390    -8.5400     1.6870 H     1 <1>   0.1500 
 36 H       -1.7040    -6.8670    -2.2500 H     1 <1>   0.1500 
 37 H       -5.0750    -9.7200    -1.8350 H     1 <1>   0.0800 
 38 H       -5.2510    -9.4290    -0.1150 H     1 <1>   0.0800 
 39 H        0.6530    -7.4680    -2.5300 H     1 <1>   0.1500 
 40 H       -2.7880   -10.0180    -1.3910 H     1 <1>   0.4000 
 41 H        1.5530   -11.0140     2.3150 H     1 <1>   0.0800 
 42 H        1.9330   -10.6330     0.6380 H     1 <1>   0.0800 
 43 H        0.3070   -11.1630     1.0770 H     1 <1>   0.0800 
 44 H        4.0510    -8.0290    -0.3270 H     1 <1>   0.0800 
 45 H        2.9170    -8.0190     1.0210 H     1 <1>   0.0800 
 46 H        2.8460    -6.7480    -0.2030 H     1 <1>   0.0800 
@<TRIPOS>BOND
  1   1   2  1   
  2   2   3  1   
  3   2   4  2   
  4   3   5  1   
  5   4   6  1   
  6   4  27  1   
  7   5   6  2   
  8   5   7  1   
  9   6  28  1   
 10   7   8  2   
 11   7   9  am  
 12   9  10  1   
 13   9  11  1   
 14  10  12  1   
 15  10  13  1   
 16  10  29  1   
 17  11  14  1   
 18  11  30  1   
 19  11  31  1   
 20  12  15  ar  
 21  12  16  ar  
 22  13  17  1   
 23  13  18  1   
 24  13  32  1   
 25  14  17  1   
 26  14  33  1   
 27  14  34  1   
 28  15  19  ar  
 29  15  35  1   
 30  16  20  ar  
 31  16  36  1   
 32  18  21  1   
 33  18  37  1   
 34  18  38  1   
 35  19  22  1   
 36  19  23  ar  
 37  20  23  ar  
 38  20  39  1   
 39  21  40  1   
 40  22  24  1   
 41  23  25  1   
 42  24  41  1   
 43  24  42  1   
 44  24  43  1   
 45  25  26  1   
 46  26  44  1   
 47  26  45  1   
 48  26  46  1   
@<TRIPOS>SUBSTRUCTURE
  1 ****  12 GROUP 4 **** **** 0

# MOE 2024.06 (io_trps.svl 2023.06)
