@<TRIPOS>MOLECULE
NONAME
49 51 1 0 0 
SMALL
USER_CHARGES


@<TRIPOS>ATOM
  1 O       -0.3610     1.7950    -2.1190 O.co2 1 <1>  -0.9000 
  2 C        0.0930     1.8190    -0.9660 C.2   1 <1>   0.9060 
  3 O        1.2450     1.4610    -0.7030 O.co2 1 <1>  -0.9000 
  4 C       -0.8480     2.1470     0.2270 C.3   1 <1>   0.4600 
  5 N       -2.0670     1.2310     0.3800 N.4   1 <1>  -0.9590 
  6 C       -1.2890     3.6160     0.3090 C.ar  1 <1>  -0.1430 
  7 C       -2.9130     1.2680    -0.8530 C.3   1 <1>   0.3430 
  8 C       -2.8250     1.5250     1.6240 C.3   1 <1>   0.3430 
  9 C       -1.8100     4.2920    -0.7880 C.ar  1 <1>  -0.1500 
 10 C       -1.1770     4.2880     1.5200 C.ar  1 <1>  -0.1500 
 11 C       -4.0980     0.3180    -0.7150 C.3   1 <1>  -0.1600 
 12 C       -3.9840     0.5490     1.7780 C.3   1 <1>  -0.1600 
 13 C       -2.2510     5.6000    -0.6760 C.ar  1 <1>   0.0830 
 14 C       -1.5900     5.6040     1.6360 C.ar  1 <1>  -0.1500 
 15 C       -4.9010     0.6080     0.5560 C.3   1 <1>   0.2800 
 16 O       -2.8020     6.1620    -1.7820 O.3   1 <1>  -0.3630 
 17 C       -2.1160     6.2710     0.5440 C.ar  1 <1>   0.0830 
 18 O       -5.8310    -0.4130     0.6840 O.3   1 <1>  -0.5600 
 19 C       -5.7170     1.9040     0.4660 C.3   1 <1>  -0.1600 
 20 C       -4.1230     6.6470    -1.6790 C.3   1 <1>   0.0400 
 21 O       -2.4640     7.5680     0.7150 O.3   1 <1>  -0.3630 
 22 C       -7.1390     0.0140     0.4480 C.3   1 <1>   0.1200 
 23 C       -7.0420     1.4320    -0.0940 C.3   1 <1>  -0.1600 
 24 C       -1.6500     8.5130     0.0540 C.3   1 <1>   0.0400 
 25 H       -0.2200     1.9790     1.0830 H     1 <1>   0.0800 
 26 H       -1.6760     0.2820     0.4250 H     1 <1>   0.4500 
 27 H       -2.3330     0.9780    -1.7150 H     1 <1>   0.0800 
 28 H       -3.2720     2.2700    -1.0170 H     1 <1>   0.0800 
 29 H       -3.2100     2.5320     1.5810 H     1 <1>   0.0800 
 30 H       -2.1720     1.4490     2.4780 H     1 <1>   0.0800 
 31 H       -1.8780     3.8140    -1.7510 H     1 <1>   0.1500 
 32 H       -0.7590     3.7980     2.3830 H     1 <1>   0.1500 
 33 H       -3.7300    -0.6920    -0.6910 H     1 <1>   0.0800 
 34 H       -4.7260     0.4190    -1.5810 H     1 <1>   0.0800 
 35 H       -4.5410     0.7930     2.6640 H     1 <1>   0.0800 
 36 H       -3.5950    -0.4470     1.8930 H     1 <1>   0.0800 
 37 H       -1.4960     6.1270     2.5720 H     1 <1>   0.1500 
 38 H       -5.2600     2.6590    -0.1490 H     1 <1>   0.0800 
 39 H       -5.8740     2.3120     1.4490 H     1 <1>   0.0800 
 40 H       -4.4880     6.8350    -2.6720 H     1 <1>   0.0800 
 41 H       -4.1270     7.5600    -1.1130 H     1 <1>   0.0800 
 42 H       -4.7330     5.9040    -1.1960 H     1 <1>   0.0800 
 43 H       -7.6620    -0.0050     1.3890 H     1 <1>   0.0800 
 44 H       -7.6110    -0.6600    -0.2460 H     1 <1>   0.0800 
 45 H       -7.0150     1.4010    -1.1690 H     1 <1>   0.0800 
 46 H       -7.8710     2.0410     0.2220 H     1 <1>   0.0800 
 47 H       -2.0030     9.4970     0.3050 H     1 <1>   0.0800 
 48 H       -1.7150     8.3590    -1.0090 H     1 <1>   0.0800 
 49 H       -0.6340     8.3880     0.3860 H     1 <1>   0.0800 
@<TRIPOS>BOND
  1   1   2  ar  
  2   2   3  ar  
  3   2   4  1   
  4   4   5  1   
  5   4   6  1   
  6   4  25  1   
  7   5   7  1   
  8   5   8  1   
  9   5  26  1   
 10   6   9  ar  
 11   6  10  ar  
 12   7  11  1   
 13   7  27  1   
 14   7  28  1   
 15   8  12  1   
 16   8  29  1   
 17   8  30  1   
 18   9  13  ar  
 19   9  31  1   
 20  10  14  ar  
 21  10  32  1   
 22  11  15  1   
 23  11  33  1   
 24  11  34  1   
 25  12  15  1   
 26  12  35  1   
 27  12  36  1   
 28  13  16  1   
 29  13  17  ar  
 30  14  17  ar  
 31  14  37  1   
 32  15  18  1   
 33  15  19  1   
 34  16  20  1   
 35  17  21  1   
 36  18  22  1   
 37  19  23  1   
 38  19  38  1   
 39  19  39  1   
 40  20  40  1   
 41  20  41  1   
 42  20  42  1   
 43  21  24  1   
 44  22  23  1   
 45  22  43  1   
 46  22  44  1   
 47  23  45  1   
 48  23  46  1   
 49  24  47  1   
 50  24  48  1   
 51  24  49  1   
@<TRIPOS>SUBSTRUCTURE
  1 ****   6 GROUP 4 **** **** 0

# MOE 2024.06 (io_trps.svl 2023.06)
