@<TRIPOS>MOLECULE
NONAME
45 46 1 0 0 
SMALL
USER_CHARGES


@<TRIPOS>ATOM
  1 S       -0.4140    -0.2200    -1.2090 S.3   1 <1>  -0.4600 
  2 C       -1.5870     0.6760    -0.1440 C.3   1 <1>   0.2510 
  3 C       -1.2490    -1.8320    -1.2550 C.3   1 <1>   0.2510 
  4 C       -2.6520    -0.3580     0.1360 C.2   1 <1>   0.1080 
  5 C       -2.4880    -1.6100    -0.4180 C.2   1 <1>  -0.1810 
  6 N       -3.7340    -0.2520     0.8380 N.2   1 <1>  -0.7070 
  7 C       -3.5610    -2.3300    -0.0150 C.2   1 <1>  -0.0880 
  8 N       -4.3080    -1.4770     0.7550 N.pl3 1 <1>   0.3140 
  9 N       -3.8270    -3.6800    -0.3580 N.am  1 <1>  -0.4940 
 10 C       -5.6160    -1.6980     1.3850 C.3   1 <1>   0.0160 
 11 C       -4.4190    -4.6830     0.3590 C.2   1 <1>   0.5690 
 12 O       -4.8990    -4.5240     1.4550 O.2   1 <1>  -0.5700 
 13 C       -4.4750    -6.0790    -0.2560 C.3   1 <1>  -0.0190 
 14 C       -5.3960    -6.9540     0.6150 C.3   1 <1>   0.3430 
 15 C       -3.0610    -6.6860    -0.3980 C.3   1 <1>  -0.2400 
 16 N       -5.5500    -8.3470     0.0730 N.4   1 <1>  -0.9590 
 17 C       -6.9360    -8.6350    -0.4040 C.3   1 <1>   0.4230 
 18 C       -5.0880    -9.3170     1.1210 C.3   1 <1>   0.2630 
 19 C       -7.0160   -10.0630    -0.9470 C.3   1 <1>  -0.2400 
 20 C       -7.3160    -7.6590    -1.5190 C.3   1 <1>  -0.2400 
 21 H       -1.9740     1.5170    -0.6890 H     1 <1>   0.0800 
 22 H       -1.0750     0.9810     0.7510 H     1 <1>   0.0800 
 23 H       -0.5870    -2.5610    -0.8230 H     1 <1>   0.0800 
 24 H       -1.4780    -2.0580    -2.2810 H     1 <1>   0.0800 
 25 H       -3.4020    -3.9630    -1.2400 H     1 <1>   0.3700 
 26 H       -6.1050    -0.7520     1.5220 H     1 <1>   0.0800 
 27 H       -5.4680    -2.1650     2.3400 H     1 <1>   0.0800 
 28 H       -6.2160    -2.3260     0.7560 H     1 <1>   0.0800 
 29 H       -4.9180    -5.9780    -1.2300 H     1 <1>   0.0800 
 30 H       -6.3600    -6.4790     0.7020 H     1 <1>   0.0800 
 31 H       -4.9780    -6.9920     1.6090 H     1 <1>   0.0800 
 32 H       -2.6030    -6.7980     0.5700 H     1 <1>   0.0800 
 33 H       -2.4310    -6.0430    -0.9880 H     1 <1>   0.0800 
 34 H       -3.0860    -7.6460    -0.8810 H     1 <1>   0.0800 
 35 H       -4.9320    -8.4430    -0.7430 H     1 <1>   0.4500 
 36 H       -7.6330    -8.5280     0.4130 H     1 <1>   0.0800 
 37 H       -5.7580    -9.3020     1.9650 H     1 <1>   0.0800 
 38 H       -4.0990    -9.0560     1.4610 H     1 <1>   0.0800 
 39 H       -5.0540   -10.3180     0.7240 H     1 <1>   0.0800 
 40 H       -6.2730   -10.2330    -1.7070 H     1 <1>   0.0800 
 41 H       -7.9840   -10.2270    -1.3890 H     1 <1>   0.0800 
 42 H       -6.9090   -10.7900    -0.1640 H     1 <1>   0.0800 
 43 H       -6.6090    -7.7000    -2.3280 H     1 <1>   0.0800 
 44 H       -7.3980    -6.6520    -1.1560 H     1 <1>   0.0800 
 45 H       -8.2820    -7.9240    -1.9130 H     1 <1>   0.0800 
@<TRIPOS>BOND
  1   1   2  1   
  2   1   3  1   
  3   2   4  1   
  4   2  21  1   
  5   2  22  1   
  6   3   5  1   
  7   3  23  1   
  8   3  24  1   
  9   4   5  1   
 10   4   6  2   
 11   5   7  2   
 12   6   8  1   
 13   7   8  1   
 14   7   9  1   
 15   8  10  1   
 16   9  11  am  
 17   9  25  1   
 18  10  26  1   
 19  10  27  1   
 20  10  28  1   
 21  11  12  2   
 22  11  13  1   
 23  13  14  1   
 24  13  15  1   
 25  13  29  1   
 26  14  16  1   
 27  14  30  1   
 28  14  31  1   
 29  15  32  1   
 30  15  33  1   
 31  15  34  1   
 32  16  17  1   
 33  16  18  1   
 34  16  35  1   
 35  17  19  1   
 36  17  20  1   
 37  17  36  1   
 38  18  37  1   
 39  18  38  1   
 40  18  39  1   
 41  19  40  1   
 42  19  41  1   
 43  19  42  1   
 44  20  43  1   
 45  20  44  1   
 46  20  45  1   
@<TRIPOS>SUBSTRUCTURE
  1 ****  11 GROUP 4 **** **** 0

# MOE 2024.06 (io_trps.svl 2023.06)
