@<TRIPOS>MOLECULE
NONAME
39 41 1 0 0 
SMALL
USER_CHARGES


@<TRIPOS>ATOM
  1 S       -1.7830    -0.7840    -2.4710 S.3   1 <1>  -0.0800 
  2 C       -2.2320    -1.7360    -1.0680 C.2   1 <1>  -0.1100 
  3 C       -2.2370     0.7010    -1.6560 C.2   1 <1>  -0.1100 
  4 C       -2.6980    -0.9490    -0.0780 C.2   1 <1>  -0.1810 
  5 C       -2.6940     0.4440    -0.4170 C.2   1 <1>  -0.1500 
  6 C       -3.1930    -1.4120     1.2890 C.3   1 <1>   0.0820 
  7 C       -3.5510    -2.8930     1.3480 C.2   1 <1>   0.5690 
  8 O       -2.9090    -3.6090     2.0790 O.2   1 <1>  -0.5700 
  9 N       -4.5880    -3.3930     0.6050 N.am  1 <1>  -0.6600 
 10 C       -5.4820    -2.6330    -0.3080 C.3   1 <1>   0.1400 
 11 C       -4.9380    -4.8340     0.5850 C.3   1 <1>   0.1400 
 12 C       -6.6860    -3.5530    -0.5010 C.3   1 <1>   0.2000 
 13 C       -6.0760    -4.9580    -0.4350 C.3   1 <1>  -0.0800 
 14 O       -7.5430    -3.3680     0.5730 O.3   1 <1>  -0.6800 
 15 C       -7.0690    -6.0950    -0.1270 C.3   1 <1>  -0.0170 
 16 C       -6.3750    -7.4470    -0.1720 C.ar  1 <1>  -0.1430 
 17 C       -5.9210    -8.0770     0.9690 C.ar  1 <1>  -0.1500 
 18 C       -6.1600    -8.1140    -1.3610 C.ar  1 <1>  -0.1500 
 19 C       -5.2880    -9.3050     0.8680 C.ar  1 <1>   0.1600 
 20 C       -5.5170    -9.3410    -1.3530 C.ar  1 <1>   0.1600 
 21 N       -5.0750    -9.9520    -0.2660 N.ar  1 <1>  -0.6200 
 22 H       -2.0980    -2.8020    -1.1330 H     1 <1>   0.1500 
 23 H       -2.1100     1.6210    -2.1990 H     1 <1>   0.1500 
 24 H       -3.0310     1.1900     0.2820 H     1 <1>   0.1500 
 25 H       -4.0620    -0.8480     1.5680 H     1 <1>   0.0800 
 26 H       -2.4290    -1.2120     2.0180 H     1 <1>   0.0800 
 27 H       -5.7710    -1.6800     0.0990 H     1 <1>   0.0800 
 28 H       -4.9800    -2.4870    -1.2490 H     1 <1>   0.0800 
 29 H       -4.0870    -5.4310     0.3030 H     1 <1>   0.0800 
 30 H       -5.2640    -5.1270     1.5690 H     1 <1>   0.0800 
 31 H       -7.2270    -3.3600    -1.4110 H     1 <1>   0.0800 
 32 H       -5.6240    -5.1590    -1.3910 H     1 <1>   0.0800 
 33 H       -7.0230    -3.4190     1.4000 H     1 <1>   0.4000 
 34 H       -7.8650    -6.0790    -0.8510 H     1 <1>   0.0800 
 35 H       -7.5150    -5.9530     0.8420 H     1 <1>   0.0800 
 36 H       -6.0510    -7.6270     1.9370 H     1 <1>   0.1500 
 37 H       -6.4870    -7.6920    -2.2940 H     1 <1>   0.1500 
 38 H       -4.9400    -9.7810     1.7690 H     1 <1>   0.1500 
 39 H       -5.3590    -9.8460    -2.2900 H     1 <1>   0.1500 
@<TRIPOS>BOND
  1   1   2  1   
  2   1   3  1   
  3   2   4  2   
  4   2  22  1   
  5   3   5  2   
  6   3  23  1   
  7   4   5  1   
  8   4   6  1   
  9   5  24  1   
 10   6   7  1   
 11   6  25  1   
 12   6  26  1   
 13   7   8  2   
 14   7   9  am  
 15   9  10  1   
 16   9  11  1   
 17  10  12  1   
 18  10  27  1   
 19  10  28  1   
 20  11  13  1   
 21  11  29  1   
 22  11  30  1   
 23  12  13  1   
 24  12  14  1   
 25  12  31  1   
 26  13  15  1   
 27  13  32  1   
 28  14  33  1   
 29  15  16  1   
 30  15  34  1   
 31  15  35  1   
 32  16  17  ar  
 33  16  18  ar  
 34  17  19  ar  
 35  17  36  1   
 36  18  20  ar  
 37  18  37  1   
 38  19  21  ar  
 39  19  38  1   
 40  20  21  ar  
 41  20  39  1   
@<TRIPOS>SUBSTRUCTURE
  1 ****  11 GROUP 4 **** **** 0

# MOE 2024.06 (io_trps.svl 2023.06)
