@<TRIPOS>MOLECULE
NONAME
47 50 1 0 0 
SMALL
USER_CHARGES


@<TRIPOS>ATOM
  1 S        0.2350     0.0820     0.5660 S.o2  1 <1>   1.0900 
  2 O        1.1080    -0.6960     1.4060 O.2   1 <1>  -0.6500 
  3 O       -1.1940    -0.0980     0.5020 O.2   1 <1>  -0.6500 
  4 C        0.4780     1.7950     0.9200 C.3   1 <1>  -0.0550 
  5 C        0.8650     0.1920    -1.1030 C.3   1 <1>  -0.0550 
  6 C        0.1430     2.4540    -0.4090 C.3   1 <1>   0.4230 
  7 C        0.9010     1.6810    -1.5010 C.3   1 <1>  -0.1600 
  8 N        0.4320     3.9210    -0.4600 N.4   1 <1>  -0.9590 
  9 C        1.8170     4.3230    -0.0610 C.3   1 <1>   0.3430 
 10 C       -0.5890     4.6910     0.3100 C.3   1 <1>   0.3430 
 11 C        2.0290     5.7970    -0.3980 C.3   1 <1>  -0.1600 
 12 C       -0.4490     6.1770    -0.0140 C.3   1 <1>  -0.1600 
 13 C        0.9720     6.7170     0.2490 C.3   1 <1>  -0.0190 
 14 C        1.1060     8.1430    -0.2910 C.2   1 <1>   0.5690 
 15 O        0.9610     8.2980    -1.4750 O.2   1 <1>  -0.5700 
 16 N        1.3790     9.1560     0.5840 N.am  1 <1>  -0.4940 
 17 C        1.5520    10.5060     0.3980 C.2   1 <1>   0.4420 
 18 S        1.4380    11.2540    -1.2000 S.3   1 <1>  -0.0800 
 19 N        1.8060    11.3260     1.3430 N.2   1 <1>  -0.5650 
 20 C        1.7680    12.8150    -0.4860 C.ar  1 <1>   0.0400 
 21 C        1.9330    12.6350     0.8750 C.ar  1 <1>   0.2270 
 22 C        1.8580    14.0400    -1.1250 C.ar  1 <1>  -0.1500 
 23 C        2.2060    13.7860     1.6140 C.ar  1 <1>   0.1900 
 24 C        2.1320    15.1600    -0.3540 C.ar  1 <1>  -0.1500 
 25 F        2.3750    13.6970     2.9080 F     1 <1>  -0.1900 
 26 C        2.3070    15.0340     1.0220 C.ar  1 <1>  -0.1500 
 27 H        1.5010     1.9610     1.1910 H     1 <1>   0.0800 
 28 H       -0.1780     2.1150     1.7060 H     1 <1>   0.0800 
 29 H        0.2290    -0.3640    -1.7690 H     1 <1>   0.0800 
 30 H        1.8530    -0.2260    -1.1570 H     1 <1>   0.0800 
 31 H       -0.9130     2.3020    -0.5860 H     1 <1>   0.0800 
 32 H        0.4370     1.8200    -2.4620 H     1 <1>   0.0800 
 33 H        1.9290     1.9900    -1.5570 H     1 <1>   0.0800 
 34 H        0.3180     4.2140    -1.4430 H     1 <1>   0.4500 
 35 H        2.5490     3.7340    -0.5900 H     1 <1>   0.0800 
 36 H        1.9570     4.1690     0.9970 H     1 <1>   0.0800 
 37 H       -0.4520     4.5330     1.3680 H     1 <1>   0.0800 
 38 H       -1.5820     4.3630     0.0440 H     1 <1>   0.0800 
 39 H        2.0100     5.9100    -1.4690 H     1 <1>   0.0800 
 40 H        3.0100     6.0960    -0.0690 H     1 <1>   0.0800 
 41 H       -1.1560     6.7330     0.5770 H     1 <1>   0.0800 
 42 H       -0.7160     6.3300    -1.0460 H     1 <1>   0.0800 
 43 H        1.1390     6.7300     1.3120 H     1 <1>   0.0800 
 44 H        1.4820     8.9130     1.5650 H     1 <1>   0.3700 
 45 H        1.7190    14.1110    -2.1900 H     1 <1>   0.1500 
 46 H        2.2090    16.1290    -0.8190 H     1 <1>   0.1500 
 47 H        2.5190    15.8960     1.6280 H     1 <1>   0.1500 
@<TRIPOS>BOND
  1   1   2  2   
  2   1   3  2   
  3   1   4  1   
  4   1   5  1   
  5   4   6  1   
  6   4  27  1   
  7   4  28  1   
  8   5   7  1   
  9   5  29  1   
 10   5  30  1   
 11   6   7  1   
 12   6   8  1   
 13   6  31  1   
 14   7  32  1   
 15   7  33  1   
 16   8   9  1   
 17   8  10  1   
 18   8  34  1   
 19   9  11  1   
 20   9  35  1   
 21   9  36  1   
 22  10  12  1   
 23  10  37  1   
 24  10  38  1   
 25  11  13  1   
 26  11  39  1   
 27  11  40  1   
 28  12  13  1   
 29  12  41  1   
 30  12  42  1   
 31  13  14  1   
 32  13  43  1   
 33  14  15  2   
 34  14  16  am  
 35  16  17  1   
 36  16  44  1   
 37  17  18  1   
 38  17  19  2   
 39  18  20  1   
 40  19  21  1   
 41  20  21  ar  
 42  20  22  ar  
 43  21  23  ar  
 44  22  24  ar  
 45  22  45  1   
 46  23  25  1   
 47  23  26  ar  
 48  24  26  ar  
 49  24  46  1   
 50  26  47  1   
@<TRIPOS>SUBSTRUCTURE
  1 ****  13 GROUP 4 **** **** 0

# MOE 2024.06 (io_trps.svl 2023.06)
