@<TRIPOS>MOLECULE
NONAME
45 46 1 0 0 
SMALL
USER_CHARGES


@<TRIPOS>ATOM
  1 S        0.4490     0.1900    -1.3310 S.o2  1 <1>   1.3330 
  2 O        0.8170    -1.1680    -1.6650 O.2   1 <1>  -0.6500 
  3 O       -0.3330     0.9710    -2.2620 O.2   1 <1>  -0.6500 
  4 N       -0.4090     0.1500     0.1360 N.am  1 <1>  -0.8490 
  5 C        1.9520     1.0860    -0.9280 C.3   1 <1>  -0.0550 
  6 C       -1.1660     1.3790     0.3990 C.3   1 <1>   0.1160 
  7 C       -1.3050    -1.0080     0.2190 C.3   1 <1>   0.1160 
  8 C        2.8890     0.3420     0.0480 C.3   1 <1>  -0.0800 
  9 C        4.2660     0.9650     0.2190 C.3   1 <1>   0.2200 
 10 C        2.3790     0.2380     1.4930 C.3   1 <1>   0.1200 
 11 N        4.1750     2.4420     0.3430 N.am  1 <1>  -0.7300 
 12 C        4.6580     0.3940     1.5740 C.3   1 <1>   0.1200 
 13 O        3.4850     0.4440     2.3250 O.3   1 <1>  -0.5600 
 14 C        4.4920     3.3350    -0.6410 C.2   1 <1>   0.5440 
 15 O        4.7040     2.9010    -1.7540 O.2   1 <1>  -0.5700 
 16 C        4.5570     4.7550    -0.3850 C.ar  1 <1>   0.0860 
 17 C        4.7260     5.2930     0.8770 C.ar  1 <1>   0.1600 
 18 C        4.4590     5.6830    -1.4050 C.ar  1 <1>   0.1600 
 19 N        4.7740     6.5860     1.1140 N.ar  1 <1>  -0.6200 
 20 N        4.5040     6.9840    -1.2070 N.ar  1 <1>  -0.6200 
 21 C        4.6580     7.3680     0.0510 C.ar  1 <1>   0.4770 
 22 C        4.7060     8.8660     0.3020 C.3   1 <1>  -0.0170 
 23 C        3.3130     9.4510     0.5770 C.3   1 <1>  -0.2400 
 24 H        2.4920     1.2540    -1.8400 H     1 <1>   0.0800 
 25 H        1.6980     2.0470    -0.5280 H     1 <1>   0.0800 
 26 H       -1.6140     1.3350     1.3770 H     1 <1>   0.0800 
 27 H       -1.9430     1.5080    -0.3370 H     1 <1>   0.0800 
 28 H       -0.5120     2.2340     0.3630 H     1 <1>   0.0800 
 29 H       -1.8260    -1.0120     1.1600 H     1 <1>   0.0800 
 30 H       -0.7370    -1.9210     0.1460 H     1 <1>   0.0800 
 31 H       -2.0230    -0.9840    -0.5850 H     1 <1>   0.0800 
 32 H        3.0300    -0.6610    -0.3180 H     1 <1>   0.0800 
 33 H        4.9540     0.6850    -0.5610 H     1 <1>   0.0800 
 34 H        1.9610    -0.7330     1.6980 H     1 <1>   0.0800 
 35 H        1.6540     0.9990     1.7210 H     1 <1>   0.0800 
 36 H        3.8500     2.7430     1.2650 H     1 <1>   0.3700 
 37 H        5.4310     0.9610     2.0630 H     1 <1>   0.0800 
 38 H        4.9550    -0.6370     1.4870 H     1 <1>   0.0800 
 39 H        4.8320     4.6380     1.7240 H     1 <1>   0.1500 
 40 H        4.3390     5.3350    -2.4180 H     1 <1>   0.1500 
 41 H        5.3480     9.0590     1.1420 H     1 <1>   0.0800 
 42 H        5.1350     9.3500    -0.5570 H     1 <1>   0.0800 
 43 H        2.8820     8.9850     1.4460 H     1 <1>   0.0800 
 44 H        2.6670     9.2780    -0.2660 H     1 <1>   0.0800 
 45 H        3.3820    10.5100     0.7500 H     1 <1>   0.0800 
@<TRIPOS>BOND
  1   1   2  2   
  2   1   3  2   
  3   1   4  am  
  4   1   5  1   
  5   4   6  1   
  6   4   7  1   
  7   5   8  1   
  8   5  24  1   
  9   5  25  1   
 10   6  26  1   
 11   6  27  1   
 12   6  28  1   
 13   7  29  1   
 14   7  30  1   
 15   7  31  1   
 16   8   9  1   
 17   8  10  1   
 18   8  32  1   
 19   9  11  1   
 20   9  12  1   
 21   9  33  1   
 22  10  13  1   
 23  10  34  1   
 24  10  35  1   
 25  11  14  am  
 26  11  36  1   
 27  12  13  1   
 28  12  37  1   
 29  12  38  1   
 30  14  15  2   
 31  14  16  1   
 32  16  17  ar  
 33  16  18  ar  
 34  17  19  ar  
 35  17  39  1   
 36  18  20  ar  
 37  18  40  1   
 38  19  21  ar  
 39  20  21  ar  
 40  21  22  1   
 41  22  23  1   
 42  22  41  1   
 43  22  42  1   
 44  23  43  1   
 45  23  44  1   
 46  23  45  1   
@<TRIPOS>SUBSTRUCTURE
  1 ****  11 GROUP 4 **** **** 0

# MOE 2024.06 (io_trps.svl 2023.06)
