@<TRIPOS>MOLECULE
NONAME
50 52 1 0 0 
SMALL
USER_CHARGES


@<TRIPOS>ATOM
  1 CL       0.5490     0.9830    -0.8680 Cl    1 <1>  -0.1770 
  2 C        1.8720    -0.1180    -0.5510 C.ar  1 <1>   0.1770 
  3 C        2.9860     0.2930     0.1810 C.ar  1 <1>   0.0860 
  4 C        1.7740    -1.3940    -1.0750 C.ar  1 <1>  -0.1500 
  5 C        3.1050     1.6210     0.7360 C.2   1 <1>   0.5440 
  6 C        4.0080    -0.6370     0.3530 C.ar  1 <1>  -0.1500 
  7 C        2.8060    -2.2930    -0.8850 C.ar  1 <1>  -0.1500 
  8 O        2.2590     2.0870     1.4730 O.2   1 <1>  -0.5700 
  9 N        4.2000     2.3760     0.4580 N.am  1 <1>  -0.7300 
 10 C        3.9380    -1.9200    -0.1690 C.ar  1 <1>   0.1000 
 11 C        4.3800     3.7800     0.8520 C.3   1 <1>   0.3200 
 12 N        5.0010    -2.7930     0.0330 N.pl3 1 <1>  -0.8380 
 13 C        5.4500     4.4160    -0.0320 C.2   1 <1>   0.0070 
 14 C        4.7370    -4.2180     0.3600 C.3   1 <1>   0.2090 
 15 C        6.2430    -2.5620    -0.7490 C.3   1 <1>   0.2090 
 16 N        6.2660     3.7450    -0.7910 N.2   1 <1>  -0.5650 
 17 N        5.6350     5.7580    -0.0960 N.pl3 1 <1>   0.0480 
 18 C        5.9210    -4.7810     1.1530 C.3   1 <1>  -0.1600 
 19 C        7.4410    -3.1090     0.0320 C.3   1 <1>  -0.1600 
 20 C        7.0170     4.6940    -1.3780 C.2   1 <1>   0.0770 
 21 C        6.6470     5.9250    -0.9660 C.2   1 <1>  -0.3020 
 22 C        4.9080     6.8380     0.6070 C.3   1 <1>   0.0960 
 23 C        7.2500    -4.5870     0.4070 C.3   1 <1>  -0.1600 
 24 C        3.6940     7.2910    -0.2130 C.3   1 <1>  -0.1600 
 25 C        2.9170     8.3970     0.5090 C.3   1 <1>  -0.2400 
 26 H        0.8980    -1.6740    -1.6320 H     1 <1>   0.1500 
 27 H        4.8830    -0.3640     0.9160 H     1 <1>   0.1500 
 28 H        2.7410    -3.2820    -1.2980 H     1 <1>   0.1500 
 29 H        4.9050     2.0880    -0.2300 H     1 <1>   0.3700 
 30 H        4.6850     3.8200     1.8820 H     1 <1>   0.0800 
 31 H        3.4450     4.3000     0.7410 H     1 <1>   0.0800 
 32 H        4.6070    -4.7760    -0.5520 H     1 <1>   0.0800 
 33 H        3.8360    -4.2950     0.9450 H     1 <1>   0.0800 
 34 H        6.3730    -1.5090    -0.9290 H     1 <1>   0.0800 
 35 H        6.1620    -3.0620    -1.6990 H     1 <1>   0.0800 
 36 H        5.7580    -5.8270     1.3410 H     1 <1>   0.0800 
 37 H        5.9630    -4.2780     2.1030 H     1 <1>   0.0800 
 38 H        7.5620    -2.5220     0.9260 H     1 <1>   0.0800 
 39 H        8.3320    -2.9960    -0.5590 H     1 <1>   0.0800 
 40 H        7.7960     4.4370    -2.0760 H     1 <1>   0.1500 
 41 H        7.0420     6.8850    -1.2420 H     1 <1>   0.1500 
 42 H        5.5810     7.6640     0.7550 H     1 <1>   0.0800 
 43 H        4.5950     6.4810     1.5720 H     1 <1>   0.0800 
 44 H        7.2470    -5.1850    -0.4890 H     1 <1>   0.0800 
 45 H        8.0670    -4.9150     1.0260 H     1 <1>   0.0800 
 46 H        3.0380     6.4550    -0.3840 H     1 <1>   0.0800 
 47 H        4.0270     7.6610    -1.1680 H     1 <1>   0.0800 
 48 H        2.5520     8.0450     1.4590 H     1 <1>   0.0800 
 49 H        2.0730     8.7010    -0.0860 H     1 <1>   0.0800 
 50 H        3.5430     9.2560     0.6740 H     1 <1>   0.0800 
@<TRIPOS>BOND
  1   1   2  1   
  2   2   3  ar  
  3   2   4  ar  
  4   3   5  1   
  5   3   6  ar  
  6   4   7  ar  
  7   4  26  1   
  8   5   8  2   
  9   5   9  am  
 10   6  10  ar  
 11   6  27  1   
 12   7  10  ar  
 13   7  28  1   
 14   9  11  1   
 15   9  29  1   
 16  10  12  1   
 17  11  13  1   
 18  11  30  1   
 19  11  31  1   
 20  12  14  1   
 21  12  15  1   
 22  13  16  2   
 23  13  17  1   
 24  14  18  1   
 25  14  32  1   
 26  14  33  1   
 27  15  19  1   
 28  15  34  1   
 29  15  35  1   
 30  16  20  1   
 31  17  21  1   
 32  17  22  1   
 33  18  23  1   
 34  18  36  1   
 35  18  37  1   
 36  19  23  1   
 37  19  38  1   
 38  19  39  1   
 39  20  21  2   
 40  20  40  1   
 41  21  41  1   
 42  22  24  1   
 43  22  42  1   
 44  22  43  1   
 45  23  44  1   
 46  23  45  1   
 47  24  25  1   
 48  24  46  1   
 49  24  47  1   
 50  25  48  1   
 51  25  49  1   
 52  25  50  1   
@<TRIPOS>SUBSTRUCTURE
  1 ****   9 GROUP 4 **** **** 0

# MOE 2024.06 (io_trps.svl 2023.06)
