@<TRIPOS>MOLECULE
NONAME
56 59 1 0 0 
SMALL
USER_CHARGES


@<TRIPOS>ATOM
  1 O        0.4560     0.2980    -1.3860 O.3   1 <1>  -0.5600 
  2 C        1.6500    -0.4270    -1.2250 C.3   1 <1>   0.2000 
  3 C        0.6330     1.6670    -1.5780 C.3   1 <1>   0.1200 
  4 C        2.5300     0.1580    -0.0750 C.3   1 <1>   0.3340 
  5 C        1.2070    -1.8880    -1.0140 C.3   1 <1>   0.1200 
  6 C        1.3270     2.2740    -0.3550 C.3   1 <1>   0.1100 
  7 N        2.6380     1.6410    -0.1310 N.3   1 <1>  -0.8100 
  8 C        3.9510    -0.4120    -0.1400 C.ar  1 <1>  -0.1440 
  9 O        2.2680    -2.7570    -0.7830 O.3   1 <1>  -0.6800 
 10 C        3.2890     2.1810     1.0840 C.3   1 <1>   0.2900 
 11 C        4.4030    -1.2830     0.8410 C.ar  1 <1>  -0.1500 
 12 C        4.8070    -0.0640    -1.1770 C.ar  1 <1>  -0.1500 
 13 C        3.6090     3.6620     0.9440 C.2   1 <1>  -0.0400 
 14 C        5.6820    -1.8090     0.7870 C.ar  1 <1>   0.0830 
 15 C        6.0920    -0.5760    -1.2330 C.ar  1 <1>  -0.1500 
 16 O        2.7170     4.5490     1.3800 O.3   1 <1>  -0.2800 
 17 C        4.6990     4.2750     0.4380 C.2   1 <1>  -0.1810 
 18 O        6.0360    -2.6900     1.7520 O.3   1 <1>  -0.3630 
 19 C        6.5450    -1.4390    -0.2500 C.ar  1 <1>   0.0830 
 20 C        3.2250     5.7620     1.1590 C.ar  1 <1>   0.1400 
 21 C        4.4720     5.6620     0.5680 C.ar  1 <1>   0.0000 
 22 C        5.9490     3.6680    -0.1710 C.3   1 <1>  -0.0590 
 23 C        6.0880    -4.0390     1.3460 C.3   1 <1>   0.0400 
 24 O        7.8230    -1.8830    -0.3550 O.3   1 <1>  -0.3630 
 25 C        2.6460     6.9890     1.4530 C.ar  1 <1>  -0.1500 
 26 C        5.1750     6.8260     0.2540 C.ar  1 <1>  -0.1500 
 27 C        8.6910    -1.6140     0.7250 C.3   1 <1>   0.0400 
 28 C        3.3480     8.1370     1.1400 C.ar  1 <1>  -0.1500 
 29 C        4.6090     8.0520     0.5420 C.ar  1 <1>  -0.1500 
 30 H        2.1860    -0.3570    -2.1540 H     1 <1>   0.0800 
 31 H        1.2190     1.8260    -2.4670 H     1 <1>   0.0800 
 32 H       -0.3370     2.1100    -1.7130 H     1 <1>   0.0800 
 33 H        2.0740    -0.1230     0.8580 H     1 <1>   0.0800 
 34 H        0.6860    -2.2350    -1.8890 H     1 <1>   0.0800 
 35 H        0.5480    -1.9540    -0.1660 H     1 <1>   0.0800 
 36 H        0.6970     2.1530     0.5100 H     1 <1>   0.0800 
 37 H        1.4600     3.3280    -0.5290 H     1 <1>   0.0800 
 38 H        3.0140    -2.5760    -1.3900 H     1 <1>   0.4000 
 39 H        2.6630     2.0280     1.9460 H     1 <1>   0.0800 
 40 H        4.2180     1.6670     1.2570 H     1 <1>   0.0800 
 41 H        3.7590    -1.5760     1.6510 H     1 <1>   0.1500 
 42 H        4.4720     0.6200    -1.9390 H     1 <1>   0.1500 
 43 H        6.7530    -0.3030    -2.0360 H     1 <1>   0.1500 
 44 H        6.0700     4.0230    -1.1790 H     1 <1>   0.0800 
 45 H        5.8770     2.5960    -0.1920 H     1 <1>   0.0800 
 46 H        6.8110     3.9490     0.4060 H     1 <1>   0.0800 
 47 H        6.3440    -4.6390     2.2010 H     1 <1>   0.0800 
 48 H        6.8360    -4.1490     0.5810 H     1 <1>   0.0800 
 49 H        5.1220    -4.3250     0.9690 H     1 <1>   0.0800 
 50 H        1.6760     7.0230     1.9130 H     1 <1>   0.1500 
 51 H        6.1430     6.7520    -0.2050 H     1 <1>   0.1500 
 52 H        9.6990    -1.7880     0.3960 H     1 <1>   0.0800 
 53 H        8.4570    -2.2710     1.5420 H     1 <1>   0.0800 
 54 H        8.5710    -0.5870     1.0230 H     1 <1>   0.0800 
 55 H        2.9280     9.1040     1.3550 H     1 <1>   0.1500 
 56 H        5.1400     8.9580     0.3060 H     1 <1>   0.1500 
@<TRIPOS>BOND
  1   1   2  1   
  2   1   3  1   
  3   2   4  1   
  4   2   5  1   
  5   2  30  1   
  6   3   6  1   
  7   3  31  1   
  8   3  32  1   
  9   4   7  1   
 10   4   8  1   
 11   4  33  1   
 12   5   9  1   
 13   5  34  1   
 14   5  35  1   
 15   6   7  1   
 16   6  36  1   
 17   6  37  1   
 18   7  10  1   
 19   8  11  ar  
 20   8  12  ar  
 21   9  38  1   
 22  10  13  1   
 23  10  39  1   
 24  10  40  1   
 25  11  14  ar  
 26  11  41  1   
 27  12  15  ar  
 28  12  42  1   
 29  13  16  1   
 30  13  17  2   
 31  14  18  1   
 32  14  19  ar  
 33  15  19  ar  
 34  15  43  1   
 35  16  20  1   
 36  17  21  1   
 37  17  22  1   
 38  18  23  1   
 39  19  24  1   
 40  20  21  ar  
 41  20  25  ar  
 42  21  26  ar  
 43  22  44  1   
 44  22  45  1   
 45  22  46  1   
 46  23  47  1   
 47  23  48  1   
 48  23  49  1   
 49  24  27  1   
 50  25  28  ar  
 51  25  50  1   
 52  26  29  ar  
 53  26  51  1   
 54  27  52  1   
 55  27  53  1   
 56  27  54  1   
 57  28  29  ar  
 58  28  55  1   
 59  29  56  1   
@<TRIPOS>SUBSTRUCTURE
  1 ****  10 GROUP 4 **** **** 0

# MOE 2024.06 (io_trps.svl 2023.06)
