@<TRIPOS>MOLECULE
NONAME
45 47 1 0 0 
SMALL
USER_CHARGES


@<TRIPOS>ATOM
  1 S        0.6570     0.4810    -1.0650 S.o2  1 <1>   1.4470 
  2 O        1.1910    -0.3660    -2.1100 O.2   1 <1>  -0.6500 
  3 O        0.3950     1.8840    -1.3130 O.2   1 <1>  -0.6500 
  4 N        1.6920     0.3500     0.2840 N.am  1 <1>  -0.8490 
  5 C       -0.8570    -0.2870    -0.4240 C.ar  1 <1>  -0.0090 
  6 C        1.8340     1.5520     1.1270 C.3   1 <1>   0.1960 
  7 C        2.8770    -0.5060     0.1340 C.3   1 <1>   0.1960 
  8 C       -1.8990     0.4840     0.0800 C.ar  1 <1>  -0.1500 
  9 C       -1.0000    -1.6690    -0.3940 C.ar  1 <1>  -0.1500 
 10 C        3.1090     2.3960     0.8870 C.3   1 <1>   0.2200 
 11 C        4.1080     0.1090    -0.5770 C.3   1 <1>  -0.0190 
 12 C       -3.0460    -0.0980     0.5950 C.ar  1 <1>  -0.1440 
 13 C       -2.1370    -2.2690     0.1200 C.ar  1 <1>  -0.1440 
 14 N        3.4210     2.5090    -0.5740 N.am  1 <1>  -0.6600 
 15 C        4.2920     1.8770     1.7530 C.3   1 <1>   0.1200 
 16 C        3.8850     1.4340    -1.2860 C.2   1 <1>   0.5690 
 17 C        5.3240     0.2210     0.3580 C.3   1 <1>   0.1200 
 18 C       -3.1580    -1.4760     0.6130 C.ar  1 <1>  -0.1500 
 19 C       -4.1710     0.7660     1.1360 C.3   1 <1>  -0.0960 
 20 C       -2.2680    -3.7820     0.1360 C.3   1 <1>  -0.0970 
 21 C        3.0760     3.7980    -1.2310 C.3   1 <1>   0.0600 
 22 O        5.4040     1.4470     1.0240 O.3   1 <1>  -0.5600 
 23 O        4.1530     1.4990    -2.4640 O.2   1 <1>  -0.5700 
 24 H        0.9770     2.1900     0.9950 H     1 <1>   0.0800 
 25 H        1.8100     1.2460     2.1580 H     1 <1>   0.0800 
 26 H        3.1660    -0.8400     1.1150 H     1 <1>   0.0800 
 27 H        2.5890    -1.3960    -0.4010 H     1 <1>   0.0800 
 28 H       -1.8070     1.5560     0.0650 H     1 <1>   0.1500 
 29 H       -0.2040    -2.2810    -0.7850 H     1 <1>   0.1500 
 30 H        2.8870     3.3820     1.2560 H     1 <1>   0.0800 
 31 H        4.3850    -0.6030    -1.3330 H     1 <1>   0.0800 
 32 H        3.9880     1.0800     2.4090 H     1 <1>   0.0800 
 33 H        4.6330     2.6860     2.3740 H     1 <1>   0.0800 
 34 H        6.2210     0.1460    -0.2320 H     1 <1>   0.0800 
 35 H        5.3420    -0.5680     1.0890 H     1 <1>   0.0800 
 36 H       -4.0460    -1.9350     1.0120 H     1 <1>   0.1500 
 37 H       -5.1240     0.3260     0.8990 H     1 <1>   0.0800 
 38 H       -4.1370     1.7500     0.7040 H     1 <1>   0.0800 
 39 H       -4.0840     0.8510     2.2040 H     1 <1>   0.0800 
 40 H       -2.8280    -4.1000     0.9970 H     1 <1>   0.0800 
 41 H       -1.2980    -4.2450     0.1730 H     1 <1>   0.0800 
 42 H       -2.7770    -4.1120    -0.7510 H     1 <1>   0.0800 
 43 H        3.6590     4.5930    -0.8010 H     1 <1>   0.0800 
 44 H        2.0280     4.0050    -1.0990 H     1 <1>   0.0800 
 45 H        3.2810     3.7530    -2.2860 H     1 <1>   0.0800 
@<TRIPOS>BOND
  1   1   2  2   
  2   1   3  2   
  3   1   4  am  
  4   1   5  1   
  5   4   6  1   
  6   4   7  1   
  7   5   8  ar  
  8   5   9  ar  
  9   6  10  1   
 10   6  24  1   
 11   6  25  1   
 12   7  11  1   
 13   7  26  1   
 14   7  27  1   
 15   8  12  ar  
 16   8  28  1   
 17   9  13  ar  
 18   9  29  1   
 19  10  14  1   
 20  10  15  1   
 21  10  30  1   
 22  11  16  1   
 23  11  17  1   
 24  11  31  1   
 25  12  18  ar  
 26  12  19  1   
 27  13  18  ar  
 28  13  20  1   
 29  14  16  am  
 30  14  21  1   
 31  15  22  1   
 32  15  32  1   
 33  15  33  1   
 34  16  23  2   
 35  17  22  1   
 36  17  34  1   
 37  17  35  1   
 38  18  36  1   
 39  19  37  1   
 40  19  38  1   
 41  19  39  1   
 42  20  40  1   
 43  20  41  1   
 44  20  42  1   
 45  21  43  1   
 46  21  44  1   
 47  21  45  1   
@<TRIPOS>SUBSTRUCTURE
  1 ****   4 GROUP 4 **** **** 0

# MOE 2024.06 (io_trps.svl 2023.06)
