@<TRIPOS>MOLECULE
NONAME
40 40 1 0 0 
SMALL
USER_CHARGES


@<TRIPOS>ATOM
  1 O        1.3430    -0.8280     1.8820 O.2   1 <1>  -0.5700 
  2 C        1.7590    -0.9900     0.7580 C.2   1 <1>   0.5690 
  3 N        2.2710     0.0230     0.0020 N.am  1 <1>  -0.4930 
  4 C        1.7140    -2.3910     0.1420 C.3   1 <1>  -0.0190 
  5 C        2.4280     1.3930     0.3290 C.2   1 <1>   0.0630 
  6 C        0.2470    -2.8670     0.0030 C.3   1 <1>  -0.1600 
  7 C        2.5950    -3.3470     0.9810 C.3   1 <1>  -0.1600 
  8 C        2.9330     2.3570    -0.4750 C.2   1 <1>  -0.3320 
  9 C        2.1120     2.0540     1.5170 C.2   1 <1>   0.1390 
 10 C       -0.0240    -3.6530    -1.2910 C.3   1 <1>  -0.1600 
 11 C        2.7420    -4.7610     0.4010 C.3   1 <1>  -0.1600 
 12 N        2.8990     3.5100     0.2400 N.pl3 1 <1>   0.3140 
 13 C        3.4550     2.2610    -1.9010 C.3   1 <1>  -0.0600 
 14 N        2.3930     3.3220     1.4680 N.2   1 <1>  -0.7070 
 15 C       -1.4860    -4.1040    -1.3590 C.3   1 <1>  -0.2400 
 16 C        3.7640    -5.5760     1.1980 C.3   1 <1>  -0.2400 
 17 C        3.3400     4.8410    -0.1970 C.3   1 <1>   0.0160 
 18 H        2.5860    -0.2200    -0.9320 H     1 <1>   0.3700 
 19 H        2.1440    -2.3240    -0.8410 H     1 <1>   0.0800 
 20 H       -0.4000    -2.0050     0.0000 H     1 <1>   0.0800 
 21 H       -0.0260    -3.4550     0.8630 H     1 <1>   0.0800 
 22 H        2.1900    -3.4170     1.9770 H     1 <1>   0.0800 
 23 H        3.5740    -2.9090     1.0680 H     1 <1>   0.0800 
 24 H        1.6840     1.5730     2.3800 H     1 <1>   0.1500 
 25 H        0.6080    -4.5200    -1.3510 H     1 <1>   0.0800 
 26 H        0.1890    -3.0300    -2.1430 H     1 <1>   0.0800 
 27 H        3.0590    -4.7060    -0.6270 H     1 <1>   0.0800 
 28 H        1.7950    -5.2710     0.4400 H     1 <1>   0.0800 
 29 H        3.3840     1.2540    -2.2680 H     1 <1>   0.0800 
 30 H        4.4870     2.5630    -1.9380 H     1 <1>   0.0800 
 31 H        2.8800     2.8990    -2.5490 H     1 <1>   0.0800 
 32 H       -1.7190    -4.7480    -0.5290 H     1 <1>   0.0800 
 33 H       -1.6630    -4.6450    -2.2720 H     1 <1>   0.0800 
 34 H       -2.1440    -3.2530    -1.3330 H     1 <1>   0.0800 
 35 H        4.7330    -5.1100     1.1580 H     1 <1>   0.0800 
 36 H        3.8450    -6.5680     0.7880 H     1 <1>   0.0800 
 37 H        3.4600    -5.6560     2.2270 H     1 <1>   0.0800 
 38 H        2.7670     5.1380    -1.0550 H     1 <1>   0.0800 
 39 H        4.3840     4.8040    -0.4420 H     1 <1>   0.0800 
 40 H        3.1820     5.5420     0.6010 H     1 <1>   0.0800 
@<TRIPOS>BOND
  1   1   2  2   
  2   2   3  am  
  3   2   4  1   
  4   3   5  1   
  5   3  18  1   
  6   4   6  1   
  7   4   7  1   
  8   4  19  1   
  9   5   8  2   
 10   5   9  1   
 11   6  10  1   
 12   6  20  1   
 13   6  21  1   
 14   7  11  1   
 15   7  22  1   
 16   7  23  1   
 17   8  12  1   
 18   8  13  1   
 19   9  14  2   
 20   9  24  1   
 21  10  15  1   
 22  10  25  1   
 23  10  26  1   
 24  11  16  1   
 25  11  27  1   
 26  11  28  1   
 27  12  14  1   
 28  12  17  1   
 29  13  29  1   
 30  13  30  1   
 31  13  31  1   
 32  15  32  1   
 33  15  33  1   
 34  15  34  1   
 35  16  35  1   
 36  16  36  1   
 37  16  37  1   
 38  17  38  1   
 39  17  39  1   
 40  17  40  1   
@<TRIPOS>SUBSTRUCTURE
  1 ****   3 GROUP 4 **** **** 0

# MOE 2024.06 (io_trps.svl 2023.06)
