@<TRIPOS>MOLECULE
NONAME
55 58 1 0 0 
SMALL
USER_CHARGES


@<TRIPOS>ATOM
  1 F       -0.8640     0.0180     2.2900 F     1 <1>  -0.1370 
  2 C       -1.9050     0.3220     1.5550 C.2   1 <1>  -0.0150 
  3 N       -2.2190     1.5950     1.3140 N.pl3 1 <1>   0.3340 
  4 C       -2.7790    -0.5260     0.9430 C.2   1 <1>   0.1410 
  5 C       -3.3320     1.4870     0.5130 C.2   1 <1>   0.1410 
  6 C       -1.6930     2.8320     1.6710 C.2   1 <1>  -0.1810 
  7 N       -3.6870     0.2440     0.2710 N.2   1 <1>  -0.5650 
  8 C       -2.7660    -1.9850     1.0040 C.2   1 <1>   0.7160 
  9 C       -3.9450     2.6820     0.0540 C.2   1 <1>  -0.1050 
 10 C       -2.2790     3.9770     1.2290 C.2   1 <1>  -0.1380 
 11 O       -2.2420    -2.5290     1.9610 O.2   1 <1>  -0.5700 
 12 N       -3.3100    -2.7990     0.0250 N.am  1 <1>  -0.6600 
 13 C       -3.4340     3.8950     0.4020 C.2   1 <1>  -0.1500 
 14 C       -1.7440     5.3500     1.5890 C.3   1 <1>  -0.1020 
 15 C       -3.3520    -4.2900     0.2010 C.3   1 <1>   0.3640 
 16 C       -3.9230    -2.2790    -1.2360 C.3   1 <1>   0.1400 
 17 C       -2.1070    -4.9840    -0.3840 C.ar  1 <1>  -0.1430 
 18 C       -4.6720    -4.8780    -0.3890 C.3   1 <1>   0.2000 
 19 C       -4.2380    -3.3990    -2.2390 C.3   1 <1>   0.1200 
 20 C       -1.9470    -6.3470    -0.1630 C.ar  1 <1>  -0.1500 
 21 C       -1.1240    -4.3160    -1.1100 C.ar  1 <1>  -0.1500 
 22 O       -5.0460    -4.3810    -1.6590 O.3   1 <1>  -0.5600 
 23 C       -5.8590    -4.6290     0.5500 C.3   1 <1>   0.1200 
 24 C       -0.8610    -7.0390    -0.6700 C.ar  1 <1>   0.0830 
 25 C       -0.0230    -4.9930    -1.6060 C.ar  1 <1>  -0.1500 
 26 O       -5.7470    -5.4180     1.6920 O.3   1 <1>  -0.6800 
 27 O       -0.8170    -8.3760    -0.4470 O.3   1 <1>  -0.3630 
 28 C        0.1260    -6.3500    -1.3810 C.ar  1 <1>   0.0830 
 29 C       -0.8700    -9.2090    -1.5850 C.3   1 <1>   0.0400 
 30 O        1.2440    -6.9470    -1.8600 O.3   1 <1>  -0.3630 
 31 C        2.1610    -7.4070    -0.8910 C.3   1 <1>   0.0400 
 32 H       -0.8200     2.8120     2.2980 H     1 <1>   0.1500 
 33 H       -4.8170     2.5820    -0.5670 H     1 <1>   0.1500 
 34 H       -3.8890     4.8110     0.0620 H     1 <1>   0.1500 
 35 H       -2.4950     5.9100     2.1180 H     1 <1>   0.0800 
 36 H       -1.4750     5.8860     0.6970 H     1 <1>   0.0800 
 37 H       -0.8740     5.2690     2.2160 H     1 <1>   0.0800 
 38 H       -3.3520    -4.5150     1.2540 H     1 <1>   0.0800 
 39 H       -4.8380    -1.7640    -0.9980 H     1 <1>   0.0800 
 40 H       -3.2530    -1.5730    -1.6950 H     1 <1>   0.0800 
 41 H       -4.5680    -5.9400    -0.5090 H     1 <1>   0.0800 
 42 H       -3.3370    -3.8640    -2.5970 H     1 <1>   0.0800 
 43 H       -4.7690    -2.9990    -3.0840 H     1 <1>   0.0800 
 44 H       -2.6710    -6.8980     0.4110 H     1 <1>   0.1500 
 45 H       -1.1940    -3.2600    -1.2940 H     1 <1>   0.1500 
 46 H       -6.7860    -4.8780     0.0640 H     1 <1>   0.0800 
 47 H       -5.8810    -3.5980     0.8610 H     1 <1>   0.0800 
 48 H        0.7330    -4.4690    -2.1620 H     1 <1>   0.1500 
 49 H       -6.0020    -6.3430     1.5030 H     1 <1>   0.4000 
 50 H       -0.9800   -10.2250    -1.2530 H     1 <1>   0.0800 
 51 H        0.0410    -9.1050    -2.1470 H     1 <1>   0.0800 
 52 H       -1.7140    -8.9220    -2.1870 H     1 <1>   0.0800 
 53 H        3.0320    -7.7770    -1.4000 H     1 <1>   0.0800 
 54 H        1.7070    -8.1950    -0.3170 H     1 <1>   0.0800 
 55 H        2.4280    -6.5850    -0.2500 H     1 <1>   0.0800 
@<TRIPOS>BOND
  1   1   2  1   
  2   2   3  1   
  3   2   4  2   
  4   3   5  1   
  5   3   6  1   
  6   4   7  1   
  7   4   8  1   
  8   5   7  2   
  9   5   9  1   
 10   6  10  2   
 11   6  32  1   
 12   8  11  2   
 13   8  12  am  
 14   9  13  2   
 15   9  33  1   
 16  10  13  1   
 17  10  14  1   
 18  12  15  1   
 19  12  16  1   
 20  13  34  1   
 21  14  35  1   
 22  14  36  1   
 23  14  37  1   
 24  15  17  1   
 25  15  18  1   
 26  15  38  1   
 27  16  19  1   
 28  16  39  1   
 29  16  40  1   
 30  17  20  ar  
 31  17  21  ar  
 32  18  22  1   
 33  18  23  1   
 34  18  41  1   
 35  19  22  1   
 36  19  42  1   
 37  19  43  1   
 38  20  24  ar  
 39  20  44  1   
 40  21  25  ar  
 41  21  45  1   
 42  23  26  1   
 43  23  46  1   
 44  23  47  1   
 45  24  27  1   
 46  24  28  ar  
 47  25  28  ar  
 48  25  48  1   
 49  26  49  1   
 50  27  29  1   
 51  28  30  1   
 52  29  50  1   
 53  29  51  1   
 54  29  52  1   
 55  30  31  1   
 56  31  53  1   
 57  31  54  1   
 58  31  55  1   
@<TRIPOS>SUBSTRUCTURE
  1 ****  12 GROUP 4 **** **** 0

# MOE 2024.06 (io_trps.svl 2023.06)
