@<TRIPOS>MOLECULE
NONAME
55 57 1 0 0 
SMALL
USER_CHARGES


@<TRIPOS>ATOM
  1 O       -0.0980    -2.6880     2.1730 O.2   1 <1>  -0.5700 
  2 C        0.3220    -2.1490     1.1690 C.2   1 <1>   0.5440 
  3 N        0.1080    -0.8170     1.0600 N.am  1 <1>  -0.8000 
  4 C        1.0550    -2.8810     0.1700 C.ar  1 <1>   0.0860 
  5 C        0.4630    -3.9050    -0.5890 C.ar  1 <1>   0.4100 
  6 C        2.3910    -2.6020    -0.0660 C.ar  1 <1>  -0.1500 
  7 N        1.1210    -4.6550    -1.4760 N.ar  1 <1>  -0.6200 
  8 N       -0.8730    -4.2390    -0.4620 N.pl3 1 <1>  -0.8380 
  9 C        3.0710    -3.3420    -1.0080 C.ar  1 <1>  -0.1430 
 10 C        2.3900    -4.3520    -1.6830 C.ar  1 <1>   0.1670 
 11 C       -1.2610    -5.1620     0.6510 C.3   1 <1>   0.2090 
 12 C       -1.6950    -4.4590    -1.6970 C.3   1 <1>   0.2090 
 13 C        4.5400    -3.0300    -1.2700 C.3   1 <1>  -0.0970 
 14 C        3.1000    -5.1880    -2.7330 C.3   1 <1>  -0.0970 
 15 C       -0.9740    -6.6660     0.2940 C.3   1 <1>   0.5030 
 16 C       -1.9110    -5.9720    -1.9520 C.3   1 <1>   0.3430 
 17 N       -0.8690    -6.7930    -1.2220 N.4   1 <1>  -0.9590 
 18 C       -2.1120    -7.5340     0.8710 C.3   1 <1>  -0.1600 
 19 C        0.3710    -7.0570     0.9470 C.3   1 <1>  -0.1600 
 20 C       -0.6440    -8.0980    -1.9100 C.3   1 <1>   0.2630 
 21 C       -1.7960    -9.0240     0.9890 C.3   1 <1>   0.3430 
 22 C        0.6340    -8.5550     1.0750 C.3   1 <1>   0.3430 
 23 N       -0.5230    -9.2190     1.7360 N.4   1 <1>  -0.9590 
 24 C       -0.2460   -10.6790     1.9420 C.3   1 <1>   0.2630 
 25 H       -0.4120    -0.3360     1.7960 H     1 <1>   0.3700 
 26 H        0.3730    -0.2590     0.2480 H     1 <1>   0.3700 
 27 H        2.8780    -1.8190     0.4900 H     1 <1>   0.1500 
 28 H       -2.3100    -5.0190     0.8490 H     1 <1>   0.0800 
 29 H       -0.7510    -4.8870     1.5560 H     1 <1>   0.0800 
 30 H       -1.1970    -4.0200    -2.5460 H     1 <1>   0.0800 
 31 H       -2.6460    -3.9630    -1.5940 H     1 <1>   0.0800 
 32 H        4.9080    -2.2920    -0.5790 H     1 <1>   0.0800 
 33 H        4.6650    -2.6450    -2.2670 H     1 <1>   0.0800 
 34 H        5.1390    -3.9160    -1.1590 H     1 <1>   0.0800 
 35 H        2.3990    -5.7950    -3.2770 H     1 <1>   0.0800 
 36 H        3.8230    -5.8300    -2.2650 H     1 <1>   0.0800 
 37 H        3.6010    -4.5510    -3.4390 H     1 <1>   0.0800 
 38 H       -1.8530    -6.1470    -3.0140 H     1 <1>   0.0800 
 39 H       -2.8980    -6.2510    -1.6250 H     1 <1>   0.0800 
 40 H       -0.0310    -6.1860    -1.4000 H     1 <1>   0.4500 
 41 H       -3.0070    -7.4050     0.2890 H     1 <1>   0.0800 
 42 H       -2.3430    -7.1850     1.8630 H     1 <1>   0.0800 
 43 H        0.4100    -6.6590     1.9460 H     1 <1>   0.0800 
 44 H        1.1860    -6.5990     0.4150 H     1 <1>   0.0800 
 45 H       -1.4920    -8.7480    -1.7780 H     1 <1>   0.0800 
 46 H        0.2410    -8.5800    -1.5360 H     1 <1>   0.0800 
 47 H       -0.5060    -7.9340    -2.9680 H     1 <1>   0.0800 
 48 H       -1.7160    -9.4660     0.0100 H     1 <1>   0.0800 
 49 H       -2.6020    -9.5180     1.5090 H     1 <1>   0.0800 
 50 H        1.5270    -8.7080     1.6630 H     1 <1>   0.0800 
 51 H        0.8020    -8.9900     0.1050 H     1 <1>   0.0800 
 52 H       -0.6320    -8.8070     2.6780 H     1 <1>   0.4500 
 53 H       -0.1160   -11.1800     0.9960 H     1 <1>   0.0800 
 54 H       -1.0630   -11.1470     2.4690 H     1 <1>   0.0800 
 55 H        0.6520   -10.8130     2.5260 H     1 <1>   0.0800 
@<TRIPOS>BOND
  1   1   2  2   
  2   2   3  am  
  3   2   4  1   
  4   3  25  1   
  5   3  26  1   
  6   4   5  ar  
  7   4   6  ar  
  8   5   7  ar  
  9   5   8  1   
 10   6   9  ar  
 11   6  27  1   
 12   7  10  ar  
 13   8  11  1   
 14   8  12  1   
 15   9  10  ar  
 16   9  13  1   
 17  10  14  1   
 18  11  15  1   
 19  11  28  1   
 20  11  29  1   
 21  12  16  1   
 22  12  30  1   
 23  12  31  1   
 24  13  32  1   
 25  13  33  1   
 26  13  34  1   
 27  14  35  1   
 28  14  36  1   
 29  14  37  1   
 30  15  17  1   
 31  15  18  1   
 32  15  19  1   
 33  16  17  1   
 34  16  38  1   
 35  16  39  1   
 36  17  20  1   
 37  17  40  1   
 38  18  21  1   
 39  18  41  1   
 40  18  42  1   
 41  19  22  1   
 42  19  43  1   
 43  19  44  1   
 44  20  45  1   
 45  20  46  1   
 46  20  47  1   
 47  21  23  1   
 48  21  48  1   
 49  21  49  1   
 50  22  23  1   
 51  22  50  1   
 52  22  51  1   
 53  23  24  1   
 54  23  52  1   
 55  24  53  1   
 56  24  54  1   
 57  24  55  1   
@<TRIPOS>SUBSTRUCTURE
  1 ****   5 GROUP 4 **** **** 0

# MOE 2024.06 (io_trps.svl 2023.06)
