@<TRIPOS>MOLECULE
NONAME
52 55 1 0 0 
SMALL
USER_CHARGES


@<TRIPOS>ATOM
  1 S        1.4010    -1.3670     1.1170 S.o2  1 <1>   1.5010 
  2 O        2.3500    -2.2350     0.4580 O.2   1 <1>  -0.6500 
  3 O        1.7680    -0.6550     2.3180 O.2   1 <1>  -0.6500 
  4 N        0.1270    -2.3590     1.5630 N.am  1 <1>  -0.9140 
  5 C        0.5930    -0.2880    -0.0770 C.2   1 <1>  -0.0630 
  6 C       -0.2750    -3.2970     0.5210 C.3   1 <1>   0.2760 
  7 C       -0.3620     0.6730     0.0360 C.2   1 <1>  -0.3320 
  8 C        0.8220    -0.3700    -1.4440 C.2   1 <1>   0.1390 
  9 C       -1.7740    -3.5500     0.5820 C.3   1 <1>  -0.0800 
 10 C        0.2720    -4.6890     0.8170 C.3   1 <1>   0.1200 
 11 N       -0.6570     1.0950    -1.2140 N.pl3 1 <1>   0.3140 
 12 C       -1.0200     1.2030     1.3030 C.3   1 <1>  -0.0600 
 13 N        0.0730     0.4360    -2.1300 N.2   1 <1>  -0.7070 
 14 C       -1.8960    -4.7470     1.5370 C.3   1 <1>   0.1200 
 15 C       -2.6320    -2.3310     0.9840 C.3   1 <1>  -0.0170 
 16 O       -0.5980    -5.2150     1.7680 O.3   1 <1>  -0.5600 
 17 C       -1.6630     2.1020    -1.6210 C.3   1 <1>   0.0960 
 18 C       -3.9900    -2.3530     0.2960 C.ar  1 <1>  -0.1440 
 19 C       -1.0700     3.5160    -1.6050 C.3   1 <1>  -0.2400 
 20 C       -4.1490    -1.9190    -1.0410 C.ar  1 <1>   0.0000 
 21 C       -5.0990    -2.7850     0.9600 C.ar  1 <1>  -0.1500 
 22 C       -5.4520    -1.9550    -1.5920 C.ar  1 <1>   0.3100 
 23 C       -3.0960    -1.4480    -1.8620 C.ar  1 <1>  -0.1500 
 24 C       -6.3430    -2.7880     0.3180 C.ar  1 <1>   0.1600 
 25 N       -6.5340    -2.3950    -0.9010 N.ar  1 <1>  -0.6200 
 26 C       -5.6440    -1.5170    -2.9130 C.ar  1 <1>  -0.1500 
 27 C       -3.3160    -1.0270    -3.1450 C.ar  1 <1>  -0.1500 
 28 C       -4.6060    -1.0610    -3.6800 C.ar  1 <1>  -0.1500 
 29 H        0.4700    -2.9130     2.3470 H     1 <1>   0.4200 
 30 H        0.0160    -2.9540    -0.4590 H     1 <1>   0.0800 
 31 H        1.5380    -1.0370    -1.8960 H     1 <1>   0.1500 
 32 H       -2.0820    -3.8850    -0.3940 H     1 <1>   0.0800 
 33 H        1.2770    -4.6780     1.2030 H     1 <1>   0.0800 
 34 H        0.2230    -5.3130    -0.0580 H     1 <1>   0.0800 
 35 H       -0.6460     0.6870     2.1690 H     1 <1>   0.0800 
 36 H       -2.0850     1.0650     1.2610 H     1 <1>   0.0800 
 37 H       -0.8080     2.2510     1.4210 H     1 <1>   0.0800 
 38 H       -2.4770    -5.5410     1.1000 H     1 <1>   0.0800 
 39 H       -2.3150    -4.4710     2.4880 H     1 <1>   0.0800 
 40 H       -2.1410    -1.4170     0.7120 H     1 <1>   0.0800 
 41 H       -2.7510    -2.2970     2.0530 H     1 <1>   0.0800 
 42 H       -1.9960     1.8590    -2.6130 H     1 <1>   0.0800 
 43 H       -2.5050     2.0390    -0.9570 H     1 <1>   0.0800 
 44 H       -0.2360     3.5720    -2.2820 H     1 <1>   0.0800 
 45 H       -0.7410     3.7780    -0.6150 H     1 <1>   0.0800 
 46 H       -1.8130     4.2270    -1.9190 H     1 <1>   0.0800 
 47 H       -5.0510    -3.1280     1.9780 H     1 <1>   0.1500 
 48 H       -2.0930    -1.4150    -1.4820 H     1 <1>   0.1500 
 49 H       -7.1970    -3.1380     0.8750 H     1 <1>   0.1500 
 50 H       -6.6440    -1.5550    -3.3030 H     1 <1>   0.1500 
 51 H       -2.5000    -0.6710    -3.7520 H     1 <1>   0.1500 
 52 H       -4.7690    -0.7290    -4.6910 H     1 <1>   0.1500 
@<TRIPOS>BOND
  1   1   2  2   
  2   1   3  2   
  3   1   4  am  
  4   1   5  1   
  5   4   6  1   
  6   4  29  1   
  7   5   7  2   
  8   5   8  1   
  9   6   9  1   
 10   6  10  1   
 11   6  30  1   
 12   7  11  1   
 13   7  12  1   
 14   8  13  2   
 15   8  31  1   
 16   9  14  1   
 17   9  15  1   
 18   9  32  1   
 19  10  16  1   
 20  10  33  1   
 21  10  34  1   
 22  11  13  1   
 23  11  17  1   
 24  12  35  1   
 25  12  36  1   
 26  12  37  1   
 27  14  16  1   
 28  14  38  1   
 29  14  39  1   
 30  15  18  1   
 31  15  40  1   
 32  15  41  1   
 33  17  19  1   
 34  17  42  1   
 35  17  43  1   
 36  18  20  ar  
 37  18  21  ar  
 38  19  44  1   
 39  19  45  1   
 40  19  46  1   
 41  20  22  ar  
 42  20  23  ar  
 43  21  24  ar  
 44  21  47  1   
 45  22  25  ar  
 46  22  26  ar  
 47  23  27  ar  
 48  23  48  1   
 49  24  25  ar  
 50  24  49  1   
 51  26  28  ar  
 52  26  50  1   
 53  27  28  ar  
 54  27  51  1   
 55  28  52  1   
@<TRIPOS>SUBSTRUCTURE
  1 ****  15 GROUP 4 **** **** 0

# MOE 2024.06 (io_trps.svl 2023.06)
