@<TRIPOS>MOLECULE
NONAME
39 40 1 0 0 
SMALL
USER_CHARGES


@<TRIPOS>ATOM
  1 O        0.1380    -0.6470    -0.1520 O.3   1 <1>  -0.5600 
  2 C        1.3640    -1.0510     0.3750 C.3   1 <1>   0.2000 
  3 C       -0.1520     0.7130    -0.0030 C.3   1 <1>   0.1200 
  4 C        2.5040    -0.3200    -0.3530 C.3   1 <1>  -0.1600 
  5 C        1.4510    -2.5680     0.1990 C.3   1 <1>  -0.1600 
  6 C        0.8900     1.5490    -0.7530 C.3   1 <1>  -0.1600 
  7 C        2.3080     1.1990    -0.2900 C.3   1 <1>  -0.1600 
  8 C        0.1630    -3.2260     0.6900 C.3   1 <1>   0.3430 
  9 N        0.1700    -4.6830     0.3870 N.4   1 <1>  -0.9590 
 10 C       -1.2240    -5.2530     0.4660 C.3   1 <1>   0.5240 
 11 C        1.1220    -5.4630     1.2390 C.3   1 <1>   0.2630 
 12 C       -1.3260    -6.6390    -0.1770 C.2   1 <1>   0.3350 
 13 N       -0.5350    -7.0900    -1.0690 N.2   1 <1>  -0.4100 
 14 N       -2.2740    -7.4940     0.1710 N.2   1 <1>  -0.5650 
 15 O       -0.9380    -8.2900    -1.3620 O.3   1 <1>  -0.0190 
 16 C       -1.9810    -8.4720    -0.5900 C.2   1 <1>   0.2980 
 17 C       -2.7230    -9.7870    -0.6650 C.3   1 <1>  -0.0600 
 18 H        1.3730    -0.7980     1.4230 H     1 <1>   0.0800 
 19 H       -0.1590     0.9530     1.0470 H     1 <1>   0.0800 
 20 H       -1.1340     0.8870    -0.4080 H     1 <1>   0.0800 
 21 H        2.5280    -0.6320    -1.3830 H     1 <1>   0.0800 
 22 H        3.4480    -0.5790     0.0920 H     1 <1>   0.0800 
 23 H        2.3010    -2.9290     0.7460 H     1 <1>   0.0800 
 24 H        1.5910    -2.7830    -0.8460 H     1 <1>   0.0800 
 25 H        0.7000     2.5950    -0.5880 H     1 <1>   0.0800 
 26 H        0.7920     1.3620    -1.8090 H     1 <1>   0.0800 
 27 H        3.0340     1.6940    -0.9130 H     1 <1>   0.0800 
 28 H        2.4470     1.5380     0.7220 H     1 <1>   0.0800 
 29 H       -0.6690    -2.7590     0.1840 H     1 <1>   0.0800 
 30 H        0.0440    -3.0600     1.7490 H     1 <1>   0.0800 
 31 H        0.4530    -4.8100    -0.5990 H     1 <1>   0.4500 
 32 H       -1.9140    -4.6030    -0.0440 H     1 <1>   0.0800 
 33 H       -1.5320    -5.3270     1.4940 H     1 <1>   0.0800 
 34 H        0.8530    -5.3800     2.2790 H     1 <1>   0.0800 
 35 H        2.1280    -5.0960     1.1110 H     1 <1>   0.0800 
 36 H        1.1070    -6.5050     0.9600 H     1 <1>   0.0800 
 37 H       -3.5490    -9.7840     0.0230 H     1 <1>   0.0800 
 38 H       -2.0610   -10.5940    -0.4140 H     1 <1>   0.0800 
 39 H       -3.0990    -9.9350    -1.6610 H     1 <1>   0.0800 
@<TRIPOS>BOND
  1   1   2  1   
  2   1   3  1   
  3   2   4  1   
  4   2   5  1   
  5   2  18  1   
  6   3   6  1   
  7   3  19  1   
  8   3  20  1   
  9   4   7  1   
 10   4  21  1   
 11   4  22  1   
 12   5   8  1   
 13   5  23  1   
 14   5  24  1   
 15   6   7  1   
 16   6  25  1   
 17   6  26  1   
 18   7  27  1   
 19   7  28  1   
 20   8   9  1   
 21   8  29  1   
 22   8  30  1   
 23   9  10  1   
 24   9  11  1   
 25   9  31  1   
 26  10  12  1   
 27  10  32  1   
 28  10  33  1   
 29  11  34  1   
 30  11  35  1   
 31  11  36  1   
 32  12  13  2   
 33  12  14  1   
 34  13  15  1   
 35  14  16  2   
 36  15  16  1   
 37  16  17  1   
 38  17  37  1   
 39  17  38  1   
 40  17  39  1   
@<TRIPOS>SUBSTRUCTURE
  1 ****   9 GROUP 4 **** **** 0

# MOE 2024.06 (io_trps.svl 2023.06)
