@<TRIPOS>MOLECULE
NONAME
43 44 1 0 0 
SMALL
USER_CHARGES


@<TRIPOS>ATOM
  1 CL       1.0410     2.2790     1.7320 Cl    1 <1>  -0.1770 
  2 C        0.0530     2.8180     0.3950 C.ar  1 <1>   0.1770 
  3 C       -1.0940     3.5680     0.6180 C.ar  1 <1>  -0.1440 
  4 C        0.4590     2.4810    -0.8830 C.ar  1 <1>  -0.1500 
  5 C       -1.8400     3.9730    -0.4800 C.ar  1 <1>  -0.1500 
  6 C       -1.5500     3.9640     2.0160 C.3   1 <1>   0.2140 
  7 C       -0.2920     2.8960    -1.9690 C.ar  1 <1>  -0.1500 
  8 C       -1.4410     3.6410    -1.7650 C.ar  1 <1>  -0.1500 
  9 S       -1.2410     5.7410     2.2210 S.3   1 <1>  -0.4600 
 10 C        0.5840     5.8470     2.3390 C.3   1 <1>   0.1310 
 11 C        1.1220     7.2060     1.8950 C.2   1 <1>   0.5690 
 12 O        1.6930     7.8400     2.7490 O.2   1 <1>  -0.5700 
 13 N        1.0090     7.6320     0.5850 N.am  1 <1>  -0.6600 
 14 C        1.6340     8.8750    -0.0130 C.3   1 <1>   0.2810 
 15 C        0.6050     6.7210    -0.5250 C.3   1 <1>   0.1400 
 16 C        2.8610     8.4930    -0.8840 C.2   1 <1>   0.5690 
 17 C        1.8460    10.0350     0.9890 C.3   1 <1>  -0.1600 
 18 C        1.8500     6.2030    -1.2660 C.3   1 <1>   0.1400 
 19 O        3.7670     9.2820    -1.0370 O.2   1 <1>  -0.5700 
 20 N        2.8810     7.2610    -1.5140 N.am  1 <1>  -0.6600 
 21 C        1.9020    11.4230     0.3270 C.3   1 <1>  -0.2400 
 22 C        4.0200     6.8360    -2.3740 C.3   1 <1>   0.0600 
 23 H        1.3510     1.8960    -1.0230 H     1 <1>   0.1500 
 24 H       -2.7350     4.5560    -0.3370 H     1 <1>   0.1500 
 25 H       -1.0270     3.4500     2.8010 H     1 <1>   0.0800 
 26 H       -2.6090     3.8150     2.1340 H     1 <1>   0.0800 
 27 H        0.0120     2.6340    -2.9690 H     1 <1>   0.1500 
 28 H       -2.0310     3.9600    -2.6080 H     1 <1>   0.1500 
 29 H        1.0060     5.0730     1.7300 H     1 <1>   0.0800 
 30 H        0.8390     5.6670     3.3670 H     1 <1>   0.0800 
 31 H        0.9110     9.2530    -0.7130 H     1 <1>   0.0800 
 32 H       -0.0230     7.2570    -1.2150 H     1 <1>   0.0800 
 33 H        0.0330     5.8890    -0.1710 H     1 <1>   0.0800 
 34 H        2.7560     9.8680     1.5380 H     1 <1>   0.0800 
 35 H        1.0250    10.0480     1.6840 H     1 <1>   0.0800 
 36 H        1.5430     5.7750    -2.2040 H     1 <1>   0.0800 
 37 H        2.2990     5.4200    -0.6800 H     1 <1>   0.0800 
 38 H        2.7370    11.4960    -0.3470 H     1 <1>   0.0800 
 39 H        2.0150    12.1790     1.0830 H     1 <1>   0.0800 
 40 H        0.9960    11.6190    -0.2190 H     1 <1>   0.0800 
 41 H        4.7080     7.6490    -2.5300 H     1 <1>   0.0800 
 42 H        3.6530     6.5110    -3.3310 H     1 <1>   0.0800 
 43 H        4.5490     6.0270    -1.9010 H     1 <1>   0.0800 
@<TRIPOS>BOND
  1   1   2  1   
  2   2   3  ar  
  3   2   4  ar  
  4   3   5  ar  
  5   3   6  1   
  6   4   7  ar  
  7   4  23  1   
  8   5   8  ar  
  9   5  24  1   
 10   6   9  1   
 11   6  25  1   
 12   6  26  1   
 13   7   8  ar  
 14   7  27  1   
 15   8  28  1   
 16   9  10  1   
 17  10  11  1   
 18  10  29  1   
 19  10  30  1   
 20  11  12  2   
 21  11  13  am  
 22  13  14  1   
 23  13  15  1   
 24  14  16  1   
 25  14  17  1   
 26  14  31  1   
 27  15  18  1   
 28  15  32  1   
 29  15  33  1   
 30  16  19  2   
 31  16  20  am  
 32  17  21  1   
 33  17  34  1   
 34  17  35  1   
 35  18  20  1   
 36  18  36  1   
 37  18  37  1   
 38  20  22  1   
 39  21  38  1   
 40  21  39  1   
 41  21  40  1   
 42  22  41  1   
 43  22  42  1   
 44  22  43  1   
@<TRIPOS>SUBSTRUCTURE
  1 ****  15 GROUP 4 **** **** 0

# MOE 2024.06 (io_trps.svl 2023.06)
