@<TRIPOS>MOLECULE
NONAME
53 54 1 0 0 
SMALL
USER_CHARGES


@<TRIPOS>ATOM
  1 O       -0.3070     0.3380    -0.3240 O.2   1 <1>  -0.5700 
  2 C       -1.2890     1.0150    -0.5290 C.2   1 <1>   0.5690 
  3 N       -2.5280     0.4530    -0.7220 N.am  1 <1>  -0.6600 
  4 C       -1.1130     2.5290    -0.5570 C.3   1 <1>  -0.0990 
  5 C       -3.7790     1.2500    -0.9000 C.3   1 <1>   0.1400 
  6 C       -2.6540    -1.0300    -0.8030 C.3   1 <1>   0.1400 
  7 C        0.3480     2.9810    -0.7370 C.3   1 <1>  -0.0990 
  8 C       -5.0370     0.6000    -0.3040 C.3   1 <1>  -0.1600 
  9 C       -2.9200    -1.6130     0.5890 C.3   1 <1>  -0.1600 
 10 C        0.4640     4.4890    -0.7220 C.2   1 <1>   0.5690 
 11 C       -4.8500     0.0240     1.1100 C.3   1 <1>  -0.1600 
 12 C       -4.3590    -1.4310     1.0940 C.3   1 <1>  -0.1600 
 13 O       -0.0620     5.1300    -1.5980 O.2   1 <1>  -0.5700 
 14 N        1.1560     5.0830     0.2820 N.am  1 <1>  -0.7300 
 15 C        1.2790     6.5540     0.4570 C.3   1 <1>   0.1400 
 16 C        2.1490     7.1730    -0.6440 C.3   1 <1>   0.2090 
 17 N        2.3510     8.6290    -0.3850 N.pl3 1 <1>  -0.8690 
 18 C        3.4280     9.2720     0.1310 C.ar  1 <1>   0.1000 
 19 C        3.4820    10.6790     0.1450 C.ar  1 <1>  -0.1440 
 20 C        4.5240     8.5840     0.6710 C.ar  1 <1>  -0.1500 
 21 C        4.5810    11.3180     0.6650 C.ar  1 <1>   0.2110 
 22 C        2.3220    11.4950    -0.4200 C.3   1 <1>  -0.0970 
 23 C        5.6020     9.2600     1.1780 C.ar  1 <1>   0.2110 
 24 N        5.6240    10.6140     1.1710 N.ar  1 <1>  -0.1790 
 25 H       -1.4970     2.9280     0.3630 H     1 <1>   0.0800 
 26 H       -1.6880     2.9320    -1.3700 H     1 <1>   0.0800 
 27 H       -3.9340     1.4230    -1.9510 H     1 <1>   0.0800 
 28 H       -3.6600     2.2070    -0.4240 H     1 <1>   0.0800 
 29 H       -1.7330    -1.4420    -1.1820 H     1 <1>   0.0800 
 30 H       -3.4340    -1.3060    -1.4910 H     1 <1>   0.0800 
 31 H        0.7210     2.6190    -1.6780 H     1 <1>   0.0800 
 32 H        0.9580     2.5650     0.0440 H     1 <1>   0.0800 
 33 H       -5.4070    -0.1580    -0.9710 H     1 <1>   0.0800 
 34 H       -5.7960     1.3610    -0.2620 H     1 <1>   0.0800 
 35 H       -2.2250    -1.1790     1.2880 H     1 <1>   0.0800 
 36 H       -2.7120    -2.6670     0.5530 H     1 <1>   0.0800 
 37 H       -5.8040     0.0420     1.6090 H     1 <1>   0.0800 
 38 H       -4.1750     0.6400     1.6810 H     1 <1>   0.0800 
 39 H       -4.4130    -1.8190     2.0970 H     1 <1>   0.0800 
 40 H       -5.0250    -2.0240     0.4900 H     1 <1>   0.0800 
 41 H        1.5540     4.5020     1.0230 H     1 <1>   0.3700 
 42 H        1.7140     6.7600     1.4190 H     1 <1>   0.0800 
 43 H        0.2960     6.9930     0.4200 H     1 <1>   0.0800 
 44 H        1.6590     7.0550    -1.5960 H     1 <1>   0.0800 
 45 H        3.0940     6.6650    -0.6920 H     1 <1>   0.0800 
 46 H        1.5620     9.1880    -0.7340 H     1 <1>   0.4000 
 47 H        4.5160     7.5110     0.6870 H     1 <1>   0.1500 
 48 H        4.6380    12.3950     0.6800 H     1 <1>   0.1500 
 49 H        2.1710    11.2530    -1.4580 H     1 <1>   0.0800 
 50 H        2.5080    12.5520    -0.3460 H     1 <1>   0.0800 
 51 H        1.4170    11.2750     0.1200 H     1 <1>   0.0800 
 52 H        6.4450     8.7280     1.5900 H     1 <1>   0.1500 
 53 H        6.4360    11.1130     1.5520 H     1 <1>   0.4570 
@<TRIPOS>BOND
  1   1   2  2   
  2   2   3  am  
  3   2   4  1   
  4   3   5  1   
  5   3   6  1   
  6   4   7  1   
  7   4  25  1   
  8   4  26  1   
  9   5   8  1   
 10   5  27  1   
 11   5  28  1   
 12   6   9  1   
 13   6  29  1   
 14   6  30  1   
 15   7  10  1   
 16   7  31  1   
 17   7  32  1   
 18   8  11  1   
 19   8  33  1   
 20   8  34  1   
 21   9  12  1   
 22   9  35  1   
 23   9  36  1   
 24  10  13  2   
 25  10  14  am  
 26  11  12  1   
 27  11  37  1   
 28  11  38  1   
 29  12  39  1   
 30  12  40  1   
 31  14  15  1   
 32  14  41  1   
 33  15  16  1   
 34  15  42  1   
 35  15  43  1   
 36  16  17  1   
 37  16  44  1   
 38  16  45  1   
 39  17  18  1   
 40  17  46  1   
 41  18  19  ar  
 42  18  20  ar  
 43  19  21  ar  
 44  19  22  1   
 45  20  23  ar  
 46  20  47  1   
 47  21  24  ar  
 48  21  48  1   
 49  22  49  1   
 50  22  50  1   
 51  22  51  1   
 52  23  24  ar  
 53  23  52  1   
 54  24  53  1   
@<TRIPOS>SUBSTRUCTURE
  1 ****  10 GROUP 4 **** **** 0

# MOE 2024.06 (io_trps.svl 2023.06)
