@<TRIPOS>MOLECULE
NONAME
49 53 1 0 0 
SMALL
USER_CHARGES


@<TRIPOS>ATOM
  1 O       -0.1000    -0.7230    -2.0570 O.2   1 <1>  -0.5700 
  2 C       -0.1940    -1.8280    -1.5910 C.2   1 <1>   0.5690 
  3 N       -1.3030    -2.2430    -0.9100 N.am  1 <1>  -0.3680 
  4 C        0.9120    -2.8420    -1.7640 C.3   1 <1>  -0.0990 
  5 N       -1.4940    -3.4600    -0.2910 N.2   1 <1>  -0.5120 
  6 C        0.9110    -3.8560    -0.6040 C.3   1 <1>  -0.0990 
  7 C       -0.5000    -4.2800    -0.1460 C.2   1 <1>   0.3890 
  8 C       -0.5910    -5.5930     0.4830 C.2   1 <1>   0.6300 
  9 O        0.4320    -6.1530     0.8570 O.2   1 <1>  -0.5700 
 10 N       -1.7800    -6.2790     0.6970 N.am  1 <1>  -0.6600 
 11 C       -1.9240    -7.2690     1.8030 C.3   1 <1>   0.1400 
 12 C       -3.0040    -6.1270    -0.1390 C.3   1 <1>   0.1400 
 13 C       -2.2940    -8.6340     1.2250 C.3   1 <1>  -0.1600 
 14 C       -3.3850    -7.4870    -0.7290 C.3   1 <1>  -0.1600 
 15 C       -3.5550    -8.5530     0.3610 C.3   1 <1>   0.4600 
 16 O       -4.6040    -8.1680     1.2230 O.3   1 <1>  -0.5600 
 17 C       -3.8730    -9.9150    -0.2430 C.2   1 <1>  -0.3320 
 18 C       -5.9270    -8.4340     0.8200 C.3   1 <1>   0.1200 
 19 N       -3.0370   -10.6830    -1.0050 N.pl3 1 <1>   0.0330 
 20 C       -5.0500   -10.5540    -0.0940 C.2   1 <1>  -0.1810 
 21 C       -6.1790    -9.9460     0.7000 C.3   1 <1>   0.0210 
 22 C       -3.7060   -11.8360    -1.3400 C.ar  1 <1>  -0.1520 
 23 C       -4.9790   -11.7860    -0.7770 C.ar  1 <1>   0.0000 
 24 C       -3.3010   -12.9380    -2.0970 C.ar  1 <1>  -0.1500 
 25 C       -5.8640   -12.8510    -0.9710 C.ar  1 <1>  -0.1500 
 26 C       -4.1820   -13.9790    -2.2810 C.ar  1 <1>  -0.1500 
 27 C       -5.4640   -13.9350    -1.7170 C.ar  1 <1>  -0.1500 
 28 H       -2.0650    -1.5570    -0.8930 H     1 <1>   0.3700 
 29 H        1.8600    -2.3380    -1.8220 H     1 <1>   0.0800 
 30 H        0.7420    -3.3550    -2.6930 H     1 <1>   0.0800 
 31 H        1.4050    -3.4160     0.2450 H     1 <1>   0.0800 
 32 H        1.4840    -4.7150    -0.9040 H     1 <1>   0.0800 
 33 H       -2.6990    -6.9350     2.4730 H     1 <1>   0.0800 
 34 H       -1.0110    -7.3480     2.3690 H     1 <1>   0.0800 
 35 H       -2.8400    -5.4380    -0.9470 H     1 <1>   0.0800 
 36 H       -3.8060    -5.7490     0.4730 H     1 <1>   0.0800 
 37 H       -2.4570    -9.3380     2.0200 H     1 <1>   0.0800 
 38 H       -1.4680    -8.9900     0.6380 H     1 <1>   0.0800 
 39 H       -2.6080    -7.7950    -1.4040 H     1 <1>   0.0800 
 40 H       -4.2860    -7.4010    -1.3040 H     1 <1>   0.0800 
 41 H       -6.1010    -7.9510    -0.1240 H     1 <1>   0.0800 
 42 H       -6.5850    -8.0050     1.5540 H     1 <1>   0.0800 
 43 H       -2.0730   -10.4630    -1.2720 H     1 <1>   0.2700 
 44 H       -7.1170   -10.1190     0.2060 H     1 <1>   0.0800 
 45 H       -6.2160   -10.3910     1.6780 H     1 <1>   0.0800 
 46 H       -2.3150   -12.9640    -2.5260 H     1 <1>   0.1500 
 47 H       -6.8420   -12.8040    -0.5320 H     1 <1>   0.1500 
 48 H       -3.8940   -14.8380    -2.8600 H     1 <1>   0.1500 
 49 H       -6.1330   -14.7620    -1.8750 H     1 <1>   0.1500 
@<TRIPOS>BOND
  1   1   2  2   
  2   2   3  am  
  3   2   4  1   
  4   3   5  1   
  5   3  28  1   
  6   4   6  1   
  7   4  29  1   
  8   4  30  1   
  9   5   7  2   
 10   6   7  1   
 11   6  31  1   
 12   6  32  1   
 13   7   8  1   
 14   8   9  2   
 15   8  10  am  
 16  10  11  1   
 17  10  12  1   
 18  11  13  1   
 19  11  33  1   
 20  11  34  1   
 21  12  14  1   
 22  12  35  1   
 23  12  36  1   
 24  13  15  1   
 25  13  37  1   
 26  13  38  1   
 27  14  15  1   
 28  14  39  1   
 29  14  40  1   
 30  15  16  1   
 31  15  17  1   
 32  16  18  1   
 33  17  19  1   
 34  17  20  2   
 35  18  21  1   
 36  18  41  1   
 37  18  42  1   
 38  19  22  1   
 39  19  43  1   
 40  20  21  1   
 41  20  23  1   
 42  21  44  1   
 43  21  45  1   
 44  22  23  ar  
 45  22  24  ar  
 46  23  25  ar  
 47  24  26  ar  
 48  24  46  1   
 49  25  27  ar  
 50  25  47  1   
 51  26  27  ar  
 52  26  48  1   
 53  27  49  1   
@<TRIPOS>SUBSTRUCTURE
  1 ****  14 GROUP 4 **** **** 0

# MOE 2024.06 (io_trps.svl 2023.06)
