@<TRIPOS>MOLECULE
NONAME
55 58 1 0 0 
SMALL
USER_CHARGES


@<TRIPOS>ATOM
  1 O        0.1170     0.8760    -0.1000 O.2   1 <1>  -0.5700 
  2 C       -0.1270     2.0480    -0.3490 C.2   1 <1>   0.7160 
  3 N       -1.4580     2.3980    -0.5230 N.am  1 <1>  -0.6600 
  4 C        0.9890     2.9900    -0.4310 C.2   1 <1>   0.1410 
  5 C       -2.4880     1.3950    -0.9040 C.3   1 <1>   0.1400 
  6 C       -1.9780     3.7850    -0.3940 C.3   1 <1>   0.1400 
  7 N        0.9860     4.1880    -1.0980 N.2   1 <1>  -0.5650 
  8 C        2.2290     2.8170     0.1150 C.2   1 <1>  -0.3020 
  9 C       -3.6240     1.4140     0.1210 C.3   1 <1>  -0.1600 
 10 C       -3.1380     3.8130     0.6060 C.3   1 <1>  -0.1600 
 11 C        2.1720     4.6670    -0.9310 C.2   1 <1>   0.0360 
 12 N        2.9810     3.8770    -0.1960 N.pl3 1 <1>   0.0480 
 13 C       -4.2600     2.8160     0.2530 C.3   1 <1>   0.2800 
 14 C        4.3870     4.1170     0.1670 C.3   1 <1>   0.0160 
 15 O       -4.7580     3.1240    -1.0280 O.3   1 <1>  -0.5600 
 16 C       -5.4180     2.8860     1.3040 C.3   1 <1>   0.2000 
 17 C       -5.6480     4.1930    -1.1470 C.3   1 <1>   0.1200 
 18 O       -5.2700     1.9590     2.3480 O.3   1 <1>  -0.6800 
 19 C       -6.8340     2.7930     0.6700 C.3   1 <1>   0.3000 
 20 C       -6.9540     3.9170    -0.3840 C.3   1 <1>  -0.1600 
 21 N       -7.8190     2.9250     1.7720 N.am  1 <1>  -0.7300 
 22 C       -7.1180     1.4230     0.0270 C.3   1 <1>  -0.2400 
 23 C       -8.7310     3.9080     1.9890 C.2   1 <1>   0.7160 
 24 O       -8.6320     4.5070     3.0380 O.2   1 <1>  -0.5700 
 25 C       -9.7530     4.2550     1.0330 C.2   1 <1>  -0.0860 
 26 C      -10.3340     3.4100     0.0850 C.2   1 <1>   0.1390 
 27 C      -10.3920     5.4400     0.8220 C.2   1 <1>  -0.3020 
 28 N      -11.2180     4.0030    -0.6530 N.2   1 <1>  -0.7070 
 29 N      -11.2580     5.2640    -0.1870 N.pl3 1 <1>   0.3000 
 30 H       -2.8680     1.6400    -1.8810 H     1 <1>   0.0800 
 31 H       -2.0610     0.4090    -0.9540 H     1 <1>   0.0800 
 32 H       -1.2130     4.4520    -0.0410 H     1 <1>   0.0800 
 33 H       -2.3070     4.1280    -1.3610 H     1 <1>   0.0800 
 34 H        2.5780     1.9810     0.6940 H     1 <1>   0.1500 
 35 H       -3.2110     1.1040     1.0640 H     1 <1>   0.0800 
 36 H       -4.3630     0.6910    -0.1650 H     1 <1>   0.0800 
 37 H       -3.5230     4.8120     0.6740 H     1 <1>   0.0800 
 38 H       -2.7470     3.5650     1.5780 H     1 <1>   0.0800 
 39 H        2.5080     5.6070    -1.3340 H     1 <1>   0.1500 
 40 H        4.7000     3.3890     0.8940 H     1 <1>   0.0800 
 41 H        4.4850     5.1030     0.5840 H     1 <1>   0.0800 
 42 H        4.9990     4.0320    -0.7120 H     1 <1>   0.0800 
 43 H       -5.3590     3.8520     1.7750 H     1 <1>   0.0800 
 44 H       -5.1680     5.0830    -0.7800 H     1 <1>   0.0800 
 45 H       -5.8520     4.3310    -2.1950 H     1 <1>   0.0800 
 46 H       -5.2270     1.0520     1.9870 H     1 <1>   0.4000 
 47 H       -7.2240     4.8460     0.0820 H     1 <1>   0.0800 
 48 H       -7.7260     3.6790    -1.0940 H     1 <1>   0.0800 
 49 H       -7.3610     2.6430     2.6450 H     1 <1>   0.3700 
 50 H       -6.4780     1.2530    -0.8180 H     1 <1>   0.0800 
 51 H       -8.1280     1.3770    -0.3300 H     1 <1>   0.0800 
 52 H       -6.9710     0.6290     0.7350 H     1 <1>   0.0800 
 53 H      -10.0820     2.3700    -0.0240 H     1 <1>   0.1500 
 54 H      -10.2630     6.3700     1.3450 H     1 <1>   0.1500 
 55 H      -11.8930     5.9720    -0.5790 H     1 <1>   0.2700 
@<TRIPOS>BOND
  1   1   2  2   
  2   2   3  am  
  3   2   4  1   
  4   3   5  1   
  5   3   6  1   
  6   4   7  1   
  7   4   8  2   
  8   5   9  1   
  9   5  30  1   
 10   5  31  1   
 11   6  10  1   
 12   6  32  1   
 13   6  33  1   
 14   7  11  2   
 15   8  12  1   
 16   8  34  1   
 17   9  13  1   
 18   9  35  1   
 19   9  36  1   
 20  10  13  1   
 21  10  37  1   
 22  10  38  1   
 23  11  12  1   
 24  11  39  1   
 25  12  14  1   
 26  13  15  1   
 27  13  16  1   
 28  14  40  1   
 29  14  41  1   
 30  14  42  1   
 31  15  17  1   
 32  16  18  1   
 33  16  19  1   
 34  16  43  1   
 35  17  20  1   
 36  17  44  1   
 37  17  45  1   
 38  18  46  1   
 39  19  20  1   
 40  19  21  1   
 41  19  22  1   
 42  20  47  1   
 43  20  48  1   
 44  21  23  am  
 45  21  49  1   
 46  22  50  1   
 47  22  51  1   
 48  22  52  1   
 49  23  24  2   
 50  23  25  1   
 51  25  26  1   
 52  25  27  2   
 53  26  28  2   
 54  26  53  1   
 55  27  29  1   
 56  27  54  1   
 57  28  29  1   
 58  29  55  1   
@<TRIPOS>SUBSTRUCTURE
  1 ****  13 GROUP 4 **** **** 0

# MOE 2024.06 (io_trps.svl 2023.06)
