@<TRIPOS>MOLECULE
NONAME
41 43 1 0 0 
SMALL
USER_CHARGES


@<TRIPOS>ATOM
  1 S       -3.0240    -2.5860     3.3450 S.3   1 <1>  -0.0800 
  2 C       -3.0840    -3.2280     1.7150 C.2   1 <1>  -0.1100 
  3 C       -3.0080    -0.9400     2.7420 C.2   1 <1>  -0.1100 
  4 C       -3.0980    -2.2320     0.8080 C.2   1 <1>  -0.1810 
  5 C       -3.0480    -0.9240     1.3970 C.2   1 <1>  -0.1500 
  6 C       -3.1750    -2.4350    -0.6900 C.3   1 <1>   0.5240 
  7 N       -4.5770    -2.7830    -1.0090 N.4   1 <1>  -0.9590 
  8 C       -4.7450    -3.4740    -2.3200 C.3   1 <1>   0.3430 
  9 C       -5.5560    -1.6890    -0.7650 C.3   1 <1>   0.3430 
 10 C       -6.0660    -4.2770    -2.3780 C.3   1 <1>   0.1400 
 11 C       -6.7360    -2.2110     0.0620 C.3   1 <1>  -0.1600 
 12 N       -6.7330    -4.4340    -1.0390 N.am  1 <1>  -0.6600 
 13 C       -7.5870    -3.2920    -0.6200 C.3   1 <1>   0.1400 
 14 C       -6.2440    -5.3220    -0.1080 C.2   1 <1>   0.5440 
 15 O       -5.0330    -5.4220    -0.0350 O.2   1 <1>  -0.5700 
 16 C       -7.1070    -6.0460     0.8030 C.ar  1 <1>   0.0860 
 17 C       -6.6350    -6.4510     2.0560 C.ar  1 <1>   0.1600 
 18 C       -8.4210    -6.3710     0.4840 C.ar  1 <1>  -0.1500 
 19 N       -7.3280    -7.1000     2.9830 N.ar  1 <1>  -0.6200 
 20 C       -9.1420    -7.0470     1.4390 C.ar  1 <1>   0.1900 
 21 C       -8.5810    -7.3900     2.6560 C.ar  1 <1>   0.1600 
 22 F      -10.3820    -7.3670     1.1870 F     1 <1>  -0.1900 
 23 H       -3.1070    -4.3020     1.6180 H     1 <1>   0.1500 
 24 H       -2.9640    -0.1500     3.4720 H     1 <1>   0.1500 
 25 H       -3.0380    -0.0280     0.8000 H     1 <1>   0.1500 
 26 H       -2.5250    -3.2490    -0.9660 H     1 <1>   0.0800 
 27 H       -2.8660    -1.5450    -1.2150 H     1 <1>   0.0800 
 28 H       -4.8110    -3.5350    -0.3290 H     1 <1>   0.4500 
 29 H       -3.9350    -4.1730    -2.4540 H     1 <1>   0.0800 
 30 H       -4.7060    -2.7680    -3.1330 H     1 <1>   0.0800 
 31 H       -5.9070    -1.2860    -1.7020 H     1 <1>   0.0800 
 32 H       -5.0830    -0.8920    -0.2150 H     1 <1>   0.0800 
 33 H       -5.8540    -5.2540    -2.7790 H     1 <1>   0.0800 
 34 H       -6.7440    -3.8000    -3.0630 H     1 <1>   0.0800 
 35 H       -7.3800    -1.3770     0.2820 H     1 <1>   0.0800 
 36 H       -6.3750    -2.5740     1.0090 H     1 <1>   0.0800 
 37 H       -8.0940    -2.8830    -1.4780 H     1 <1>   0.0800 
 38 H       -8.3430    -3.6350     0.0680 H     1 <1>   0.0800 
 39 H       -5.6120    -6.2190     2.3060 H     1 <1>   0.1500 
 40 H       -8.8630    -6.1150    -0.4630 H     1 <1>   0.1500 
 41 H       -9.1810    -7.9180     3.3770 H     1 <1>   0.1500 
@<TRIPOS>BOND
  1   1   2  1   
  2   1   3  1   
  3   2   4  2   
  4   2  23  1   
  5   3   5  2   
  6   3  24  1   
  7   4   5  1   
  8   4   6  1   
  9   5  25  1   
 10   6   7  1   
 11   6  26  1   
 12   6  27  1   
 13   7   8  1   
 14   7   9  1   
 15   7  28  1   
 16   8  10  1   
 17   8  29  1   
 18   8  30  1   
 19   9  11  1   
 20   9  31  1   
 21   9  32  1   
 22  10  12  1   
 23  10  33  1   
 24  10  34  1   
 25  11  13  1   
 26  11  35  1   
 27  11  36  1   
 28  12  13  1   
 29  12  14  am  
 30  13  37  1   
 31  13  38  1   
 32  14  15  2   
 33  14  16  1   
 34  16  17  ar  
 35  16  18  ar  
 36  17  19  ar  
 37  17  39  1   
 38  18  20  ar  
 39  18  40  1   
 40  19  21  ar  
 41  20  21  ar  
 42  20  22  1   
 43  21  41  1   
@<TRIPOS>SUBSTRUCTURE
  1 ****  14 GROUP 4 **** **** 0

# MOE 2024.06 (io_trps.svl 2023.06)
