@<TRIPOS>MOLECULE
NONAME
49 53 1 0 0 
SMALL
USER_CHARGES


@<TRIPOS>ATOM
  1 O       -0.5320     0.0380    -0.1890 O.2   1 <1>  -0.5700 
  2 C       -1.3790     0.7300     0.3420 C.2   1 <1>   0.5440 
  3 N       -2.5470     0.1310     0.7600 N.am  1 <1>  -0.6600 
  4 C       -1.1500     2.1570     0.4930 C.ar  1 <1>   0.0860 
  5 C       -2.6610    -1.3570     0.8930 C.3   1 <1>   0.1400 
  6 C       -3.8820     0.7990     0.6580 C.3   1 <1>   0.1400 
  7 C       -0.5110     2.8920    -0.4830 C.ar  1 <1>  -0.1500 
  8 C       -1.5650     2.8430     1.6530 C.ar  1 <1>  -0.1500 
  9 C       -3.6020    -1.9370    -0.1790 C.3   1 <1>   0.3440 
 10 C       -4.7670     0.0980    -0.3940 C.3   1 <1>   0.2950 
 11 C       -0.2900     4.2760    -0.3660 C.ar  1 <1>   0.0000 
 12 C       -1.3650     4.1900     1.7930 C.ar  1 <1>  -0.1500 
 13 O       -4.8400    -1.2740    -0.1400 O.3   1 <1>  -0.5600 
 14 C       -3.8090    -3.4330     0.0440 C.ar  1 <1>  -0.1430 
 15 C       -6.1960     0.6460    -0.3780 C.3   1 <1>  -0.1950 
 16 C       -0.7320     4.9470     0.7960 C.ar  1 <1>   0.3100 
 17 C        0.3550     5.0370    -1.3570 C.ar  1 <1>  -0.1500 
 18 C       -2.9370    -4.3370    -0.5470 C.ar  1 <1>  -0.1500 
 19 C       -4.8430    -3.9150     0.8360 C.ar  1 <1>  -0.1500 
 20 C       -7.0930     0.5060    -1.5670 C.3   1 <1>  -0.2000 
 21 C       -6.5690     1.8590    -1.1730 C.3   1 <1>  -0.2000 
 22 N       -0.5690     6.2800     0.9850 N.ar  1 <1>  -0.6200 
 23 C        0.5110     6.3720    -1.1430 C.ar  1 <1>  -0.1500 
 24 C       -3.0950    -5.6980    -0.3490 C.ar  1 <1>  -0.1500 
 25 C       -5.0020    -5.2750     1.0340 C.ar  1 <1>  -0.1500 
 26 C        0.0310     6.9440     0.0440 C.ar  1 <1>   0.1600 
 27 C       -4.1270    -6.1680     0.4420 C.ar  1 <1>  -0.1500 
 28 H       -1.6950    -1.8210     0.8060 H     1 <1>   0.0800 
 29 H       -3.0490    -1.5980     1.8660 H     1 <1>   0.0800 
 30 H       -4.3700     0.7620     1.6150 H     1 <1>   0.0800 
 31 H       -3.7710     1.8320     0.3790 H     1 <1>   0.0800 
 32 H       -0.1640     2.3930    -1.3710 H     1 <1>   0.1500 
 33 H       -2.0430     2.2810     2.4370 H     1 <1>   0.1500 
 34 H       -3.1730    -1.7820    -1.1540 H     1 <1>   0.0800 
 35 H       -4.3420     0.2330    -1.3740 H     1 <1>   0.0800 
 36 H       -1.6830     4.7110     2.6770 H     1 <1>   0.1500 
 37 H       -6.6560     0.5370     0.5900 H     1 <1>   0.1000 
 38 H        0.7090     4.5580    -2.2520 H     1 <1>   0.1500 
 39 H       -2.1280    -3.9860    -1.1640 H     1 <1>   0.1500 
 40 H       -5.5320    -3.2290     1.2980 H     1 <1>   0.1500 
 41 H       -6.7060     0.0270    -2.4500 H     1 <1>   0.1000 
 42 H       -8.1310     0.2750    -1.3980 H     1 <1>   0.1000 
 43 H       -7.2560     2.5700    -0.7460 H     1 <1>   0.1000 
 44 H       -5.8400     2.3250    -1.8140 H     1 <1>   0.1000 
 45 H        0.9970     7.0030    -1.8650 H     1 <1>   0.1500 
 46 H       -2.4130    -6.3910    -0.8120 H     1 <1>   0.1500 
 47 H       -5.8080    -5.6370     1.6480 H     1 <1>   0.1500 
 48 H        0.1690     8.0030     0.1830 H     1 <1>   0.1500 
 49 H       -4.2510    -7.2260     0.5960 H     1 <1>   0.1500 
@<TRIPOS>BOND
  1   1   2  2   
  2   2   3  am  
  3   2   4  1   
  4   3   5  1   
  5   3   6  1   
  6   4   7  ar  
  7   4   8  ar  
  8   5   9  1   
  9   5  28  1   
 10   5  29  1   
 11   6  10  1   
 12   6  30  1   
 13   6  31  1   
 14   7  11  ar  
 15   7  32  1   
 16   8  12  ar  
 17   8  33  1   
 18   9  13  1   
 19   9  14  1   
 20   9  34  1   
 21  10  13  1   
 22  10  15  1   
 23  10  35  1   
 24  11  16  ar  
 25  11  17  ar  
 26  12  16  ar  
 27  12  36  1   
 28  14  18  ar  
 29  14  19  ar  
 30  15  20  1   
 31  15  21  1   
 32  15  37  1   
 33  16  22  ar  
 34  17  23  ar  
 35  17  38  1   
 36  18  24  ar  
 37  18  39  1   
 38  19  25  ar  
 39  19  40  1   
 40  20  21  1   
 41  20  41  1   
 42  20  42  1   
 43  21  43  1   
 44  21  44  1   
 45  22  26  ar  
 46  23  26  ar  
 47  23  45  1   
 48  24  27  ar  
 49  24  46  1   
 50  25  27  ar  
 51  25  47  1   
 52  26  48  1   
 53  27  49  1   
@<TRIPOS>SUBSTRUCTURE
  1 ****   3 GROUP 4 **** **** 0

# MOE 2024.06 (io_trps.svl 2023.06)
