@<TRIPOS>MOLECULE
NONAME
57 59 1 0 0 
SMALL
USER_CHARGES


@<TRIPOS>ATOM
  1 F       -1.2320    -0.1500    -0.6930 F     1 <1>  -0.1900 
  2 C       -1.4930    -1.4330    -0.6680 C.ar  1 <1>   0.1900 
  3 C       -0.4950    -2.3970    -0.8500 C.ar  1 <1>   0.0830 
  4 C       -2.8090    -1.7890    -0.4500 C.ar  1 <1>  -0.1500 
  5 O        0.8330    -2.1730    -1.0680 O.3   1 <1>  -0.3630 
  6 C       -0.8750    -3.7290    -0.8090 C.ar  1 <1>  -0.1500 
  7 C       -3.1510    -3.1280    -0.4110 C.ar  1 <1>  -0.1500 
  8 C        1.3980    -0.8820    -1.1190 C.3   1 <1>   0.0400 
  9 C       -2.1970    -4.1300    -0.5940 C.ar  1 <1>   0.0530 
 10 C       -2.5260    -5.5350    -0.5610 C.2   1 <1>   0.0870 
 11 O       -1.6650    -6.3810    -0.0370 O.3   1 <1>  -0.0190 
 12 C       -3.5910    -6.2760    -0.9710 C.2   1 <1>  -0.2330 
 13 N       -2.0700    -7.6250    -0.0850 N.2   1 <1>  -0.4100 
 14 C       -3.2030    -7.5780    -0.6770 C.2   1 <1>   0.3720 
 15 C       -4.8960    -5.9860    -1.4790 C.2   1 <1>   1.0330 
 16 N       -3.9700    -8.6850    -0.9980 N.pl3 1 <1>  -0.8520 
 17 O       -5.5980    -5.1200    -0.9430 O.co2 1 <1>  -0.9000 
 18 O       -5.4870    -6.8030    -2.2140 O.co2 1 <1>  -0.9000 
 19 C       -4.4350    -9.5720     0.1020 C.3   1 <1>   0.2090 
 20 C       -5.9850    -9.8700     0.1290 C.3   1 <1>   0.5030 
 21 N       -6.6960    -8.8500     1.0220 N.4   1 <1>  -0.9590 
 22 C       -6.1570   -11.2850     0.7360 C.3   1 <1>  -0.1600 
 23 C       -6.5330    -9.8710    -1.3210 C.3   1 <1>  -0.1600 
 24 C       -8.1680    -8.9580     1.2550 C.3   1 <1>   0.2630 
 25 C       -6.4520    -7.4240     0.6080 C.3   1 <1>   0.2630 
 26 C       -7.4840   -11.9910     0.4460 C.3   1 <1>   0.3430 
 27 C       -7.8570   -10.5840    -1.5480 C.3   1 <1>   0.3430 
 28 N       -7.7730   -11.9680    -1.0120 N.4   1 <1>  -0.9590 
 29 C       -9.0250   -12.7290    -1.3270 C.3   1 <1>   0.2630 
 30 H       -3.5580    -1.0300    -0.3120 H     1 <1>   0.1500 
 31 H       -0.1190    -4.4790    -0.9520 H     1 <1>   0.1500 
 32 H       -4.1760    -3.3920    -0.2300 H     1 <1>   0.1500 
 33 H        2.4540    -0.9850    -1.2900 H     1 <1>   0.0800 
 34 H        1.2280    -0.3880    -0.1790 H     1 <1>   0.0800 
 35 H        0.9500    -0.3350    -1.9300 H     1 <1>   0.0800 
 36 H       -4.7200    -8.3280    -1.6310 H     1 <1>   0.4000 
 37 H       -4.1190    -9.1710     1.0510 H     1 <1>   0.0800 
 38 H       -3.8910   -10.4910    -0.0300 H     1 <1>   0.0800 
 39 H       -6.2370    -8.9130     1.9430 H     1 <1>   0.4500 
 40 H       -5.9930   -11.2500     1.7980 H     1 <1>   0.0800 
 41 H       -5.3960   -11.9340     0.3380 H     1 <1>   0.0800 
 42 H       -5.8140   -10.3460    -1.9660 H     1 <1>   0.0800 
 43 H       -6.6400    -8.8690    -1.6870 H     1 <1>   0.0800 
 44 H       -8.7050    -8.8460     0.3290 H     1 <1>   0.0800 
 45 H       -8.4910    -8.1720     1.9200 H     1 <1>   0.0800 
 46 H       -8.4200    -9.8990     1.7120 H     1 <1>   0.0800 
 47 H       -6.8400    -7.2310    -0.3800 H     1 <1>   0.0800 
 48 H       -5.3980    -7.2020     0.6080 H     1 <1>   0.0800 
 49 H       -6.9270    -6.7350     1.2880 H     1 <1>   0.0800 
 50 H       -8.2880   -11.5180     0.9820 H     1 <1>   0.0800 
 51 H       -7.4210   -13.0130     0.7870 H     1 <1>   0.0800 
 52 H       -8.0630   -10.6100    -2.6070 H     1 <1>   0.0800 
 53 H       -8.6580   -10.0470    -1.0700 H     1 <1>   0.0800 
 54 H       -7.0010   -12.4460    -1.5070 H     1 <1>   0.4500 
 55 H       -9.8770   -12.2750    -0.8480 H     1 <1>   0.0800 
 56 H       -8.9420   -13.7500    -0.9860 H     1 <1>   0.0800 
 57 H       -9.1980   -12.7420    -2.3920 H     1 <1>   0.0800 
@<TRIPOS>BOND
  1   1   2  1   
  2   2   3  ar  
  3   2   4  ar  
  4   3   5  1   
  5   3   6  ar  
  6   4   7  ar  
  7   4  30  1   
  8   5   8  1   
  9   6   9  ar  
 10   6  31  1   
 11   7   9  ar  
 12   7  32  1   
 13   8  33  1   
 14   8  34  1   
 15   8  35  1   
 16   9  10  1   
 17  10  11  1   
 18  10  12  2   
 19  11  13  1   
 20  12  14  1   
 21  12  15  1   
 22  13  14  2   
 23  14  16  1   
 24  15  17  ar  
 25  15  18  ar  
 26  16  19  1   
 27  16  36  1   
 28  19  20  1   
 29  19  37  1   
 30  19  38  1   
 31  20  21  1   
 32  20  22  1   
 33  20  23  1   
 34  21  24  1   
 35  21  25  1   
 36  21  39  1   
 37  22  26  1   
 38  22  40  1   
 39  22  41  1   
 40  23  27  1   
 41  23  42  1   
 42  23  43  1   
 43  24  44  1   
 44  24  45  1   
 45  24  46  1   
 46  25  47  1   
 47  25  48  1   
 48  25  49  1   
 49  26  28  1   
 50  26  50  1   
 51  26  51  1   
 52  27  28  1   
 53  27  52  1   
 54  27  53  1   
 55  28  29  1   
 56  28  54  1   
 57  29  55  1   
 58  29  56  1   
 59  29  57  1   
@<TRIPOS>SUBSTRUCTURE
  1 ****  12 GROUP 4 **** **** 0

# MOE 2024.06 (io_trps.svl 2023.06)
