@<TRIPOS>MOLECULE
NONAME
47 50 1 0 0 
SMALL
USER_CHARGES


@<TRIPOS>ATOM
  1 CL      -1.6080     0.2050    -0.3190 Cl    1 <1>  -0.1770 
  2 C       -1.5640    -1.3100     0.5530 C.ar  1 <1>   0.1770 
  3 C       -1.6700    -2.4920    -0.1360 C.ar  1 <1>  -0.1500 
  4 C       -1.4200    -1.2710     1.9440 C.ar  1 <1>  -0.1500 
  5 C       -1.6340    -3.6930     0.5840 C.ar  1 <1>   0.0000 
  6 C       -1.3820    -2.4460     2.6590 C.ar  1 <1>  -0.1500 
  7 C       -1.4920    -3.6570     1.9670 C.ar  1 <1>  -0.1520 
  8 C       -1.7060    -5.0530     0.2260 C.2   1 <1>  -0.1810 
  9 N       -1.4830    -4.9460     2.4240 N.pl3 1 <1>   0.0330 
 10 C       -1.6410    -5.8070     1.3670 C.2   1 <1>  -0.2370 
 11 C       -1.8020    -5.5320    -1.2110 C.3   1 <1>  -0.0590 
 12 C       -1.6910    -7.2270     1.6100 C.2   1 <1>   0.7150 
 13 O       -0.9170    -7.6990     2.4220 O.2   1 <1>  -0.5700 
 14 N       -2.6180    -8.0490     1.0020 N.am  1 <1>  -0.6600 
 15 C       -3.9460    -7.5070     0.5880 C.3   1 <1>   0.2200 
 16 C       -2.4210    -9.5320     0.9840 C.3   1 <1>   0.0600 
 17 C       -5.0410    -7.7730     1.6140 C.3   1 <1>  -0.1600 
 18 C       -4.5070    -8.0840    -0.7110 C.3   1 <1>  -0.1600 
 19 C       -6.3480    -7.5620     0.8360 C.3   1 <1>  -0.0800 
 20 C       -6.0000    -7.7390    -0.6540 C.3   1 <1>  -0.0800 
 21 C       -6.9200    -6.1440     0.9840 C.3   1 <1>  -0.1600 
 22 C       -6.3420    -6.4080    -1.3390 C.3   1 <1>  -0.1600 
 23 C       -7.3600    -5.7560    -0.4190 C.3   1 <1>   0.2000 
 24 O       -7.3260    -4.3870    -0.5660 O.3   1 <1>  -0.6800 
 25 H       -1.7770    -2.5060    -1.2030 H     1 <1>   0.1500 
 26 H       -1.3400    -0.3170     2.4320 H     1 <1>   0.1500 
 27 H       -1.2710    -2.4440     3.7290 H     1 <1>   0.1500 
 28 H       -1.3230    -5.2480     3.3910 H     1 <1>   0.2700 
 29 H       -1.0150    -5.0880    -1.7940 H     1 <1>   0.0800 
 30 H       -2.7500    -5.2490    -1.6320 H     1 <1>   0.0800 
 31 H       -1.6990    -6.6000    -1.2620 H     1 <1>   0.0800 
 32 H       -3.8870    -6.4410     0.4650 H     1 <1>   0.0800 
 33 H       -2.4110    -9.8880    -0.0310 H     1 <1>   0.0800 
 34 H       -3.2070   -10.0230     1.5280 H     1 <1>   0.0800 
 35 H       -1.4810    -9.8010     1.4350 H     1 <1>   0.0800 
 36 H       -5.0000    -8.7940     1.9460 H     1 <1>   0.0800 
 37 H       -4.9560    -7.1220     2.4660 H     1 <1>   0.0800 
 38 H       -4.0220    -7.6750    -1.5790 H     1 <1>   0.0800 
 39 H       -4.4160    -9.1540    -0.7220 H     1 <1>   0.0800 
 40 H       -7.0880    -8.2860     1.1340 H     1 <1>   0.0800 
 41 H       -6.5920    -8.5300    -1.0840 H     1 <1>   0.0800 
 42 H       -6.1560    -5.4670     1.3240 H     1 <1>   0.0800 
 43 H       -7.7480    -6.1250     1.6700 H     1 <1>   0.0800 
 44 H       -6.7500    -6.5650    -2.3220 H     1 <1>   0.0800 
 45 H       -5.4660    -5.7870    -1.4070 H     1 <1>   0.0800 
 46 H       -8.3570    -6.1090    -0.6270 H     1 <1>   0.0800 
 47 H       -6.4400    -4.0490    -0.3390 H     1 <1>   0.4000 
@<TRIPOS>BOND
  1   1   2  1   
  2   2   3  ar  
  3   2   4  ar  
  4   3   5  ar  
  5   3  25  1   
  6   4   6  ar  
  7   4  26  1   
  8   5   7  ar  
  9   5   8  1   
 10   6   7  ar  
 11   6  27  1   
 12   7   9  1   
 13   8  10  2   
 14   8  11  1   
 15   9  10  1   
 16   9  28  1   
 17  10  12  1   
 18  11  29  1   
 19  11  30  1   
 20  11  31  1   
 21  12  13  2   
 22  12  14  am  
 23  14  15  1   
 24  14  16  1   
 25  15  17  1   
 26  15  18  1   
 27  15  32  1   
 28  16  33  1   
 29  16  34  1   
 30  16  35  1   
 31  17  19  1   
 32  17  36  1   
 33  17  37  1   
 34  18  20  1   
 35  18  38  1   
 36  18  39  1   
 37  19  20  1   
 38  19  21  1   
 39  19  40  1   
 40  20  22  1   
 41  20  41  1   
 42  21  23  1   
 43  21  42  1   
 44  21  43  1   
 45  22  23  1   
 46  22  44  1   
 47  22  45  1   
 48  23  24  1   
 49  23  46  1   
 50  24  47  1   
@<TRIPOS>SUBSTRUCTURE
  1 ****   8 GROUP 4 **** **** 0

# MOE 2024.06 (io_trps.svl 2023.06)
