@<TRIPOS>MOLECULE
NONAME
50 52 1 0 0 
SMALL
USER_CHARGES


@<TRIPOS>ATOM
  1 O       -3.4880     2.2300    -2.1010 O.2   1 <1>  -0.5700 
  2 C       -3.1240     2.2000    -0.9460 C.2   1 <1>   0.6300 
  3 N       -3.6720     1.3020    -0.0650 N.am  1 <1>  -0.6600 
  4 C       -2.0270     3.1930    -0.5170 C.3   1 <1>   0.0320 
  5 C       -3.1280     1.0430     1.2970 C.3   1 <1>   0.3200 
  6 C       -4.9160     0.5480    -0.4340 C.3   1 <1>   0.1400 
  7 C       -0.6500     2.5320    -0.5620 C.ar  1 <1>  -0.0320 
  8 C       -2.3520     4.4130     0.3220 C.3   1 <1>  -0.1900 
  9 C       -2.0870     4.5790    -1.1310 C.3   1 <1>  -0.2000 
 10 C       -2.3070    -0.2380     1.3080 C.2   1 <1>   0.0060 
 11 C       -4.6290    -0.8580    -0.9800 C.3   1 <1>   0.1200 
 12 C        0.1040     2.3030     0.5810 C.ar  1 <1>  -0.1500 
 13 C       -0.1520     2.1150    -1.7870 C.ar  1 <1>  -0.1500 
 14 C       -3.7910     4.6400     0.8090 C.3   1 <1>  -0.1450 
 15 C       -1.3440     5.0810     1.2690 C.3   1 <1>  -0.1450 
 16 N       -2.5730    -1.2540     2.0650 N.2   1 <1>  -0.5650 
 17 N       -1.2340    -0.4330     0.5080 N.pl3 1 <1>   0.0330 
 18 O       -4.5670    -1.7840     0.0530 O.3   1 <1>  -0.6800 
 19 C        1.3290     1.6650     0.4960 C.ar  1 <1>  -0.1500 
 20 C        1.0710     1.4750    -1.8770 C.ar  1 <1>  -0.1500 
 21 C       -1.6230    -2.1550     1.7480 C.2   1 <1>   0.0770 
 22 C       -0.7960    -1.6700     0.7980 C.2   1 <1>  -0.3020 
 23 C        1.8190     1.2430    -0.7280 C.ar  1 <1>   0.0820 
 24 O        3.0210     0.6170    -0.7220 O.3   1 <1>  -0.3620 
 25 C        3.6500     0.2260    -1.9220 C.3   1 <1>   0.0400 
 26 H       -3.9430     0.9430     1.9920 H     1 <1>   0.0800 
 27 H       -2.5190     1.8610     1.6320 H     1 <1>   0.0800 
 28 H       -5.4340     1.0970    -1.2010 H     1 <1>   0.0800 
 29 H       -5.5820     0.4830     0.4080 H     1 <1>   0.0800 
 30 H       -2.9020     4.8120    -1.7930 H     1 <1>   0.1000 
 31 H       -1.1640     5.0290    -1.4530 H     1 <1>   0.1000 
 32 H       -3.7060    -0.8810    -1.5330 H     1 <1>   0.0800 
 33 H       -5.4320    -1.1660    -1.6260 H     1 <1>   0.0800 
 34 H       -0.2550     2.6100     1.5460 H     1 <1>   0.1500 
 35 H       -0.7290     2.2900    -2.6820 H     1 <1>   0.1500 
 36 H       -4.5100     4.2880     0.0900 H     1 <1>   0.0800 
 37 H       -3.9700     5.6890     0.9640 H     1 <1>   0.0800 
 38 H       -3.9560     4.1230     1.7380 H     1 <1>   0.0800 
 39 H       -0.3430     5.0170     0.8810 H     1 <1>   0.0800 
 40 H       -1.3730     4.6160     2.2370 H     1 <1>   0.0800 
 41 H       -1.5830     6.1240     1.3850 H     1 <1>   0.0800 
 42 H       -0.8310     0.2340    -0.1630 H     1 <1>   0.2700 
 43 H       -3.8250    -1.5800     0.6820 H     1 <1>   0.4000 
 44 H        1.9130     1.4860     1.3820 H     1 <1>   0.1500 
 45 H        1.4210     1.1670    -2.8440 H     1 <1>   0.1500 
 46 H       -1.5840    -3.1200     2.2280 H     1 <1>   0.1500 
 47 H        0.0580    -2.1210     0.3260 H     1 <1>   0.1500 
 48 H        4.5980    -0.2150    -1.6730 H     1 <1>   0.0800 
 49 H        3.8020     1.0950    -2.5370 H     1 <1>   0.0800 
 50 H        3.0310    -0.4980    -2.4220 H     1 <1>   0.0800 
@<TRIPOS>BOND
  1   1   2  2   
  2   2   3  am  
  3   2   4  1   
  4   3   5  1   
  5   3   6  1   
  6   4   7  1   
  7   4   8  1   
  8   4   9  1   
  9   5  10  1   
 10   5  26  1   
 11   5  27  1   
 12   6  11  1   
 13   6  28  1   
 14   6  29  1   
 15   7  12  ar  
 16   7  13  ar  
 17   8   9  1   
 18   8  14  1   
 19   8  15  1   
 20   9  30  1   
 21   9  31  1   
 22  10  16  2   
 23  10  17  1   
 24  11  18  1   
 25  11  32  1   
 26  11  33  1   
 27  12  19  ar  
 28  12  34  1   
 29  13  20  ar  
 30  13  35  1   
 31  14  36  1   
 32  14  37  1   
 33  14  38  1   
 34  15  39  1   
 35  15  40  1   
 36  15  41  1   
 37  16  21  1   
 38  17  22  1   
 39  17  42  1   
 40  18  43  1   
 41  19  23  ar  
 42  19  44  1   
 43  20  23  ar  
 44  20  45  1   
 45  21  22  2   
 46  21  46  1   
 47  22  47  1   
 48  23  24  1   
 49  24  25  1   
 50  25  48  1   
 51  25  49  1   
 52  25  50  1   
@<TRIPOS>SUBSTRUCTURE
  1 ****   7 GROUP 4 **** **** 0

# MOE 2024.06 (io_trps.svl 2023.06)
