@<TRIPOS>MOLECULE
NONAME
50 53 1 0 0 
SMALL
USER_CHARGES


@<TRIPOS>ATOM
  1 CL      -1.0770    -0.5430    -2.3070 Cl    1 <1>  -0.1770 
  2 C       -1.9530    -1.0440    -0.8780 C.ar  1 <1>   0.1770 
  3 C       -2.5470    -0.1230    -0.0180 C.ar  1 <1>   0.0830 
  4 C       -2.0560    -2.4030    -0.6410 C.ar  1 <1>  -0.1500 
  5 O       -2.4870     1.2180    -0.1920 O.3   1 <1>  -0.3630 
  6 C       -3.2580    -0.5890     1.0760 C.ar  1 <1>  -0.1500 
  7 C       -2.7710    -2.8650     0.4570 C.ar  1 <1>  -0.1430 
  8 C       -1.2070     1.8410    -0.2480 C.3   1 <1>   0.1810 
  9 C       -3.3660    -1.9480     1.3150 C.ar  1 <1>  -0.1500 
 10 C       -2.9090    -4.3540     0.7110 C.3   1 <1>   0.4870 
 11 C       -1.2450     3.2360     0.3650 C.2   1 <1>   0.5690 
 12 N       -3.8960    -4.9080    -0.2530 N.4   1 <1>  -0.9590 
 13 O       -0.2140     3.7710     0.6820 O.2   1 <1>  -0.5700 
 14 N       -2.4200     3.8710     0.5540 N.am  1 <1>  -0.8000 
 15 C       -5.2690    -4.2890    -0.1070 C.3   1 <1>   0.3430 
 16 C       -3.9670    -6.4120    -0.2100 C.3   1 <1>   0.3430 
 17 C       -6.2740    -5.3060    -0.6810 C.3   1 <1>  -0.0800 
 18 C       -5.2610    -6.7540    -0.9440 C.3   1 <1>  -0.0800 
 19 C       -7.7110    -5.7550     0.2540 C.3   1 <1>  -0.0800 
 20 C       -6.1680    -8.2080    -0.5030 C.3   1 <1>  -0.0800 
 21 C       -6.8360    -6.5670     0.7210 C.3   1 <1>  -0.1600 
 22 C       -8.6670    -7.1980     0.6310 C.3   1 <1>  -0.1600 
 23 C       -7.0800    -7.4310    -0.9860 C.3   1 <1>  -0.1600 
 24 C       -7.6170    -8.6780     0.4070 C.3   1 <1>  -0.1600 
 25 H       -1.5730    -3.0780    -1.3260 H     1 <1>   0.1500 
 26 H       -3.7210     0.1210     1.7400 H     1 <1>   0.1500 
 27 H       -0.4990     1.2380     0.2920 H     1 <1>   0.0800 
 28 H       -0.9090     1.9170    -1.2770 H     1 <1>   0.0800 
 29 H       -3.9190    -2.2770     2.1800 H     1 <1>   0.1500 
 30 H       -3.2390    -4.5270     1.7220 H     1 <1>   0.0800 
 31 H       -1.9510    -4.8300     0.5780 H     1 <1>   0.0800 
 32 H       -3.5730    -4.6490    -1.1930 H     1 <1>   0.4500 
 33 H       -2.4400     4.8020     0.9690 H     1 <1>   0.3700 
 34 H       -3.3150     3.4390     0.3190 H     1 <1>   0.3700 
 35 H       -5.4890    -4.1220     0.9340 H     1 <1>   0.0800 
 36 H       -5.3280    -3.3460    -0.6280 H     1 <1>   0.0800 
 37 H       -3.1130    -6.8690    -0.6840 H     1 <1>   0.0800 
 38 H       -4.0300    -6.7530     0.8110 H     1 <1>   0.0800 
 39 H       -6.6050    -4.9010    -1.6240 H     1 <1>   0.0800 
 40 H       -4.9550    -6.8070    -1.9820 H     1 <1>   0.0800 
 41 H       -7.9520    -4.9750     0.9560 H     1 <1>   0.0800 
 42 H       -5.9190    -9.0000    -1.1890 H     1 <1>   0.0800 
 43 H       -5.9420    -6.1580     1.1920 H     1 <1>   0.0800 
 44 H       -6.9800    -6.9510     1.7550 H     1 <1>   0.0800 
 45 H       -9.0860    -7.1690     1.6270 H     1 <1>   0.0800 
 46 H       -9.5190    -7.2360    -0.0290 H     1 <1>   0.0800 
 47 H       -6.9970    -7.0150    -2.0110 H     1 <1>   0.0800 
 48 H       -7.9760    -7.9020    -1.4450 H     1 <1>   0.0800 
 49 H       -8.1700    -9.4770    -0.0680 H     1 <1>   0.0800 
 50 H       -7.3190    -9.0790     1.3640 H     1 <1>   0.0800 
@<TRIPOS>BOND
  1   1   2  1   
  2   2   3  ar  
  3   2   4  ar  
  4   3   5  1   
  5   3   6  ar  
  6   4   7  ar  
  7   4  25  1   
  8   5   8  1   
  9   6   9  ar  
 10   6  26  1   
 11   7   9  ar  
 12   7  10  1   
 13   8  11  1   
 14   8  27  1   
 15   8  28  1   
 16   9  29  1   
 17  10  12  1   
 18  10  30  1   
 19  10  31  1   
 20  11  13  2   
 21  11  14  am  
 22  12  15  1   
 23  12  16  1   
 24  12  32  1   
 25  14  33  1   
 26  14  34  1   
 27  15  17  1   
 28  15  35  1   
 29  15  36  1   
 30  16  18  1   
 31  16  37  1   
 32  16  38  1   
 33  17  18  1   
 34  17  19  1   
 35  17  39  1   
 36  18  20  1   
 37  18  40  1   
 38  19  21  1   
 39  19  22  1   
 40  19  41  1   
 41  20  23  1   
 42  20  24  1   
 43  20  42  1   
 44  21  23  1   
 45  21  43  1   
 46  21  44  1   
 47  22  24  1   
 48  22  45  1   
 49  22  46  1   
 50  23  47  1   
 51  23  48  1   
 52  24  49  1   
 53  24  50  1   
@<TRIPOS>SUBSTRUCTURE
  1 ****   7 GROUP 4 **** **** 0

# MOE 2024.06 (io_trps.svl 2023.06)
