@<TRIPOS>MOLECULE
NONAME
52 55 1 0 0 
SMALL
USER_CHARGES


@<TRIPOS>ATOM
  1 O        0.5290    -0.1450    -0.5730 O.2   1 <1>  -0.5700 
  2 C        1.7250    -0.1510    -0.3830 C.2   1 <1>   0.7150 
  3 N        2.2660    -1.3850    -0.2090 N.am  1 <1>  -0.7300 
  4 C        2.4510     1.0850    -0.3610 C.2   1 <1>  -0.2370 
  5 C        3.5560    -1.8770     0.3460 C.3   1 <1>   0.1400 
  6 N        3.7950     1.2400    -0.4220 N.pl3 1 <1>   0.3140 
  7 C        1.9570     2.3500    -0.3010 C.2   1 <1>  -0.1500 
  8 C        4.6080    -0.8010     0.6550 C.3   1 <1>   0.2000 
  9 N        4.1650     2.5210    -0.3980 N.2   1 <1>  -0.7070 
 10 C        4.8180     0.1890    -0.4880 C.3   1 <1>   0.0960 
 11 C        3.0450     3.2180    -0.3230 C.2   1 <1>   0.2030 
 12 O        5.8120    -1.4450     0.9120 O.3   1 <1>  -0.6800 
 13 C        2.9520     4.6700    -0.2670 C.2   1 <1>   0.7160 
 14 O        1.8780     5.2420    -0.1760 O.2   1 <1>  -0.5700 
 15 N        4.0850     5.4270    -0.3100 N.am  1 <1>  -0.7300 
 16 C        4.1680     6.8990    -0.1610 C.3   1 <1>   0.1400 
 17 C        5.6090     7.4370     0.0680 C.3   1 <1>   0.1430 
 18 C        5.4400     8.9300     0.4420 C.ar  1 <1>  -0.1430 
 19 C        6.4670     7.2530    -1.2100 C.3   1 <1>  -0.1600 
 20 C        6.3220     6.6980     1.2370 C.3   1 <1>  -0.1600 
 21 C        5.7750     9.9770    -0.4150 C.ar  1 <1>  -0.1500 
 22 C        4.9090     9.2620     1.6860 C.ar  1 <1>  -0.1500 
 23 C        6.8830     5.8000    -1.5060 C.3   1 <1>   0.1200 
 24 C        7.3240     5.6190     0.7990 C.3   1 <1>   0.1200 
 25 C        5.5990    11.2970    -0.0370 C.ar  1 <1>  -0.1500 
 26 C        4.7310    10.5800     2.0680 C.ar  1 <1>  -0.1500 
 27 O        6.8640     5.0050    -0.3580 O.3   1 <1>  -0.5600 
 28 C        5.0790    11.6010     1.2060 C.ar  1 <1>  -0.1500 
 29 H        1.5530    -2.1120    -0.3050 H     1 <1>   0.3700 
 30 H        3.9700    -2.5710    -0.3650 H     1 <1>   0.0800 
 31 H        3.3500    -2.4160     1.2550 H     1 <1>   0.0800 
 32 H        0.9240     2.6510    -0.2480 H     1 <1>   0.1500 
 33 H        4.3450    -0.2730     1.5570 H     1 <1>   0.0800 
 34 H        5.7780     0.6630    -0.3880 H     1 <1>   0.0800 
 35 H        4.7540    -0.2970    -1.4440 H     1 <1>   0.0800 
 36 H        6.1770    -1.8700     0.1120 H     1 <1>   0.4000 
 37 H        4.9880     4.9220    -0.3240 H     1 <1>   0.3700 
 38 H        3.5430     7.1790     0.6690 H     1 <1>   0.0800 
 39 H        3.7510     7.3590    -1.0400 H     1 <1>   0.0800 
 40 H        7.3740     7.8220    -1.0980 H     1 <1>   0.0800 
 41 H        5.9520     7.6410    -2.0700 H     1 <1>   0.0800 
 42 H        5.5920     6.2500     1.8880 H     1 <1>   0.0800 
 43 H        6.8740     7.4030     1.8320 H     1 <1>   0.0800 
 44 H        6.1750     9.7980    -1.3950 H     1 <1>   0.1500 
 45 H        4.6210     8.4900     2.3790 H     1 <1>   0.1500 
 46 H        7.8750     5.7660    -1.9240 H     1 <1>   0.0800 
 47 H        6.2010     5.3520    -2.2080 H     1 <1>   0.0800 
 48 H        7.4270     4.8640     1.5600 H     1 <1>   0.0800 
 49 H        8.2930     6.0440     0.5960 H     1 <1>   0.0800 
 50 H        5.8670    12.0900    -0.7130 H     1 <1>   0.1500 
 51 H        4.3210    10.8090     3.0350 H     1 <1>   0.1500 
 52 H        4.9430    12.6280     1.5000 H     1 <1>   0.1500 
@<TRIPOS>BOND
  1   1   2  2   
  2   2   3  am  
  3   2   4  1   
  4   3   5  1   
  5   3  29  1   
  6   4   6  1   
  7   4   7  2   
  8   5   8  1   
  9   5  30  1   
 10   5  31  1   
 11   6   9  1   
 12   6  10  1   
 13   7  11  1   
 14   7  32  1   
 15   8  10  1   
 16   8  12  1   
 17   8  33  1   
 18   9  11  2   
 19  10  34  1   
 20  10  35  1   
 21  11  13  1   
 22  12  36  1   
 23  13  14  2   
 24  13  15  am  
 25  15  16  1   
 26  15  37  1   
 27  16  17  1   
 28  16  38  1   
 29  16  39  1   
 30  17  18  1   
 31  17  19  1   
 32  17  20  1   
 33  18  21  ar  
 34  18  22  ar  
 35  19  23  1   
 36  19  40  1   
 37  19  41  1   
 38  20  24  1   
 39  20  42  1   
 40  20  43  1   
 41  21  25  ar  
 42  21  44  1   
 43  22  26  ar  
 44  22  45  1   
 45  23  27  1   
 46  23  46  1   
 47  23  47  1   
 48  24  27  1   
 49  24  48  1   
 50  24  49  1   
 51  25  28  ar  
 52  25  50  1   
 53  26  28  ar  
 54  26  51  1   
 55  28  52  1   
@<TRIPOS>SUBSTRUCTURE
  1 ****  15 GROUP 4 **** **** 0

# MOE 2024.06 (io_trps.svl 2023.06)
