@<TRIPOS>MOLECULE
NONAME
58 61 1 0 0 
SMALL
USER_CHARGES


@<TRIPOS>ATOM
  1 CL       5.4940     0.8650    -2.6810 Cl    1 <1>  -0.1770 
  2 C        4.6250     0.3620    -1.2480 C.ar  1 <1>   0.1770 
  3 C        3.5430     1.0980    -0.7780 C.ar  1 <1>   0.0820 
  4 C        5.0440    -0.7900    -0.6130 C.ar  1 <1>  -0.1500 
  5 O        3.1870     2.2200    -1.4560 O.3   1 <1>  -0.3630 
  6 C        2.8800     0.6460     0.3600 C.ar  1 <1>  -0.1500 
  7 C        4.3670    -1.2490     0.5060 C.ar  1 <1>  -0.1430 
  8 C        2.1450     3.0600    -1.0160 C.3   1 <1>   0.1200 
  9 C        3.2910    -0.5180     0.9930 C.ar  1 <1>  -0.1500 
 10 C        4.8130    -2.5370     1.1680 C.3   1 <1>   0.4870 
 11 C        2.0450     4.2320    -1.9860 C.3   1 <1>  -0.2400 
 12 N        4.0890    -3.6710     0.5300 N.4   1 <1>  -0.9590 
 13 C        4.5060    -5.0350     0.9080 C.3   1 <1>   0.4230 
 14 C        2.6670    -3.8240     0.8500 C.3   1 <1>   0.4230 
 15 C        3.6110    -5.8870    -0.0280 C.3   1 <1>   0.0610 
 16 C        4.0160    -5.0790     2.3750 C.3   1 <1>  -0.1600 
 17 C        2.3010    -5.0410    -0.0130 C.3   1 <1>  -0.1600 
 18 C        2.7120    -4.2670     2.3180 C.3   1 <1>  -0.1600 
 19 C        3.4710    -7.3090     0.5180 C.2   1 <1>   0.5690 
 20 C        4.2160    -6.0520    -1.4520 C.3   1 <1>   0.0210 
 21 O        4.4460    -7.8050     1.0260 O.2   1 <1>  -0.5700 
 22 N        2.3050    -7.9950     0.3880 N.am  1 <1>  -0.7300 
 23 C        4.8000    -4.8230    -2.1400 C.2   1 <1>   0.0460 
 24 C        2.0720    -9.3650     0.8910 C.3   1 <1>   0.1400 
 25 N        3.9660    -3.7460    -2.3970 N.2   1 <1>  -0.5650 
 26 C        6.0680    -4.7030    -2.5650 C.2   1 <1>  -0.1100 
 27 C        0.7660    -9.3750     1.6740 C.3   1 <1>  -0.2400 
 28 C        4.5710    -2.8340    -3.0550 C.2   1 <1>   0.2280 
 29 S        6.2570    -3.1720    -3.3670 S.3   1 <1>  -0.0800 
 30 H        5.8960    -1.3150    -1.0070 H     1 <1>   0.1500 
 31 H        2.0440     1.1870     0.7640 H     1 <1>   0.1500 
 32 H        1.2290     2.4950    -1.0080 H     1 <1>   0.0800 
 33 H        2.3810     3.4070    -0.0240 H     1 <1>   0.0800 
 34 H        2.7600    -0.8420     1.8730 H     1 <1>   0.1500 
 35 H        4.6110    -2.4980     2.2250 H     1 <1>   0.0800 
 36 H        5.8750    -2.6580     1.0280 H     1 <1>   0.0800 
 37 H        1.8250     3.8740    -2.9760 H     1 <1>   0.0800 
 38 H        2.9700     4.7790    -2.0010 H     1 <1>   0.0800 
 39 H        1.2580     4.8960    -1.6780 H     1 <1>   0.0800 
 40 H        4.1580    -3.5610    -0.5010 H     1 <1>   0.4500 
 41 H        5.5600    -5.2330     0.7890 H     1 <1>   0.0800 
 42 H        2.0670    -2.9480     0.6560 H     1 <1>   0.0800 
 43 H        3.8540    -6.0730     2.7520 H     1 <1>   0.0800 
 44 H        4.7370    -4.6090     3.0210 H     1 <1>   0.0800 
 45 H        1.4600    -5.5550     0.4150 H     1 <1>   0.0800 
 46 H        2.0140    -4.7200    -0.9980 H     1 <1>   0.0800 
 47 H        2.7500    -3.4170     2.9760 H     1 <1>   0.0800 
 48 H        1.8540    -4.8610     2.5830 H     1 <1>   0.0800 
 49 H        3.4620    -6.4630    -2.1000 H     1 <1>   0.0800 
 50 H        5.0030    -6.7850    -1.4040 H     1 <1>   0.0800 
 51 H        1.5170    -7.6020    -0.1300 H     1 <1>   0.3700 
 52 H        2.0150   -10.0490     0.0610 H     1 <1>   0.0800 
 53 H        2.8850    -9.6730     1.5300 H     1 <1>   0.0800 
 54 H        6.9250    -5.3540    -2.5220 H     1 <1>   0.1500 
 55 H       -0.0600    -9.1030     1.0410 H     1 <1>   0.0800 
 56 H        0.8240    -8.6970     2.5080 H     1 <1>   0.0800 
 57 H        0.5860   -10.3640     2.0560 H     1 <1>   0.0800 
 58 H        4.1850    -1.8970    -3.4230 H     1 <1>   0.1500 
@<TRIPOS>BOND
  1   1   2  1   
  2   2   3  ar  
  3   2   4  ar  
  4   3   5  1   
  5   3   6  ar  
  6   4   7  ar  
  7   4  30  1   
  8   5   8  1   
  9   6   9  ar  
 10   6  31  1   
 11   7   9  ar  
 12   7  10  1   
 13   8  11  1   
 14   8  32  1   
 15   8  33  1   
 16   9  34  1   
 17  10  12  1   
 18  10  35  1   
 19  10  36  1   
 20  11  37  1   
 21  11  38  1   
 22  11  39  1   
 23  12  13  1   
 24  12  14  1   
 25  12  40  1   
 26  13  15  1   
 27  13  16  1   
 28  13  41  1   
 29  14  17  1   
 30  14  18  1   
 31  14  42  1   
 32  15  17  1   
 33  15  19  1   
 34  15  20  1   
 35  16  18  1   
 36  16  43  1   
 37  16  44  1   
 38  17  45  1   
 39  17  46  1   
 40  18  47  1   
 41  18  48  1   
 42  19  21  2   
 43  19  22  am  
 44  20  23  1   
 45  20  49  1   
 46  20  50  1   
 47  22  24  1   
 48  22  51  1   
 49  23  25  1   
 50  23  26  2   
 51  24  27  1   
 52  24  52  1   
 53  24  53  1   
 54  25  28  2   
 55  26  29  1   
 56  26  54  1   
 57  27  55  1   
 58  27  56  1   
 59  27  57  1   
 60  28  29  1   
 61  28  58  1   
@<TRIPOS>SUBSTRUCTURE
  1 ****  12 GROUP 4 **** **** 0

# MOE 2024.06 (io_trps.svl 2023.06)
