@<TRIPOS>MOLECULE
NONAME
50 52 1 0 0 
SMALL
USER_CHARGES


@<TRIPOS>ATOM
  1 O       -3.3220     1.8860     1.7610 O.2   1 <1>  -0.5700 
  2 C       -2.2220     1.8350     1.2360 C.2   1 <1>   0.5440 
  3 N       -1.5340     0.6280     1.3020 N.am  1 <1>  -0.6600 
  4 C       -1.7200     3.0280     0.5520 C.ar  1 <1>   0.3960 
  5 C       -1.9850    -0.4900     2.1800 C.3   1 <1>   0.0600 
  6 C       -0.3180     0.3260     0.4990 C.3   1 <1>   0.0600 
  7 N       -0.4120     3.3390     0.5630 N.ar  1 <1>  -0.6200 
  8 C       -2.6530     3.8380    -0.1040 C.ar  1 <1>   0.1600 
  9 C       -0.1170     4.4480    -0.0940 C.ar  1 <1>   0.4100 
 10 N       -2.3810     4.9490    -0.7730 N.ar  1 <1>  -0.6200 
 11 N        1.2200     4.8130    -0.1250 N.pl3 1 <1>  -0.8380 
 12 C       -1.0930     5.2240    -0.7390 C.ar  1 <1>   0.1600 
 13 C        1.9100     4.8390    -1.4520 C.3   1 <1>   0.2090 
 14 C        2.1020     4.4340     1.0120 C.3   1 <1>   0.2090 
 15 C        3.1110     5.7910    -1.4150 C.3   1 <1>   0.2000 
 16 C        3.2670     5.4210     1.0960 C.3   1 <1>  -0.1600 
 17 O        3.8080     5.6700    -2.6110 O.3   1 <1>  -0.6800 
 18 C        4.0420     5.4700    -0.2240 C.3   1 <1>   0.2200 
 19 N        5.1280     6.4750    -0.0890 N.am  1 <1>  -0.7300 
 20 C        6.2810     6.5010    -0.8190 C.2   1 <1>   0.5440 
 21 O        6.3880     5.7080    -1.7340 O.2   1 <1>  -0.5700 
 22 C        7.3260     7.4690    -0.5340 C.ar  1 <1>   0.0860 
 23 C        8.1820     7.9160    -1.5410 C.ar  1 <1>  -0.1500 
 24 C        7.5190     7.9920     0.7480 C.ar  1 <1>  -0.1500 
 25 C        9.1730     8.8470    -1.2900 C.ar  1 <1>  -0.1500 
 26 C        8.5070     8.9240     1.0060 C.ar  1 <1>  -0.1500 
 27 C        9.3360     9.3560    -0.0140 C.ar  1 <1>  -0.1500 
 28 H       -1.1480    -0.8820     2.7310 H     1 <1>   0.0800 
 29 H       -2.4140    -1.2720     1.5790 H     1 <1>   0.0800 
 30 H       -2.7250    -0.1500     2.8850 H     1 <1>   0.0800 
 31 H       -0.2820    -0.7220     0.2590 H     1 <1>   0.0800 
 32 H        0.5600     0.5910     1.0620 H     1 <1>   0.0800 
 33 H       -0.3250     0.8830    -0.4220 H     1 <1>   0.0800 
 34 H       -3.6870     3.5400    -0.0680 H     1 <1>   0.1500 
 35 H       -0.7620     6.1140    -1.2400 H     1 <1>   0.1500 
 36 H        2.2500     3.8450    -1.6860 H     1 <1>   0.0800 
 37 H        1.2290     5.1590    -2.2200 H     1 <1>   0.0800 
 38 H        1.5410     4.4570     1.9320 H     1 <1>   0.0800 
 39 H        2.4670     3.4310     0.8640 H     1 <1>   0.0800 
 40 H        2.7570     6.8040    -1.3410 H     1 <1>   0.0800 
 41 H        3.9240     5.1130     1.8890 H     1 <1>   0.0800 
 42 H        2.8710     6.3930     1.3330 H     1 <1>   0.0800 
 43 H        4.7830     5.7380    -2.4250 H     1 <1>   0.4000 
 44 H        4.4810     4.5010    -0.3940 H     1 <1>   0.0800 
 45 H        4.9320     7.2520     0.5430 H     1 <1>   0.3700 
 46 H        8.0640     7.5230    -2.5370 H     1 <1>   0.1500 
 47 H        6.8950     7.6590     1.5580 H     1 <1>   0.1500 
 48 H        9.8180     9.1760    -2.0870 H     1 <1>   0.1500 
 49 H        8.6380     9.3150     2.0010 H     1 <1>   0.1500 
 50 H       10.1060    10.0810     0.1840 H     1 <1>   0.1500 
@<TRIPOS>BOND
  1   1   2  2   
  2   2   3  am  
  3   2   4  1   
  4   3   5  1   
  5   3   6  1   
  6   4   7  ar  
  7   4   8  ar  
  8   5  28  1   
  9   5  29  1   
 10   5  30  1   
 11   6  31  1   
 12   6  32  1   
 13   6  33  1   
 14   7   9  ar  
 15   8  10  ar  
 16   8  34  1   
 17   9  11  1   
 18   9  12  ar  
 19  10  12  ar  
 20  11  13  1   
 21  11  14  1   
 22  12  35  1   
 23  13  15  1   
 24  13  36  1   
 25  13  37  1   
 26  14  16  1   
 27  14  38  1   
 28  14  39  1   
 29  15  17  1   
 30  15  18  1   
 31  15  40  1   
 32  16  18  1   
 33  16  41  1   
 34  16  42  1   
 35  17  43  1   
 36  18  19  1   
 37  18  44  1   
 38  19  20  am  
 39  19  45  1   
 40  20  21  2   
 41  20  22  1   
 42  22  23  ar  
 43  22  24  ar  
 44  23  25  ar  
 45  23  46  1   
 46  24  26  ar  
 47  24  47  1   
 48  25  27  ar  
 49  25  48  1   
 50  26  27  ar  
 51  26  49  1   
 52  27  50  1   
@<TRIPOS>SUBSTRUCTURE
  1 ****  14 GROUP 4 **** **** 0

# MOE 2024.06 (io_trps.svl 2023.06)
