@<TRIPOS>MOLECULE
NONAME
52 55 1 0 0 
SMALL
USER_CHARGES


@<TRIPOS>ATOM
  1 O       -0.5840     5.7400     1.2950 O.2   1 <1>  -0.5700 
  2 C       -0.4840     4.6030     0.8740 C.2   1 <1>   0.6160 
  3 N       -1.6270     3.8840     0.6000 N.am  1 <1>  -0.6600 
  4 C        0.8350     4.0470     0.6530 C.2   1 <1>   0.0140 
  5 C       -2.9760     4.3750     1.0190 C.3   1 <1>   0.1400 
  6 C       -1.6480     2.7230    -0.3440 C.3   1 <1>   0.1400 
  7 C        1.8150     4.7330    -0.0120 C.2   1 <1>  -0.1360 
  8 C        1.1670     2.7450     1.1420 C.2   1 <1>  -0.1500 
  9 C       -3.7930     4.8740    -0.1950 C.3   1 <1>   0.1440 
 10 C       -2.9650     2.6480    -1.1370 C.3   1 <1>  -0.1600 
 11 C        3.0940     4.1720    -0.2400 C.2   1 <1>   0.6160 
 12 C        2.3940     2.2010     0.9290 C.2   1 <1>  -0.0290 
 13 C       -5.2580     4.8220     0.2000 C.ar  1 <1>   0.1660 
 14 C       -3.4940     4.0510    -1.4760 C.3   1 <1>  -0.1600 
 15 C       -3.5800     6.3900    -0.4440 C.3   1 <1>  -0.1600 
 16 O        3.9840     4.7480    -0.8470 O.2   1 <1>  -0.5700 
 17 N        3.3370     2.9170     0.2340 N.am  1 <1>  -0.5390 
 18 C        2.8030     0.8280     1.4230 C.3   1 <1>  -0.1020 
 19 N       -5.9830     3.7340     0.2870 N.ar  1 <1>  -0.6200 
 20 C       -5.7450     6.0620     0.4820 C.ar  1 <1>  -0.1430 
 21 C       -4.6940     7.1300     0.3160 C.3   1 <1>  -0.0170 
 22 C       -7.2490     3.9210     0.6660 C.ar  1 <1>   0.7200 
 23 C       -7.0590     6.1590     0.8660 C.ar  1 <1>   0.1600 
 24 N       -7.8200     5.0940     0.9610 N.ar  1 <1>  -0.6200 
 25 N       -8.0430     2.7950     0.7650 N.pl3 1 <1>  -0.8380 
 26 C       -9.3620     2.8160     1.4540 C.3   1 <1>   0.1290 
 27 C       -7.6520     1.4950     0.1540 C.3   1 <1>   0.1290 
 28 H       -2.8910     5.1540     1.7570 H     1 <1>   0.0800 
 29 H       -3.4960     3.5560     1.4840 H     1 <1>   0.0800 
 30 H       -1.5090     1.8080     0.2070 H     1 <1>   0.0800 
 31 H       -0.8330     2.8240    -1.0400 H     1 <1>   0.0800 
 32 H        1.6510     5.7240    -0.3880 H     1 <1>   0.1500 
 33 H        0.4100     2.2150     1.6940 H     1 <1>   0.1500 
 34 H       -3.7020     2.1200    -0.5580 H     1 <1>   0.0800 
 35 H       -2.8040     2.0860    -2.0400 H     1 <1>   0.0800 
 36 H       -2.7410     4.5530    -2.0590 H     1 <1>   0.0800 
 37 H       -4.3820     3.9770    -2.0810 H     1 <1>   0.0800 
 38 H       -3.7010     6.6010    -1.4920 H     1 <1>   0.0800 
 39 H       -2.6010     6.7200    -0.1440 H     1 <1>   0.0800 
 40 H        4.2770     2.5630     0.0500 H     1 <1>   0.3700 
 41 H        3.6420     0.9130     2.0900 H     1 <1>   0.0800 
 42 H        3.0780     0.2040     0.5920 H     1 <1>   0.0800 
 43 H        1.9930     0.3580     1.9520 H     1 <1>   0.0800 
 44 H       -5.0620     7.9730    -0.2420 H     1 <1>   0.0800 
 45 H       -4.3450     7.4500     1.2820 H     1 <1>   0.0800 
 46 H       -7.4890     7.1170     1.0980 H     1 <1>   0.1500 
 47 H       -9.3680     3.5570     2.2360 H     1 <1>   0.0800 
 48 H       -9.5650     1.8570     1.8960 H     1 <1>   0.0800 
 49 H      -10.1340     3.0540     0.7430 H     1 <1>   0.0800 
 50 H       -7.0110     1.6540    -0.6960 H     1 <1>   0.0800 
 51 H       -8.5260     0.9640    -0.1790 H     1 <1>   0.0800 
 52 H       -7.1280     0.9000     0.8810 H     1 <1>   0.0800 
@<TRIPOS>BOND
  1   1   2  2   
  2   2   3  am  
  3   2   4  1   
  4   3   5  1   
  5   3   6  1   
  6   4   7  2   
  7   4   8  1   
  8   5   9  1   
  9   5  28  1   
 10   5  29  1   
 11   6  10  1   
 12   6  30  1   
 13   6  31  1   
 14   7  11  1   
 15   7  32  1   
 16   8  12  2   
 17   8  33  1   
 18   9  13  1   
 19   9  14  1   
 20   9  15  1   
 21  10  14  1   
 22  10  34  1   
 23  10  35  1   
 24  11  16  2   
 25  11  17  am  
 26  12  17  1   
 27  12  18  1   
 28  13  19  ar  
 29  13  20  ar  
 30  14  36  1   
 31  14  37  1   
 32  15  21  1   
 33  15  38  1   
 34  15  39  1   
 35  17  40  1   
 36  18  41  1   
 37  18  42  1   
 38  18  43  1   
 39  19  22  ar  
 40  20  21  1   
 41  20  23  ar  
 42  21  44  1   
 43  21  45  1   
 44  22  24  ar  
 45  22  25  1   
 46  23  24  ar  
 47  23  46  1   
 48  25  26  1   
 49  25  27  1   
 50  26  47  1   
 51  26  48  1   
 52  26  49  1   
 53  27  50  1   
 54  27  51  1   
 55  27  52  1   
@<TRIPOS>SUBSTRUCTURE
  1 ****   5 GROUP 4 **** **** 0

# MOE 2024.06 (io_trps.svl 2023.06)
