@<TRIPOS>MOLECULE
NONAME
40 40 1 0 0 
SMALL
USER_CHARGES


@<TRIPOS>ATOM
  1 S        0.1820     0.2040     1.1820 S.o2  1 <1>   1.0900 
  2 O        0.3250    -1.0990     1.7920 O.2   1 <1>  -0.6500 
  3 O       -0.0500     1.3320     2.0560 O.2   1 <1>  -0.6500 
  4 C        1.7110     0.5480     0.3050 C.3   1 <1>   0.0860 
  5 C       -1.2040     0.1290     0.0250 C.3   1 <1>  -0.0550 
  6 C        1.6200     1.9510    -0.2440 C.2   1 <1>   0.5690 
  7 C        2.1320    -0.4740    -0.7770 C.3   1 <1>  -0.2400 
  8 C       -1.3480    -1.1730    -0.7840 C.3   1 <1>  -0.2400 
  9 O        0.8580     2.1620    -1.1570 O.2   1 <1>  -0.5700 
 10 N        2.4140     2.9240     0.3030 N.am  1 <1>  -0.4940 
 11 C        2.4910     4.2990    -0.0210 C.2   1 <1>  -0.0880 
 12 N        1.4450     5.1400    -0.2500 N.pl3 1 <1>   0.3140 
 13 C        3.6130     5.0490    -0.1340 C.2   1 <1>  -0.1810 
 14 N        1.8690     6.3960    -0.5020 N.2   1 <1>  -0.7070 
 15 C        0.0080     4.8520    -0.1510 C.3   1 <1>   0.0160 
 16 C        3.1610     6.3330    -0.4350 C.2   1 <1>   0.1080 
 17 C        5.0610     4.6180     0.0220 C.3   1 <1>  -0.0590 
 18 C        4.0340     7.5530    -0.6660 C.3   1 <1>   0.0210 
 19 C        4.3230     8.2870     0.6470 C.3   1 <1>  -0.2400 
 20 H        2.4910     0.5450     1.0400 H     1 <1>   0.0800 
 21 H       -1.1800     0.9630    -0.6480 H     1 <1>   0.0800 
 22 H       -2.1040     0.2340     0.6010 H     1 <1>   0.0800 
 23 H        1.4900    -0.4120    -1.6360 H     1 <1>   0.0800 
 24 H        2.0960    -1.4740    -0.3800 H     1 <1>   0.0800 
 25 H        3.1370    -0.2710    -1.1020 H     1 <1>   0.0800 
 26 H       -0.5290    -1.3100    -1.4630 H     1 <1>   0.0800 
 27 H       -2.2580    -1.1450    -1.3580 H     1 <1>   0.0800 
 28 H       -1.3920    -2.0200    -0.1200 H     1 <1>   0.0800 
 29 H        3.0640     2.6360     1.0330 H     1 <1>   0.3700 
 30 H       -0.1590     4.1180     0.6140 H     1 <1>   0.0800 
 31 H       -0.3380     4.4820    -1.0980 H     1 <1>   0.0800 
 32 H       -0.5150     5.7560     0.0950 H     1 <1>   0.0800 
 33 H        5.1260     3.5680     0.2360 H     1 <1>   0.0800 
 34 H        5.5220     5.1660     0.8240 H     1 <1>   0.0800 
 35 H        5.5980     4.8140    -0.8890 H     1 <1>   0.0800 
 36 H        3.5230     8.2160    -1.3420 H     1 <1>   0.0800 
 37 H        4.9560     7.2550    -1.1320 H     1 <1>   0.0800 
 38 H        3.3960     8.5940     1.1000 H     1 <1>   0.0800 
 39 H        4.9250     9.1580     0.4620 H     1 <1>   0.0800 
 40 H        4.8420     7.6400     1.3300 H     1 <1>   0.0800 
@<TRIPOS>BOND
  1   1   2  2   
  2   1   3  2   
  3   1   4  1   
  4   1   5  1   
  5   4   6  1   
  6   4   7  1   
  7   4  20  1   
  8   5   8  1   
  9   5  21  1   
 10   5  22  1   
 11   6   9  2   
 12   6  10  am  
 13   7  23  1   
 14   7  24  1   
 15   7  25  1   
 16   8  26  1   
 17   8  27  1   
 18   8  28  1   
 19  10  11  1   
 20  10  29  1   
 21  11  12  1   
 22  11  13  2   
 23  12  14  1   
 24  12  15  1   
 25  13  16  1   
 26  13  17  1   
 27  14  16  2   
 28  15  30  1   
 29  15  31  1   
 30  15  32  1   
 31  16  18  1   
 32  17  33  1   
 33  17  34  1   
 34  17  35  1   
 35  18  19  1   
 36  18  36  1   
 37  18  37  1   
 38  19  38  1   
 39  19  39  1   
 40  19  40  1   
@<TRIPOS>SUBSTRUCTURE
  1 ****  10 GROUP 4 **** **** 0

# MOE 2024.06 (io_trps.svl 2023.06)
