@<TRIPOS>MOLECULE
NONAME
55 57 1 0 0 
SMALL
USER_CHARGES


@<TRIPOS>ATOM
  1 O       -1.8990    -0.7960    -1.5360 O.2   1 <1>  -0.5700 
  2 C       -1.5250    -0.8600    -0.3950 C.2   1 <1>   0.5690 
  3 N       -1.1730     0.2550     0.2660 N.am  1 <1>  -0.8000 
  4 C       -1.4550    -2.2220     0.2890 C.3   1 <1>  -0.0190 
  5 C       -0.4550    -3.1420    -0.4380 C.3   1 <1>  -0.1600 
  6 C       -2.8510    -2.8750     0.3360 C.3   1 <1>  -0.1600 
  7 C       -0.4780    -4.5690     0.1040 C.3   1 <1>   0.3430 
  8 C       -2.8050    -4.3090     0.8550 C.3   1 <1>   0.3430 
  9 N       -1.8640    -5.1090     0.0160 N.4   1 <1>  -0.9590 
 10 C       -1.8650    -6.5570     0.3820 C.3   1 <1>   0.3430 
 11 C       -3.1550    -7.2580    -0.0470 C.3   1 <1>  -0.0990 
 12 C       -3.0760    -8.7230     0.3240 C.2   1 <1>   0.5690 
 13 O       -2.1630    -9.0810     1.0270 O.2   1 <1>  -0.5700 
 14 N       -4.0170    -9.5990    -0.1290 N.am  1 <1>  -0.6600 
 15 C       -5.2330    -9.2940    -0.9290 C.3   1 <1>   0.1400 
 16 C       -3.9950   -11.0410     0.2310 C.3   1 <1>   0.1400 
 17 C       -6.1790   -10.4570    -0.6360 C.3   1 <1>   0.2000 
 18 C       -5.2360   -11.6490    -0.4380 C.3   1 <1>  -0.0800 
 19 O       -6.8410   -10.1800     0.5510 O.3   1 <1>  -0.6800 
 20 C       -5.8450   -12.8370     0.3320 C.3   1 <1>   0.0200 
 21 C       -4.9290   -14.0480     0.3830 C.2   1 <1>  -0.0400 
 22 O       -5.2800   -15.0650     1.1240 O.3   1 <1>  -0.0190 
 23 C       -3.7560   -14.3540    -0.1970 C.2   1 <1>  -0.1500 
 24 N       -4.4070   -16.0300     1.0760 N.2   1 <1>  -0.4100 
 25 C       -3.4770   -15.6290     0.2870 C.2   1 <1>   0.1080 
 26 C       -2.2530   -16.4490    -0.0530 C.3   1 <1>  -0.0590 
 27 H       -1.2310     1.1520    -0.2220 H     1 <1>   0.3700 
 28 H       -0.8450     0.2970     1.2310 H     1 <1>   0.3700 
 29 H       -1.1130    -2.0790     1.2990 H     1 <1>   0.0800 
 30 H        0.5380    -2.7410    -0.3330 H     1 <1>   0.0800 
 31 H       -0.6770    -3.1650    -1.4920 H     1 <1>   0.0800 
 32 H       -3.2900    -2.8740    -0.6480 H     1 <1>   0.0800 
 33 H       -3.4960    -2.2900     0.9700 H     1 <1>   0.0800 
 34 H       -0.1460    -4.5750     1.1300 H     1 <1>   0.0800 
 35 H        0.1950    -5.1810    -0.4750 H     1 <1>   0.0800 
 36 H       -3.7960    -4.7310     0.8130 H     1 <1>   0.0800 
 37 H       -2.4760    -4.3150     1.8820 H     1 <1>   0.0800 
 38 H       -2.1580    -5.0130    -0.9660 H     1 <1>   0.4500 
 39 H       -1.0370    -7.0540    -0.1000 H     1 <1>   0.0800 
 40 H       -1.7330    -6.6710     1.4470 H     1 <1>   0.0800 
 41 H       -3.2790    -7.1770    -1.1110 H     1 <1>   0.0800 
 42 H       -4.0040    -6.8360     0.4550 H     1 <1>   0.0800 
 43 H       -5.6780    -8.3510    -0.6610 H     1 <1>   0.0800 
 44 H       -4.9750    -9.2920    -1.9740 H     1 <1>   0.0800 
 45 H       -3.0870   -11.5030    -0.1180 H     1 <1>   0.0800 
 46 H       -4.0470   -11.1380     1.3030 H     1 <1>   0.0800 
 47 H       -6.9130   -10.6110    -1.4090 H     1 <1>   0.0800 
 48 H       -4.9450   -11.9930    -1.4150 H     1 <1>   0.0800 
 49 H       -6.1860   -10.0040     1.2550 H     1 <1>   0.4000 
 50 H       -6.7680   -13.1300    -0.1360 H     1 <1>   0.0800 
 51 H       -6.0730   -12.5440     1.3420 H     1 <1>   0.0800 
 52 H       -3.1440   -13.7910    -0.8760 H     1 <1>   0.1500 
 53 H       -1.6100   -15.9080    -0.7230 H     1 <1>   0.0800 
 54 H       -2.5560   -17.3680    -0.5210 H     1 <1>   0.0800 
 55 H       -1.7120   -16.6780     0.8470 H     1 <1>   0.0800 
@<TRIPOS>BOND
  1   1   2  2   
  2   2   3  am  
  3   2   4  1   
  4   3  27  1   
  5   3  28  1   
  6   4   5  1   
  7   4   6  1   
  8   4  29  1   
  9   5   7  1   
 10   5  30  1   
 11   5  31  1   
 12   6   8  1   
 13   6  32  1   
 14   6  33  1   
 15   7   9  1   
 16   7  34  1   
 17   7  35  1   
 18   8   9  1   
 19   8  36  1   
 20   8  37  1   
 21   9  10  1   
 22   9  38  1   
 23  10  11  1   
 24  10  39  1   
 25  10  40  1   
 26  11  12  1   
 27  11  41  1   
 28  11  42  1   
 29  12  13  2   
 30  12  14  am  
 31  14  15  1   
 32  14  16  1   
 33  15  17  1   
 34  15  43  1   
 35  15  44  1   
 36  16  18  1   
 37  16  45  1   
 38  16  46  1   
 39  17  18  1   
 40  17  19  1   
 41  17  47  1   
 42  18  20  1   
 43  18  48  1   
 44  19  49  1   
 45  20  21  1   
 46  20  50  1   
 47  20  51  1   
 48  21  22  1   
 49  21  23  2   
 50  22  24  1   
 51  23  25  1   
 52  23  52  1   
 53  24  25  2   
 54  25  26  1   
 55  26  53  1   
 56  26  54  1   
 57  26  55  1   
@<TRIPOS>SUBSTRUCTURE
  1 ****  12 GROUP 4 **** **** 0

# MOE 2024.06 (io_trps.svl 2023.06)
