@<TRIPOS>MOLECULE
NONAME
45 47 1 0 0 
SMALL
USER_CHARGES


@<TRIPOS>ATOM
  1 CL      -4.9020    -0.6190     4.5100 Cl    1 <1>  -0.1770 
  2 C       -4.5870    -0.7600     2.8000 C.ar  1 <1>   0.1770 
  3 C       -5.0720    -1.8520     2.1090 C.ar  1 <1>  -0.1500 
  4 C       -3.8570     0.2270     2.1660 C.ar  1 <1>  -0.1500 
  5 C       -4.8380    -1.9810     0.7410 C.ar  1 <1>   0.0860 
  6 C       -3.6060     0.1110     0.8100 C.ar  1 <1>  -0.1500 
  7 C       -5.3490    -3.1220     0.0060 C.2   1 <1>   0.5440 
  8 C       -4.0900    -0.9830     0.1130 C.ar  1 <1>  -0.1500 
  9 O       -5.0490    -4.2400     0.3790 O.2   1 <1>  -0.5700 
 10 N       -6.1670    -2.9860    -1.0990 N.am  1 <1>  -0.6600 
 11 C       -6.4950    -4.1760    -1.9390 C.3   1 <1>   0.1400 
 12 C       -6.9020    -1.7360    -1.4270 C.3   1 <1>   0.1400 
 13 C       -7.8040    -4.8290    -1.4760 C.3   1 <1>   0.1400 
 14 C       -8.4140    -1.9120    -1.2670 C.3   1 <1>  -0.1600 
 15 N       -9.0390    -4.2300    -2.0920 N.am  1 <1>  -0.6600 
 16 C       -9.0500    -2.7590    -2.3750 C.3   1 <1>   0.1400 
 17 C      -10.1620    -4.9720    -2.3980 C.2   1 <1>   0.5690 
 18 O      -11.0870    -4.4870    -3.0100 O.2   1 <1>  -0.5700 
 19 C      -10.3180    -6.4390    -2.0140 C.3   1 <1>   0.0810 
 20 C      -10.5920    -6.6220    -0.5330 C.2   1 <1>  -0.0400 
 21 O       -9.6150    -6.5730     0.3320 O.3   1 <1>  -0.0190 
 22 C      -11.7280    -6.8520     0.1420 C.2   1 <1>  -0.1500 
 23 N      -10.0350    -6.7550     1.5500 N.2   1 <1>  -0.4100 
 24 C      -11.3060    -6.9240     1.4670 C.2   1 <1>   0.1080 
 25 C      -12.2110    -7.1660     2.6540 C.3   1 <1>  -0.0590 
 26 H       -5.6310    -2.6110     2.6270 H     1 <1>   0.1500 
 27 H       -3.4900     1.0680     2.7290 H     1 <1>   0.1500 
 28 H       -3.0320     0.8680     0.3020 H     1 <1>   0.1500 
 29 H       -3.8850    -1.0750    -0.9400 H     1 <1>   0.1500 
 30 H       -5.7030    -4.8990    -1.8410 H     1 <1>   0.0800 
 31 H       -6.5530    -3.9050    -2.9780 H     1 <1>   0.0800 
 32 H       -6.6670    -1.4410    -2.4350 H     1 <1>   0.0800 
 33 H       -6.5900    -0.9400    -0.7750 H     1 <1>   0.0800 
 34 H       -7.8670    -4.7670    -0.4020 H     1 <1>   0.0800 
 35 H       -7.7420    -5.8690    -1.7340 H     1 <1>   0.0800 
 36 H       -8.8500    -0.9320    -1.3310 H     1 <1>   0.0800 
 37 H       -8.6600    -2.3030    -0.2950 H     1 <1>   0.0800 
 38 H       -8.5610    -2.5750    -3.3150 H     1 <1>   0.0800 
 39 H      -10.0700    -2.4300    -2.4810 H     1 <1>   0.0800 
 40 H       -9.4570    -7.0050    -2.3090 H     1 <1>   0.0800 
 41 H      -11.1540    -6.8350    -2.5590 H     1 <1>   0.0800 
 42 H      -12.7350    -6.9560    -0.2170 H     1 <1>   0.1500 
 43 H      -12.7110    -8.1100     2.5450 H     1 <1>   0.0800 
 44 H      -12.9410    -6.3810     2.7200 H     1 <1>   0.0800 
 45 H      -11.6320    -7.1800     3.5590 H     1 <1>   0.0800 
@<TRIPOS>BOND
  1   1   2  1   
  2   2   3  ar  
  3   2   4  ar  
  4   3   5  ar  
  5   3  26  1   
  6   4   6  ar  
  7   4  27  1   
  8   5   7  1   
  9   5   8  ar  
 10   6   8  ar  
 11   6  28  1   
 12   7   9  2   
 13   7  10  am  
 14   8  29  1   
 15  10  11  1   
 16  10  12  1   
 17  11  13  1   
 18  11  30  1   
 19  11  31  1   
 20  12  14  1   
 21  12  32  1   
 22  12  33  1   
 23  13  15  1   
 24  13  34  1   
 25  13  35  1   
 26  14  16  1   
 27  14  36  1   
 28  14  37  1   
 29  15  16  1   
 30  15  17  am  
 31  16  38  1   
 32  16  39  1   
 33  17  18  2   
 34  17  19  1   
 35  19  20  1   
 36  19  40  1   
 37  19  41  1   
 38  20  21  1   
 39  20  22  2   
 40  21  23  1   
 41  22  24  1   
 42  22  42  1   
 43  23  24  2   
 44  24  25  1   
 45  25  43  1   
 46  25  44  1   
 47  25  45  1   
@<TRIPOS>SUBSTRUCTURE
  1 ****  13 GROUP 4 **** **** 0

# MOE 2024.06 (io_trps.svl 2023.06)
