@<TRIPOS>MOLECULE
NONAME
42 44 1 0 0 
SMALL
USER_CHARGES


@<TRIPOS>ATOM
  1 S       -0.1180    -0.0620    -0.3040 S.o2  1 <1>   1.3330 
  2 O       -0.5000     0.4150    -1.6130 O.2   1 <1>  -0.6500 
  3 O        1.1320    -0.7500    -0.1070 O.2   1 <1>  -0.6500 
  4 N       -1.2830    -1.1550     0.1960 N.am  1 <1>  -0.9140 
  5 C       -0.2810     1.2710     0.8920 C.3   1 <1>  -0.0550 
  6 C       -1.8130    -1.9870    -0.8810 C.3   1 <1>   0.2760 
  7 C        0.7120     2.4290     0.6910 C.3   1 <1>  -0.2400 
  8 C       -3.0000    -2.8010    -0.3790 C.3   1 <1>  -0.0800 
  9 C       -0.8370    -3.1170    -1.2050 C.3   1 <1>   0.1200 
 10 C       -2.3400    -4.0310     0.2560 C.3   1 <1>   0.1200 
 11 C       -3.9820    -2.0630     0.5530 C.3   1 <1>  -0.0160 
 12 O       -1.0090    -4.0340    -0.1680 O.3   1 <1>  -0.5600 
 13 C       -5.1680    -2.9530     0.9100 C.ar  1 <1>  -0.1440 
 14 C       -6.2400    -3.1870     0.0160 C.ar  1 <1>   0.0000 
 15 C       -5.2180    -3.5650     2.1280 C.ar  1 <1>  -0.1500 
 16 C       -7.2720    -4.0580     0.4420 C.ar  1 <1>   0.3100 
 17 C       -6.3510    -2.6090    -1.2710 C.ar  1 <1>  -0.1500 
 18 C       -6.2910    -4.4010     2.4540 C.ar  1 <1>   0.1600 
 19 N       -7.2820    -4.6550     1.6600 N.ar  1 <1>  -0.6200 
 20 C       -8.3420    -4.3220    -0.4280 C.ar  1 <1>  -0.1500 
 21 C       -7.4090    -2.8860    -2.0940 C.ar  1 <1>  -0.1500 
 22 C       -8.4170    -3.7550    -1.6710 C.ar  1 <1>  -0.1500 
 23 H       -0.7610    -1.8180     0.7750 H     1 <1>   0.4200 
 24 H       -1.2790     1.6620     0.8380 H     1 <1>   0.0800 
 25 H       -0.1430     0.8700     1.8780 H     1 <1>   0.0800 
 26 H       -2.0770    -1.4000    -1.7460 H     1 <1>   0.0800 
 27 H        0.5760     2.8680    -0.2820 H     1 <1>   0.0800 
 28 H        1.7230     2.0680     0.7670 H     1 <1>   0.0800 
 29 H        0.5570     3.1870     1.4380 H     1 <1>   0.0800 
 30 H       -3.5420    -3.1470    -1.2400 H     1 <1>   0.0800 
 31 H        0.1920    -2.8070    -1.2510 H     1 <1>   0.0800 
 32 H       -1.1080    -3.6030    -2.1250 H     1 <1>   0.0800 
 33 H       -2.8120    -4.9450    -0.0640 H     1 <1>   0.0800 
 34 H       -2.3400    -3.9790     1.3310 H     1 <1>   0.0800 
 35 H       -4.3280    -1.1580     0.0860 H     1 <1>   0.0800 
 36 H       -3.4770    -1.7700     1.4570 H     1 <1>   0.0800 
 37 H       -4.4440    -3.4280     2.8620 H     1 <1>   0.1500 
 38 H       -5.5920    -1.9340    -1.6150 H     1 <1>   0.1500 
 39 H       -6.2920    -4.8660     3.4260 H     1 <1>   0.1500 
 40 H       -9.1070    -4.9910    -0.0800 H     1 <1>   0.1500 
 41 H       -7.4810    -2.4410    -3.0720 H     1 <1>   0.1500 
 42 H       -9.2430    -3.9670    -2.3270 H     1 <1>   0.1500 
@<TRIPOS>BOND
  1   1   2  2   
  2   1   3  2   
  3   1   4  am  
  4   1   5  1   
  5   4   6  1   
  6   4  23  1   
  7   5   7  1   
  8   5  24  1   
  9   5  25  1   
 10   6   8  1   
 11   6   9  1   
 12   6  26  1   
 13   7  27  1   
 14   7  28  1   
 15   7  29  1   
 16   8  10  1   
 17   8  11  1   
 18   8  30  1   
 19   9  12  1   
 20   9  31  1   
 21   9  32  1   
 22  10  12  1   
 23  10  33  1   
 24  10  34  1   
 25  11  13  1   
 26  11  35  1   
 27  11  36  1   
 28  13  14  ar  
 29  13  15  ar  
 30  14  16  ar  
 31  14  17  ar  
 32  15  18  ar  
 33  15  37  1   
 34  16  19  ar  
 35  16  20  ar  
 36  17  21  ar  
 37  17  38  1   
 38  18  19  ar  
 39  18  39  1   
 40  20  22  ar  
 41  20  40  1   
 42  21  22  ar  
 43  21  41  1   
 44  22  42  1   
@<TRIPOS>SUBSTRUCTURE
  1 ****  11 GROUP 4 **** **** 0

# MOE 2024.06 (io_trps.svl 2023.06)
