@<TRIPOS>MOLECULE
NONAME
50 54 1 0 0 
SMALL
USER_CHARGES


@<TRIPOS>ATOM
  1 O       -0.5970    -2.1100     2.2000 O.2   1 <1>  -0.5700 
  2 C       -0.2150    -1.5350     1.2100 C.2   1 <1>   0.5690 
  3 N       -0.7740    -1.8190    -0.0200 N.am  1 <1>  -0.6600 
  4 C        0.8640    -0.4860     1.4050 C.3   1 <1>   0.1570 
  5 C       -0.4850    -1.1080    -1.3090 C.3   1 <1>   0.1400 
  6 C       -2.1060    -2.4910    -0.0670 C.3   1 <1>   0.1400 
  7 N        0.4030     0.8490     0.9630 N.pl3 1 <1>   0.3140 
  8 C       -1.6370    -0.1380    -1.7010 C.3   1 <1>   0.4230 
  9 C       -3.2250    -1.4340    -0.2060 C.3   1 <1>   0.3430 
 10 N       -0.8640     1.2860     1.1130 N.2   1 <1>  -0.7070 
 11 C        1.1680     1.7410     0.3210 C.2   1 <1>  -0.3020 
 12 N       -2.7180    -0.0780    -0.6470 N.4   1 <1>  -0.9590 
 13 C       -2.2480    -0.4800    -3.0780 C.3   1 <1>   0.1200 
 14 C       -0.8510     2.5010     0.6060 C.ar  1 <1>   0.2890 
 15 C        0.3980     2.8290     0.0540 C.ar  1 <1>   0.0000 
 16 C       -3.7820     0.8820    -1.0620 C.3   1 <1>   0.5180 
 17 O       -3.2590     0.4320    -3.4020 O.3   1 <1>  -0.5600 
 18 C       -1.9040     3.4430     0.5430 C.ar  1 <1>  -0.1500 
 19 C        0.5790     4.0740    -0.5970 C.ar  1 <1>  -0.1500 
 20 C       -4.8630     0.9490     0.0350 C.3   1 <1>  -0.1950 
 21 C       -4.3110     0.5260    -2.4750 C.3   1 <1>   0.1200 
 22 C       -1.7140     4.6380    -0.0870 C.ar  1 <1>  -0.1500 
 23 C       -0.4610     4.9530    -0.6680 C.ar  1 <1>  -0.1500 
 24 C       -6.0630     0.0510     0.1120 C.3   1 <1>  -0.2000 
 25 C       -6.2320     1.5110    -0.2040 C.3   1 <1>  -0.2000 
 26 H        1.7400    -0.7660     0.8540 H     1 <1>   0.0800 
 27 H        1.1140    -0.4260     2.4470 H     1 <1>   0.0800 
 28 H        0.4370    -0.5590    -1.2480 H     1 <1>   0.0800 
 29 H       -0.3470    -1.8430    -2.0840 H     1 <1>   0.0800 
 30 H       -2.1360    -3.1630    -0.9070 H     1 <1>   0.0800 
 31 H       -2.2780    -3.0850     0.8160 H     1 <1>   0.0800 
 32 H       -1.2000     0.8430    -1.7960 H     1 <1>   0.0800 
 33 H       -3.7120    -1.3310     0.7500 H     1 <1>   0.0800 
 34 H       -3.9610    -1.8000    -0.9010 H     1 <1>   0.0800 
 35 H        2.2060     1.5910     0.0830 H     1 <1>   0.1500 
 36 H       -2.2420     0.3340     0.1840 H     1 <1>   0.4500 
 37 H       -2.6620    -1.4730    -3.0890 H     1 <1>   0.0800 
 38 H       -1.4960    -0.4130    -3.8450 H     1 <1>   0.0800 
 39 H       -3.3410     1.8630    -1.1350 H     1 <1>   0.0800 
 40 H       -2.8340     3.1910     1.0160 H     1 <1>   0.1500 
 41 H        1.5430     4.2970    -1.0200 H     1 <1>   0.1500 
 42 H       -4.4210     1.2410     0.9720 H     1 <1>   0.1000 
 43 H       -4.9750     1.2970    -2.8230 H     1 <1>   0.0800 
 44 H       -4.8450    -0.4060    -2.4700 H     1 <1>   0.0800 
 45 H       -2.5000     5.3730    -0.1460 H     1 <1>   0.1500 
 46 H       -0.3510     5.9060    -1.1570 H     1 <1>   0.1500 
 47 H       -6.3030    -0.6490    -0.6700 H     1 <1>   0.1000 
 48 H       -6.3970    -0.2950     1.0770 H     1 <1>   0.1000 
 49 H       -6.6700     2.1460     0.5480 H     1 <1>   0.1000 
 50 H       -6.5660     1.7750    -1.1930 H     1 <1>   0.1000 
@<TRIPOS>BOND
  1   1   2  2   
  2   2   3  am  
  3   2   4  1   
  4   3   5  1   
  5   3   6  1   
  6   4   7  1   
  7   4  26  1   
  8   4  27  1   
  9   5   8  1   
 10   5  28  1   
 11   5  29  1   
 12   6   9  1   
 13   6  30  1   
 14   6  31  1   
 15   7  10  1   
 16   7  11  1   
 17   8  12  1   
 18   8  13  1   
 19   8  32  1   
 20   9  12  1   
 21   9  33  1   
 22   9  34  1   
 23  10  14  2   
 24  11  15  2   
 25  11  35  1   
 26  12  16  1   
 27  12  36  1   
 28  13  17  1   
 29  13  37  1   
 30  13  38  1   
 31  14  15  ar  
 32  14  18  ar  
 33  15  19  ar  
 34  16  20  1   
 35  16  21  1   
 36  16  39  1   
 37  17  21  1   
 38  18  22  ar  
 39  18  40  1   
 40  19  23  ar  
 41  19  41  1   
 42  20  24  1   
 43  20  25  1   
 44  20  42  1   
 45  21  43  1   
 46  21  44  1   
 47  22  23  ar  
 48  22  45  1   
 49  23  46  1   
 50  24  25  1   
 51  24  47  1   
 52  24  48  1   
 53  25  49  1   
 54  25  50  1   
@<TRIPOS>SUBSTRUCTURE
  1 ****  12 GROUP 4 **** **** 0

# MOE 2024.06 (io_trps.svl 2023.06)
