@<TRIPOS>MOLECULE
NONAME
49 51 1 0 0 
SMALL
USER_CHARGES


@<TRIPOS>ATOM
  1 S       -1.0310     0.4280     1.5660 S.3   1 <1>  -0.0800 
  2 C       -1.8140    -0.6940     0.4680 C.2   1 <1>  -0.1400 
  3 C       -0.6190     1.5160     0.2530 C.2   1 <1>  -0.1400 
  4 C       -1.7400    -0.2340    -0.7980 C.2   1 <1>  -0.1500 
  5 C       -2.3970    -1.9260     1.1300 C.3   1 <1>   0.5230 
  6 C       -1.0620     1.0200    -0.9170 C.2   1 <1>  -0.1500 
  7 C        0.1350     2.7790     0.6340 C.3   1 <1>   0.0200 
  8 N       -3.1390    -2.7330     0.1250 N.4   1 <1>  -0.9590 
  9 C        0.4450     3.6580    -0.5800 C.3   1 <1>  -0.2400 
 10 C       -3.2800    -4.1520     0.6340 C.3   1 <1>   0.3430 
 11 C       -4.4540    -2.0390    -0.1140 C.3   1 <1>   0.3430 
 12 C       -4.2550    -5.0120    -0.2270 C.3   1 <1>   0.4230 
 13 C       -5.4750    -2.9360    -0.8350 C.3   1 <1>  -0.1600 
 14 N       -4.4070    -6.4610     0.1600 N.4   1 <1>  -0.9590 
 15 C       -5.6400    -4.3460    -0.1990 C.3   1 <1>  -0.1060 
 16 C       -5.2250    -7.2570    -0.8100 C.3   1 <1>   0.3430 
 17 C       -3.1920    -7.2000     0.6060 C.3   1 <1>   0.2630 
 18 C       -5.9940    -4.3020     1.2970 C.2   1 <1>   0.9060 
 19 C       -6.6930    -5.1700    -1.0000 C.3   1 <1>  -0.1600 
 20 C       -6.0690    -6.3670    -1.7370 C.3   1 <1>  -0.1600 
 21 O       -6.0990    -5.3830     1.8840 O.co2 1 <1>  -0.9000 
 22 O       -5.8930    -3.2450     1.9140 O.co2 1 <1>  -0.9000 
 23 H       -2.1270    -0.7020    -1.6860 H     1 <1>   0.1500 
 24 H       -3.0590    -1.6370     1.9320 H     1 <1>   0.0800 
 25 H       -1.5900    -2.5030     1.5510 H     1 <1>   0.0800 
 26 H       -0.9400     1.4910    -1.8780 H     1 <1>   0.1500 
 27 H       -0.4560     3.3400     1.3380 H     1 <1>   0.0800 
 28 H        1.0560     2.5040     1.1190 H     1 <1>   0.0800 
 29 H       -2.5870    -2.7030    -0.7380 H     1 <1>   0.4500 
 30 H       -0.4670     3.9610    -1.0640 H     1 <1>   0.0800 
 31 H        1.0540     3.1200    -1.2840 H     1 <1>   0.0800 
 32 H        0.9770     4.5390    -0.2690 H     1 <1>   0.0800 
 33 H       -2.3110    -4.6210     0.6410 H     1 <1>   0.0800 
 34 H       -3.6480    -4.1260     1.6480 H     1 <1>   0.0800 
 35 H       -4.8710    -1.7290     0.8320 H     1 <1>   0.0800 
 36 H       -4.2970    -1.1410    -0.6890 H     1 <1>   0.0800 
 37 H       -3.8870    -4.9870    -1.2380 H     1 <1>   0.0800 
 38 H       -6.4250    -2.4290    -0.8010 H     1 <1>   0.0800 
 39 H       -5.1980    -3.0220    -1.8710 H     1 <1>   0.0800 
 40 H       -5.0470    -6.3800     1.0010 H     1 <1>   0.4500 
 41 H       -4.5840    -7.8790    -1.4140 H     1 <1>   0.0800 
 42 H       -5.8840    -7.9030    -0.2520 H     1 <1>   0.0800 
 43 H       -2.4820    -7.2810    -0.2000 H     1 <1>   0.0800 
 44 H       -3.4640    -8.1920     0.9270 H     1 <1>   0.0800 
 45 H       -2.7300    -6.6960     1.4390 H     1 <1>   0.0800 
 46 H       -7.4440    -5.5470    -0.3230 H     1 <1>   0.0800 
 47 H       -7.2150    -4.5480    -1.7080 H     1 <1>   0.0800 
 48 H       -5.4550    -6.0170    -2.5480 H     1 <1>   0.0800 
 49 H       -6.8500    -6.9660    -2.1730 H     1 <1>   0.0800 
@<TRIPOS>BOND
  1   1   2  1   
  2   1   3  1   
  3   2   4  2   
  4   2   5  1   
  5   3   6  2   
  6   3   7  1   
  7   4   6  1   
  8   4  23  1   
  9   5   8  1   
 10   5  24  1   
 11   5  25  1   
 12   6  26  1   
 13   7   9  1   
 14   7  27  1   
 15   7  28  1   
 16   8  10  1   
 17   8  11  1   
 18   8  29  1   
 19   9  30  1   
 20   9  31  1   
 21   9  32  1   
 22  10  12  1   
 23  10  33  1   
 24  10  34  1   
 25  11  13  1   
 26  11  35  1   
 27  11  36  1   
 28  12  14  1   
 29  12  15  1   
 30  12  37  1   
 31  13  15  1   
 32  13  38  1   
 33  13  39  1   
 34  14  16  1   
 35  14  17  1   
 36  14  40  1   
 37  15  18  1   
 38  15  19  1   
 39  16  20  1   
 40  16  41  1   
 41  16  42  1   
 42  17  43  1   
 43  17  44  1   
 44  17  45  1   
 45  18  21  ar  
 46  18  22  ar  
 47  19  20  1   
 48  19  46  1   
 49  19  47  1   
 50  20  48  1   
 51  20  49  1   
@<TRIPOS>SUBSTRUCTURE
  1 ****   8 GROUP 4 **** **** 0

# MOE 2024.06 (io_trps.svl 2023.06)
