@<TRIPOS>MOLECULE
NONAME
59 63 1 0 0 
SMALL
USER_CHARGES


@<TRIPOS>ATOM
  1 O       -1.9160    -1.7330     0.6460 O.2   1 <1>  -0.5700 
  2 C       -2.5780    -0.6990     0.7070 C.2   1 <1>   0.5410 
  3 C       -3.9710    -0.7380     1.0400 C.2   1 <1>  -0.1240 
  4 C       -1.9880     0.5690     0.4290 C.2   1 <1>  -0.1240 
  5 C       -4.6990     0.4190     1.0700 C.2   1 <1>  -0.0380 
  6 C       -4.5470    -2.1270     1.3400 C.3   1 <1>  -0.1020 
  7 C       -2.7470     1.6930     0.4830 C.2   1 <1>  -0.0500 
  8 C       -0.5050     0.6340     0.0810 C.3   1 <1>  -0.1020 
  9 N       -4.0830     1.6280     0.7980 N.pl3 1 <1>  -0.6000 
 10 C       -6.1940     0.4770     1.3650 C.3   1 <1>   0.4810 
 11 N       -6.9100     0.7480     0.0870 N.4   1 <1>  -0.9590 
 12 C       -8.3440     1.1180     0.3370 C.3   1 <1>   0.3430 
 13 C       -6.7940    -0.4090    -0.8520 C.3   1 <1>   0.3430 
 14 C       -9.0940     1.4710    -0.9590 C.3   1 <1>   0.1430 
 15 C       -7.4690    -0.0720    -2.1840 C.3   1 <1>  -0.1600 
 16 C      -10.5510     1.6680    -0.6160 C.ar  1 <1>   0.1670 
 17 C       -8.9400     0.3390    -1.9970 C.3   1 <1>  -0.1600 
 18 C       -8.7000     2.8550    -1.5430 C.3   1 <1>  -0.1600 
 19 N      -11.2460     0.8560     0.1380 N.ar  1 <1>  -0.6200 
 20 C      -11.0540     2.8050    -1.1640 C.ar  1 <1>  -0.1430 
 21 C      -10.0130     3.5440    -1.9670 C.3   1 <1>  -0.0170 
 22 C      -12.5250     1.2100     0.3370 C.ar  1 <1>   0.6200 
 23 C      -12.3690     3.1000    -0.9110 C.ar  1 <1>   0.1600 
 24 N      -13.1050     2.3110    -0.1620 N.ar  1 <1>  -0.6200 
 25 C      -13.3410     0.3360     1.1650 C.ar  1 <1>   0.0000 
 26 C      -13.1690    -1.0520     1.1560 C.ar  1 <1>  -0.1500 
 27 C      -14.3330     0.8440     2.0080 C.ar  1 <1>  -0.1500 
 28 C      -13.9390    -1.8840     1.9470 C.ar  1 <1>  -0.1500 
 29 C      -15.1060     0.0180     2.8020 C.ar  1 <1>  -0.1500 
 30 C      -14.9100    -1.3510     2.7740 C.ar  1 <1>  -0.1500 
 31 H       -4.0200    -2.5570     2.1750 H     1 <1>   0.0800 
 32 H       -4.3940    -2.7730     0.4920 H     1 <1>   0.0800 
 33 H       -5.5920    -2.1260     1.5760 H     1 <1>   0.0800 
 34 H       -2.3270     2.6680     0.2880 H     1 <1>   0.1500 
 35 H       -0.3100     0.0480    -0.8000 H     1 <1>   0.0800 
 36 H        0.0780     0.2330     0.8920 H     1 <1>   0.0800 
 37 H       -0.1910     1.6460    -0.1010 H     1 <1>   0.0800 
 38 H       -4.5730     2.5260     0.9100 H     1 <1>   0.4000 
 39 H       -6.3790     1.2690     2.0730 H     1 <1>   0.0800 
 40 H       -6.5430    -0.4430     1.7990 H     1 <1>   0.0800 
 41 H       -6.4220     1.5340    -0.3590 H     1 <1>   0.4500 
 42 H       -8.4040     1.9550     1.0130 H     1 <1>   0.0800 
 43 H       -8.8510     0.2860     0.8010 H     1 <1>   0.0800 
 44 H       -7.2670    -1.2770    -0.4220 H     1 <1>   0.0800 
 45 H       -5.7550    -0.6420    -1.0270 H     1 <1>   0.0800 
 46 H       -7.4250    -0.9380    -2.8220 H     1 <1>   0.0800 
 47 H       -6.9160     0.7090    -2.6760 H     1 <1>   0.0800 
 48 H       -9.3630     0.6410    -2.9410 H     1 <1>   0.0800 
 49 H       -9.4980    -0.5200    -1.6610 H     1 <1>   0.0800 
 50 H       -8.0170     2.7860    -2.3720 H     1 <1>   0.0800 
 51 H       -8.2450     3.4570    -0.7750 H     1 <1>   0.0800 
 52 H      -10.2000     3.4010    -3.0170 H     1 <1>   0.0800 
 53 H      -10.0040     4.5970    -1.7390 H     1 <1>   0.0800 
 54 H      -12.8230     3.9860    -1.3220 H     1 <1>   0.1500 
 55 H      -12.4230    -1.4850     0.5140 H     1 <1>   0.1500 
 56 H      -14.5010     1.9070     2.0390 H     1 <1>   0.1500 
 57 H      -13.7860    -2.9490     1.9200 H     1 <1>   0.1500 
 58 H      -15.8630     0.4390     3.4410 H     1 <1>   0.1500 
 59 H      -15.5110    -1.9960     3.3910 H     1 <1>   0.1500 
@<TRIPOS>BOND
  1   1   2  2   
  2   2   3  1   
  3   2   4  1   
  4   3   5  2   
  5   3   6  1   
  6   4   7  2   
  7   4   8  1   
  8   5   9  1   
  9   5  10  1   
 10   6  31  1   
 11   6  32  1   
 12   6  33  1   
 13   7   9  1   
 14   7  34  1   
 15   8  35  1   
 16   8  36  1   
 17   8  37  1   
 18   9  38  1   
 19  10  11  1   
 20  10  39  1   
 21  10  40  1   
 22  11  12  1   
 23  11  13  1   
 24  11  41  1   
 25  12  14  1   
 26  12  42  1   
 27  12  43  1   
 28  13  15  1   
 29  13  44  1   
 30  13  45  1   
 31  14  16  1   
 32  14  17  1   
 33  14  18  1   
 34  15  17  1   
 35  15  46  1   
 36  15  47  1   
 37  16  19  ar  
 38  16  20  ar  
 39  17  48  1   
 40  17  49  1   
 41  18  21  1   
 42  18  50  1   
 43  18  51  1   
 44  19  22  ar  
 45  20  21  1   
 46  20  23  ar  
 47  21  52  1   
 48  21  53  1   
 49  22  24  ar  
 50  22  25  1   
 51  23  24  ar  
 52  23  54  1   
 53  25  26  ar  
 54  25  27  ar  
 55  26  28  ar  
 56  26  55  1   
 57  27  29  ar  
 58  27  56  1   
 59  28  30  ar  
 60  28  57  1   
 61  29  30  ar  
 62  29  58  1   
 63  30  59  1   
@<TRIPOS>SUBSTRUCTURE
  1 ****  12 GROUP 4 **** **** 0

# MOE 2024.06 (io_trps.svl 2023.06)
