@<TRIPOS>MOLECULE
NONAME
45 46 1 0 0 
SMALL
USER_CHARGES


@<TRIPOS>ATOM
  1 O       -0.5200     0.4160     0.8670 O.2   1 <1>  -0.5700 
  2 C       -1.4790     0.9300     0.3390 C.2   1 <1>   0.5690 
  3 N       -2.6130     0.2170     0.0760 N.am  1 <1>  -0.6600 
  4 C       -1.4210     2.3960    -0.0500 C.3   1 <1>  -0.0990 
  5 C       -3.8280     0.7030    -0.6250 C.3   1 <1>   0.1400 
  6 C       -2.7770    -1.2030     0.4520 C.3   1 <1>   0.1400 
  7 C       -0.1120     3.0630     0.3650 C.3   1 <1>   0.1200 
  8 C       -4.8170    -0.4720    -0.6030 C.3   1 <1>   0.2000 
  9 C       -3.9240    -1.7050    -0.4270 C.3   1 <1>  -0.0800 
 10 O       -0.1670     4.3930    -0.0380 O.3   1 <1>  -0.5600 
 11 O       -5.6590    -0.3640     0.5100 O.3   1 <1>  -0.5600 
 12 C       -4.6410    -2.9420     0.1440 C.3   1 <1>   0.0200 
 13 C        0.9660     5.1220     0.2900 C.3   1 <1>   0.1200 
 14 C       -6.7920     0.4260     0.3260 C.3   1 <1>   0.0400 
 15 C       -3.7780    -4.1920     0.1370 C.2   1 <1>  -0.0400 
 16 C        0.7570     6.5450    -0.2130 C.3   1 <1>  -0.2400 
 17 O       -4.2580    -5.2890     0.6630 O.3   1 <1>  -0.0190 
 18 C       -2.5440    -4.4660    -0.3180 C.2   1 <1>  -0.1500 
 19 N       -3.4140    -6.2770     0.5850 N.2   1 <1>  -0.4100 
 20 C       -2.3720    -5.8100     0.0000 C.2   1 <1>   0.1080 
 21 C       -1.1290    -6.6180    -0.2980 C.3   1 <1>  -0.0590 
 22 H       -1.5260     2.4720    -1.1150 H     1 <1>   0.0800 
 23 H       -2.2340     2.9090     0.4260 H     1 <1>   0.0800 
 24 H       -4.2330     1.5710    -0.1370 H     1 <1>   0.0800 
 25 H       -3.5690     0.9410    -1.6410 H     1 <1>   0.0800 
 26 H       -1.8650    -1.7520     0.2890 H     1 <1>   0.0800 
 27 H       -3.0460    -1.2550     1.4930 H     1 <1>   0.0800 
 28 H        0.7250     2.5850    -0.1140 H     1 <1>   0.0800 
 29 H        0.0080     3.0240     1.4350 H     1 <1>   0.0800 
 30 H       -5.4150    -0.5320    -1.4970 H     1 <1>   0.0800 
 31 H       -3.5160    -1.9540    -1.3910 H     1 <1>   0.0800 
 32 H       -5.5250    -3.1390    -0.4360 H     1 <1>   0.0800 
 33 H       -4.9540    -2.7470     1.1560 H     1 <1>   0.0800 
 34 H        1.0910     5.1110     1.3600 H     1 <1>   0.0800 
 35 H        1.8210     4.6720    -0.1870 H     1 <1>   0.0800 
 36 H       -7.3430     0.4370     1.2500 H     1 <1>   0.0800 
 37 H       -7.4020    -0.0020    -0.4510 H     1 <1>   0.0800 
 38 H       -6.4990     1.4290     0.0710 H     1 <1>   0.0800 
 39 H       -0.1070     6.9780     0.2580 H     1 <1>   0.0800 
 40 H        0.6200     6.5420    -1.2790 H     1 <1>   0.0800 
 41 H        1.6160     7.1450     0.0230 H     1 <1>   0.0800 
 42 H       -1.8280    -3.8390    -0.8140 H     1 <1>   0.1500 
 43 H       -0.9450    -6.6280    -1.3570 H     1 <1>   0.0800 
 44 H       -1.2590    -7.6300     0.0420 H     1 <1>   0.0800 
 45 H       -0.2840    -6.1860     0.2060 H     1 <1>   0.0800 
@<TRIPOS>BOND
  1   1   2  2   
  2   2   3  am  
  3   2   4  1   
  4   3   5  1   
  5   3   6  1   
  6   4   7  1   
  7   4  22  1   
  8   4  23  1   
  9   5   8  1   
 10   5  24  1   
 11   5  25  1   
 12   6   9  1   
 13   6  26  1   
 14   6  27  1   
 15   7  10  1   
 16   7  28  1   
 17   7  29  1   
 18   8   9  1   
 19   8  11  1   
 20   8  30  1   
 21   9  12  1   
 22   9  31  1   
 23  10  13  1   
 24  11  14  1   
 25  12  15  1   
 26  12  32  1   
 27  12  33  1   
 28  13  16  1   
 29  13  34  1   
 30  13  35  1   
 31  14  36  1   
 32  14  37  1   
 33  14  38  1   
 34  15  17  1   
 35  15  18  2   
 36  16  39  1   
 37  16  40  1   
 38  16  41  1   
 39  17  19  1   
 40  18  20  1   
 41  18  42  1   
 42  19  20  2   
 43  20  21  1   
 44  21  43  1   
 45  21  44  1   
 46  21  45  1   
@<TRIPOS>SUBSTRUCTURE
  1 ****   6 GROUP 4 **** **** 0

# MOE 2024.06 (io_trps.svl 2023.06)
