@<TRIPOS>MOLECULE
NONAME
56 58 1 0 0 
SMALL
USER_CHARGES


@<TRIPOS>ATOM
  1 O       -0.0180    -0.0420    -0.7060 O.2   1 <1>  -0.5700 
  2 C        0.9780    -0.5780    -0.2600 C.2   1 <1>   0.5440 
  3 N        1.9580     0.2070     0.2830 N.am  1 <1>  -0.7300 
  4 C        1.1250    -2.0220    -0.2870 C.ar  1 <1>   0.0860 
  5 C        1.9410     1.6830     0.3320 C.3   1 <1>   0.1400 
  6 C        0.0190    -2.8590    -0.1670 C.ar  1 <1>  -0.1500 
  7 C        2.3710    -2.6300    -0.4320 C.ar  1 <1>  -0.1500 
  8 C        3.3400     2.2050     0.0070 C.3   1 <1>  -0.1600 
  9 C        0.1190    -4.2400    -0.1730 C.ar  1 <1>   0.1000 
 10 C        2.5050    -4.0070    -0.4440 C.ar  1 <1>  -0.1500 
 11 C        3.3810     3.7380     0.0330 C.3   1 <1>  -0.1600 
 12 N       -1.0750    -4.9620    -0.0390 N.pl3 1 <1>  -0.8380 
 13 C        1.3890    -4.8270    -0.3140 C.ar  1 <1>   0.0830 
 14 C        4.7920     4.2540    -0.2880 C.3   1 <1>  -0.1600 
 15 C       -1.5000    -5.7380    -1.2390 C.3   1 <1>   0.2090 
 16 C       -1.2130    -5.7850     1.1970 C.3   1 <1>   0.2090 
 17 O        1.4860    -6.1880    -0.3230 O.3   1 <1>  -0.3620 
 18 C        4.8640     5.7840    -0.3300 C.3   1 <1>   0.2000 
 19 C       -2.9060    -6.3310    -1.0310 C.3   1 <1>   0.1200 
 20 C       -2.6320    -6.3740     1.2990 C.3   1 <1>   0.1200 
 21 C        2.7160    -6.8530    -0.5070 C.3   1 <1>   0.0400 
 22 O        6.1600     6.1540    -0.6460 O.3   1 <1>  -0.5600 
 23 C        4.5900     6.4780     0.9970 C.3   1 <1>  -0.1600 
 24 O       -2.9650    -7.0970     0.1430 O.3   1 <1>  -0.5600 
 25 C        6.4170     7.4540    -0.2170 C.3   1 <1>   0.1200 
 26 C        5.3960     7.7600     0.8770 C.3   1 <1>  -0.1600 
 27 H        2.7230    -0.2410     0.7870 H     1 <1>   0.3700 
 28 H        1.6400     2.0010     1.3150 H     1 <1>   0.0800 
 29 H        1.2300     2.0650    -0.3830 H     1 <1>   0.0800 
 30 H       -0.9570    -2.4200    -0.0650 H     1 <1>   0.1500 
 31 H        3.2480    -2.0180    -0.5470 H     1 <1>   0.1500 
 32 H        3.6220     1.8590    -0.9720 H     1 <1>   0.0800 
 33 H        4.0400     1.8190     0.7270 H     1 <1>   0.0800 
 34 H        3.4890    -4.4200    -0.5580 H     1 <1>   0.1500 
 35 H        3.0800     4.0860     1.0070 H     1 <1>   0.0800 
 36 H        2.6860     4.1270    -0.6920 H     1 <1>   0.0800 
 37 H        5.0940     3.8800    -1.2510 H     1 <1>   0.0800 
 38 H        5.4870     3.8900     0.4480 H     1 <1>   0.0800 
 39 H       -0.8030    -6.5360    -1.4250 H     1 <1>   0.0800 
 40 H       -1.5050    -5.0890    -2.0970 H     1 <1>   0.0800 
 41 H       -1.0140    -5.1700     2.0570 H     1 <1>   0.0800 
 42 H       -0.4980    -6.5890     1.1860 H     1 <1>   0.0800 
 43 H        4.2210     6.1750    -1.1000 H     1 <1>   0.0800 
 44 H       -3.1630    -6.9710    -1.8540 H     1 <1>   0.0800 
 45 H       -3.6340    -5.5420    -0.9620 H     1 <1>   0.0800 
 46 H       -3.3510    -5.5860     1.4300 H     1 <1>   0.0800 
 47 H       -2.6940    -7.0460     2.1360 H     1 <1>   0.0800 
 48 H        2.5270    -7.9110    -0.4930 H     1 <1>   0.0800 
 49 H        3.3780    -6.5910     0.2980 H     1 <1>   0.0800 
 50 H        3.1280    -6.5680    -1.4580 H     1 <1>   0.0800 
 51 H        4.9680     5.8790     1.8070 H     1 <1>   0.0800 
 52 H        3.5410     6.6610     1.1450 H     1 <1>   0.0800 
 53 H        6.3030     8.1160    -1.0580 H     1 <1>   0.0800 
 54 H        7.4280     7.4930     0.1510 H     1 <1>   0.0800 
 55 H        5.8790     8.0170     1.8030 H     1 <1>   0.0800 
 56 H        4.7720     8.5790     0.5660 H     1 <1>   0.0800 
@<TRIPOS>BOND
  1   1   2  2   
  2   2   3  am  
  3   2   4  1   
  4   3   5  1   
  5   3  27  1   
  6   4   6  ar  
  7   4   7  ar  
  8   5   8  1   
  9   5  28  1   
 10   5  29  1   
 11   6   9  ar  
 12   6  30  1   
 13   7  10  ar  
 14   7  31  1   
 15   8  11  1   
 16   8  32  1   
 17   8  33  1   
 18   9  12  1   
 19   9  13  ar  
 20  10  13  ar  
 21  10  34  1   
 22  11  14  1   
 23  11  35  1   
 24  11  36  1   
 25  12  15  1   
 26  12  16  1   
 27  13  17  1   
 28  14  18  1   
 29  14  37  1   
 30  14  38  1   
 31  15  19  1   
 32  15  39  1   
 33  15  40  1   
 34  16  20  1   
 35  16  41  1   
 36  16  42  1   
 37  17  21  1   
 38  18  22  1   
 39  18  23  1   
 40  18  43  1   
 41  19  24  1   
 42  19  44  1   
 43  19  45  1   
 44  20  24  1   
 45  20  46  1   
 46  20  47  1   
 47  21  48  1   
 48  21  49  1   
 49  21  50  1   
 50  22  25  1   
 51  23  26  1   
 52  23  51  1   
 53  23  52  1   
 54  25  26  1   
 55  25  53  1   
 56  25  54  1   
 57  26  55  1   
 58  26  56  1   
@<TRIPOS>SUBSTRUCTURE
  1 ****   2 GROUP 4 **** **** 0

# MOE 2024.06 (io_trps.svl 2023.06)
