@<TRIPOS>MOLECULE
NONAME
51 54 1 0 0 
SMALL
USER_CHARGES


@<TRIPOS>ATOM
  1 CL      -1.3490    -0.0570    -2.6270 Cl    1 <1>  -0.1770 
  2 C       -2.1690    -0.8620    -1.3010 C.ar  1 <1>   0.1770 
  3 C       -2.7920    -0.1170    -0.2910 C.ar  1 <1>   0.1000 
  4 C       -2.1760    -2.2400    -1.3080 C.ar  1 <1>  -0.1500 
  5 N       -2.7890     1.2810    -0.2820 N.pl3 1 <1>  -0.8380 
  6 C       -3.4150    -0.8420     0.7230 C.ar  1 <1>  -0.1500 
  7 C       -2.8190    -2.9610    -0.3030 C.ar  1 <1>   0.0860 
  8 C       -1.5090     2.0100    -0.1240 C.3   1 <1>   0.2090 
  9 C       -3.9240     2.1110     0.1920 C.3   1 <1>   0.2090 
 10 C       -3.4260    -2.2250     0.7160 C.ar  1 <1>  -0.1500 
 11 C       -2.8390    -4.4080    -0.3240 C.2   1 <1>   0.5440 
 12 C       -1.8560     3.2310     0.7190 C.3   1 <1>  -0.1600 
 13 C       -3.3270     3.4950     0.4140 C.3   1 <1>  -0.1600 
 14 O       -1.8050    -5.0210    -0.5140 O.2   1 <1>  -0.5700 
 15 N       -4.0050    -5.1200    -0.1510 N.am  1 <1>  -0.6600 
 16 C       -5.3690    -4.5690    -0.3490 C.3   1 <1>   0.1400 
 17 C       -4.0340    -6.6050    -0.1850 C.3   1 <1>   0.1400 
 18 C       -6.2490    -5.7850    -0.6420 C.3   1 <1>   0.2000 
 19 C       -5.5110    -6.9790    -0.0430 C.3   1 <1>  -0.0800 
 20 O       -7.5020    -5.6600    -0.0610 O.3   1 <1>  -0.6800 
 21 C       -5.8910    -8.3100    -0.7140 C.3   1 <1>  -0.0160 
 22 C       -5.1810    -9.4870    -0.0670 C.ar  1 <1>   0.1670 
 23 N       -3.9510    -9.7360    -0.4900 N.ar  1 <1>  -0.6200 
 24 C       -5.8280   -10.2270     0.9120 C.ar  1 <1>  -0.1500 
 25 C       -3.3410   -10.7590     0.0860 C.ar  1 <1>   0.1600 
 26 C       -5.1820   -11.2910     1.5030 C.ar  1 <1>  -0.1500 
 27 C       -3.9010   -11.5560     1.0710 C.ar  1 <1>  -0.1500 
 28 H       -1.6800    -2.7710    -2.1010 H     1 <1>   0.1500 
 29 H       -3.8840    -0.3200     1.5340 H     1 <1>   0.1500 
 30 H       -0.7640     1.3950     0.3520 H     1 <1>   0.0800 
 31 H       -1.1590     2.3160    -1.0950 H     1 <1>   0.0800 
 32 H       -4.7090     2.1340    -0.5450 H     1 <1>   0.0800 
 33 H       -4.3090     1.7280     1.1200 H     1 <1>   0.0800 
 34 H       -3.9040    -2.7540     1.5210 H     1 <1>   0.1500 
 35 H       -1.7350     2.9800     1.7580 H     1 <1>   0.0800 
 36 H       -1.2280     4.0710     0.4820 H     1 <1>   0.0800 
 37 H       -3.4150     4.0610    -0.4970 H     1 <1>   0.0800 
 38 H       -3.8240     4.0240     1.2070 H     1 <1>   0.0800 
 39 H       -5.6870    -4.0790     0.5540 H     1 <1>   0.0800 
 40 H       -5.3840    -3.8790    -1.1750 H     1 <1>   0.0800 
 41 H       -3.6390    -6.9430    -1.1290 H     1 <1>   0.0800 
 42 H       -3.4390    -7.0190     0.6120 H     1 <1>   0.0800 
 43 H       -6.3750    -5.8950    -1.7060 H     1 <1>   0.0800 
 44 H       -5.7200    -7.0390     1.0100 H     1 <1>   0.0800 
 45 H       -7.4210    -5.6030     0.9100 H     1 <1>   0.4000 
 46 H       -5.6400    -8.2820    -1.7600 H     1 <1>   0.0800 
 47 H       -6.9540    -8.4520    -0.6410 H     1 <1>   0.0800 
 48 H       -6.8290    -9.9740     1.2110 H     1 <1>   0.1500 
 49 H       -2.3400   -10.9750    -0.2450 H     1 <1>   0.1500 
 50 H       -5.6540   -11.8860     2.2660 H     1 <1>   0.1500 
 51 H       -3.3380   -12.3700     1.4900 H     1 <1>   0.1500 
@<TRIPOS>BOND
  1   1   2  1   
  2   2   3  ar  
  3   2   4  ar  
  4   3   5  1   
  5   3   6  ar  
  6   4   7  ar  
  7   4  28  1   
  8   5   8  1   
  9   5   9  1   
 10   6  10  ar  
 11   6  29  1   
 12   7  10  ar  
 13   7  11  1   
 14   8  12  1   
 15   8  30  1   
 16   8  31  1   
 17   9  13  1   
 18   9  32  1   
 19   9  33  1   
 20  10  34  1   
 21  11  14  2   
 22  11  15  am  
 23  12  13  1   
 24  12  35  1   
 25  12  36  1   
 26  13  37  1   
 27  13  38  1   
 28  15  16  1   
 29  15  17  1   
 30  16  18  1   
 31  16  39  1   
 32  16  40  1   
 33  17  19  1   
 34  17  41  1   
 35  17  42  1   
 36  18  19  1   
 37  18  20  1   
 38  18  43  1   
 39  19  21  1   
 40  19  44  1   
 41  20  45  1   
 42  21  22  1   
 43  21  46  1   
 44  21  47  1   
 45  22  23  ar  
 46  22  24  ar  
 47  23  25  ar  
 48  24  26  ar  
 49  24  48  1   
 50  25  27  ar  
 51  25  49  1   
 52  26  27  ar  
 53  26  50  1   
 54  27  51  1   
@<TRIPOS>SUBSTRUCTURE
  1 ****  15 GROUP 4 **** **** 0

# MOE 2024.06 (io_trps.svl 2023.06)
