@<TRIPOS>MOLECULE
NONAME
57 61 1 0 0 
SMALL
USER_CHARGES


@<TRIPOS>ATOM
  1 CL       1.5870    -0.9880     1.8830 Cl    1 <1>  -0.1770 
  2 C        2.2040     0.5080     1.2300 C.ar  1 <1>   0.1770 
  3 C        3.3330     0.4860     0.4390 C.ar  1 <1>  -0.1500 
  4 C        1.5510     1.6910     1.5230 C.ar  1 <1>  -0.1500 
  5 C        3.8520     1.6690    -0.0850 C.ar  1 <1>   0.0860 
  6 C        2.0400     2.8730     0.9980 C.ar  1 <1>  -0.1500 
  7 C        5.0690     1.6390    -0.8610 C.2   1 <1>   0.5440 
  8 C        3.1670     2.8620     0.1880 C.ar  1 <1>   0.0830 
  9 O        5.0310     1.2070    -1.9980 O.2   1 <1>  -0.5700 
 10 N        6.2670     2.0720    -0.3340 N.am  1 <1>  -0.6600 
 11 O        3.5760     4.0410    -0.3210 O.3   1 <1>  -0.3630 
 12 C        6.4190     2.3610     1.1850 C.3   1 <1>   0.1400 
 13 C        7.5490     2.1260    -1.2190 C.3   1 <1>   0.1400 
 14 C        3.3850     4.2360    -1.7090 C.3   1 <1>   0.1200 
 15 C        7.8160     1.8110     1.5980 C.3   1 <1>  -0.0800 
 16 C        8.7420     1.6500    -0.3270 C.3   1 <1>  -0.0800 
 17 C        3.7670     5.6650    -2.0850 C.3   1 <1>   0.0960 
 18 C        8.5340     2.8110     0.6700 C.3   1 <1>   0.2200 
 19 C        9.1870     1.1600     1.9770 C.3   1 <1>  -0.1600 
 20 C        9.8780     1.0770     0.5720 C.3   1 <1>  -0.1600 
 21 N        5.2140     5.8910    -1.9360 N.pl3 1 <1>   0.3140 
 22 N        9.6850     3.6220     1.2400 N.am  1 <1>  -0.7300 
 23 N        6.1160     5.2910    -2.7180 N.2   1 <1>  -0.4180 
 24 C        5.8270     6.7850    -1.1580 C.2   1 <1>  -0.3020 
 25 C        9.8260     4.9390     1.5140 C.2   1 <1>   0.5690 
 26 N        7.2760     5.7770    -2.4500 N.2   1 <1>  -0.2270 
 27 C        7.1210     6.7040    -1.4980 C.2   1 <1>   0.0460 
 28 O       10.7730     5.3030     2.1640 O.2   1 <1>  -0.5700 
 29 C        8.8510     5.9910     1.0180 C.3   1 <1>  -0.0990 
 30 C        8.2990     7.5010    -0.9690 C.3   1 <1>   0.0210 
 31 C        9.3450     6.5960    -0.3070 C.3   1 <1>  -0.1600 
 32 H        3.8210    -0.4490     0.2280 H     1 <1>   0.1500 
 33 H        0.6760     1.6800     2.1490 H     1 <1>   0.1500 
 34 H        1.5470     3.8060     1.2080 H     1 <1>   0.1500 
 35 H        6.2980     3.4140     1.3880 H     1 <1>   0.0800 
 36 H        5.6350     1.8550     1.7250 H     1 <1>   0.0800 
 37 H        7.4170     1.4740    -2.0680 H     1 <1>   0.0800 
 38 H        7.6910     3.1160    -1.6250 H     1 <1>   0.0800 
 39 H        3.9850     3.5350    -2.2610 H     1 <1>   0.0800 
 40 H        2.3460     4.0610    -1.9290 H     1 <1>   0.0800 
 41 H        7.3290     1.1330     2.2760 H     1 <1>   0.0800 
 42 H        8.9230     0.8570    -1.0300 H     1 <1>   0.0800 
 43 H        3.2290     6.3650    -1.4750 H     1 <1>   0.0800 
 44 H        3.5150     5.8400    -3.1140 H     1 <1>   0.0800 
 45 H        7.9410     3.6220     0.2770 H     1 <1>   0.0800 
 46 H        9.7440     1.6910     2.7310 H     1 <1>   0.0800 
 47 H        9.0530     0.1530     2.3430 H     1 <1>   0.0800 
 48 H       10.0750     0.0390     0.3530 H     1 <1>   0.0800 
 49 H       10.8190     1.5960     0.4870 H     1 <1>   0.0800 
 50 H       10.4420     3.0440     1.6040 H     1 <1>   0.3700 
 51 H        5.3230     7.4090    -0.4460 H     1 <1>   0.1500 
 52 H        7.8690     5.5760     0.9100 H     1 <1>   0.0800 
 53 H        8.7870     6.7670     1.7590 H     1 <1>   0.0800 
 54 H        8.7540     8.0150    -1.7970 H     1 <1>   0.0800 
 55 H        7.9550     8.2410    -0.2690 H     1 <1>   0.0800 
 56 H       10.2390     7.1640    -0.1150 H     1 <1>   0.0800 
 57 H        9.6070     5.8040    -0.9880 H     1 <1>   0.0800 
@<TRIPOS>BOND
  1   1   2  1   
  2   2   3  ar  
  3   2   4  ar  
  4   3   5  ar  
  5   3  32  1   
  6   4   6  ar  
  7   4  33  1   
  8   5   7  1   
  9   5   8  ar  
 10   6   8  ar  
 11   6  34  1   
 12   7   9  2   
 13   7  10  am  
 14   8  11  1   
 15  10  12  1   
 16  10  13  1   
 17  11  14  1   
 18  12  15  1   
 19  12  35  1   
 20  12  36  1   
 21  13  16  1   
 22  13  37  1   
 23  13  38  1   
 24  14  17  1   
 25  14  39  1   
 26  14  40  1   
 27  15  18  1   
 28  15  19  1   
 29  15  41  1   
 30  16  18  1   
 31  16  20  1   
 32  16  42  1   
 33  17  21  1   
 34  17  43  1   
 35  17  44  1   
 36  18  22  1   
 37  18  45  1   
 38  19  20  1   
 39  19  46  1   
 40  19  47  1   
 41  20  48  1   
 42  20  49  1   
 43  21  23  1   
 44  21  24  1   
 45  22  25  am  
 46  22  50  1   
 47  23  26  2   
 48  24  27  2   
 49  24  51  1   
 50  25  28  2   
 51  25  29  1   
 52  26  27  1   
 53  27  30  1   
 54  29  31  1   
 55  29  52  1   
 56  29  53  1   
 57  30  31  1   
 58  30  54  1   
 59  30  55  1   
 60  31  56  1   
 61  31  57  1   
@<TRIPOS>SUBSTRUCTURE
  1 ****  10 GROUP 4 **** **** 0

# MOE 2024.06 (io_trps.svl 2023.06)
