@<TRIPOS>MOLECULE
NONAME
57 59 1 0 0 
SMALL
USER_CHARGES


@<TRIPOS>ATOM
  1 CL      -3.7620    -3.4640     0.7300 Cl    1 <1>  -0.1240 
  2 C       -3.4050    -1.7660     0.5070 C.2   1 <1>  -0.0280 
  3 N       -2.3950    -1.1340     1.1300 N.pl3 1 <1>   0.3140 
  4 C       -4.0550    -0.8810    -0.2730 C.2   1 <1>  -0.1810 
  5 N       -2.3800     0.1650     0.7720 N.2   1 <1>  -0.7070 
  6 C       -1.4100    -1.7010     2.0620 C.3   1 <1>   0.0160 
  7 C       -3.3580     0.3100    -0.0700 C.2   1 <1>   0.1080 
  8 C       -5.2510    -1.1140    -1.1590 C.3   1 <1>   0.5240 
  9 C       -3.6470     1.6490    -0.7280 C.3   1 <1>   0.0210 
 10 N       -6.4600    -0.7040    -0.4090 N.4   1 <1>  -0.9590 
 11 C       -3.0830     1.7010    -2.1520 C.3   1 <1>  -0.2400 
 12 C       -6.7720    -1.7410     0.6440 C.3   1 <1>   0.3430 
 13 C       -7.5930    -0.5060    -1.3600 C.3   1 <1>   0.3430 
 14 C       -7.9330    -1.4010     1.6030 C.3   1 <1>   0.1400 
 15 C       -8.4590     0.6770    -0.9260 C.3   1 <1>  -0.1600 
 16 N       -9.1320    -0.8470     0.9010 N.am  1 <1>  -0.6600 
 17 C       -8.9890     0.5810     0.5090 C.3   1 <1>   0.1400 
 18 C      -10.2360    -1.5500     0.4790 C.2   1 <1>   0.5690 
 19 O      -11.0590    -1.0320    -0.2360 O.2   1 <1>  -0.5700 
 20 C      -10.5000    -2.9980     0.8420 C.3   1 <1>  -0.0990 
 21 C      -10.3050    -3.9140    -0.3740 C.3   1 <1>   0.0960 
 22 N       -8.8880    -4.2750    -0.5900 N.pl3 1 <1>   0.3140 
 23 N       -8.1090    -3.7240    -1.5460 N.2   1 <1>  -0.7070 
 24 C       -8.2450    -5.2810     0.0350 C.2   1 <1>  -0.3020 
 25 C       -7.0210    -4.4370    -1.5390 C.2   1 <1>   0.1390 
 26 C       -7.0400    -5.4160    -0.5540 C.2   1 <1>  -0.1810 
 27 C       -5.9560    -6.4320    -0.2510 C.3   1 <1>  -0.0590 
 28 H       -0.8260    -2.4430     1.5510 H     1 <1>   0.0800 
 29 H       -1.9210    -2.1470     2.8940 H     1 <1>   0.0800 
 30 H       -0.7650    -0.9160     2.4130 H     1 <1>   0.0800 
 31 H       -5.3170    -2.1540    -1.4340 H     1 <1>   0.0800 
 32 H       -5.1460    -0.5260    -2.0560 H     1 <1>   0.0800 
 33 H       -3.1870     2.4260    -0.1410 H     1 <1>   0.0800 
 34 H       -4.7040     1.8340    -0.7440 H     1 <1>   0.0800 
 35 H       -6.2480     0.1840     0.0540 H     1 <1>   0.4500 
 36 H       -2.0200     1.5340    -2.1250 H     1 <1>   0.0800 
 37 H       -3.2630     2.6680    -2.5860 H     1 <1>   0.0800 
 38 H       -3.5330     0.9500    -2.7750 H     1 <1>   0.0800 
 39 H       -5.8950    -1.9110     1.2460 H     1 <1>   0.0800 
 40 H       -6.9990    -2.6750     0.1670 H     1 <1>   0.0800 
 41 H       -8.2010    -1.3960    -1.4010 H     1 <1>   0.0800 
 42 H       -7.2230    -0.3160    -2.3540 H     1 <1>   0.0800 
 43 H       -7.5880    -0.6820     2.3270 H     1 <1>   0.0800 
 44 H       -8.1900    -2.2840     2.1570 H     1 <1>   0.0800 
 45 H       -9.3090     0.7120    -1.5850 H     1 <1>   0.0800 
 46 H       -7.9290     1.6030    -1.0580 H     1 <1>   0.0800 
 47 H       -9.9450     1.0760     0.5780 H     1 <1>   0.0800 
 48 H       -8.3200     1.0800     1.1890 H     1 <1>   0.0800 
 49 H      -11.5340    -3.0540     1.1300 H     1 <1>   0.0800 
 50 H       -9.9280    -3.3380     1.6800 H     1 <1>   0.0800 
 51 H      -10.6820    -3.4430    -1.2650 H     1 <1>   0.0800 
 52 H      -10.8540    -4.8250    -0.2260 H     1 <1>   0.0800 
 53 H       -8.6820    -5.8570     0.8310 H     1 <1>   0.1500 
 54 H       -6.2010    -4.2880    -2.2220 H     1 <1>   0.1500 
 55 H       -6.2410    -7.0410     0.5880 H     1 <1>   0.0800 
 56 H       -5.0300    -5.9380    -0.0210 H     1 <1>   0.0800 
 57 H       -5.8060    -7.0710    -1.1030 H     1 <1>   0.0800 
@<TRIPOS>BOND
  1   1   2  1   
  2   2   3  1   
  3   2   4  2   
  4   3   5  1   
  5   3   6  1   
  6   4   7  1   
  7   4   8  1   
  8   5   7  2   
  9   6  28  1   
 10   6  29  1   
 11   6  30  1   
 12   7   9  1   
 13   8  10  1   
 14   8  31  1   
 15   8  32  1   
 16   9  11  1   
 17   9  33  1   
 18   9  34  1   
 19  10  12  1   
 20  10  13  1   
 21  10  35  1   
 22  11  36  1   
 23  11  37  1   
 24  11  38  1   
 25  12  14  1   
 26  12  39  1   
 27  12  40  1   
 28  13  15  1   
 29  13  41  1   
 30  13  42  1   
 31  14  16  1   
 32  14  43  1   
 33  14  44  1   
 34  15  17  1   
 35  15  45  1   
 36  15  46  1   
 37  16  17  1   
 38  16  18  am  
 39  17  47  1   
 40  17  48  1   
 41  18  19  2   
 42  18  20  1   
 43  20  21  1   
 44  20  49  1   
 45  20  50  1   
 46  21  22  1   
 47  21  51  1   
 48  21  52  1   
 49  22  23  1   
 50  22  24  1   
 51  23  25  2   
 52  24  26  2   
 53  24  53  1   
 54  25  26  1   
 55  25  54  1   
 56  26  27  1   
 57  27  55  1   
 58  27  56  1   
 59  27  57  1   
@<TRIPOS>SUBSTRUCTURE
  1 ****  12 GROUP 4 **** **** 0

# MOE 2024.06 (io_trps.svl 2023.06)
