@<TRIPOS>MOLECULE
NONAME
51 54 1 0 0 
SMALL
USER_CHARGES


@<TRIPOS>ATOM
  1 O       -0.9330     0.6640     1.2260 O.2   1 <1>  -0.5700 
  2 C       -1.9100     1.1390     0.6800 C.2   1 <1>   0.5440 
  3 N       -3.1500     0.5830     0.9190 N.am  1 <1>  -0.6600 
  4 C       -1.7310     2.2610    -0.2160 C.ar  1 <1>   0.0860 
  5 C       -3.3740    -0.3860     2.0290 C.3   1 <1>   0.1400 
  6 C       -4.3140     0.7170    -0.0010 C.3   1 <1>   0.1400 
  7 C       -0.7660     2.2080    -1.2180 C.ar  1 <1>   0.1600 
  8 C       -2.4850     3.4230    -0.1220 C.ar  1 <1>  -0.1500 
  9 C       -3.6890    -1.7640     1.4430 C.3   1 <1>  -0.1600 
 10 C       -4.6310    -0.6510    -0.6080 C.3   1 <1>  -0.1600 
 11 N       -0.5200     3.1590    -2.1090 N.ar  1 <1>  -0.6200 
 12 C       -2.2410     4.4290    -1.0330 C.ar  1 <1>  -0.1500 
 13 C       -4.8790    -1.7160     0.4740 C.3   1 <1>   0.4240 
 14 C       -1.2620     4.2480    -1.9950 C.ar  1 <1>   0.1600 
 15 O       -5.9770    -1.2990     1.2530 O.3   1 <1>  -0.5600 
 16 C       -5.1190    -3.1060    -0.1550 C.ar  1 <1>  -0.1430 
 17 C       -7.2540    -1.5950     0.7800 C.3   1 <1>   0.1200 
 18 C       -6.3310    -3.7670    -0.0070 C.ar  1 <1>  -0.1430 
 19 C       -4.1190    -3.7260    -0.8920 C.ar  1 <1>  -0.1500 
 20 C       -7.4430    -3.1090     0.7860 C.3   1 <1>  -0.0170 
 21 C       -6.5310    -5.0130    -0.5790 C.ar  1 <1>  -0.1500 
 22 C       -4.2980    -4.9740    -1.4660 C.ar  1 <1>   0.0830 
 23 C       -5.5290    -5.6320    -1.3210 C.ar  1 <1>   0.0830 
 24 O       -3.2200    -5.4540    -2.1470 O.3   1 <1>  -0.3620 
 25 O       -5.7280    -6.8440    -1.9170 O.3   1 <1>  -0.3630 
 26 C       -2.9170    -6.8310    -2.1400 C.3   1 <1>   0.0400 
 27 C       -6.9940    -7.4650    -1.9520 C.3   1 <1>   0.0400 
 28 H       -4.1990    -0.0460     2.6320 H     1 <1>   0.0800 
 29 H       -2.5060    -0.4490     2.6620 H     1 <1>   0.0800 
 30 H       -4.1050     1.4130    -0.7930 H     1 <1>   0.0800 
 31 H       -5.1620     1.0810     0.5550 H     1 <1>   0.0800 
 32 H       -0.1640     1.3170    -1.2800 H     1 <1>   0.1500 
 33 H       -3.2330     3.5280     0.6450 H     1 <1>   0.1500 
 34 H       -3.9060    -2.4560     2.2350 H     1 <1>   0.0800 
 35 H       -2.8090    -2.1160     0.9380 H     1 <1>   0.0800 
 36 H       -3.7980    -0.9480    -1.2170 H     1 <1>   0.0800 
 37 H       -5.4840    -0.5790    -1.2560 H     1 <1>   0.0800 
 38 H       -2.8000     5.3470    -1.0000 H     1 <1>   0.1500 
 39 H       -1.0790     5.0380    -2.7040 H     1 <1>   0.1500 
 40 H       -7.3690    -1.1950    -0.2110 H     1 <1>   0.0800 
 41 H       -7.9660    -1.1250     1.4360 H     1 <1>   0.0800 
 42 H       -3.1670    -3.2470    -1.0350 H     1 <1>   0.1500 
 43 H       -8.3990    -3.3470     0.3570 H     1 <1>   0.0800 
 44 H       -7.4270    -3.4680     1.8000 H     1 <1>   0.0800 
 45 H       -7.4820    -5.4880    -0.4350 H     1 <1>   0.1500 
 46 H       -1.8750    -6.9460    -2.3770 H     1 <1>   0.0800 
 47 H       -3.5160    -7.3210    -2.8860 H     1 <1>   0.0800 
 48 H       -3.1210    -7.2320    -1.1630 H     1 <1>   0.0800 
 49 H       -6.9090    -8.3630    -2.5360 H     1 <1>   0.0800 
 50 H       -7.6990    -6.7950    -2.4130 H     1 <1>   0.0800 
 51 H       -7.2910    -7.7100    -0.9480 H     1 <1>   0.0800 
@<TRIPOS>BOND
  1   1   2  2   
  2   2   3  am  
  3   2   4  1   
  4   3   5  1   
  5   3   6  1   
  6   4   7  ar  
  7   4   8  ar  
  8   5   9  1   
  9   5  28  1   
 10   5  29  1   
 11   6  10  1   
 12   6  30  1   
 13   6  31  1   
 14   7  11  ar  
 15   7  32  1   
 16   8  12  ar  
 17   8  33  1   
 18   9  13  1   
 19   9  34  1   
 20   9  35  1   
 21  10  13  1   
 22  10  36  1   
 23  10  37  1   
 24  11  14  ar  
 25  12  14  ar  
 26  12  38  1   
 27  13  15  1   
 28  13  16  1   
 29  14  39  1   
 30  15  17  1   
 31  16  18  ar  
 32  16  19  ar  
 33  17  20  1   
 34  17  40  1   
 35  17  41  1   
 36  18  20  1   
 37  18  21  ar  
 38  19  22  ar  
 39  19  42  1   
 40  20  43  1   
 41  20  44  1   
 42  21  23  ar  
 43  21  45  1   
 44  22  23  ar  
 45  22  24  1   
 46  23  25  1   
 47  24  26  1   
 48  25  27  1   
 49  26  46  1   
 50  26  47  1   
 51  26  48  1   
 52  27  49  1   
 53  27  50  1   
 54  27  51  1   
@<TRIPOS>SUBSTRUCTURE
  1 ****  10 GROUP 4 **** **** 0

# MOE 2024.06 (io_trps.svl 2023.06)
