@<TRIPOS>MOLECULE
NONAME
39 40 1 0 0 
SMALL
USER_CHARGES


@<TRIPOS>ATOM
  1 O       -0.9230    -0.3400    -1.6650 O.2   1 <1>  -0.5700 
  2 C       -1.6590     0.2990    -0.9440 C.2   1 <1>   0.5690 
  3 N       -1.1580     1.0770     0.0800 N.am  1 <1>  -0.6600 
  4 C       -3.1750     0.2290    -1.2110 C.3   1 <1>   0.2700 
  5 C        0.2960     1.0720     0.4130 C.3   1 <1>   0.0600 
  6 C       -1.9760     1.9590     0.9570 C.3   1 <1>   0.0600 
  7 N       -3.6100    -0.9960    -1.9480 N.pl3 1 <1>  -0.8690 
  8 C       -4.5540    -1.8120    -1.4070 C.ar  1 <1>   0.4100 
  9 N       -4.1720    -3.0250    -1.1630 N.ar  1 <1>  -0.6200 
 10 C       -5.8470    -1.3290    -1.1400 C.ar  1 <1>  -0.1500 
 11 C       -5.0830    -3.8570    -0.6030 C.ar  1 <1>   0.3100 
 12 C       -6.7860    -2.1360    -0.5760 C.ar  1 <1>  -0.1430 
 13 C       -6.4060    -3.4650    -0.2820 C.ar  1 <1>   0.0000 
 14 C       -4.6850    -5.1710    -0.3250 C.ar  1 <1>  -0.1500 
 15 C       -8.1880    -1.6190    -0.2870 C.3   1 <1>  -0.0970 
 16 C       -7.2630    -4.4200     0.3050 C.ar  1 <1>  -0.1500 
 17 C       -5.5310    -6.0840     0.2460 C.ar  1 <1>   0.0820 
 18 C       -6.8430    -5.6970     0.5650 C.ar  1 <1>  -0.1500 
 19 O       -5.0500    -7.3300     0.4750 O.3   1 <1>  -0.3620 
 20 C       -5.8430    -8.3400     1.0580 C.3   1 <1>   0.0400 
 21 H       -3.4530     1.0920    -1.7880 H     1 <1>   0.0800 
 22 H       -3.6900     0.2670    -0.2690 H     1 <1>   0.0800 
 23 H        0.8250     0.3410    -0.1750 H     1 <1>   0.0800 
 24 H        0.4320     0.8330     1.4530 H     1 <1>   0.0800 
 25 H        0.7180     2.0410     0.2130 H     1 <1>   0.0800 
 26 H       -2.8870     2.2550     0.4690 H     1 <1>   0.0800 
 27 H       -1.4230     2.8500     1.1980 H     1 <1>   0.0800 
 28 H       -2.2140     1.4400     1.8700 H     1 <1>   0.0800 
 29 H       -2.7730    -1.5370    -2.2080 H     1 <1>   0.4000 
 30 H       -6.0590    -0.3120    -1.4070 H     1 <1>   0.1500 
 31 H       -3.6800    -5.4530    -0.5750 H     1 <1>   0.1500 
 32 H       -8.2860    -0.5910    -0.5850 H     1 <1>   0.0800 
 33 H       -8.3970    -1.6880     0.7660 H     1 <1>   0.0800 
 34 H       -8.9130    -2.1990    -0.8300 H     1 <1>   0.0800 
 35 H       -8.2690    -4.1370     0.5540 H     1 <1>   0.1500 
 36 H       -7.5250    -6.3950     1.0130 H     1 <1>   0.1500 
 37 H       -5.2450    -9.2300     1.1360 H     1 <1>   0.0800 
 38 H       -6.6930    -8.5250     0.4240 H     1 <1>   0.0800 
 39 H       -6.1520    -8.0200     2.0370 H     1 <1>   0.0800 
@<TRIPOS>BOND
  1   1   2  2   
  2   2   3  am  
  3   2   4  1   
  4   3   5  1   
  5   3   6  1   
  6   4   7  1   
  7   4  21  1   
  8   4  22  1   
  9   5  23  1   
 10   5  24  1   
 11   5  25  1   
 12   6  26  1   
 13   6  27  1   
 14   6  28  1   
 15   7   8  1   
 16   7  29  1   
 17   8   9  ar  
 18   8  10  ar  
 19   9  11  ar  
 20  10  12  ar  
 21  10  30  1   
 22  11  13  ar  
 23  11  14  ar  
 24  12  13  ar  
 25  12  15  1   
 26  13  16  ar  
 27  14  17  ar  
 28  14  31  1   
 29  15  32  1   
 30  15  33  1   
 31  15  34  1   
 32  16  18  ar  
 33  16  35  1   
 34  17  18  ar  
 35  17  19  1   
 36  18  36  1   
 37  19  20  1   
 38  20  37  1   
 39  20  38  1   
 40  20  39  1   
@<TRIPOS>SUBSTRUCTURE
  1 ****   9 GROUP 4 **** **** 0

# MOE 2024.06 (io_trps.svl 2023.06)
