@<TRIPOS>MOLECULE
NONAME
50 53 1 0 0 
SMALL
USER_CHARGES


@<TRIPOS>ATOM
  1 S        0.2260    -0.7290    -0.7540 S.o2  1 <1>   1.5760 
  2 O        1.3470    -1.6160    -0.9640 O.2   1 <1>  -0.6500 
  3 O       -0.7150    -0.4870    -1.8230 O.2   1 <1>  -0.6500 
  4 N       -0.6280    -1.2560     0.6040 N.am  1 <1>  -0.8490 
  5 N        0.8100     0.7480    -0.1870 N.am  1 <1>  -0.8490 
  6 C       -1.0250    -2.6750     0.5060 C.3   1 <1>   0.1960 
  7 C       -1.8110    -0.4260     0.9250 C.3   1 <1>   0.1960 
  8 C        1.8250     0.5580     0.8540 C.3   1 <1>   0.1960 
  9 C        1.3350     1.5550    -1.2900 C.3   1 <1>   0.1960 
 10 C       -2.2700    -2.9050    -0.3830 C.3   1 <1>   0.3440 
 11 C       -3.0730    -0.7510     0.0820 C.3   1 <1>   0.2950 
 12 C        2.2360     1.9120     1.4430 C.3   1 <1>  -0.1600 
 13 C        1.7360     2.9460    -0.7850 C.3   1 <1>  -0.1600 
 14 O       -3.3330    -2.1240     0.0910 O.3   1 <1>  -0.5600 
 15 C       -2.6670    -4.3780    -0.3650 C.ar  1 <1>  -0.1440 
 16 C       -4.3120    -0.0510     0.6490 C.3   1 <1>  -0.1950 
 17 C        2.7570     2.8570     0.3550 C.3   1 <1>  -0.1600 
 18 C       -2.1490    -5.2350    -1.3270 C.ar  1 <1>  -0.1500 
 19 C       -3.5250    -4.8900     0.5990 C.ar  1 <1>  -0.1500 
 20 C       -5.5090     0.2150    -0.2080 C.3   1 <1>  -0.2000 
 21 C       -4.6480     1.3550     0.2590 C.3   1 <1>  -0.2000 
 22 C       -2.4810    -6.5790    -1.3230 C.ar  1 <1>  -0.1500 
 23 C       -3.8580    -6.2340     0.6040 C.ar  1 <1>  -0.1500 
 24 C       -3.3350    -7.0800    -0.3570 C.ar  1 <1>  -0.1500 
 25 H       -0.2050    -3.2640     0.1330 H     1 <1>   0.0800 
 26 H       -1.2500    -3.0410     1.4920 H     1 <1>   0.0800 
 27 H       -2.0580    -0.5820     1.9600 H     1 <1>   0.0800 
 28 H       -1.5720     0.6170     0.8150 H     1 <1>   0.0800 
 29 H        1.4280    -0.0590     1.6430 H     1 <1>   0.0800 
 30 H        2.6880     0.0610     0.4420 H     1 <1>   0.0800 
 31 H        2.1860     1.0610    -1.7310 H     1 <1>   0.0800 
 32 H        0.5790     1.6680    -2.0500 H     1 <1>   0.0800 
 33 H       -2.0680    -2.6110    -1.3980 H     1 <1>   0.0800 
 34 H       -2.9400    -0.4420    -0.9390 H     1 <1>   0.0800 
 35 H        1.3820     2.3500     1.9300 H     1 <1>   0.0800 
 36 H        2.9980     1.7600     2.1870 H     1 <1>   0.0800 
 37 H        2.1490     3.5150    -1.5990 H     1 <1>   0.0800 
 38 H        0.8520     3.4550    -0.4430 H     1 <1>   0.0800 
 39 H       -4.5000    -0.3320     1.6710 H     1 <1>   0.1000 
 40 H        3.6900     2.4800    -0.0300 H     1 <1>   0.0800 
 41 H        2.9350     3.8350     0.7680 H     1 <1>   0.0800 
 42 H       -1.4840    -4.8610    -2.0860 H     1 <1>   0.1500 
 43 H       -3.9410    -4.2390     1.3490 H     1 <1>   0.1500 
 44 H       -5.4750    -0.0790    -1.2430 H     1 <1>   0.1000 
 45 H       -6.4860     0.0830     0.2240 H     1 <1>   0.1000 
 46 H       -5.0410     2.0230     1.0070 H     1 <1>   0.1000 
 47 H       -4.0410     1.8640    -0.4700 H     1 <1>   0.1000 
 48 H       -2.0740    -7.2350    -2.0730 H     1 <1>   0.1500 
 49 H       -4.5250    -6.6180     1.3550 H     1 <1>   0.1500 
 50 H       -3.5940    -8.1240    -0.3540 H     1 <1>   0.1500 
@<TRIPOS>BOND
  1   1   2  2   
  2   1   3  2   
  3   1   4  am  
  4   1   5  am  
  5   4   6  1   
  6   4   7  1   
  7   5   8  1   
  8   5   9  1   
  9   6  10  1   
 10   6  25  1   
 11   6  26  1   
 12   7  11  1   
 13   7  27  1   
 14   7  28  1   
 15   8  12  1   
 16   8  29  1   
 17   8  30  1   
 18   9  13  1   
 19   9  31  1   
 20   9  32  1   
 21  10  14  1   
 22  10  15  1   
 23  10  33  1   
 24  11  14  1   
 25  11  16  1   
 26  11  34  1   
 27  12  17  1   
 28  12  35  1   
 29  12  36  1   
 30  13  17  1   
 31  13  37  1   
 32  13  38  1   
 33  15  18  ar  
 34  15  19  ar  
 35  16  20  1   
 36  16  21  1   
 37  16  39  1   
 38  17  40  1   
 39  17  41  1   
 40  18  22  ar  
 41  18  42  1   
 42  19  23  ar  
 43  19  43  1   
 44  20  21  1   
 45  20  44  1   
 46  20  45  1   
 47  21  46  1   
 48  21  47  1   
 49  22  24  ar  
 50  22  48  1   
 51  23  24  ar  
 52  23  49  1   
 53  24  50  1   
@<TRIPOS>SUBSTRUCTURE
  1 ****   4 GROUP 4 **** **** 0

# MOE 2024.06 (io_trps.svl 2023.06)
