@<TRIPOS>MOLECULE
NONAME
55 58 1 0 0 
SMALL
USER_CHARGES


@<TRIPOS>ATOM
  1 O        0.4960     0.2710    -0.2840 O.2   1 <1>  -0.5700 
  2 C        1.4660    -0.3460     0.1110 C.2   1 <1>   0.7150 
  3 N        2.4830     0.3730     0.7310 N.am  1 <1>  -0.6600 
  4 C        1.5200    -1.7810    -0.0940 C.2   1 <1>   0.0550 
  5 C        3.5930    -0.2790     1.4850 C.3   1 <1>   0.1400 
  6 C        2.3950     1.8580     0.8580 C.3   1 <1>   0.1400 
  7 O        2.6660    -2.4090    -0.3410 O.3   1 <1>  -0.2800 
  8 C        0.5230    -2.6920    -0.1030 C.2   1 <1>   0.0460 
  9 C        4.8390    -0.4470     0.5940 C.3   1 <1>   0.3430 
 10 C        3.7440     2.5420     0.6150 C.3   1 <1>  -0.1600 
 11 C        2.2730    -3.6610    -0.4850 C.2   1 <1>   0.2980 
 12 N        1.0220    -3.8950    -0.3480 N.2   1 <1>  -0.5650 
 13 C       -0.9690    -2.5340     0.1120 C.3   1 <1>  -0.0590 
 14 N        5.5050     0.8410     0.1870 N.4   1 <1>  -0.9590 
 15 C        4.5940     1.8470    -0.4490 C.3   1 <1>   0.3430 
 16 C        3.3420    -4.6990    -0.7990 C.3   1 <1>   0.0200 
 17 C        6.6670     0.5560    -0.6990 C.3   1 <1>   0.4860 
 18 C        2.7990    -6.1300    -0.9350 C.3   1 <1>  -0.2400 
 19 C        7.5210     1.8050    -0.7870 C.ar  1 <1>  -0.1440 
 20 C        8.2970     2.1980     0.3000 C.ar  1 <1>  -0.1500 
 21 C        7.5250     2.5630    -1.9570 C.ar  1 <1>  -0.1500 
 22 C        9.0480     3.3530     0.2010 C.ar  1 <1>  -0.1440 
 23 C        8.2830     3.7190    -2.0440 C.ar  1 <1>  -0.1500 
 24 C        9.0350     4.0960    -0.9490 C.ar  1 <1>   0.0820 
 25 C        9.9650     4.0190     1.1850 C.3   1 <1>  -0.0170 
 26 O        9.8140     5.1850    -0.8810 O.3   1 <1>  -0.3620 
 27 C       10.4620     5.2360     0.3830 C.3   1 <1>   0.1200 
 28 H        3.2720    -1.2490     1.8270 H     1 <1>   0.0800 
 29 H        3.8350     0.2950     2.3630 H     1 <1>   0.0800 
 30 H        2.0200     2.1140     1.8350 H     1 <1>   0.0800 
 31 H        1.6910     2.2440     0.1370 H     1 <1>   0.0800 
 32 H        4.5470    -0.9920    -0.2880 H     1 <1>   0.0800 
 33 H        5.5510    -1.0550     1.1270 H     1 <1>   0.0800 
 34 H        4.2870     2.6440     1.5370 H     1 <1>   0.0800 
 35 H        3.5330     3.5410     0.2750 H     1 <1>   0.0800 
 36 H       -1.2250    -1.5220     0.3600 H     1 <1>   0.0800 
 37 H       -1.2880    -3.1780     0.9110 H     1 <1>   0.0800 
 38 H       -1.4920    -2.8140    -0.7850 H     1 <1>   0.0800 
 39 H        5.9000     1.2980     1.0170 H     1 <1>   0.4500 
 40 H        5.1850     2.6030    -0.9410 H     1 <1>   0.0800 
 41 H        3.9630     1.3800    -1.1880 H     1 <1>   0.0800 
 42 H        4.0770    -4.6790    -0.0160 H     1 <1>   0.0800 
 43 H        3.8230    -4.4210    -1.7190 H     1 <1>   0.0800 
 44 H        6.3290     0.2660    -1.6810 H     1 <1>   0.0800 
 45 H        7.2610    -0.2450    -0.2910 H     1 <1>   0.0800 
 46 H        2.3240    -6.4360    -0.0190 H     1 <1>   0.0800 
 47 H        3.5980    -6.8150    -1.1560 H     1 <1>   0.0800 
 48 H        2.0730    -6.1770    -1.7280 H     1 <1>   0.0800 
 49 H        8.3320     1.6270     1.2120 H     1 <1>   0.1500 
 50 H        6.9430     2.2660    -2.8140 H     1 <1>   0.1500 
 51 H        8.3030     4.3220    -2.9350 H     1 <1>   0.1500 
 52 H       10.7860     3.3780     1.4550 H     1 <1>   0.0800 
 53 H        9.4380     4.3320     2.0680 H     1 <1>   0.0800 
 54 H       11.5230     5.1930     0.2150 H     1 <1>   0.0800 
 55 H       10.1960     6.1630     0.8590 H     1 <1>   0.0800 
@<TRIPOS>BOND
  1   1   2  2   
  2   2   3  am  
  3   2   4  1   
  4   3   5  1   
  5   3   6  1   
  6   4   7  1   
  7   4   8  2   
  8   5   9  1   
  9   5  28  1   
 10   5  29  1   
 11   6  10  1   
 12   6  30  1   
 13   6  31  1   
 14   7  11  1   
 15   8  12  1   
 16   8  13  1   
 17   9  14  1   
 18   9  32  1   
 19   9  33  1   
 20  10  15  1   
 21  10  34  1   
 22  10  35  1   
 23  11  12  2   
 24  11  16  1   
 25  13  36  1   
 26  13  37  1   
 27  13  38  1   
 28  14  15  1   
 29  14  17  1   
 30  14  39  1   
 31  15  40  1   
 32  15  41  1   
 33  16  18  1   
 34  16  42  1   
 35  16  43  1   
 36  17  19  1   
 37  17  44  1   
 38  17  45  1   
 39  18  46  1   
 40  18  47  1   
 41  18  48  1   
 42  19  20  ar  
 43  19  21  ar  
 44  20  22  ar  
 45  20  49  1   
 46  21  23  ar  
 47  21  50  1   
 48  22  24  ar  
 49  22  25  1   
 50  23  24  ar  
 51  23  51  1   
 52  24  26  1   
 53  25  27  1   
 54  25  52  1   
 55  25  53  1   
 56  26  27  1   
 57  27  54  1   
 58  27  55  1   
@<TRIPOS>SUBSTRUCTURE
  1 ****  14 GROUP 4 **** **** 0

# MOE 2024.06 (io_trps.svl 2023.06)
