@<TRIPOS>MOLECULE
NONAME
54 57 1 0 0 
SMALL
USER_CHARGES


@<TRIPOS>ATOM
  1 O       -0.8780     1.0250     3.2400 O.3   1 <1>  -0.5600 
  2 C        0.3980     0.8850     2.6930 C.3   1 <1>   0.1200 
  3 C       -1.8490     0.9660     2.2360 C.3   1 <1>   0.1200 
  4 C        0.2930     1.4280     1.2720 C.3   1 <1>   0.2890 
  5 C       -1.1040     0.9520     0.8960 C.3   1 <1>  -0.0800 
  6 N        0.3580     2.9120     1.3240 N.pl3 1 <1>  -0.8690 
  7 C       -1.8170     1.7390    -0.2190 C.3   1 <1>  -0.0170 
  8 C        1.1070     3.8000     0.6550 C.ar  1 <1>   0.4100 
  9 C       -3.1710     1.1220    -0.5360 C.ar  1 <1>  -0.1430 
 10 N        1.0210     5.0310     1.0990 N.ar  1 <1>  -0.6200 
 11 C        1.9230     3.4530    -0.4370 C.ar  1 <1>  -0.1500 
 12 C       -4.3490     1.6510    -0.0460 C.ar  1 <1>  -0.1500 
 13 C       -3.2930    -0.0020    -1.3270 C.ar  1 <1>  -0.1500 
 14 C        1.7500     5.9610     0.4990 C.ar  1 <1>   0.7710 
 15 C        2.6570     4.4190    -1.0410 C.ar  1 <1>   0.2180 
 16 C       -5.5550     1.0440    -0.3570 C.ar  1 <1>   0.1600 
 17 C       -4.5490    -0.5310    -1.5790 C.ar  1 <1>   0.1600 
 18 N        2.5500     5.6740    -0.5420 N.ar  1 <1>  -0.1790 
 19 N        1.6890     7.2400     0.9430 N.pl3 1 <1>  -0.8380 
 20 C        3.5770     4.1680    -2.2290 C.3   1 <1>  -0.0170 
 21 N       -5.6830    -0.0360    -1.1100 N.ar  1 <1>  -0.6200 
 22 C        2.4550     8.4270     0.4730 C.3   1 <1>   0.2090 
 23 C        0.7990     7.6270     2.0750 C.3   1 <1>   0.2090 
 24 C        3.1220     4.9240    -3.4840 C.3   1 <1>  -0.2400 
 25 C        2.2230     9.4930     1.5350 C.3   1 <1>  -0.1600 
 26 C        0.8670     9.1460     2.1360 C.3   1 <1>  -0.1600 
 27 H        1.1100     1.4230     3.2940 H     1 <1>   0.0800 
 28 H        0.6380    -0.1640     2.6860 H     1 <1>   0.0800 
 29 H       -2.4430     0.0780     2.3740 H     1 <1>   0.0800 
 30 H       -2.4710     1.8380     2.3380 H     1 <1>   0.0800 
 31 H        1.0580     1.0210     0.6360 H     1 <1>   0.0800 
 32 H       -1.0290    -0.0760     0.5870 H     1 <1>   0.0800 
 33 H       -0.1880     3.2840     2.1120 H     1 <1>   0.4000 
 34 H       -1.2110     1.7360    -1.1070 H     1 <1>   0.0800 
 35 H       -1.9550     2.7650     0.0760 H     1 <1>   0.0800 
 36 H        1.9440     2.4340    -0.7720 H     1 <1>   0.1500 
 37 H       -4.3440     2.5280     0.5750 H     1 <1>   0.1500 
 38 H       -2.4270    -0.4740    -1.7520 H     1 <1>   0.1500 
 39 H       -6.4620     1.4710     0.0350 H     1 <1>   0.1500 
 40 H       -4.6240    -1.4080    -2.1980 H     1 <1>   0.1500 
 41 H        3.0510     6.4580    -0.9380 H     1 <1>   0.4570 
 42 H        4.5830     4.4570    -1.9760 H     1 <1>   0.0800 
 43 H        3.5950     3.1140    -2.4500 H     1 <1>   0.0800 
 44 H        3.5070     8.2150     0.3770 H     1 <1>   0.0800 
 45 H        2.0530     8.7640    -0.4690 H     1 <1>   0.0800 
 46 H       -0.2120     7.2880     1.9140 H     1 <1>   0.0800 
 47 H        1.1780     7.1980     2.9880 H     1 <1>   0.0800 
 48 H        3.1610     5.9890    -3.3420 H     1 <1>   0.0800 
 49 H        2.1160     4.6440    -3.7490 H     1 <1>   0.0800 
 50 H        3.7650     4.6750    -4.3120 H     1 <1>   0.0800 
 51 H        2.9870     9.4130     2.2890 H     1 <1>   0.0800 
 52 H        2.2440    10.4860     1.1210 H     1 <1>   0.0800 
 53 H        0.0780     9.5580     1.5310 H     1 <1>   0.0800 
 54 H        0.7590     9.5090     3.1440 H     1 <1>   0.0800 
@<TRIPOS>BOND
  1   1   2  1   
  2   1   3  1   
  3   2   4  1   
  4   2  27  1   
  5   2  28  1   
  6   3   5  1   
  7   3  29  1   
  8   3  30  1   
  9   4   5  1   
 10   4   6  1   
 11   4  31  1   
 12   5   7  1   
 13   5  32  1   
 14   6   8  1   
 15   6  33  1   
 16   7   9  1   
 17   7  34  1   
 18   7  35  1   
 19   8  10  ar  
 20   8  11  ar  
 21   9  12  ar  
 22   9  13  ar  
 23  10  14  ar  
 24  11  15  ar  
 25  11  36  1   
 26  12  16  ar  
 27  12  37  1   
 28  13  17  ar  
 29  13  38  1   
 30  14  18  ar  
 31  14  19  1   
 32  15  18  ar  
 33  15  20  1   
 34  16  21  ar  
 35  16  39  1   
 36  17  21  ar  
 37  17  40  1   
 38  18  41  1   
 39  19  22  1   
 40  19  23  1   
 41  20  24  1   
 42  20  42  1   
 43  20  43  1   
 44  22  25  1   
 45  22  44  1   
 46  22  45  1   
 47  23  26  1   
 48  23  46  1   
 49  23  47  1   
 50  24  48  1   
 51  24  49  1   
 52  24  50  1   
 53  25  26  1   
 54  25  51  1   
 55  25  52  1   
 56  26  53  1   
 57  26  54  1   
@<TRIPOS>SUBSTRUCTURE
  1 ****   6 GROUP 4 **** **** 0

# MOE 2024.06 (io_trps.svl 2023.06)
