@<TRIPOS>MOLECULE
NONAME
59 61 1 0 0 
SMALL
USER_CHARGES


@<TRIPOS>ATOM
  1 O        3.9280    -2.3760     1.4530 O.2   1 <1>  -0.5700 
  2 C        2.8130    -2.0890     1.0920 C.2   1 <1>   0.5690 
  3 N        2.5010    -1.4470    -0.0510 N.am  1 <1>  -0.6600 
  4 C        1.5800    -2.3710     1.9030 C.3   1 <1>  -0.0990 
  5 C        3.4940    -0.9230    -1.0340 C.3   1 <1>   0.2810 
  6 C        1.0650    -1.1360    -0.1630 C.3   1 <1>   0.1400 
  7 C        0.4260    -1.9320     0.9840 C.3   1 <1>  -0.1600 
  8 C        3.4210     0.6170    -1.1900 C.2   1 <1>   0.5690 
  9 C        3.3180    -1.6870    -2.3540 C.3   1 <1>  -0.2400 
 10 O        2.7250     1.0670    -2.0760 O.2   1 <1>  -0.5700 
 11 N        4.1190     1.4580    -0.3480 N.am  1 <1>  -0.6600 
 12 C        4.8370     0.9910     0.8810 C.3   1 <1>   0.1400 
 13 C        4.1090     2.9320    -0.5730 C.3   1 <1>   0.1400 
 14 C        6.3060     0.6510     0.5890 C.3   1 <1>   0.1400 
 15 C        5.4780     3.5900    -0.3500 C.3   1 <1>  -0.1600 
 16 N        7.1410     1.8620     0.2980 N.am  1 <1>  -0.6600 
 17 C        6.6670     2.7410    -0.8120 C.3   1 <1>   0.1400 
 18 C        8.3190     2.0920     0.9860 C.2   1 <1>   0.6160 
 19 O        8.7470     1.2320     1.7340 O.2   1 <1>  -0.5700 
 20 C        9.1020     3.2760     0.7940 C.2   1 <1>   0.0290 
 21 C        8.6500     4.4990     1.3760 C.2   1 <1>   0.6160 
 22 C       10.2740     3.2800     0.0790 C.2   1 <1>  -0.1500 
 23 O        7.6300     4.6250     2.0360 O.2   1 <1>  -0.5700 
 24 N        9.3990     5.6270     1.1770 N.am  1 <1>  -0.5390 
 25 C       11.0060     4.4740    -0.0950 C.2   1 <1>  -0.1500 
 26 C       10.5650     5.6440     0.4540 C.2   1 <1>  -0.0290 
 27 C       11.2690     6.9990     0.3360 C.3   1 <1>   0.0580 
 28 C       10.5000     7.9070    -0.6310 C.3   1 <1>  -0.2400 
 29 C       12.7340     6.8930    -0.1080 C.3   1 <1>  -0.2400 
 30 H        1.6100    -1.7810     2.8010 H     1 <1>   0.0800 
 31 H        1.5220    -3.4160     2.1490 H     1 <1>   0.0800 
 32 H        4.4770    -1.1650    -0.6750 H     1 <1>   0.0800 
 33 H        0.6770    -1.4440    -1.1190 H     1 <1>   0.0800 
 34 H        0.9130    -0.0770    -0.0320 H     1 <1>   0.0800 
 35 H       -0.3040    -1.3400     1.5080 H     1 <1>   0.0800 
 36 H       -0.0630    -2.7990     0.5750 H     1 <1>   0.0800 
 37 H        2.3560    -1.4820    -2.7880 H     1 <1>   0.0800 
 38 H        3.4190    -2.7430    -2.1860 H     1 <1>   0.0800 
 39 H        4.0740    -1.3760    -3.0520 H     1 <1>   0.0800 
 40 H        4.3510     0.1210     1.2760 H     1 <1>   0.0800 
 41 H        4.7910     1.7450     1.6470 H     1 <1>   0.0800 
 42 H        3.3810     3.3830     0.0790 H     1 <1>   0.0800 
 43 H        3.8030     3.1340    -1.5860 H     1 <1>   0.0800 
 44 H        6.3670    -0.0290    -0.2410 H     1 <1>   0.0800 
 45 H        6.6930     0.1350     1.4510 H     1 <1>   0.0800 
 46 H        5.5890     3.8480     0.6870 H     1 <1>   0.0800 
 47 H        5.4820     4.5140    -0.8990 H     1 <1>   0.0800 
 48 H        7.4620     3.3940    -1.1280 H     1 <1>   0.0800 
 49 H        6.3930     2.1390    -1.6620 H     1 <1>   0.0800 
 50 H       10.6510     2.3700    -0.3560 H     1 <1>   0.1500 
 51 H        9.0270     6.4650     1.6240 H     1 <1>   0.3700 
 52 H       11.9120     4.4190    -0.6720 H     1 <1>   0.1500 
 53 H       11.2640     7.4580     1.3100 H     1 <1>   0.0800 
 54 H       10.4750     7.4690    -1.6130 H     1 <1>   0.0800 
 55 H       10.9700     8.8720    -0.6940 H     1 <1>   0.0800 
 56 H        9.4880     8.0450    -0.2930 H     1 <1>   0.0800 
 57 H       12.8050     6.5170    -1.1130 H     1 <1>   0.0800 
 58 H       13.2740     6.2360     0.5510 H     1 <1>   0.0800 
 59 H       13.2010     7.8610    -0.0750 H     1 <1>   0.0800 
@<TRIPOS>BOND
  1   1   2  2   
  2   2   3  am  
  3   2   4  1   
  4   3   5  1   
  5   3   6  1   
  6   4   7  1   
  7   4  30  1   
  8   4  31  1   
  9   5   8  1   
 10   5   9  1   
 11   5  32  1   
 12   6   7  1   
 13   6  33  1   
 14   6  34  1   
 15   7  35  1   
 16   7  36  1   
 17   8  10  2   
 18   8  11  am  
 19   9  37  1   
 20   9  38  1   
 21   9  39  1   
 22  11  12  1   
 23  11  13  1   
 24  12  14  1   
 25  12  40  1   
 26  12  41  1   
 27  13  15  1   
 28  13  42  1   
 29  13  43  1   
 30  14  16  1   
 31  14  44  1   
 32  14  45  1   
 33  15  17  1   
 34  15  46  1   
 35  15  47  1   
 36  16  17  1   
 37  16  18  am  
 38  17  48  1   
 39  17  49  1   
 40  18  19  2   
 41  18  20  1   
 42  20  21  1   
 43  20  22  2   
 44  21  23  2   
 45  21  24  am  
 46  22  25  1   
 47  22  50  1   
 48  24  26  1   
 49  24  51  1   
 50  25  26  2   
 51  25  52  1   
 52  26  27  1   
 53  27  28  1   
 54  27  29  1   
 55  27  53  1   
 56  28  54  1   
 57  28  55  1   
 58  28  56  1   
 59  29  57  1   
 60  29  58  1   
 61  29  59  1   
@<TRIPOS>SUBSTRUCTURE
  1 ****  16 GROUP 4 **** **** 0

# MOE 2024.06 (io_trps.svl 2023.06)
