@<TRIPOS>MOLECULE
NONAME
48 49 1 0 0 
SMALL
USER_CHARGES


@<TRIPOS>ATOM
  1 O        2.0690     0.7260     1.9420 O.co2 1 <1>  -0.9000 
  2 C        2.1650     0.0760     0.8950 C.2   1 <1>   0.9060 
  3 O        2.0830    -1.1630     0.9100 O.co2 1 <1>  -0.9000 
  4 C        2.3980     0.7840    -0.4550 C.3   1 <1>  -0.1060 
  5 C        3.5320     0.0550    -1.2230 C.3   1 <1>   0.2000 
  6 C        2.8620     2.2570    -0.2580 C.3   1 <1>  -0.1600 
  7 C        1.0970     0.7260    -1.3010 C.3   1 <1>  -0.0160 
  8 O        3.2050    -1.2800    -1.4050 O.3   1 <1>  -0.6800 
  9 C        4.8810     0.1530    -0.4970 C.3   1 <1>   0.1400 
 10 C        4.2160     2.3580     0.4580 C.3   1 <1>   0.1400 
 11 C        0.0310     1.7580    -0.9350 C.ar  1 <1>  -0.1440 
 12 N        5.2490     1.5930    -0.3020 N.am  1 <1>  -0.6600 
 13 C       -0.2740     2.7910    -1.8090 C.ar  1 <1>  -0.1500 
 14 C       -0.6460     1.6750     0.2720 C.ar  1 <1>  -0.1500 
 15 C        6.4210     2.1080    -0.7910 C.2   1 <1>   0.5690 
 16 C       -1.2420     3.7260    -1.4830 C.ar  1 <1>  -0.1500 
 17 C       -1.6120     2.6090     0.6020 C.ar  1 <1>  -0.1500 
 18 O        7.1700     1.4510    -1.4780 O.2   1 <1>  -0.5700 
 19 C        6.8020     3.5500    -0.4980 C.3   1 <1>  -0.0990 
 20 C       -1.9110     3.6360    -0.2760 C.ar  1 <1>  -0.1500 
 21 C        8.2610     3.8570    -0.8450 C.3   1 <1>   0.1400 
 22 N        8.5390     5.2960    -0.6240 N.am  1 <1>  -0.7300 
 23 C        8.8320     5.8460     0.5790 C.2   1 <1>   0.5690 
 24 O        8.8360     5.2090     1.6010 O.2   1 <1>  -0.5700 
 25 C        9.1560     7.3160     0.6260 C.3   1 <1>  -0.1790 
 26 H        3.6520     0.4800    -2.2040 H     1 <1>   0.0800 
 27 H        2.1350     2.7850     0.3350 H     1 <1>   0.0800 
 28 H        2.9290     2.7540    -1.2080 H     1 <1>   0.0800 
 29 H        1.3500     0.8570    -2.3380 H     1 <1>   0.0800 
 30 H        0.6640    -0.2560    -1.2160 H     1 <1>   0.0800 
 31 H        2.7670    -1.5660    -0.5440 H     1 <1>   0.4000 
 32 H        5.6310    -0.3530    -1.0790 H     1 <1>   0.0800 
 33 H        4.8150    -0.3240     0.4660 H     1 <1>   0.0800 
 34 H        4.1410     1.9510     1.4530 H     1 <1>   0.0800 
 35 H        4.4790     3.3940     0.5520 H     1 <1>   0.0800 
 36 H        0.2420     2.8700    -2.7490 H     1 <1>   0.1500 
 37 H       -0.4150     0.8830     0.9670 H     1 <1>   0.1500 
 38 H       -1.4720     4.5230    -2.1670 H     1 <1>   0.1500 
 39 H       -2.1220     2.5320     1.5460 H     1 <1>   0.1500 
 40 H        6.1540     4.1910    -1.0650 H     1 <1>   0.0800 
 41 H        6.6650     3.7360     0.5500 H     1 <1>   0.0800 
 42 H       -2.6610     4.3620    -0.0170 H     1 <1>   0.1500 
 43 H        8.4620     3.6080    -1.8730 H     1 <1>   0.0800 
 44 H        8.9090     3.2630    -0.2210 H     1 <1>   0.0800 
 45 H        8.5460     5.8810    -1.4600 H     1 <1>   0.3700 
 46 H       10.0150     7.5170     0.0160 H     1 <1>   0.0800 
 47 H        9.3720     7.6060     1.6380 H     1 <1>   0.0800 
 48 H        8.3180     7.8840     0.2720 H     1 <1>   0.0800 
@<TRIPOS>BOND
  1   1   2  ar  
  2   2   3  ar  
  3   2   4  1   
  4   4   5  1   
  5   4   6  1   
  6   4   7  1   
  7   5   8  1   
  8   5   9  1   
  9   5  26  1   
 10   6  10  1   
 11   6  27  1   
 12   6  28  1   
 13   7  11  1   
 14   7  29  1   
 15   7  30  1   
 16   8  31  1   
 17   9  12  1   
 18   9  32  1   
 19   9  33  1   
 20  10  12  1   
 21  10  34  1   
 22  10  35  1   
 23  11  13  ar  
 24  11  14  ar  
 25  12  15  am  
 26  13  16  ar  
 27  13  36  1   
 28  14  17  ar  
 29  14  37  1   
 30  15  18  2   
 31  15  19  1   
 32  16  20  ar  
 33  16  38  1   
 34  17  20  ar  
 35  17  39  1   
 36  19  21  1   
 37  19  40  1   
 38  19  41  1   
 39  20  42  1   
 40  21  22  1   
 41  21  43  1   
 42  21  44  1   
 43  22  23  am  
 44  22  45  1   
 45  23  24  2   
 46  23  25  1   
 47  25  46  1   
 48  25  47  1   
 49  25  48  1   
@<TRIPOS>SUBSTRUCTURE
  1 ****   6 GROUP 4 **** **** 0

# MOE 2024.06 (io_trps.svl 2023.06)
