@<TRIPOS>MOLECULE
NONAME
45 47 1 0 0 
SMALL
USER_CHARGES


@<TRIPOS>ATOM
  1 F       -2.7610     0.9540    -0.7190 F     1 <1>  -0.1900 
  2 C       -1.7220     1.6590    -0.3610 C.ar  1 <1>   0.1900 
  3 C       -1.6740     3.0170    -0.6820 C.ar  1 <1>   0.0860 
  4 C       -0.7150     0.9990     0.3250 C.ar  1 <1>  -0.1500 
  5 C       -2.7390     3.6880    -1.3920 C.2   1 <1>   0.5440 
  6 C       -0.5300     3.7130    -0.2920 C.ar  1 <1>  -0.1500 
  7 C        0.4080     1.7110     0.7130 C.ar  1 <1>  -0.1500 
  8 O       -2.5040     4.1540    -2.4910 O.2   1 <1>  -0.5700 
  9 N       -3.9960     3.8460    -0.8470 N.am  1 <1>  -0.6600 
 10 C        0.4750     3.0560     0.3920 C.ar  1 <1>   0.1900 
 11 C       -4.3100     3.4940     0.5710 C.3   1 <1>   0.1400 
 12 C       -5.1160     4.3970    -1.6650 C.3   1 <1>   0.1400 
 13 F        1.5320     3.7300     0.7540 F     1 <1>  -0.1900 
 14 C       -5.4850     4.3280     1.0850 C.3   1 <1>  -0.1600 
 15 C       -6.4320     3.7620    -1.2180 C.3   1 <1>  -0.1600 
 16 C       -6.7710     4.1220     0.2490 C.3   1 <1>   0.2800 
 17 O       -7.3760     5.3960     0.1850 O.3   1 <1>  -0.5600 
 18 C       -7.7060     3.0690     0.9290 C.3   1 <1>   0.2000 
 19 C       -8.7070     5.5560     0.5840 C.3   1 <1>   0.1200 
 20 O       -7.1350     1.7860     0.9150 O.3   1 <1>  -0.6800 
 21 C       -9.1670     3.0850     0.3740 C.3   1 <1>   0.2800 
 22 C       -9.5690     4.4930    -0.0960 C.3   1 <1>  -0.1600 
 23 O      -10.0090     2.7630     1.4210 O.3   1 <1>  -0.6800 
 24 C       -9.4620     2.0480    -0.7190 C.3   1 <1>  -0.2400 
 25 H       -0.8110    -0.0490     0.5460 H     1 <1>   0.1500 
 26 H       -0.4310     4.7580    -0.5270 H     1 <1>   0.1500 
 27 H        1.2150     1.2400     1.2470 H     1 <1>   0.1500 
 28 H       -4.5560     2.4470     0.6300 H     1 <1>   0.0800 
 29 H       -3.4500     3.6750     1.1920 H     1 <1>   0.0800 
 30 H       -5.1570     5.4660    -1.5400 H     1 <1>   0.0800 
 31 H       -4.9490     4.1840    -2.7080 H     1 <1>   0.0800 
 32 H       -5.1880     5.3620     1.0550 H     1 <1>   0.0800 
 33 H       -5.6640     4.0760     2.1140 H     1 <1>   0.0800 
 34 H       -6.3260     2.7010    -1.3390 H     1 <1>   0.0800 
 35 H       -7.2210     4.0850    -1.8710 H     1 <1>   0.0800 
 36 H       -7.7630     3.3430     1.9680 H     1 <1>   0.0800 
 37 H       -8.7610     5.4810     1.6570 H     1 <1>   0.0800 
 38 H       -9.0170     6.5440     0.2880 H     1 <1>   0.0800 
 39 H       -7.3060     1.3540     0.0580 H     1 <1>   0.4000 
 40 H       -9.4270     4.5910    -1.1570 H     1 <1>   0.0800 
 41 H      -10.6090     4.6810     0.1040 H     1 <1>   0.0800 
 42 H      -10.9060     2.5870     1.0840 H     1 <1>   0.4000 
 43 H       -8.8050     2.1880    -1.5580 H     1 <1>   0.0800 
 44 H      -10.4720     2.1500    -1.0730 H     1 <1>   0.0800 
 45 H       -9.3270     1.0480    -0.3430 H     1 <1>   0.0800 
@<TRIPOS>BOND
  1   1   2  1   
  2   2   3  ar  
  3   2   4  ar  
  4   3   5  1   
  5   3   6  ar  
  6   4   7  ar  
  7   4  25  1   
  8   5   8  2   
  9   5   9  am  
 10   6  10  ar  
 11   6  26  1   
 12   7  10  ar  
 13   7  27  1   
 14   9  11  1   
 15   9  12  1   
 16  10  13  1   
 17  11  14  1   
 18  11  28  1   
 19  11  29  1   
 20  12  15  1   
 21  12  30  1   
 22  12  31  1   
 23  14  16  1   
 24  14  32  1   
 25  14  33  1   
 26  15  16  1   
 27  15  34  1   
 28  15  35  1   
 29  16  17  1   
 30  16  18  1   
 31  17  19  1   
 32  18  20  1   
 33  18  21  1   
 34  18  36  1   
 35  19  22  1   
 36  19  37  1   
 37  19  38  1   
 38  20  39  1   
 39  21  22  1   
 40  21  23  1   
 41  21  24  1   
 42  22  40  1   
 43  22  41  1   
 44  23  42  1   
 45  24  43  1   
 46  24  44  1   
 47  24  45  1   
@<TRIPOS>SUBSTRUCTURE
  1 ****  11 GROUP 4 **** **** 0

# MOE 2024.06 (io_trps.svl 2023.06)
