@<TRIPOS>MOLECULE
NONAME
56 58 1 0 0 
SMALL
USER_CHARGES


@<TRIPOS>ATOM
  1 O       -0.8710     0.4820    -0.7670 O.2   1 <1>  -0.5700 
  2 C       -1.8790     0.9710    -0.3150 C.2   1 <1>   0.5690 
  3 N       -2.9430     0.1820     0.0320 N.am  1 <1>  -0.6600 
  4 C       -1.9520     2.4940    -0.1500 C.3   1 <1>  -0.0190 
  5 C       -4.2860     0.6270     0.4810 C.3   1 <1>   0.1400 
  6 C       -2.9040    -1.2920    -0.1200 C.3   1 <1>   0.1400 
  7 C       -2.4340     3.1660    -1.4480 C.3   1 <1>  -0.1600 
  8 C       -0.6030     3.1040     0.2790 C.3   1 <1>  -0.1600 
  9 C       -5.1540    -0.6300     0.4290 C.3   1 <1>   0.2000 
 10 C       -4.1830    -1.8030     0.5450 C.3   1 <1>  -0.0800 
 11 C       -2.5100     4.6880    -1.3030 C.3   1 <1>   0.1400 
 12 C       -0.6880     4.6260     0.4170 C.3   1 <1>   0.1400 
 13 O       -6.0680    -0.6590     1.4700 O.3   1 <1>  -0.6800 
 14 C       -4.7300    -3.0960    -0.0800 C.3   1 <1>  -0.0170 
 15 N       -1.1920     5.2170    -0.8550 N.am  1 <1>  -0.6600 
 16 C       -3.7350    -4.2370     0.0650 C.ar  1 <1>  -0.1440 
 17 C       -0.5460     6.2110    -1.5560 C.2   1 <1>   0.5690 
 18 C       -2.8620    -4.5860    -0.9460 C.ar  1 <1>  -0.1500 
 19 C       -3.6550    -4.9840     1.2220 C.ar  1 <1>  -0.1500 
 20 O       -1.0420     6.7160    -2.5380 O.2   1 <1>  -0.5700 
 21 C        0.8330     6.7320    -1.1330 C.3   1 <1>   0.1810 
 22 C       -1.9740    -5.6310    -0.7540 C.ar  1 <1>   0.1600 
 23 C       -2.7310    -6.0120     1.3120 C.ar  1 <1>   0.1600 
 24 O        0.8340     7.3800     0.1190 O.3   1 <1>  -0.5600 
 25 N       -1.8870    -6.3530     0.3520 N.ar  1 <1>  -0.6200 
 26 C        0.1030     8.5620     0.1520 C.3   1 <1>   0.1200 
 27 C        0.2410     9.1440     1.5530 C.3   1 <1>  -0.2400 
 28 H       -2.6580     2.7170     0.6290 H     1 <1>   0.0800 
 29 H       -4.2170     1.0020     1.4870 H     1 <1>   0.0800 
 30 H       -4.6770     1.3830    -0.1770 H     1 <1>   0.0800 
 31 H       -2.8900    -1.5300    -1.1690 H     1 <1>   0.0800 
 32 H       -2.0240    -1.7030     0.3480 H     1 <1>   0.0800 
 33 H       -3.4030     2.7900    -1.7190 H     1 <1>   0.0800 
 34 H       -1.7570     2.9270    -2.2510 H     1 <1>   0.0800 
 35 H        0.1550     2.8660    -0.4470 H     1 <1>   0.0800 
 36 H       -0.2960     2.6780     1.2180 H     1 <1>   0.0800 
 37 H       -5.6970    -0.6590    -0.5000 H     1 <1>   0.0800 
 38 H       -3.9530    -1.9780     1.5810 H     1 <1>   0.0800 
 39 H       -3.2580     4.9550    -0.5770 H     1 <1>   0.0800 
 40 H       -2.7930     5.1220    -2.2470 H     1 <1>   0.0800 
 41 H        0.2820     5.0110     0.6750 H     1 <1>   0.0800 
 42 H       -1.3650     4.8850     1.2130 H     1 <1>   0.0800 
 43 H       -5.6080    -0.7110     2.3300 H     1 <1>   0.4000 
 44 H       -4.9510    -2.9380    -1.1210 H     1 <1>   0.0800 
 45 H       -5.6510    -3.3660     0.4080 H     1 <1>   0.0800 
 46 H       -2.8600    -4.0570    -1.8820 H     1 <1>   0.1500 
 47 H       -4.3020    -4.7780     2.0550 H     1 <1>   0.1500 
 48 H        1.2040     7.4200    -1.8710 H     1 <1>   0.0800 
 49 H        1.5160     5.9060    -1.0710 H     1 <1>   0.0800 
 50 H       -1.2990    -5.8870    -1.5530 H     1 <1>   0.1500 
 51 H       -2.6830    -6.5840     2.2230 H     1 <1>   0.1500 
 52 H        0.5000     9.2410    -0.5840 H     1 <1>   0.0800 
 53 H       -0.9300     8.3480    -0.0660 H     1 <1>   0.0800 
 54 H        1.2750     9.3470     1.7670 H     1 <1>   0.0800 
 55 H       -0.1480     8.4530     2.2790 H     1 <1>   0.0800 
 56 H       -0.3110    10.0630     1.6210 H     1 <1>   0.0800 
@<TRIPOS>BOND
  1   1   2  2   
  2   2   3  am  
  3   2   4  1   
  4   3   5  1   
  5   3   6  1   
  6   4   7  1   
  7   4   8  1   
  8   4  28  1   
  9   5   9  1   
 10   5  29  1   
 11   5  30  1   
 12   6  10  1   
 13   6  31  1   
 14   6  32  1   
 15   7  11  1   
 16   7  33  1   
 17   7  34  1   
 18   8  12  1   
 19   8  35  1   
 20   8  36  1   
 21   9  10  1   
 22   9  13  1   
 23   9  37  1   
 24  10  14  1   
 25  10  38  1   
 26  11  15  1   
 27  11  39  1   
 28  11  40  1   
 29  12  15  1   
 30  12  41  1   
 31  12  42  1   
 32  13  43  1   
 33  14  16  1   
 34  14  44  1   
 35  14  45  1   
 36  15  17  am  
 37  16  18  ar  
 38  16  19  ar  
 39  17  20  2   
 40  17  21  1   
 41  18  22  ar  
 42  18  46  1   
 43  19  23  ar  
 44  19  47  1   
 45  21  24  1   
 46  21  48  1   
 47  21  49  1   
 48  22  25  ar  
 49  22  50  1   
 50  23  25  ar  
 51  23  51  1   
 52  24  26  1   
 53  26  27  1   
 54  26  52  1   
 55  26  53  1   
 56  27  54  1   
 57  27  55  1   
 58  27  56  1   
@<TRIPOS>SUBSTRUCTURE
  1 ****   2 GROUP 4 **** **** 0

# MOE 2024.06 (io_trps.svl 2023.06)
