@<TRIPOS>MOLECULE
NONAME
52 55 1 0 0 
SMALL
USER_CHARGES


@<TRIPOS>ATOM
  1 O        1.1650    -0.0580     4.1250 O.2   1 <1>  -0.5700 
  2 C        0.5350    -0.5800     3.2380 C.2   1 <1>   0.5690 
  3 N        0.5420    -0.1030     1.9660 N.am  1 <1>  -0.7300 
  4 C       -0.2880    -1.8200     3.5560 C.3   1 <1>   0.0440 
  5 C        1.3590     1.0100     1.4520 C.3   1 <1>   0.1400 
  6 C       -0.8750    -2.4700     2.3050 C.ar  1 <1>  -0.1430 
  7 C        2.1860     0.4960     0.2750 C.3   1 <1>  -0.1600 
  8 C       -0.0870    -3.2780     1.5110 C.ar  1 <1>  -0.1500 
  9 C       -2.2030    -2.2220     1.9430 C.ar  1 <1>  -0.1500 
 10 C        3.0340     1.6160    -0.3470 C.3   1 <1>  -0.1600 
 11 C       -0.6140    -3.8330     0.3470 C.ar  1 <1>   0.0000 
 12 C       -2.7360    -2.7700     0.7970 C.ar  1 <1>  -0.1500 
 13 C        3.9070     1.1050    -1.5070 C.3   1 <1>  -0.0800 
 14 C       -1.9320    -3.5770    -0.0090 C.ar  1 <1>  -0.1520 
 15 C       -0.0630    -4.6750    -0.6590 C.ar  1 <1>   0.0000 
 16 C        4.7850     2.2050    -2.1140 C.3   1 <1>   0.1200 
 17 C        3.0980     0.5960    -2.6950 C.3   1 <1>  -0.1600 
 18 N       -2.2040    -4.2330    -1.1940 N.pl3 1 <1>   0.0480 
 19 C       -1.0660    -4.9060    -1.5930 C.ar  1 <1>  -0.1520 
 20 C        1.1970    -5.2460    -0.8330 C.ar  1 <1>  -0.1500 
 21 O        4.4270     2.3070    -3.4550 O.3   1 <1>  -0.5600 
 22 C        3.8790     1.1100    -3.8910 C.3   1 <1>   0.1200 
 23 C       -3.5010    -4.2460    -1.8940 C.3   1 <1>   0.0160 
 24 C       -0.8230    -5.7120    -2.7070 C.ar  1 <1>  -0.1500 
 25 C        1.4350    -6.0400    -1.9340 C.ar  1 <1>  -0.1500 
 26 C        0.4250    -6.2730    -2.8700 C.ar  1 <1>  -0.1500 
 27 H       -0.0040    -0.6180     1.2680 H     1 <1>   0.3700 
 28 H       -1.0710    -1.5420     4.2350 H     1 <1>   0.0800 
 29 H        0.3470    -2.5230     4.0620 H     1 <1>   0.0800 
 30 H        2.0060     1.3820     2.2300 H     1 <1>   0.0800 
 31 H        0.7100     1.8080     1.1350 H     1 <1>   0.0800 
 32 H        1.5210     0.0900    -0.4680 H     1 <1>   0.0800 
 33 H        2.8340    -0.2900     0.6220 H     1 <1>   0.0800 
 34 H        0.9370    -3.4850     1.7660 H     1 <1>   0.1500 
 35 H       -2.8170    -1.5930     2.5650 H     1 <1>   0.1500 
 36 H        3.6740     2.0320     0.4120 H     1 <1>   0.0800 
 37 H        2.3900     2.4030    -0.7030 H     1 <1>   0.0800 
 38 H       -3.7580    -2.5790     0.5240 H     1 <1>   0.1500 
 39 H        4.5550     0.3240    -1.1470 H     1 <1>   0.0800 
 40 H        5.8270     1.9420    -2.0650 H     1 <1>   0.0800 
 41 H        4.6280     3.1640    -1.6520 H     1 <1>   0.0800 
 42 H        2.1170     1.0370    -2.7170 H     1 <1>   0.0800 
 43 H        3.0070    -0.4750    -2.7080 H     1 <1>   0.0800 
 44 H        1.9650    -5.0620    -0.1050 H     1 <1>   0.1500 
 45 H        3.2570     1.2950    -4.7490 H     1 <1>   0.0800 
 46 H        4.6870     0.4470    -4.1480 H     1 <1>   0.0800 
 47 H       -4.0190    -3.3230    -1.7110 H     1 <1>   0.0800 
 48 H       -4.0880    -5.0700    -1.5320 H     1 <1>   0.0800 
 49 H       -3.3390    -4.3540    -2.9510 H     1 <1>   0.0800 
 50 H       -1.6010    -5.8940    -3.4260 H     1 <1>   0.1500 
 51 H        2.4030    -6.4880    -2.0800 H     1 <1>   0.1500 
 52 H        0.6310    -6.8970    -3.7220 H     1 <1>   0.1500 
@<TRIPOS>BOND
  1   1   2  2   
  2   2   3  am  
  3   2   4  1   
  4   3   5  1   
  5   3  27  1   
  6   4   6  1   
  7   4  28  1   
  8   4  29  1   
  9   5   7  1   
 10   5  30  1   
 11   5  31  1   
 12   6   8  ar  
 13   6   9  ar  
 14   7  10  1   
 15   7  32  1   
 16   7  33  1   
 17   8  11  ar  
 18   8  34  1   
 19   9  12  ar  
 20   9  35  1   
 21  10  13  1   
 22  10  36  1   
 23  10  37  1   
 24  11  14  ar  
 25  11  15  1   
 26  12  14  ar  
 27  12  38  1   
 28  13  16  1   
 29  13  17  1   
 30  13  39  1   
 31  14  18  1   
 32  15  19  ar  
 33  15  20  ar  
 34  16  21  1   
 35  16  40  1   
 36  16  41  1   
 37  17  22  1   
 38  17  42  1   
 39  17  43  1   
 40  18  19  1   
 41  18  23  1   
 42  19  24  ar  
 43  20  25  ar  
 44  20  44  1   
 45  21  22  1   
 46  22  45  1   
 47  22  46  1   
 48  23  47  1   
 49  23  48  1   
 50  23  49  1   
 51  24  26  ar  
 52  24  50  1   
 53  25  26  ar  
 54  25  51  1   
 55  26  52  1   
@<TRIPOS>SUBSTRUCTURE
  1 ****   8 GROUP 4 **** **** 0

# MOE 2024.06 (io_trps.svl 2023.06)
