@<TRIPOS>MOLECULE
NONAME
45 47 1 0 0 
SMALL
USER_CHARGES


@<TRIPOS>ATOM
  1 F       -4.5760    -0.5490    -1.9650 F     1 <1>  -0.1900 
  2 C       -3.6300     0.1750    -1.4240 C.ar  1 <1>   0.1900 
  3 C       -2.7580    -0.4120    -0.5120 C.ar  1 <1>  -0.1440 
  4 C       -3.5480     1.5050    -1.7880 C.ar  1 <1>  -0.1500 
  5 C       -1.7670     0.3790     0.0570 C.ar  1 <1>  -0.1500 
  6 C       -2.8750    -1.8820    -0.1330 C.3   1 <1>  -0.0160 
  7 C       -2.5480     2.2540    -1.2010 C.ar  1 <1>   0.1900 
  8 C       -1.6580     1.7190    -0.2870 C.ar  1 <1>  -0.1500 
  9 C       -3.9260    -2.0730     0.9670 C.3   1 <1>  -0.0990 
 10 F       -2.4390     3.5160    -1.5200 F     1 <1>  -0.1900 
 11 C       -4.1790    -3.5450     1.2270 C.2   1 <1>   0.5690 
 12 O       -3.6090    -4.0600     2.1570 O.2   1 <1>  -0.5700 
 13 N       -5.0160    -4.2610     0.4180 N.am  1 <1>  -0.6600 
 14 C       -5.8390    -3.7570    -0.7150 C.3   1 <1>   0.1400 
 15 C       -5.2520    -5.7130     0.6140 C.3   1 <1>   0.1400 
 16 C       -6.9360    -4.8070    -0.8750 C.3   1 <1>   0.2000 
 17 C       -6.2390    -6.1170    -0.4890 C.3   1 <1>  -0.0800 
 18 O       -7.9360    -4.5250     0.0440 O.3   1 <1>  -0.6800 
 19 C       -7.1780    -7.2710    -0.0930 C.3   1 <1>  -0.0170 
 20 C       -6.3900    -8.5440     0.1790 C.ar  1 <1>  -0.1430 
 21 C       -6.0210    -8.9190     1.4550 C.ar  1 <1>  -0.1500 
 22 C       -6.0020    -9.3880    -0.8400 C.ar  1 <1>  -0.1500 
 23 C       -5.2980   -10.0850     1.6440 C.ar  1 <1>   0.1600 
 24 C       -5.2800   -10.5330    -0.5440 C.ar  1 <1>   0.1600 
 25 N       -4.9180   -10.9010     0.6740 N.ar  1 <1>  -0.6200 
 26 H       -4.2300     1.9380    -2.4940 H     1 <1>   0.1500 
 27 H       -1.0770    -0.0430     0.7690 H     1 <1>   0.1500 
 28 H       -3.1420    -2.4570    -1.0020 H     1 <1>   0.0800 
 29 H       -1.9260    -2.2530     0.2140 H     1 <1>   0.0800 
 30 H       -0.8950     2.3410     0.1450 H     1 <1>   0.1500 
 31 H       -4.8440    -1.5870     0.7000 H     1 <1>   0.0800 
 32 H       -3.5740    -1.6170     1.8750 H     1 <1>   0.0800 
 33 H       -6.2550    -2.7830    -0.5240 H     1 <1>   0.0800 
 34 H       -5.2320    -3.7240    -1.6020 H     1 <1>   0.0800 
 35 H       -4.3290    -6.2640     0.5380 H     1 <1>   0.0800 
 36 H       -5.6770    -5.8680     1.5910 H     1 <1>   0.0800 
 37 H       -7.3690    -4.8230    -1.8600 H     1 <1>   0.0800 
 38 H       -5.6570    -6.4340    -1.3350 H     1 <1>   0.0800 
 39 H       -7.5220    -4.3710     0.9180 H     1 <1>   0.4000 
 40 H       -7.8800    -7.4500    -0.8890 H     1 <1>   0.0800 
 41 H       -7.7480    -7.0100     0.7820 H     1 <1>   0.0800 
 42 H       -6.2860    -8.3180     2.3060 H     1 <1>   0.1500 
 43 H       -6.2530    -9.1690    -1.8620 H     1 <1>   0.1500 
 44 H       -5.0170   -10.3610     2.6460 H     1 <1>   0.1500 
 45 H       -4.9860   -11.1810    -1.3520 H     1 <1>   0.1500 
@<TRIPOS>BOND
  1   1   2  1   
  2   2   3  ar  
  3   2   4  ar  
  4   3   5  ar  
  5   3   6  1   
  6   4   7  ar  
  7   4  26  1   
  8   5   8  ar  
  9   5  27  1   
 10   6   9  1   
 11   6  28  1   
 12   6  29  1   
 13   7   8  ar  
 14   7  10  1   
 15   8  30  1   
 16   9  11  1   
 17   9  31  1   
 18   9  32  1   
 19  11  12  2   
 20  11  13  am  
 21  13  14  1   
 22  13  15  1   
 23  14  16  1   
 24  14  33  1   
 25  14  34  1   
 26  15  17  1   
 27  15  35  1   
 28  15  36  1   
 29  16  17  1   
 30  16  18  1   
 31  16  37  1   
 32  17  19  1   
 33  17  38  1   
 34  18  39  1   
 35  19  20  1   
 36  19  40  1   
 37  19  41  1   
 38  20  21  ar  
 39  20  22  ar  
 40  21  23  ar  
 41  21  42  1   
 42  22  24  ar  
 43  22  43  1   
 44  23  25  ar  
 45  23  44  1   
 46  24  25  ar  
 47  24  45  1   
@<TRIPOS>SUBSTRUCTURE
  1 ****  13 GROUP 4 **** **** 0

# MOE 2024.06 (io_trps.svl 2023.06)
