@<TRIPOS>MOLECULE
NONAME
53 55 1 0 0 
SMALL
USER_CHARGES


@<TRIPOS>ATOM
  1 O        2.4020    -0.8710    -0.7320 O.co2 1 <1>  -0.9000 
  2 C        2.3770     0.1160     0.0080 C.2   1 <1>   0.9060 
  3 O        2.8320     0.0650     1.1600 O.co2 1 <1>  -0.9000 
  4 C        2.0410     1.4820    -0.6140 C.3   1 <1>  -0.1060 
  5 C        3.1710     1.7810    -1.6230 C.3   1 <1>   0.2000 
  6 C        2.0610     2.6350     0.4400 C.3   1 <1>  -0.1600 
  7 C        0.6610     1.4270    -1.3230 C.3   1 <1>  -0.0160 
  8 O        3.2010     0.8020    -2.6020 O.3   1 <1>  -0.6800 
  9 C        4.5610     1.8430    -0.9430 C.3   1 <1>   0.3430 
 10 C        3.4610     3.0890     0.8950 C.3   1 <1>   0.3430 
 11 C       -0.5180     1.4360    -0.3550 C.ar  1 <1>  -0.1440 
 12 N        4.4780     2.0720     0.5410 N.4   1 <1>  -0.9590 
 13 C       -0.8240     0.3020     0.3820 C.ar  1 <1>  -0.1500 
 14 C       -1.2970     2.5740    -0.2010 C.ar  1 <1>  -0.1500 
 15 C        5.7910     2.2530     1.2000 C.3   1 <1>   0.4860 
 16 C       -1.8860     0.3090     1.2700 C.ar  1 <1>  -0.1500 
 17 C       -2.3600     2.5820     0.6850 C.ar  1 <1>  -0.1500 
 18 C        6.4270     3.5650     0.7690 C.ar  1 <1>  -0.1430 
 19 C       -2.6550     1.4490     1.4230 C.ar  1 <1>  -0.1500 
 20 C        7.2540     3.6140    -0.3430 C.ar  1 <1>  -0.1500 
 21 C        6.1940     4.7260     1.4890 C.ar  1 <1>  -0.1500 
 22 C        7.8280     4.8070    -0.7530 C.ar  1 <1>  -0.1430 
 23 C        6.7650     5.9190     1.0860 C.ar  1 <1>  -0.1500 
 24 C        7.5790     5.9710    -0.0340 C.ar  1 <1>  -0.1430 
 25 C        8.7260     4.8150    -1.9830 C.3   1 <1>  -0.0970 
 26 C        8.1880     7.3050    -0.4430 C.3   1 <1>  -0.0970 
 27 H        2.9860     2.7160    -2.1230 H     1 <1>   0.0800 
 28 H        1.5080     2.3220     1.3100 H     1 <1>   0.0800 
 29 H        1.5520     3.4980     0.0500 H     1 <1>   0.0800 
 30 H        0.5690     2.2650    -1.9900 H     1 <1>   0.0800 
 31 H        0.5960     0.5420    -1.9330 H     1 <1>   0.0800 
 32 H        2.9400    -0.0650    -2.1640 H     1 <1>   0.4000 
 33 H        5.1280     2.6350    -1.4010 H     1 <1>   0.0800 
 34 H        5.0660     0.9080    -1.1220 H     1 <1>   0.0800 
 35 H        3.4500     3.2450     1.9610 H     1 <1>   0.0800 
 36 H        3.7130     4.0220     0.4170 H     1 <1>   0.0800 
 37 H        4.0670     1.1820     0.9330 H     1 <1>   0.4500 
 38 H       -0.2340    -0.5930     0.2710 H     1 <1>   0.1500 
 39 H       -1.0800     3.4590    -0.7710 H     1 <1>   0.1500 
 40 H        5.6610     2.2500     2.2690 H     1 <1>   0.0800 
 41 H        6.4410     1.4320     0.9430 H     1 <1>   0.0800 
 42 H       -2.1090    -0.5760     1.8390 H     1 <1>   0.1500 
 43 H       -2.9600     3.4670     0.7990 H     1 <1>   0.1500 
 44 H       -3.4790     1.4530     2.1130 H     1 <1>   0.1500 
 45 H        7.4580     2.7160    -0.8990 H     1 <1>   0.1500 
 46 H        5.5730     4.7170     2.3670 H     1 <1>   0.1500 
 47 H        6.5740     6.8130     1.6550 H     1 <1>   0.1500 
 48 H        8.8170     3.8310    -2.4060 H     1 <1>   0.0800 
 49 H        9.7100     5.1580    -1.7180 H     1 <1>   0.0800 
 50 H        8.3190     5.4680    -2.7330 H     1 <1>   0.0800 
 51 H        7.8770     8.0930     0.2190 H     1 <1>   0.0800 
 52 H        7.8790     7.5630    -1.4400 H     1 <1>   0.0800 
 53 H        9.2610     7.2460    -0.4120 H     1 <1>   0.0800 
@<TRIPOS>BOND
  1   1   2  ar  
  2   2   3  ar  
  3   2   4  1   
  4   4   5  1   
  5   4   6  1   
  6   4   7  1   
  7   5   8  1   
  8   5   9  1   
  9   5  27  1   
 10   6  10  1   
 11   6  28  1   
 12   6  29  1   
 13   7  11  1   
 14   7  30  1   
 15   7  31  1   
 16   8  32  1   
 17   9  12  1   
 18   9  33  1   
 19   9  34  1   
 20  10  12  1   
 21  10  35  1   
 22  10  36  1   
 23  11  13  ar  
 24  11  14  ar  
 25  12  15  1   
 26  12  37  1   
 27  13  16  ar  
 28  13  38  1   
 29  14  17  ar  
 30  14  39  1   
 31  15  18  1   
 32  15  40  1   
 33  15  41  1   
 34  16  19  ar  
 35  16  42  1   
 36  17  19  ar  
 37  17  43  1   
 38  18  20  ar  
 39  18  21  ar  
 40  19  44  1   
 41  20  22  ar  
 42  20  45  1   
 43  21  23  ar  
 44  21  46  1   
 45  22  24  ar  
 46  22  25  1   
 47  23  24  ar  
 48  23  47  1   
 49  24  26  1   
 50  25  48  1   
 51  25  49  1   
 52  25  50  1   
 53  26  51  1   
 54  26  52  1   
 55  26  53  1   
@<TRIPOS>SUBSTRUCTURE
  1 ****  10 GROUP 4 **** **** 0

# MOE 2024.06 (io_trps.svl 2023.06)
