@<TRIPOS>MOLECULE
NONAME
48 51 1 0 0 
SMALL
USER_CHARGES


@<TRIPOS>ATOM
  1 S       -0.1960     0.4720    -1.7020 S.o2  1 <1>   1.5010 
  2 O        0.4360     1.2860    -2.7180 O.2   1 <1>  -0.6500 
  3 O       -1.2930    -0.3920    -2.0830 O.2   1 <1>  -0.6500 
  4 N       -0.7410     1.5300    -0.4890 N.am  1 <1>  -0.8490 
  5 C        1.0890    -0.4710    -0.8530 C.2   1 <1>  -0.0630 
  6 C       -1.4140     2.7390    -0.9740 C.3   1 <1>   0.1960 
  7 C       -1.4300     0.9330     0.6630 C.3   1 <1>   0.1960 
  8 C        1.0450    -1.6820    -0.2440 C.2   1 <1>  -0.0400 
  9 C        2.4030    -0.0270    -0.6540 C.2   1 <1>  -0.1500 
 10 C       -2.8710     2.4550    -1.3450 C.3   1 <1>  -0.1600 
 11 C       -2.9100     0.6420     0.3830 C.3   1 <1>  -0.1600 
 12 O        2.2130    -1.9800     0.2840 O.3   1 <1>  -0.2800 
 13 C       -0.0700    -2.6950    -0.0750 C.3   1 <1>  -0.0600 
 14 C        3.0560    -0.9880     0.0480 C.2   1 <1>   0.1400 
 15 C       -3.6370     1.8750    -0.1520 C.3   1 <1>   0.4180 
 16 C        4.4080    -1.0590     0.5250 C.2   1 <1>   0.1400 
 17 O       -3.6380     2.8090     0.9020 O.3   1 <1>  -0.5600 
 18 C       -5.0660     1.5040    -0.5380 C.2   1 <1>  -0.2880 
 19 O        5.2580    -0.0780     0.3180 O.3   1 <1>  -0.0190 
 20 C        5.0790    -2.0060     1.2140 C.2   1 <1>  -0.1500 
 21 C       -4.5900     3.8340     0.8540 C.3   1 <1>   0.1200 
 22 C       -6.1550     2.1050    -0.0520 C.2   1 <1>  -0.2760 
 23 N        6.4350    -0.3160     0.8230 N.2   1 <1>  -0.4100 
 24 C        6.3520    -1.4770     1.3700 C.2   1 <1>   0.1390 
 25 C       -6.0110     3.2570     0.9250 C.3   1 <1>  -0.0220 
 26 C       -7.5800     1.7170    -0.4000 C.3   1 <1>  -0.1020 
 27 H       -0.8890     3.1470    -1.8220 H     1 <1>   0.0800 
 28 H       -1.3880     3.4830    -0.1950 H     1 <1>   0.0800 
 29 H       -1.3710     1.6260     1.4860 H     1 <1>   0.0800 
 30 H       -0.9300     0.0310     0.9690 H     1 <1>   0.0800 
 31 H        2.7950     0.9120    -1.0070 H     1 <1>   0.1500 
 32 H       -2.9020     1.7600    -2.1630 H     1 <1>   0.0800 
 33 H       -3.3450     3.3550    -1.6840 H     1 <1>   0.0800 
 34 H       -3.3910     0.3230     1.2890 H     1 <1>   0.0800 
 35 H       -3.0000    -0.1640    -0.3180 H     1 <1>   0.0800 
 36 H       -0.9870    -2.3490    -0.5130 H     1 <1>   0.0800 
 37 H       -0.2360    -2.8810     0.9710 H     1 <1>   0.0800 
 38 H        0.2080    -3.6190    -0.5490 H     1 <1>   0.0800 
 39 H       -5.1080     0.6930    -1.2440 H     1 <1>   0.1500 
 40 H        4.7220    -2.9560     1.5670 H     1 <1>   0.1500 
 41 H       -4.4550     4.3890    -0.0570 H     1 <1>   0.0800 
 42 H       -4.4120     4.4890     1.6890 H     1 <1>   0.0800 
 43 H        7.1670    -1.9630     1.8780 H     1 <1>   0.1500 
 44 H       -6.7090     4.0390     0.6860 H     1 <1>   0.0800 
 45 H       -6.2160     2.9160     1.9240 H     1 <1>   0.0800 
 46 H       -8.1130     1.4320     0.4900 H     1 <1>   0.0800 
 47 H       -7.5880     0.8860    -1.0820 H     1 <1>   0.0800 
 48 H       -8.0890     2.5430    -0.8620 H     1 <1>   0.0800 
@<TRIPOS>BOND
  1   1   2  2   
  2   1   3  2   
  3   1   4  am  
  4   1   5  1   
  5   4   6  1   
  6   4   7  1   
  7   5   8  2   
  8   5   9  1   
  9   6  10  1   
 10   6  27  1   
 11   6  28  1   
 12   7  11  1   
 13   7  29  1   
 14   7  30  1   
 15   8  12  1   
 16   8  13  1   
 17   9  14  2   
 18   9  31  1   
 19  10  15  1   
 20  10  32  1   
 21  10  33  1   
 22  11  15  1   
 23  11  34  1   
 24  11  35  1   
 25  12  14  1   
 26  13  36  1   
 27  13  37  1   
 28  13  38  1   
 29  14  16  1   
 30  15  17  1   
 31  15  18  1   
 32  16  19  1   
 33  16  20  2   
 34  17  21  1   
 35  18  22  2   
 36  18  39  1   
 37  19  23  1   
 38  20  24  1   
 39  20  40  1   
 40  21  25  1   
 41  21  41  1   
 42  21  42  1   
 43  22  25  1   
 44  22  26  1   
 45  23  24  2   
 46  24  43  1   
 47  25  44  1   
 48  25  45  1   
 49  26  46  1   
 50  26  47  1   
 51  26  48  1   
@<TRIPOS>SUBSTRUCTURE
  1 ****   4 GROUP 4 **** **** 0

# MOE 2024.06 (io_trps.svl 2023.06)
