@<TRIPOS>MOLECULE
NONAME
45 47 1 0 0 
SMALL
USER_CHARGES


@<TRIPOS>ATOM
  1 O       -2.2200     0.7020    -1.7920 O.2   1 <1>  -0.5700 
  2 C       -1.9940     0.6950    -0.5980 C.2   1 <1>   0.5440 
  3 N       -1.8900    -0.5090     0.0340 N.am  1 <1>  -0.7300 
  4 C       -1.8540     1.9230     0.1650 C.ar  1 <1>   0.0860 
  5 C       -1.9560    -1.8340    -0.6270 C.3   1 <1>   0.2200 
  6 C       -0.9240     2.9280    -0.1500 C.ar  1 <1>  -0.1440 
  7 C       -2.6820     2.1140     1.2700 C.ar  1 <1>  -0.1500 
  8 C       -3.2980    -2.5100    -0.3850 C.3   1 <1>  -0.0800 
  9 C       -1.0250    -2.7940     0.1010 C.3   1 <1>   0.1200 
 10 C       -0.8550     4.0870     0.6220 C.ar  1 <1>  -0.1430 
 11 C        0.0040     2.7290    -1.3510 C.3   1 <1>  -0.0970 
 12 C       -2.6050     3.2540     2.0410 C.ar  1 <1>  -0.1500 
 13 C       -3.1070    -3.1760     0.9830 C.3   1 <1>   0.1200 
 14 C       -4.5370    -1.6010    -0.4810 C.3   1 <1>  -0.0170 
 15 O       -1.7310    -3.1960     1.2360 O.3   1 <1>  -0.5600 
 16 C       -1.6930     4.2380     1.7150 C.ar  1 <1>  -0.1500 
 17 C        0.1150     5.2200     0.3100 C.3   1 <1>  -0.0970 
 18 C       -5.8160    -2.4090    -0.3250 C.ar  1 <1>  -0.1430 
 19 C       -6.4840    -2.5030     0.8790 C.ar  1 <1>  -0.1500 
 20 C       -6.3730    -3.0930    -1.3870 C.ar  1 <1>  -0.1500 
 21 C       -7.6410    -3.2610     0.9620 C.ar  1 <1>   0.1600 
 22 C       -7.5350    -3.8230    -1.1970 C.ar  1 <1>   0.1600 
 23 N       -8.1810    -3.9250    -0.0470 N.ar  1 <1>  -0.6200 
 24 H       -1.6890    -0.5480     1.0360 H     1 <1>   0.3700 
 25 H       -1.7160    -1.7500    -1.6740 H     1 <1>   0.0800 
 26 H       -3.4030     1.3570     1.5230 H     1 <1>   0.1500 
 27 H       -3.4030    -3.2960    -1.1120 H     1 <1>   0.0800 
 28 H       -0.0960    -2.3370     0.3910 H     1 <1>   0.0800 
 29 H       -0.8350    -3.6690    -0.4960 H     1 <1>   0.0800 
 30 H        0.8950     3.3210    -1.2840 H     1 <1>   0.0800 
 31 H       -0.5180     2.9900    -2.2540 H     1 <1>   0.0800 
 32 H        0.3160     1.7030    -1.4260 H     1 <1>   0.0800 
 33 H       -3.2530     3.3830     2.8910 H     1 <1>   0.1500 
 34 H       -3.4800    -4.1860     0.9900 H     1 <1>   0.0800 
 35 H       -3.5730    -2.6100     1.7700 H     1 <1>   0.0800 
 36 H       -4.5410    -1.1060    -1.4370 H     1 <1>   0.0800 
 37 H       -4.5040    -0.8370     0.2750 H     1 <1>   0.0800 
 38 H       -1.6440     5.1260     2.3200 H     1 <1>   0.1500 
 39 H       -0.0870     6.0830     0.9200 H     1 <1>   0.0800 
 40 H        0.0220     5.5140    -0.7200 H     1 <1>   0.0800 
 41 H        1.1240     4.9030     0.4990 H     1 <1>   0.0800 
 42 H       -6.1190    -1.9960     1.7520 H     1 <1>   0.1500 
 43 H       -5.9140    -3.0650    -2.3580 H     1 <1>   0.1500 
 44 H       -8.1490    -3.3240     1.9090 H     1 <1>   0.1500 
 45 H       -7.9550    -4.3500    -2.0370 H     1 <1>   0.1500 
@<TRIPOS>BOND
  1   1   2  2   
  2   2   3  am  
  3   2   4  1   
  4   3   5  1   
  5   3  24  1   
  6   4   6  ar  
  7   4   7  ar  
  8   5   8  1   
  9   5   9  1   
 10   5  25  1   
 11   6  10  ar  
 12   6  11  1   
 13   7  12  ar  
 14   7  26  1   
 15   8  13  1   
 16   8  14  1   
 17   8  27  1   
 18   9  15  1   
 19   9  28  1   
 20   9  29  1   
 21  10  16  ar  
 22  10  17  1   
 23  11  30  1   
 24  11  31  1   
 25  11  32  1   
 26  12  16  ar  
 27  12  33  1   
 28  13  15  1   
 29  13  34  1   
 30  13  35  1   
 31  14  18  1   
 32  14  36  1   
 33  14  37  1   
 34  16  38  1   
 35  17  39  1   
 36  17  40  1   
 37  17  41  1   
 38  18  19  ar  
 39  18  20  ar  
 40  19  21  ar  
 41  19  42  1   
 42  20  22  ar  
 43  20  43  1   
 44  21  23  ar  
 45  21  44  1   
 46  22  23  ar  
 47  22  45  1   
@<TRIPOS>SUBSTRUCTURE
  1 ****   3 GROUP 4 **** **** 0

# MOE 2024.06 (io_trps.svl 2023.06)
