@<TRIPOS>MOLECULE
NONAME
45 47 1 0 0 
SMALL
USER_CHARGES


@<TRIPOS>ATOM
  1 O        0.1310     1.4120     0.6760 O.3   1 <1>  -0.6800 
  2 C        1.4280     1.8980     0.7310 C.3   1 <1>   0.2000 
  3 C        1.5100     3.2520     0.0030 C.3   1 <1>   0.2090 
  4 C        2.3420     0.8600     0.0730 C.3   1 <1>  -0.1600 
  5 N        2.9310     3.7300    -0.0610 N.pl3 1 <1>  -0.8380 
  6 C        3.7770     1.4010    -0.0470 C.3   1 <1>  -0.1600 
  7 C        3.3560     4.9610     0.3320 C.ar  1 <1>   0.4100 
  8 C        3.8270     2.7580    -0.7620 C.3   1 <1>   0.2090 
  9 N        4.3880     5.4870    -0.3030 N.ar  1 <1>  -0.6200 
 10 C        2.7230     5.6520     1.3820 C.ar  1 <1>  -0.1500 
 11 C        4.8140     6.7000     0.0300 C.ar  1 <1>   0.7710 
 12 C        3.1600     6.8880     1.7130 C.ar  1 <1>   0.2110 
 13 N        4.1960     7.3920     1.0090 N.ar  1 <1>  -0.1790 
 14 N        5.8940     7.2100    -0.6460 N.pl3 1 <1>  -0.8380 
 15 C        6.6450     8.5030    -0.4610 C.3   1 <1>   0.3900 
 16 C        6.5100     6.3910    -1.7450 C.3   1 <1>   0.1290 
 17 C        6.0200     9.4050     0.5820 C.2   1 <1>  -0.1810 
 18 C        5.0520    10.3420     0.4520 C.2   1 <1>  -0.3320 
 19 C        6.3060     9.3660     1.9410 C.2   1 <1>   0.1390 
 20 N        4.8020    10.8150     1.6910 N.pl3 1 <1>   0.3000 
 21 C        4.3330    10.8450    -0.7910 C.3   1 <1>  -0.0600 
 22 N        5.5320    10.1580     2.6110 N.2   1 <1>  -0.7070 
 23 H       -0.4570     1.9060     1.2780 H     1 <1>   0.4000 
 24 H        1.6950     2.0200     1.7670 H     1 <1>   0.0800 
 25 H        0.8790     3.9700     0.4920 H     1 <1>   0.0800 
 26 H        1.1500     3.1240    -1.0040 H     1 <1>   0.0800 
 27 H        1.9690     0.6320    -0.9110 H     1 <1>   0.0800 
 28 H        2.3430    -0.0430     0.6570 H     1 <1>   0.0800 
 29 H        4.3810     0.6950    -0.5890 H     1 <1>   0.0800 
 30 H        4.2060     1.5130     0.9330 H     1 <1>   0.0800 
 31 H        4.8450     3.1070    -0.7740 H     1 <1>   0.0800 
 32 H        3.5000     2.6480    -1.7830 H     1 <1>   0.0800 
 33 H        1.9170     5.1840     1.9130 H     1 <1>   0.1500 
 34 H        2.7280     7.4780     2.5060 H     1 <1>   0.1500 
 35 H        4.5740     8.3250     1.2000 H     1 <1>   0.4570 
 36 H        6.6740     9.0310    -1.3990 H     1 <1>   0.0800 
 37 H        7.6630     8.2860    -0.1780 H     1 <1>   0.0800 
 38 H        5.7500     6.0600    -2.4350 H     1 <1>   0.0800 
 39 H        6.9930     5.5230    -1.3270 H     1 <1>   0.0800 
 40 H        7.2400     6.9560    -2.3000 H     1 <1>   0.0800 
 41 H        7.0540     8.7380     2.4050 H     1 <1>   0.1500 
 42 H        4.1510    11.5740     1.9430 H     1 <1>   0.2700 
 43 H        4.6470    10.3010    -1.6640 H     1 <1>   0.0800 
 44 H        4.5510    11.8870    -0.9480 H     1 <1>   0.0800 
 45 H        3.2680    10.7290    -0.6860 H     1 <1>   0.0800 
@<TRIPOS>BOND
  1   1   2  1   
  2   1  23  1   
  3   2   3  1   
  4   2   4  1   
  5   2  24  1   
  6   3   5  1   
  7   3  25  1   
  8   3  26  1   
  9   4   6  1   
 10   4  27  1   
 11   4  28  1   
 12   5   7  1   
 13   5   8  1   
 14   6   8  1   
 15   6  29  1   
 16   6  30  1   
 17   7   9  ar  
 18   7  10  ar  
 19   8  31  1   
 20   8  32  1   
 21   9  11  ar  
 22  10  12  ar  
 23  10  33  1   
 24  11  13  ar  
 25  11  14  1   
 26  12  13  ar  
 27  12  34  1   
 28  13  35  1   
 29  14  15  1   
 30  14  16  1   
 31  15  17  1   
 32  15  36  1   
 33  15  37  1   
 34  16  38  1   
 35  16  39  1   
 36  16  40  1   
 37  17  18  2   
 38  17  19  1   
 39  18  20  1   
 40  18  21  1   
 41  19  22  2   
 42  19  41  1   
 43  20  22  1   
 44  20  42  1   
 45  21  43  1   
 46  21  44  1   
 47  21  45  1   
@<TRIPOS>SUBSTRUCTURE
  1 ****  11 GROUP 4 **** **** 0

# MOE 2024.06 (io_trps.svl 2023.06)
