@<TRIPOS>MOLECULE
NONAME
56 59 1 0 0 
SMALL
USER_CHARGES


@<TRIPOS>ATOM
  1 O        0.0060    -1.4850     1.0130 O.3   1 <1>  -0.5600 
  2 C        0.5220    -2.2400    -0.0530 C.3   1 <1>   0.4180 
  3 C       -1.0210    -0.5720     0.7230 C.3   1 <1>   0.1200 
  4 C       -0.5760    -2.6630    -1.0190 C.2   1 <1>  -0.2880 
  5 C        1.6060    -1.4180    -0.7480 C.3   1 <1>  -0.1600 
  6 C        1.1500    -3.4750     0.5860 C.3   1 <1>  -0.1600 
  7 C       -2.2560    -1.2940     0.1690 C.3   1 <1>  -0.0220 
  8 C       -1.8440    -2.2590    -0.9270 C.2   1 <1>  -0.2760 
  9 C        2.6860    -1.0230     0.2530 C.3   1 <1>   0.3430 
 10 C        2.2320    -3.0640     1.5770 C.3   1 <1>   0.3430 
 11 C       -2.9600    -2.7040    -1.8550 C.3   1 <1>  -0.1020 
 12 N        3.2720    -2.2460     0.8860 N.4   1 <1>  -0.9590 
 13 C        4.3710    -1.8880     1.8220 C.3   1 <1>   0.4860 
 14 C        5.4980    -1.2510     1.0310 C.ar  1 <1>  -0.1440 
 15 C        6.2530    -2.0180     0.1570 C.ar  1 <1>  -0.1500 
 16 C        5.7870     0.0970     1.1730 C.ar  1 <1>  -0.1500 
 17 C        7.2870    -1.4550    -0.5760 C.ar  1 <1>  -0.1440 
 18 C        6.8140     0.6700     0.4460 C.ar  1 <1>  -0.1500 
 19 C        7.5700    -0.1010    -0.4330 C.ar  1 <1>   0.0820 
 20 C        8.1020    -2.3350    -1.5250 C.3   1 <1>   0.2390 
 21 O        8.5900     0.4100    -1.1690 O.3   1 <1>  -0.3630 
 22 N        8.6440    -3.5090    -0.8130 N.pl3 1 <1>   0.3140 
 23 C        8.9880     1.7600    -1.0610 C.3   1 <1>   0.0400 
 24 N        8.0390    -4.6940    -0.7890 N.2   1 <1>  -0.7070 
 25 C        9.7640    -3.5880    -0.0910 C.2   1 <1>   0.0360 
 26 C        8.8490    -5.4010    -0.0680 C.2   1 <1>   0.3660 
 27 N        9.9310    -4.7640     0.3950 N.2   1 <1>  -0.5650 
 28 H       -0.6560     0.1420     0.0060 H     1 <1>   0.0800 
 29 H       -1.2720    -0.0530     1.6310 H     1 <1>   0.0800 
 30 H       -0.2330    -3.3350    -1.7860 H     1 <1>   0.1500 
 31 H        1.1700    -0.5370    -1.1830 H     1 <1>   0.0800 
 32 H        2.0410    -1.9840    -1.5500 H     1 <1>   0.0800 
 33 H        1.5660    -4.1180    -0.1680 H     1 <1>   0.0800 
 34 H        0.3830    -4.0290     1.0980 H     1 <1>   0.0800 
 35 H       -2.9370    -0.5570    -0.2200 H     1 <1>   0.0800 
 36 H       -2.7560    -1.8270     0.9580 H     1 <1>   0.0800 
 37 H        2.2490    -0.3950     1.0130 H     1 <1>   0.0800 
 38 H        3.4560    -0.4610    -0.2530 H     1 <1>   0.0800 
 39 H        2.6770    -3.9450     2.0110 H     1 <1>   0.0800 
 40 H        1.7790    -2.4850     2.3680 H     1 <1>   0.0800 
 41 H       -3.7370    -3.1910    -1.2920 H     1 <1>   0.0800 
 42 H       -2.5890    -3.3960    -2.5900 H     1 <1>   0.0800 
 43 H       -3.3800    -1.8570    -2.3670 H     1 <1>   0.0800 
 44 H        3.6970    -2.8080     0.1390 H     1 <1>   0.4500 
 45 H        4.7430    -2.7730     2.3130 H     1 <1>   0.0800 
 46 H        4.0130    -1.2050     2.5740 H     1 <1>   0.0800 
 47 H        6.0460    -3.0710     0.0460 H     1 <1>   0.1500 
 48 H        5.2230     0.7160     1.8510 H     1 <1>   0.1500 
 49 H        7.0140     1.7170     0.5780 H     1 <1>   0.1500 
 50 H        8.9250    -1.8020    -1.9620 H     1 <1>   0.0800 
 51 H        7.4730    -2.6850    -2.3220 H     1 <1>   0.0800 
 52 H        9.8210     1.9180    -1.7230 H     1 <1>   0.0800 
 53 H        9.2880     1.9580    -0.0460 H     1 <1>   0.0800 
 54 H        8.1680     2.3930    -1.3520 H     1 <1>   0.0800 
 55 H       10.4290    -2.7550     0.0530 H     1 <1>   0.1500 
 56 H        8.6850    -6.4420     0.1620 H     1 <1>   0.1500 
@<TRIPOS>BOND
  1   1   2  1   
  2   1   3  1   
  3   2   4  1   
  4   2   5  1   
  5   2   6  1   
  6   3   7  1   
  7   3  28  1   
  8   3  29  1   
  9   4   8  2   
 10   4  30  1   
 11   5   9  1   
 12   5  31  1   
 13   5  32  1   
 14   6  10  1   
 15   6  33  1   
 16   6  34  1   
 17   7   8  1   
 18   7  35  1   
 19   7  36  1   
 20   8  11  1   
 21   9  12  1   
 22   9  37  1   
 23   9  38  1   
 24  10  12  1   
 25  10  39  1   
 26  10  40  1   
 27  11  41  1   
 28  11  42  1   
 29  11  43  1   
 30  12  13  1   
 31  12  44  1   
 32  13  14  1   
 33  13  45  1   
 34  13  46  1   
 35  14  15  ar  
 36  14  16  ar  
 37  15  17  ar  
 38  15  47  1   
 39  16  18  ar  
 40  16  48  1   
 41  17  19  ar  
 42  17  20  1   
 43  18  19  ar  
 44  18  49  1   
 45  19  21  1   
 46  20  22  1   
 47  20  50  1   
 48  20  51  1   
 49  21  23  1   
 50  22  24  1   
 51  22  25  1   
 52  23  52  1   
 53  23  53  1   
 54  23  54  1   
 55  24  26  2   
 56  25  27  2   
 57  25  55  1   
 58  26  27  1   
 59  26  56  1   
@<TRIPOS>SUBSTRUCTURE
  1 ****  12 GROUP 4 **** **** 0

# MOE 2024.06 (io_trps.svl 2023.06)
