@<TRIPOS>MOLECULE
NONAME
36 37 1 0 0 
SMALL
USER_CHARGES


@<TRIPOS>ATOM
  1 CL       0.0580     0.3390     1.6420 Cl    1 <1>  -0.1230 
  2 C       -0.8340     1.6010     0.8140 C.2   1 <1>   0.1230 
  3 C       -1.7980     1.4320    -0.1210 C.2   1 <1>  -0.3020 
  4 C       -0.6550     2.9590     1.0250 C.2   1 <1>  -0.1500 
  5 N       -2.2370     2.6560    -0.5100 N.pl3 1 <1>   0.0480 
  6 C       -1.5330     3.6170     0.1930 C.2   1 <1>  -0.2370 
  7 C       -3.2860     2.8700    -1.5290 C.3   1 <1>   0.0160 
  8 C       -1.7140     5.0380     0.0470 C.2   1 <1>   0.7150 
  9 O       -2.7040     5.5040    -0.4850 O.2   1 <1>  -0.5700 
 10 N       -0.7260     5.8630     0.5160 N.am  1 <1>  -0.4940 
 11 C       -0.5790     7.2720     0.5040 C.2   1 <1>  -0.0880 
 12 N       -1.5510     8.2180     0.6490 N.pl3 1 <1>   0.3140 
 13 C        0.5870     7.9480     0.3620 C.2   1 <1>  -0.1810 
 14 N       -1.0350     9.4650     0.6000 N.2   1 <1>  -0.7070 
 15 C       -2.9820     8.0380     0.9280 C.3   1 <1>   0.0160 
 16 C        0.2350     9.2940     0.4220 C.2   1 <1>   0.1080 
 17 C        1.9830     7.3810     0.1680 C.3   1 <1>   0.0210 
 18 C        1.1840    10.4650     0.3030 C.3   1 <1>  -0.0590 
 19 C        2.2620     7.1520    -1.3180 C.3   1 <1>  -0.2400 
 20 H       -2.1820     0.5090    -0.5170 H     1 <1>   0.1500 
 21 H        0.0480     3.3690     1.7280 H     1 <1>   0.1500 
 22 H       -3.5770     1.9290    -1.9580 H     1 <1>   0.0800 
 23 H       -2.9060     3.5140    -2.3010 H     1 <1>   0.0800 
 24 H       -4.1390     3.3340    -1.0680 H     1 <1>   0.0800 
 25 H        0.1170     5.3560     0.7680 H     1 <1>   0.3700 
 26 H       -3.1190     7.1720     1.5480 H     1 <1>   0.0800 
 27 H       -3.5040     7.9110    -0.0010 H     1 <1>   0.0800 
 28 H       -3.3540     8.9080     1.4350 H     1 <1>   0.0800 
 29 H        2.0720     6.4510     0.6990 H     1 <1>   0.0800 
 30 H        2.7110     8.0600     0.5760 H     1 <1>   0.0800 
 31 H        1.8610    10.3100    -0.5150 H     1 <1>   0.0800 
 32 H        1.7390    10.5730     1.2150 H     1 <1>   0.0800 
 33 H        0.6260    11.3660     0.1250 H     1 <1>   0.0800 
 34 H        1.5440     6.4630    -1.7270 H     1 <1>   0.0800 
 35 H        3.2490     6.7480    -1.4550 H     1 <1>   0.0800 
 36 H        2.1880     8.0800    -1.8570 H     1 <1>   0.0800 
@<TRIPOS>BOND
  1   1   2  1   
  2   2   3  2   
  3   2   4  1   
  4   3   5  1   
  5   3  20  1   
  6   4   6  2   
  7   4  21  1   
  8   5   6  1   
  9   5   7  1   
 10   6   8  1   
 11   7  22  1   
 12   7  23  1   
 13   7  24  1   
 14   8   9  2   
 15   8  10  am  
 16  10  11  1   
 17  10  25  1   
 18  11  12  1   
 19  11  13  2   
 20  12  14  1   
 21  12  15  1   
 22  13  16  1   
 23  13  17  1   
 24  14  16  2   
 25  15  26  1   
 26  15  27  1   
 27  15  28  1   
 28  16  18  1   
 29  17  19  1   
 30  17  29  1   
 31  17  30  1   
 32  18  31  1   
 33  18  32  1   
 34  18  33  1   
 35  19  34  1   
 36  19  35  1   
 37  19  36  1   
@<TRIPOS>SUBSTRUCTURE
  1 ****  10 GROUP 4 **** **** 0

# MOE 2024.06 (io_trps.svl 2023.06)
