@<TRIPOS>MOLECULE
NONAME
57 60 1 0 0 
SMALL
USER_CHARGES


@<TRIPOS>ATOM
  1 O        1.2700    -0.4480     1.8380 O.2   1 <1>  -0.5700 
  2 C        1.9910    -1.2650     1.2850 C.2   1 <1>   0.5440 
  3 N        1.5490    -2.5800     1.2190 N.am  1 <1>  -0.6600 
  4 C        3.2540    -0.7980     0.7040 C.ar  1 <1>   0.3960 
  5 C        0.3890    -3.0570     2.0270 C.3   1 <1>   0.1400 
  6 C        2.2040    -3.6270     0.3820 C.3   1 <1>   0.1400 
  7 N        4.4000    -1.4780     0.9070 N.ar  1 <1>  -0.6200 
  8 C        3.2390     0.3760    -0.0530 C.ar  1 <1>  -0.1500 
  9 C       -0.6430    -3.7380     1.1240 C.3   1 <1>  -0.1600 
 10 C        1.1680    -4.3130    -0.5120 C.3   1 <1>  -0.1600 
 11 C        5.4960    -0.9860     0.3600 C.ar  1 <1>   0.1600 
 12 C        4.3890     0.8760    -0.6220 C.ar  1 <1>  -0.1500 
 13 C       -0.0020    -4.8780     0.3110 C.3   1 <1>  -0.0190 
 14 C        5.5470     0.1670    -0.4020 C.ar  1 <1>  -0.1500 
 15 C       -1.0220    -5.5930    -0.5900 C.2   1 <1>   0.5690 
 16 O       -1.7240    -4.8950    -1.2860 O.2   1 <1>  -0.5700 
 17 N       -1.1570    -6.9630    -0.6240 N.am  1 <1>  -0.6600 
 18 C       -0.3160    -7.9150     0.1900 C.3   1 <1>   0.3640 
 19 C       -2.2610    -7.5360    -1.4570 C.3   1 <1>   0.1400 
 20 C        1.1420    -7.8270    -0.2730 C.ar  1 <1>  -0.1430 
 21 C       -0.7550    -9.4150     0.1860 C.3   1 <1>   0.2000 
 22 C       -2.1630    -9.0500    -1.6420 C.3   1 <1>   0.1200 
 23 C        1.4720    -7.8600    -1.6220 C.ar  1 <1>  -0.1500 
 24 C        2.1610    -7.7090     0.6640 C.ar  1 <1>  -0.1500 
 25 O       -2.0060    -9.6470    -0.3980 O.3   1 <1>  -0.5600 
 26 C       -0.8260   -10.0000     1.6050 C.3   1 <1>   0.1200 
 27 C        2.7920    -7.7740    -2.0260 C.ar  1 <1>  -0.1500 
 28 C        3.4820    -7.6210     0.2610 C.ar  1 <1>  -0.1500 
 29 O        0.3900    -9.8570     2.2680 O.3   1 <1>  -0.6800 
 30 C        3.7980    -7.6540    -1.0850 C.ar  1 <1>  -0.1500 
 31 H        0.7460    -3.7530     2.7660 H     1 <1>   0.0800 
 32 H       -0.0810    -2.2390     2.5470 H     1 <1>   0.0800 
 33 H        2.9640    -3.2010    -0.2470 H     1 <1>   0.0800 
 34 H        2.6710    -4.3510     1.0270 H     1 <1>   0.0800 
 35 H        2.3040     0.8910    -0.1840 H     1 <1>   0.1500 
 36 H       -1.4410    -4.1280     1.7280 H     1 <1>   0.0800 
 37 H       -1.0640    -3.0010     0.4610 H     1 <1>   0.0800 
 38 H        0.7980    -3.6030    -1.2300 H     1 <1>   0.0800 
 39 H        1.6480    -5.1040    -1.0560 H     1 <1>   0.0800 
 40 H        6.4100    -1.5310     0.5290 H     1 <1>   0.1500 
 41 H        4.3810     1.7810    -1.2060 H     1 <1>   0.1500 
 42 H        0.4000    -5.5650     1.0250 H     1 <1>   0.0800 
 43 H        6.4820     0.5020    -0.8140 H     1 <1>   0.1500 
 44 H       -0.3650    -7.5810     1.2110 H     1 <1>   0.0800 
 45 H       -3.2010    -7.3040    -0.9880 H     1 <1>   0.0800 
 46 H       -2.2580    -7.0660    -2.4260 H     1 <1>   0.0800 
 47 H       -0.0430    -9.9920    -0.3790 H     1 <1>   0.0800 
 48 H       -1.3360    -9.3170    -2.2760 H     1 <1>   0.0800 
 49 H       -3.0720    -9.4270    -2.0780 H     1 <1>   0.0800 
 50 H        0.7000    -7.9430    -2.3660 H     1 <1>   0.1500 
 51 H        1.9320    -7.6860     1.7160 H     1 <1>   0.1500 
 52 H       -1.0690   -11.0480     1.5690 H     1 <1>   0.0800 
 53 H       -1.5730    -9.4800     2.1790 H     1 <1>   0.0800 
 54 H        3.0370    -7.7980    -3.0740 H     1 <1>   0.1500 
 55 H        4.2630    -7.5290     0.9950 H     1 <1>   0.1500 
 56 H        1.0660   -10.4560     1.8890 H     1 <1>   0.4000 
 57 H        4.8260    -7.5850    -1.3990 H     1 <1>   0.1500 
@<TRIPOS>BOND
  1   1   2  2   
  2   2   3  am  
  3   2   4  1   
  4   3   5  1   
  5   3   6  1   
  6   4   7  ar  
  7   4   8  ar  
  8   5   9  1   
  9   5  31  1   
 10   5  32  1   
 11   6  10  1   
 12   6  33  1   
 13   6  34  1   
 14   7  11  ar  
 15   8  12  ar  
 16   8  35  1   
 17   9  13  1   
 18   9  36  1   
 19   9  37  1   
 20  10  13  1   
 21  10  38  1   
 22  10  39  1   
 23  11  14  ar  
 24  11  40  1   
 25  12  14  ar  
 26  12  41  1   
 27  13  15  1   
 28  13  42  1   
 29  14  43  1   
 30  15  16  2   
 31  15  17  am  
 32  17  18  1   
 33  17  19  1   
 34  18  20  1   
 35  18  21  1   
 36  18  44  1   
 37  19  22  1   
 38  19  45  1   
 39  19  46  1   
 40  20  23  ar  
 41  20  24  ar  
 42  21  25  1   
 43  21  26  1   
 44  21  47  1   
 45  22  25  1   
 46  22  48  1   
 47  22  49  1   
 48  23  27  ar  
 49  23  50  1   
 50  24  28  ar  
 51  24  51  1   
 52  26  29  1   
 53  26  52  1   
 54  26  53  1   
 55  27  30  ar  
 56  27  54  1   
 57  28  30  ar  
 58  28  55  1   
 59  29  56  1   
 60  30  57  1   
@<TRIPOS>SUBSTRUCTURE
  1 ****  10 GROUP 4 **** **** 0

# MOE 2024.06 (io_trps.svl 2023.06)
