@<TRIPOS>MOLECULE
NONAME
54 56 1 0 0 
SMALL
USER_CHARGES


@<TRIPOS>ATOM
  1 O       -1.0400     0.5090    -2.6780 O.2   1 <1>  -0.5700 
  2 C       -1.8150    -0.1470    -2.0210 C.2   1 <1>   0.5690 
  3 N       -2.6320     0.3810    -1.0400 N.am  1 <1>  -0.2980 
  4 C       -1.8840    -1.6420    -2.2380 C.3   1 <1>  -0.0990 
  5 N       -3.5490    -0.3420    -0.2990 N.2   1 <1>  -0.5120 
  6 C       -2.5160     1.8200    -0.6990 C.3   1 <1>   0.1400 
  7 C       -3.2850    -2.1780    -1.9030 C.3   1 <1>  -0.0990 
  8 C       -3.8730    -1.5370    -0.6380 C.2   1 <1>   0.3030 
  9 C       -1.3220     2.0500     0.2280 C.3   1 <1>   0.1400 
 10 C       -4.8120    -2.3290     0.1290 C.ar  1 <1>   0.0860 
 11 N       -0.9880     3.4950     0.2790 N.am  1 <1>  -0.7300 
 12 C       -4.9650    -2.1120     1.5010 C.ar  1 <1>  -0.1500 
 13 C       -5.6090    -3.3290    -0.4420 C.ar  1 <1>  -0.1500 
 14 C       -1.3790     4.3560     1.2530 C.2   1 <1>   0.5690 
 15 C       -5.8440    -2.8560     2.2660 C.ar  1 <1>  -0.1500 
 16 C       -6.4890    -4.0780     0.3170 C.ar  1 <1>  -0.1500 
 17 O       -2.0470     3.9990     2.1920 O.2   1 <1>  -0.5700 
 18 C       -0.9820     5.8260     1.1430 C.3   1 <1>  -0.0190 
 19 C       -6.6080    -3.8450     1.6750 C.ar  1 <1>  -0.1500 
 20 C       -1.5250     6.4670    -0.1500 C.3   1 <1>  -0.1600 
 21 C        0.5480     6.0260     1.2750 C.3   1 <1>  -0.1600 
 22 C       -1.2640     7.9860    -0.2010 C.3   1 <1>   0.2000 
 23 C        1.0590     7.3330     0.6380 C.3   1 <1>  -0.1600 
 24 O       -1.0700     8.3460    -1.5460 O.3   1 <1>  -0.5600 
 25 C       -0.0240     8.4150     0.6280 C.3   1 <1>   0.2000 
 26 C       -2.2380     8.5230    -2.2870 C.3   1 <1>   0.0400 
 27 O        0.5190     9.5560     0.0740 O.3   1 <1>  -0.6800 
 28 H       -1.6260    -1.8750    -3.2550 H     1 <1>   0.0800 
 29 H       -1.1590    -2.0980    -1.5890 H     1 <1>   0.0800 
 30 H       -2.3890     2.3800    -1.6080 H     1 <1>   0.0800 
 31 H       -3.4180     2.1460    -0.2130 H     1 <1>   0.0800 
 32 H       -3.2210    -3.2450    -1.7880 H     1 <1>   0.0800 
 33 H       -3.9480    -1.9630    -2.7220 H     1 <1>   0.0800 
 34 H       -0.4630     1.5120    -0.1350 H     1 <1>   0.0800 
 35 H       -1.5630     1.6930     1.2150 H     1 <1>   0.0800 
 36 H       -0.4320     3.8450    -0.5040 H     1 <1>   0.3700 
 37 H       -4.3790    -1.3430     1.9760 H     1 <1>   0.1500 
 38 H       -5.5530    -3.5260    -1.4960 H     1 <1>   0.1500 
 39 H       -5.9340    -2.6640     3.3210 H     1 <1>   0.1500 
 40 H       -7.0880    -4.8440    -0.1470 H     1 <1>   0.1500 
 41 H       -1.4500     6.3330     1.9690 H     1 <1>   0.0800 
 42 H       -7.2930    -4.4270     2.2680 H     1 <1>   0.1500 
 43 H       -2.5840     6.2880    -0.2180 H     1 <1>   0.0800 
 44 H       -1.0480     5.9990    -0.9930 H     1 <1>   0.0800 
 45 H        0.7960     6.0180     2.3230 H     1 <1>   0.0800 
 46 H        1.0760     5.2050     0.8220 H     1 <1>   0.0800 
 47 H       -2.1150     8.5230     0.1850 H     1 <1>   0.0800 
 48 H        1.3530     7.1360    -0.3790 H     1 <1>   0.0800 
 49 H        1.9220     7.6840     1.1770 H     1 <1>   0.0800 
 50 H       -0.3100     8.6430     1.6400 H     1 <1>   0.0800 
 51 H       -1.9600     8.7990    -3.2890 H     1 <1>   0.0800 
 52 H       -2.8230     9.3110    -1.8450 H     1 <1>   0.0800 
 53 H       -2.7950     7.6030    -2.3090 H     1 <1>   0.0800 
 54 H        0.3180     9.5080    -0.8880 H     1 <1>   0.4000 
@<TRIPOS>BOND
  1   1   2  2   
  2   2   3  am  
  3   2   4  1   
  4   3   5  1   
  5   3   6  1   
  6   4   7  1   
  7   4  28  1   
  8   4  29  1   
  9   5   8  2   
 10   6   9  1   
 11   6  30  1   
 12   6  31  1   
 13   7   8  1   
 14   7  32  1   
 15   7  33  1   
 16   8  10  1   
 17   9  11  1   
 18   9  34  1   
 19   9  35  1   
 20  10  12  ar  
 21  10  13  ar  
 22  11  14  am  
 23  11  36  1   
 24  12  15  ar  
 25  12  37  1   
 26  13  16  ar  
 27  13  38  1   
 28  14  17  2   
 29  14  18  1   
 30  15  19  ar  
 31  15  39  1   
 32  16  19  ar  
 33  16  40  1   
 34  18  20  1   
 35  18  21  1   
 36  18  41  1   
 37  19  42  1   
 38  20  22  1   
 39  20  43  1   
 40  20  44  1   
 41  21  23  1   
 42  21  45  1   
 43  21  46  1   
 44  22  24  1   
 45  22  25  1   
 46  22  47  1   
 47  23  25  1   
 48  23  48  1   
 49  23  49  1   
 50  24  26  1   
 51  25  27  1   
 52  25  50  1   
 53  26  51  1   
 54  26  52  1   
 55  26  53  1   
 56  27  54  1   
@<TRIPOS>SUBSTRUCTURE
  1 ****   6 GROUP 4 **** **** 0

# MOE 2024.06 (io_trps.svl 2023.06)
