@<TRIPOS>MOLECULE
NONAME
53 55 1 0 0 
SMALL
USER_CHARGES


@<TRIPOS>ATOM
  1 S       -0.8160     0.2370     0.5810 S.3   1 <1>  -0.4600 
  2 C       -1.5700     1.2350    -0.7090 C.3   1 <1>   0.0700 
  3 C        0.8680     0.8650     0.5980 C.3   1 <1>   0.0700 
  4 C       -1.4380     2.6990    -0.2870 C.3   1 <1>  -0.1600 
  5 C        0.8040     2.3630     0.9000 C.3   1 <1>  -0.1600 
  6 C        0.0250     3.1790    -0.1580 C.3   1 <1>   0.4230 
  7 N        0.0180     4.6480     0.1830 N.4   1 <1>  -0.9590 
  8 C       -0.5070     5.4840    -0.9510 C.3   1 <1>   0.3430 
  9 C        1.3430     5.1850     0.6450 C.3   1 <1>   0.3430 
 10 C       -0.6680     6.9400    -0.5250 C.3   1 <1>  -0.1600 
 11 C        1.2090     6.6330     1.0940 C.3   1 <1>  -0.1600 
 12 C        0.6670     7.4890    -0.0420 C.3   1 <1>   0.2890 
 13 N        0.4830     8.8600     0.4480 N.pl3 1 <1>  -0.8690 
 14 C        1.4380     9.8480     0.3020 C.ar  1 <1>   0.4100 
 15 N        2.6720     9.4130     0.0640 N.ar  1 <1>  -0.6200 
 16 C        1.0960    11.2100     0.3920 C.ar  1 <1>   0.0860 
 17 C        3.6080    10.3230    -0.1260 C.ar  1 <1>   0.1670 
 18 C       -0.2430    11.6470     0.7000 C.2   1 <1>   0.5440 
 19 C        2.0990    12.1400     0.1680 C.ar  1 <1>  -0.1500 
 20 C        3.3760    11.6950    -0.0950 C.ar  1 <1>  -0.1430 
 21 C        4.9970     9.7760    -0.3970 C.3   1 <1>  -0.0970 
 22 O       -0.7770    12.5420     0.0810 O.2   1 <1>  -0.5700 
 23 N       -0.9700    11.1130     1.7110 N.am  1 <1>  -0.8000 
 24 C        4.4790    12.7170    -0.3410 C.3   1 <1>  -0.0970 
 25 H       -2.6000     0.9300    -0.7790 H     1 <1>   0.0800 
 26 H       -1.0600     1.0190    -1.6320 H     1 <1>   0.0800 
 27 H        1.3050     0.6540    -0.3640 H     1 <1>   0.0800 
 28 H        1.3970     0.3250     1.3650 H     1 <1>   0.0800 
 29 H       -1.9480     2.8250     0.6520 H     1 <1>   0.0800 
 30 H       -1.9630     3.2650    -1.0320 H     1 <1>   0.0800 
 31 H        1.8270     2.6840     0.9430 H     1 <1>   0.0800 
 32 H        0.3590     2.4960     1.8700 H     1 <1>   0.0800 
 33 H        0.5160     3.0430    -1.1090 H     1 <1>   0.0800 
 34 H       -0.6320     4.7550     0.9730 H     1 <1>   0.4500 
 35 H       -1.4670     5.1220    -1.2780 H     1 <1>   0.0800 
 36 H        0.1730     5.4290    -1.7860 H     1 <1>   0.0800 
 37 H        2.0650     5.1210    -0.1530 H     1 <1>   0.0800 
 38 H        1.7100     4.6120     1.4810 H     1 <1>   0.0800 
 39 H       -1.4100     7.0110     0.2500 H     1 <1>   0.0800 
 40 H       -1.0000     7.5170    -1.3700 H     1 <1>   0.0800 
 41 H        2.1790     7.0010     1.3770 H     1 <1>   0.0800 
 42 H        0.5650     6.6940     1.9540 H     1 <1>   0.0800 
 43 H        1.3670     7.4900    -0.8630 H     1 <1>   0.0800 
 44 H       -0.4870     9.1930     0.4830 H     1 <1>   0.4000 
 45 H        1.8640    13.1900     0.2040 H     1 <1>   0.1500 
 46 H        5.0340     8.7220    -0.1900 H     1 <1>   0.0800 
 47 H        5.7210    10.2650     0.2280 H     1 <1>   0.0800 
 48 H        5.2530     9.9320    -1.4280 H     1 <1>   0.0800 
 49 H       -1.8480    11.5720     1.9590 H     1 <1>   0.3700 
 50 H       -0.5400    10.5360     2.4360 H     1 <1>   0.3700 
 51 H        4.9760    12.5120    -1.2730 H     1 <1>   0.0800 
 52 H        5.2000    12.6830     0.4560 H     1 <1>   0.0800 
 53 H        4.0770    13.7130    -0.3910 H     1 <1>   0.0800 
@<TRIPOS>BOND
  1   1   2  1   
  2   1   3  1   
  3   2   4  1   
  4   2  25  1   
  5   2  26  1   
  6   3   5  1   
  7   3  27  1   
  8   3  28  1   
  9   4   6  1   
 10   4  29  1   
 11   4  30  1   
 12   5   6  1   
 13   5  31  1   
 14   5  32  1   
 15   6   7  1   
 16   6  33  1   
 17   7   8  1   
 18   7   9  1   
 19   7  34  1   
 20   8  10  1   
 21   8  35  1   
 22   8  36  1   
 23   9  11  1   
 24   9  37  1   
 25   9  38  1   
 26  10  12  1   
 27  10  39  1   
 28  10  40  1   
 29  11  12  1   
 30  11  41  1   
 31  11  42  1   
 32  12  13  1   
 33  12  43  1   
 34  13  14  1   
 35  13  44  1   
 36  14  15  ar  
 37  14  16  ar  
 38  15  17  ar  
 39  16  18  1   
 40  16  19  ar  
 41  17  20  ar  
 42  17  21  1   
 43  18  22  2   
 44  18  23  am  
 45  19  20  ar  
 46  19  45  1   
 47  20  24  1   
 48  21  46  1   
 49  21  47  1   
 50  21  48  1   
 51  23  49  1   
 52  23  50  1   
 53  24  51  1   
 54  24  52  1   
 55  24  53  1   
@<TRIPOS>SUBSTRUCTURE
  1 ****  12 GROUP 4 **** **** 0

# MOE 2024.06 (io_trps.svl 2023.06)
