@<TRIPOS>MOLECULE
NONAME
42 43 1 0 0 
SMALL
USER_CHARGES


@<TRIPOS>ATOM
  1 S       -1.7230    -0.9810    -1.0270 S.3   1 <1>  -0.0800 
  2 C       -1.0970     0.5210    -0.4610 C.2   1 <1>   0.4340 
  3 C       -2.0800    -1.3340     0.6360 C.2   1 <1>   0.4420 
  4 S       -0.4410     1.6360    -1.6920 S.3   1 <1>  -0.2860 
  5 N       -1.1670     0.6880     0.7960 N.2   1 <1>  -0.3380 
  6 N       -1.7350    -0.3840     1.4320 N.2   1 <1>  -0.3380 
  7 N       -2.6710    -2.5520     0.8910 N.am  1 <1>  -0.4940 
  8 C        0.1090     3.0840    -0.6900 C.3   1 <1>   0.0700 
  9 C       -3.1090    -3.0990     2.0590 C.2   1 <1>   0.5690 
 10 C        0.6960     4.1230    -1.6430 C.3   1 <1>  -0.2400 
 11 O       -3.0630    -2.5490     3.1300 O.2   1 <1>  -0.5700 
 12 C       -3.6930    -4.5100     1.9670 C.3   1 <1>   0.1710 
 13 N       -4.1770    -4.8790     0.5960 N.3   1 <1>  -0.8100 
 14 C       -4.3060    -6.3460     0.4850 C.3   1 <1>   0.1100 
 15 C       -5.4640    -4.2060     0.3210 C.3   1 <1>   0.0300 
 16 C       -4.4140    -6.7930    -0.9770 C.3   1 <1>   0.0960 
 17 N       -4.4610    -8.2650    -1.0390 N.pl3 1 <1>   0.0480 
 18 C       -5.5390    -9.0880    -1.0030 C.2   1 <1>   0.0060 
 19 C       -3.4020    -9.0920    -1.1130 C.2   1 <1>  -0.3020 
 20 N       -5.2350   -10.3430    -1.0480 N.2   1 <1>  -0.5650 
 21 C       -6.9710    -8.6000    -0.9180 C.3   1 <1>  -0.0600 
 22 C       -3.8920   -10.3500    -1.1190 C.2   1 <1>   0.0770 
 23 H       -2.8610    -3.1550     0.0890 H     1 <1>   0.3700 
 24 H        0.8410     2.7280     0.0150 H     1 <1>   0.0800 
 25 H       -0.7540     3.4600    -0.1680 H     1 <1>   0.0800 
 26 H        1.5360     3.7090    -2.1720 H     1 <1>   0.0800 
 27 H        1.0270     4.9820    -1.0890 H     1 <1>   0.0800 
 28 H       -0.0480     4.4360    -2.3540 H     1 <1>   0.0800 
 29 H       -4.4930    -4.6030     2.6820 H     1 <1>   0.0800 
 30 H       -2.9100    -5.1830     2.2670 H     1 <1>   0.0800 
 31 H       -5.1640    -6.6860     1.0420 H     1 <1>   0.0800 
 32 H       -3.4280    -6.8110     0.9020 H     1 <1>   0.0800 
 33 H       -5.3700    -3.1420     0.4550 H     1 <1>   0.0800 
 34 H       -6.2300    -4.5670     0.9870 H     1 <1>   0.0800 
 35 H       -5.7730    -4.3830    -0.6940 H     1 <1>   0.0800 
 36 H       -3.5560    -6.4530    -1.5260 H     1 <1>   0.0800 
 37 H       -5.3030    -6.4010    -1.4330 H     1 <1>   0.0800 
 38 H       -2.3830    -8.7550    -1.1580 H     1 <1>   0.1500 
 39 H       -7.1150    -8.0200    -0.0260 H     1 <1>   0.0800 
 40 H       -7.6380    -9.4430    -0.8890 H     1 <1>   0.0800 
 41 H       -7.2100    -8.0050    -1.7800 H     1 <1>   0.0800 
 42 H       -3.3420   -11.2750    -1.1710 H     1 <1>   0.1500 
@<TRIPOS>BOND
  1   1   2  1   
  2   1   3  1   
  3   2   4  1   
  4   2   5  2   
  5   3   6  2   
  6   3   7  1   
  7   4   8  1   
  8   5   6  1   
  9   7   9  am  
 10   7  23  1   
 11   8  10  1   
 12   8  24  1   
 13   8  25  1   
 14   9  11  2   
 15   9  12  1   
 16  10  26  1   
 17  10  27  1   
 18  10  28  1   
 19  12  13  1   
 20  12  29  1   
 21  12  30  1   
 22  13  14  1   
 23  13  15  1   
 24  14  16  1   
 25  14  31  1   
 26  14  32  1   
 27  15  33  1   
 28  15  34  1   
 29  15  35  1   
 30  16  17  1   
 31  16  36  1   
 32  16  37  1   
 33  17  18  1   
 34  17  19  1   
 35  18  20  2   
 36  18  21  1   
 37  19  22  2   
 38  19  38  1   
 39  20  22  1   
 40  21  39  1   
 41  21  40  1   
 42  21  41  1   
 43  22  42  1   
@<TRIPOS>SUBSTRUCTURE
  1 ****   7 GROUP 4 **** **** 0

# MOE 2024.06 (io_trps.svl 2023.06)
