@<TRIPOS>MOLECULE
NONAME
47 50 1 0 0 
SMALL
USER_CHARGES


@<TRIPOS>ATOM
  1 S        0.6790     0.7080     1.6970 S.o2  1 <1>   1.2950 
  2 O        1.2790     1.9430     2.1640 O.2   1 <1>  -0.6500 
  3 O        0.1020    -0.1870     2.6800 O.2   1 <1>  -0.6500 
  4 N        1.8400    -0.2040     0.7030 N.pl3 1 <1>   0.3170 
  5 C       -0.6030     1.1010     0.4780 C.ar  1 <1>  -0.0090 
  6 C        2.4550     0.1280    -0.4900 C.2   1 <1>  -0.3320 
  7 C        2.1340    -1.5310     0.8980 C.2   1 <1>  -0.3020 
  8 C       -1.2510     0.0920    -0.2280 C.ar  1 <1>  -0.1500 
  9 C       -0.9650     2.4170     0.2110 C.ar  1 <1>  -0.1500 
 10 C        3.0800    -0.9650    -1.0090 C.2   1 <1>  -0.1500 
 11 C        2.4160     1.5070    -1.1420 C.3   1 <1>   0.2900 
 12 C        2.8830    -2.0200    -0.1200 C.2   1 <1>  -0.1500 
 13 C       -2.2140     0.3850    -1.1770 C.ar  1 <1>  -0.1500 
 14 C       -1.9280     2.7180    -0.7370 C.ar  1 <1>  -0.1500 
 15 N        3.6130     2.3050    -0.8450 N.3   1 <1>  -0.8100 
 16 C       -2.5530     1.7010    -1.4340 C.ar  1 <1>  -0.1500 
 17 C        3.6430     2.8290     0.5440 C.3   1 <1>   0.1100 
 18 C        4.8660     1.6610    -1.3000 C.3   1 <1>   0.1100 
 19 C        4.7090     3.9130     0.8560 C.3   1 <1>   0.2200 
 20 C        6.0890     2.5990    -1.3570 C.3   1 <1>  -0.0190 
 21 N        5.1400     4.6570    -0.3550 N.am  1 <1>  -0.7300 
 22 C        5.9290     3.3380     1.6070 C.3   1 <1>   0.1200 
 23 C        5.7170     4.0680    -1.4220 C.2   1 <1>   0.5690 
 24 C        7.0890     2.3480    -0.2160 C.3   1 <1>   0.1200 
 25 O        6.4550     2.1830     1.0170 O.3   1 <1>  -0.5600 
 26 O        5.9670     4.7090    -2.4130 O.2   1 <1>  -0.5700 
 27 H        1.7800    -2.0590     1.7680 H     1 <1>   0.1500 
 28 H       -1.0050    -0.9400    -0.0350 H     1 <1>   0.1500 
 29 H       -0.4910     3.2210     0.7490 H     1 <1>   0.1500 
 30 H        3.6350    -1.0380    -1.9290 H     1 <1>   0.1500 
 31 H        1.5400     2.0570    -0.8520 H     1 <1>   0.0800 
 32 H        2.3590     1.3790    -2.2100 H     1 <1>   0.0800 
 33 H        3.2640    -3.0200    -0.2480 H     1 <1>   0.1500 
 34 H       -2.7040    -0.4100    -1.7140 H     1 <1>   0.1500 
 35 H       -2.1930     3.7440    -0.9300 H     1 <1>   0.1500 
 36 H       -3.3030     1.9320    -2.1710 H     1 <1>   0.1500 
 37 H        2.6920     3.2890     0.7360 H     1 <1>   0.0800 
 38 H        3.7530     2.0130     1.2370 H     1 <1>   0.0800 
 39 H        5.0880     0.8150    -0.6720 H     1 <1>   0.0800 
 40 H        4.7020     1.2900    -2.2970 H     1 <1>   0.0800 
 41 H        4.2550     4.6230     1.5240 H     1 <1>   0.0800 
 42 H        6.6170     2.3780    -2.2650 H     1 <1>   0.0800 
 43 H        4.7750     5.5980    -0.4980 H     1 <1>   0.3700 
 44 H        5.6240     3.0580     2.5990 H     1 <1>   0.0800 
 45 H        6.7080     4.0760     1.6920 H     1 <1>   0.0800 
 46 H        7.8070     3.1470    -0.1410 H     1 <1>   0.0800 
 47 H        7.6210     1.4330    -0.4090 H     1 <1>   0.0800 
@<TRIPOS>BOND
  1   1   2  2   
  2   1   3  2   
  3   1   4  1   
  4   1   5  1   
  5   4   6  1   
  6   4   7  1   
  7   5   8  ar  
  8   5   9  ar  
  9   6  10  2   
 10   6  11  1   
 11   7  12  2   
 12   7  27  1   
 13   8  13  ar  
 14   8  28  1   
 15   9  14  ar  
 16   9  29  1   
 17  10  12  1   
 18  10  30  1   
 19  11  15  1   
 20  11  31  1   
 21  11  32  1   
 22  12  33  1   
 23  13  16  ar  
 24  13  34  1   
 25  14  16  ar  
 26  14  35  1   
 27  15  17  1   
 28  15  18  1   
 29  16  36  1   
 30  17  19  1   
 31  17  37  1   
 32  17  38  1   
 33  18  20  1   
 34  18  39  1   
 35  18  40  1   
 36  19  21  1   
 37  19  22  1   
 38  19  41  1   
 39  20  23  1   
 40  20  24  1   
 41  20  42  1   
 42  21  23  am  
 43  21  43  1   
 44  22  25  1   
 45  22  44  1   
 46  22  45  1   
 47  23  26  2   
 48  24  25  1   
 49  24  46  1   
 50  24  47  1   
@<TRIPOS>SUBSTRUCTURE
  1 ****  11 GROUP 4 **** **** 0

# MOE 2024.06 (io_trps.svl 2023.06)
