@<TRIPOS>MOLECULE
NONAME
57 59 1 0 0 
SMALL
USER_CHARGES


@<TRIPOS>ATOM
  1 O       -3.8900     1.9930    -1.5700 O.2   1 <1>  -0.5700 
  2 C       -3.2930     1.2360    -0.8390 C.2   1 <1>   0.5690 
  3 N       -3.5180    -0.1200    -0.9140 N.am  1 <1>  -0.6600 
  4 C       -2.2960     1.8640     0.1480 C.3   1 <1>  -0.0190 
  5 C       -2.8060    -1.1430    -0.0630 C.3   1 <1>   0.3640 
  6 C       -4.5910    -0.6010    -1.8400 C.3   1 <1>   0.1400 
  7 C       -2.9200     3.0190     0.9510 C.3   1 <1>  -0.1600 
  8 C       -1.0400     2.3740    -0.5810 C.3   1 <1>  -0.1600 
  9 C       -1.3150    -1.1490    -0.4180 C.ar  1 <1>  -0.1430 
 10 C       -3.3450    -2.6080    -0.1290 C.3   1 <1>   0.2000 
 11 C       -4.5820    -2.1150    -2.0500 C.3   1 <1>   0.1200 
 12 C       -1.9080     3.6270     1.9260 C.3   1 <1>   0.1400 
 13 C       -0.0350     2.9820     0.3990 C.3   1 <1>   0.1400 
 14 C       -0.8900    -1.1730    -1.7400 C.ar  1 <1>  -0.1500 
 15 C       -0.3610    -1.1300     0.5920 C.ar  1 <1>  -0.1500 
 16 O       -4.5610    -2.7420    -0.8120 O.3   1 <1>  -0.5600 
 17 C       -3.5650    -3.2060     1.2680 C.3   1 <1>   0.1200 
 18 N       -0.6880     4.0680     1.1890 N.am  1 <1>  -0.6600 
 19 C        0.4590    -1.1770    -2.0470 C.ar  1 <1>  -0.1500 
 20 C        0.9880    -1.1330     0.2870 C.ar  1 <1>  -0.1500 
 21 O       -2.3970    -3.1580     2.0230 O.3   1 <1>  -0.6800 
 22 C       -0.2650     5.3790     1.2590 C.2   1 <1>   0.5690 
 23 C        1.4000    -1.1560    -1.0330 C.ar  1 <1>  -0.1500 
 24 O       -0.8760     6.1950     1.9120 O.2   1 <1>  -0.5700 
 25 C        0.9940     5.8600     0.5100 C.3   1 <1>  -0.0190 
 26 C        1.6360     7.1080     1.1460 C.3   1 <1>  -0.2400 
 27 C        0.6810     6.1530    -0.9680 C.3   1 <1>  -0.2400 
 28 H       -1.9840     1.1350     0.8660 H     1 <1>   0.0800 
 29 H       -2.9060    -0.8230     0.9590 H     1 <1>   0.0800 
 30 H       -5.5460    -0.3120    -1.4380 H     1 <1>   0.0800 
 31 H       -4.4820    -0.1160    -2.7950 H     1 <1>   0.0800 
 32 H       -3.7720     2.6600     1.5000 H     1 <1>   0.0800 
 33 H       -3.2650     3.7910     0.2840 H     1 <1>   0.0800 
 34 H       -1.3190     3.1150    -1.3090 H     1 <1>   0.0800 
 35 H       -0.5700     1.5630    -1.1060 H     1 <1>   0.0800 
 36 H       -2.6340    -3.2240    -0.6510 H     1 <1>   0.0800 
 37 H       -3.7290    -2.4280    -2.6260 H     1 <1>   0.0800 
 38 H       -5.4780    -2.4210    -2.5610 H     1 <1>   0.0800 
 39 H       -1.6250     2.8980     2.6650 H     1 <1>   0.0800 
 40 H       -2.3680     4.4540     2.4410 H     1 <1>   0.0800 
 41 H        0.8080     3.3440    -0.1570 H     1 <1>   0.0800 
 42 H        0.3170     2.2220     1.0750 H     1 <1>   0.0800 
 43 H       -1.6100    -1.1820    -2.5400 H     1 <1>   0.1500 
 44 H       -0.6640    -1.1160     1.6260 H     1 <1>   0.1500 
 45 H       -3.8770    -4.2330     1.1940 H     1 <1>   0.0800 
 46 H       -4.3170    -2.6430     1.7940 H     1 <1>   0.0800 
 47 H        0.7770    -1.1950    -3.0750 H     1 <1>   0.1500 
 48 H        1.7190    -1.1190     1.0780 H     1 <1>   0.1500 
 49 H       -1.7390    -3.8020     1.6880 H     1 <1>   0.4000 
 50 H        2.4490    -1.1590    -1.2720 H     1 <1>   0.1500 
 51 H        1.7340     5.0850     0.5640 H     1 <1>   0.0800 
 52 H        0.9600     7.9440     1.1000 H     1 <1>   0.0800 
 53 H        2.5460     7.3690     0.6360 H     1 <1>   0.0800 
 54 H        1.8640     6.9160     2.1800 H     1 <1>   0.0800 
 55 H       -0.0360     6.9510    -1.0400 H     1 <1>   0.0800 
 56 H        0.2660     5.2840    -1.4460 H     1 <1>   0.0800 
 57 H        1.5740     6.4400    -1.4940 H     1 <1>   0.0800 
@<TRIPOS>BOND
  1   1   2  2   
  2   2   3  am  
  3   2   4  1   
  4   3   5  1   
  5   3   6  1   
  6   4   7  1   
  7   4   8  1   
  8   4  28  1   
  9   5   9  1   
 10   5  10  1   
 11   5  29  1   
 12   6  11  1   
 13   6  30  1   
 14   6  31  1   
 15   7  12  1   
 16   7  32  1   
 17   7  33  1   
 18   8  13  1   
 19   8  34  1   
 20   8  35  1   
 21   9  14  ar  
 22   9  15  ar  
 23  10  16  1   
 24  10  17  1   
 25  10  36  1   
 26  11  16  1   
 27  11  37  1   
 28  11  38  1   
 29  12  18  1   
 30  12  39  1   
 31  12  40  1   
 32  13  18  1   
 33  13  41  1   
 34  13  42  1   
 35  14  19  ar  
 36  14  43  1   
 37  15  20  ar  
 38  15  44  1   
 39  17  21  1   
 40  17  45  1   
 41  17  46  1   
 42  18  22  am  
 43  19  23  ar  
 44  19  47  1   
 45  20  23  ar  
 46  20  48  1   
 47  21  49  1   
 48  22  24  2   
 49  22  25  1   
 50  23  50  1   
 51  25  26  1   
 52  25  27  1   
 53  25  51  1   
 54  26  52  1   
 55  26  53  1   
 56  26  54  1   
 57  27  55  1   
 58  27  56  1   
 59  27  57  1   
@<TRIPOS>SUBSTRUCTURE
  1 ****   4 GROUP 4 **** **** 0

# MOE 2024.06 (io_trps.svl 2023.06)
