@<TRIPOS>MOLECULE
NONAME
59 63 1 0 0 
SMALL
USER_CHARGES


@<TRIPOS>ATOM
  1 F       -2.0410     0.9680    -1.9310 F     1 <1>  -0.1900 
  2 C       -2.6640     1.2890    -0.8220 C.ar  1 <1>   0.1900 
  3 C       -1.9700     1.9650     0.1980 C.ar  1 <1>   0.1000 
  4 C       -3.9910     0.9500    -0.7270 C.ar  1 <1>  -0.1500 
  5 N       -0.6200     2.3300     0.1540 N.pl3 1 <1>  -0.8380 
  6 C       -2.7030     2.2840     1.3280 C.ar  1 <1>  -0.1500 
  7 C       -4.7240     1.2780     0.4200 C.ar  1 <1>   0.0860 
  8 C        0.4380     1.3970    -0.3490 C.3   1 <1>   0.2090 
  9 C       -0.2480     3.7730     0.0440 C.3   1 <1>   0.2090 
 10 C       -4.0500     1.9550     1.4520 C.ar  1 <1>   0.1000 
 11 C       -6.1190     0.9540     0.5770 C.2   1 <1>   0.4690 
 12 C        1.0410     1.8770    -1.6850 C.3   1 <1>   0.1200 
 13 C        0.3730     4.0890    -1.3290 C.3   1 <1>   0.1200 
 14 N       -4.7530     2.2860     2.6050 N.pl3 1 <1>  -0.6000 
 15 O       -6.7100     0.3680    -0.3230 O.2   1 <1>  -0.5700 
 16 C       -6.7840     1.3340     1.7830 C.2   1 <1>   0.0290 
 17 O        1.4340     3.2200    -1.6130 O.3   1 <1>  -0.5600 
 18 C       -6.0710     1.9750     2.7600 C.2   1 <1>  -0.0500 
 19 C       -8.1710     1.0200     1.9680 C.2   1 <1>   0.6160 
 20 O       -8.4700     0.2280     2.8460 O.2   1 <1>  -0.5700 
 21 N       -9.1850     1.6340     1.2550 N.am  1 <1>  -0.6600 
 22 C      -10.6040     1.1790     1.3560 C.3   1 <1>   0.1400 
 23 C       -8.9770     2.7140     0.2520 C.3   1 <1>   0.1400 
 24 C      -11.0790     0.6110     0.0060 C.3   1 <1>   0.0000 
 25 C       -9.4470     2.2460    -1.1310 C.3   1 <1>  -0.1600 
 26 C      -12.5300     0.1050     0.1160 C.3   1 <1>   0.2000 
 27 C      -10.8820     1.6870    -1.1000 C.3   1 <1>  -0.1600 
 28 C      -10.3420    -0.6920    -0.3550 C.3   1 <1>  -0.1600 
 29 O      -13.4680     1.1080    -0.0510 O.3   1 <1>  -0.6800 
 30 C      -12.7000    -0.9620    -0.9650 C.3   1 <1>  -0.1600 
 31 C      -11.2850    -1.4610    -1.2860 C.3   1 <1>  -0.1600 
 32 H       -4.4730     0.4320    -1.5380 H     1 <1>   0.1500 
 33 H       -2.2050     2.7940     2.1300 H     1 <1>   0.1500 
 34 H        1.2240     1.3380     0.3830 H     1 <1>   0.0800 
 35 H        0.0310     0.4090    -0.4700 H     1 <1>   0.0800 
 36 H       -1.1180     4.3870     0.1900 H     1 <1>   0.0800 
 37 H        0.4630     4.0130     0.8160 H     1 <1>   0.0800 
 38 H        0.3250     1.7730    -2.4810 H     1 <1>   0.0800 
 39 H        1.9100     1.2930    -1.9270 H     1 <1>   0.0800 
 40 H        0.7590     5.0920    -1.3380 H     1 <1>   0.0800 
 41 H       -0.3670     3.9950    -2.1040 H     1 <1>   0.0800 
 42 H       -4.2360     2.7490     3.3640 H     1 <1>   0.4000 
 43 H       -6.5480     2.2450     3.6900 H     1 <1>   0.1500 
 44 H      -10.7120     0.4320     2.1230 H     1 <1>   0.0800 
 45 H      -11.2220     2.0170     1.6310 H     1 <1>   0.0800 
 46 H       -9.5500     3.5750     0.5520 H     1 <1>   0.0800 
 47 H       -7.9440     3.0060     0.2040 H     1 <1>   0.0800 
 48 H       -9.4020     3.0750    -1.8140 H     1 <1>   0.0800 
 49 H       -8.7660     1.5010    -1.4980 H     1 <1>   0.0800 
 50 H      -12.6910    -0.3400     1.0840 H     1 <1>   0.0800 
 51 H      -11.1290     1.2860    -2.0670 H     1 <1>   0.0800 
 52 H      -11.5410     2.5160    -0.9110 H     1 <1>   0.0800 
 53 H       -9.3770    -0.5320    -0.8020 H     1 <1>   0.0800 
 54 H      -10.1920    -1.2740     0.5400 H     1 <1>   0.0800 
 55 H      -13.3760     1.4900    -0.9430 H     1 <1>   0.4000 
 56 H      -13.3130    -1.7660    -0.5950 H     1 <1>   0.0800 
 57 H      -13.1470    -0.5510    -1.8530 H     1 <1>   0.0800 
 58 H      -11.1930    -2.5230    -1.1330 H     1 <1>   0.0800 
 59 H      -11.0440    -1.2370    -2.3110 H     1 <1>   0.0800 
@<TRIPOS>BOND
  1   1   2  1   
  2   2   3  ar  
  3   2   4  ar  
  4   3   5  1   
  5   3   6  ar  
  6   4   7  ar  
  7   4  32  1   
  8   5   8  1   
  9   5   9  1   
 10   6  10  ar  
 11   6  33  1   
 12   7  10  ar  
 13   7  11  1   
 14   8  12  1   
 15   8  34  1   
 16   8  35  1   
 17   9  13  1   
 18   9  36  1   
 19   9  37  1   
 20  10  14  1   
 21  11  15  2   
 22  11  16  1   
 23  12  17  1   
 24  12  38  1   
 25  12  39  1   
 26  13  17  1   
 27  13  40  1   
 28  13  41  1   
 29  14  18  1   
 30  14  42  1   
 31  16  18  2   
 32  16  19  1   
 33  18  43  1   
 34  19  20  2   
 35  19  21  am  
 36  21  22  1   
 37  21  23  1   
 38  22  24  1   
 39  22  44  1   
 40  22  45  1   
 41  23  25  1   
 42  23  46  1   
 43  23  47  1   
 44  24  26  1   
 45  24  27  1   
 46  24  28  1   
 47  25  27  1   
 48  25  48  1   
 49  25  49  1   
 50  26  29  1   
 51  26  30  1   
 52  26  50  1   
 53  27  51  1   
 54  27  52  1   
 55  28  31  1   
 56  28  53  1   
 57  28  54  1   
 58  29  55  1   
 59  30  31  1   
 60  30  56  1   
 61  30  57  1   
 62  31  58  1   
 63  31  59  1   
@<TRIPOS>SUBSTRUCTURE
  1 ****  11 GROUP 4 **** **** 0

# MOE 2024.06 (io_trps.svl 2023.06)
