@<TRIPOS>MOLECULE
NONAME
39 40 1 0 0 
SMALL
USER_CHARGES


@<TRIPOS>ATOM
  1 F       -0.7410    -0.9670    -1.0810 F     1 <1>  -0.3400 
  2 C       -0.2250    -1.4600     0.0360 C.3   1 <1>   1.0200 
  3 F        0.9740    -0.9150     0.1760 F     1 <1>  -0.3400 
  4 F       -0.9740    -0.9980     1.0280 F     1 <1>  -0.3400 
  5 C       -0.1700    -2.9870     0.0210 C.3   1 <1>  -0.1600 
  6 C       -1.5550    -3.6570    -0.1450 C.3   1 <1>  -0.0990 
  7 C       -1.5020    -5.1790    -0.1480 C.2   1 <1>   0.5690 
  8 O       -0.4270    -5.7280    -0.1300 O.2   1 <1>  -0.5700 
  9 N       -2.6670    -5.8900    -0.1740 N.am  1 <1>  -0.6600 
 10 C       -4.0440    -5.3410    -0.2550 C.3   1 <1>   0.1400 
 11 C       -2.6940    -7.3740    -0.1540 C.3   1 <1>   0.1400 
 12 C       -4.9340    -6.5580    -0.5100 C.3   1 <1>   0.2000 
 13 C       -4.1620    -7.7470     0.0550 C.3   1 <1>  -0.0800 
 14 O       -6.1600    -6.4330     0.1210 O.3   1 <1>  -0.6800 
 15 C       -4.5550    -9.0860    -0.5850 C.3   1 <1>   0.0210 
 16 C       -3.6930   -10.2140    -0.0530 C.2   1 <1>   0.1080 
 17 N       -3.6840   -10.5620     1.1960 N.2   1 <1>  -0.7070 
 18 C       -2.8200   -10.9800    -0.8190 C.2   1 <1>  -0.1500 
 19 N       -2.7960   -11.5720     1.2610 N.pl3 1 <1>   0.3000 
 20 C       -2.2580   -11.8430     0.0530 C.2   1 <1>  -0.3320 
 21 C       -1.2230   -12.9240    -0.1970 C.3   1 <1>  -0.0600 
 22 H        0.4730    -3.2910    -0.7860 H     1 <1>   0.0800 
 23 H        0.2780    -3.3160     0.9400 H     1 <1>   0.0800 
 24 H       -1.9960    -3.3400    -1.0720 H     1 <1>   0.0800 
 25 H       -2.1970    -3.3470     0.6590 H     1 <1>   0.0800 
 26 H       -4.2960    -4.8760     0.6820 H     1 <1>   0.0800 
 27 H       -4.1280    -4.6350    -1.0620 H     1 <1>   0.0800 
 28 H       -2.3300    -7.7420    -1.0990 H     1 <1>   0.0800 
 29 H       -2.0740    -7.7600     0.6380 H     1 <1>   0.0800 
 30 H       -5.1050    -6.6650    -1.5680 H     1 <1>   0.0800 
 31 H       -4.3200    -7.8070     1.1190 H     1 <1>   0.0800 
 32 H       -6.0580    -6.5500     1.0860 H     1 <1>   0.4000 
 33 H       -4.4530    -9.0320    -1.6530 H     1 <1>   0.0800 
 34 H       -5.5830    -9.3050    -0.3580 H     1 <1>   0.0800 
 35 H       -2.6480   -10.8830    -1.8760 H     1 <1>   0.1500 
 36 H       -2.5790   -12.0520     2.1420 H     1 <1>   0.2700 
 37 H       -0.9520   -12.9430    -1.2380 H     1 <1>   0.0800 
 38 H       -1.6190   -13.8870     0.0720 H     1 <1>   0.0800 
 39 H       -0.3380   -12.7320     0.3830 H     1 <1>   0.0800 
@<TRIPOS>BOND
  1   1   2  1   
  2   2   3  1   
  3   2   4  1   
  4   2   5  1   
  5   5   6  1   
  6   5  22  1   
  7   5  23  1   
  8   6   7  1   
  9   6  24  1   
 10   6  25  1   
 11   7   8  2   
 12   7   9  am  
 13   9  10  1   
 14   9  11  1   
 15  10  12  1   
 16  10  26  1   
 17  10  27  1   
 18  11  13  1   
 19  11  28  1   
 20  11  29  1   
 21  12  13  1   
 22  12  14  1   
 23  12  30  1   
 24  13  15  1   
 25  13  31  1   
 26  14  32  1   
 27  15  16  1   
 28  15  33  1   
 29  15  34  1   
 30  16  17  2   
 31  16  18  1   
 32  17  19  1   
 33  18  20  2   
 34  18  35  1   
 35  19  20  1   
 36  19  36  1   
 37  20  21  1   
 38  21  37  1   
 39  21  38  1   
 40  21  39  1   
@<TRIPOS>SUBSTRUCTURE
  1 ****   9 GROUP 4 **** **** 0

# MOE 2024.06 (io_trps.svl 2023.06)
