@<TRIPOS>MOLECULE
NONAME
51 54 1 0 0 
SMALL
USER_CHARGES


@<TRIPOS>ATOM
  1 O       -0.7410     0.8750    -0.8350 O.2   1 <1>  -0.5700 
  2 C       -1.8320     1.0410    -0.3230 C.2   1 <1>   0.5440 
  3 N       -2.7390    -0.0070    -0.3450 N.am  1 <1>  -0.6600 
  4 C       -2.1080     2.3240     0.2900 C.ar  1 <1>   0.0860 
  5 C       -4.2200     0.1080    -0.5120 C.3   1 <1>   0.2200 
  6 C       -2.2330    -1.3980    -0.5370 C.3   1 <1>   0.0600 
  7 C       -2.3080     3.4680    -0.4900 C.ar  1 <1>  -0.1500 
  8 C       -2.1460     2.4600     1.6870 C.ar  1 <1>  -0.1500 
  9 C       -4.6310     1.0490    -1.6470 C.3   1 <1>  -0.1600 
 10 C       -4.9390     0.5640     0.7570 C.3   1 <1>  -0.1600 
 11 C       -2.5870     4.6650     0.1330 C.ar  1 <1>   0.0820 
 12 C       -2.4130     3.6750     2.3020 C.ar  1 <1>  -0.1500 
 13 C       -5.9200     1.7460    -1.1920 C.3   1 <1>  -0.0800 
 14 C       -6.0560     1.5180     0.3160 C.3   1 <1>  -0.0800 
 15 O       -2.8380     5.8540    -0.4260 O.3   1 <1>  -0.3630 
 16 C       -2.6380     4.7700     1.4920 C.ar  1 <1>   0.0820 
 17 C       -5.9280     3.2720    -1.3980 C.3   1 <1>  -0.1600 
 18 C       -5.9880     2.9150     0.9450 C.3   1 <1>  -0.1600 
 19 C       -2.9310     6.7940     0.6440 C.3   1 <1>   0.4000 
 20 O       -2.9170     6.0250     1.8450 O.3   1 <1>  -0.3630 
 21 C       -6.5260     3.8710    -0.1220 C.3   1 <1>   0.4230 
 22 N       -8.0240     3.8320    -0.1740 N.4   1 <1>  -0.9590 
 23 C       -8.5810     4.6950    -1.2660 C.3   1 <1>   0.2630 
 24 C       -8.6610     4.2360     1.1210 C.3   1 <1>   0.2630 
 25 H       -4.6160    -0.8630    -0.7620 H     1 <1>   0.0800 
 26 H       -2.7870    -2.0810     0.0820 H     1 <1>   0.0800 
 27 H       -1.1930    -1.4610    -0.2650 H     1 <1>   0.0800 
 28 H       -2.3360    -1.6820    -1.5690 H     1 <1>   0.0800 
 29 H       -2.2360     3.4150    -1.5610 H     1 <1>   0.1500 
 30 H       -1.9550     1.5890     2.2910 H     1 <1>   0.1500 
 31 H       -3.8570     1.7560    -1.8630 H     1 <1>   0.0800 
 32 H       -4.8090     0.4810    -2.5440 H     1 <1>   0.0800 
 33 H       -5.3600    -0.2920     1.2530 H     1 <1>   0.0800 
 34 H       -4.2680     1.0360     1.4430 H     1 <1>   0.0800 
 35 H       -2.4390     3.7750     3.3730 H     1 <1>   0.1500 
 36 H       -6.7630     1.2970    -1.6890 H     1 <1>   0.0800 
 37 H       -7.0150     1.0710     0.5220 H     1 <1>   0.0800 
 38 H       -6.4230     3.5530    -2.3080 H     1 <1>   0.0800 
 39 H       -4.9190     3.6360    -1.4670 H     1 <1>   0.0800 
 40 H       -4.9600     3.1760     1.1080 H     1 <1>   0.0800 
 41 H       -6.4810     2.9660     1.8970 H     1 <1>   0.0800 
 42 H       -2.0740     7.4440     0.6260 H     1 <1>   0.0800 
 43 H       -3.8510     7.3460     0.5720 H     1 <1>   0.0800 
 44 H       -6.1770     4.8790     0.0420 H     1 <1>   0.0800 
 45 H       -8.2750     2.8530    -0.3700 H     1 <1>   0.4500 
 46 H       -8.2590     5.7160    -1.1370 H     1 <1>   0.0800 
 47 H       -9.6580     4.6690    -1.2470 H     1 <1>   0.0800 
 48 H       -8.2550     4.3500    -2.2320 H     1 <1>   0.0800 
 49 H       -8.3330     5.2210     1.4090 H     1 <1>   0.0800 
 50 H       -8.4060     3.5430     1.9050 H     1 <1>   0.0800 
 51 H       -9.7350     4.2460     1.0210 H     1 <1>   0.0800 
@<TRIPOS>BOND
  1   1   2  2   
  2   2   3  am  
  3   2   4  1   
  4   3   5  1   
  5   3   6  1   
  6   4   7  ar  
  7   4   8  ar  
  8   5   9  1   
  9   5  10  1   
 10   5  25  1   
 11   6  26  1   
 12   6  27  1   
 13   6  28  1   
 14   7  11  ar  
 15   7  29  1   
 16   8  12  ar  
 17   8  30  1   
 18   9  13  1   
 19   9  31  1   
 20   9  32  1   
 21  10  14  1   
 22  10  33  1   
 23  10  34  1   
 24  11  15  1   
 25  11  16  ar  
 26  12  16  ar  
 27  12  35  1   
 28  13  14  1   
 29  13  17  1   
 30  13  36  1   
 31  14  18  1   
 32  14  37  1   
 33  15  19  1   
 34  16  20  1   
 35  17  21  1   
 36  17  38  1   
 37  17  39  1   
 38  18  21  1   
 39  18  40  1   
 40  18  41  1   
 41  19  20  1   
 42  19  42  1   
 43  19  43  1   
 44  21  22  1   
 45  21  44  1   
 46  22  23  1   
 47  22  24  1   
 48  22  45  1   
 49  23  46  1   
 50  23  47  1   
 51  23  48  1   
 52  24  49  1   
 53  24  50  1   
 54  24  51  1   
@<TRIPOS>SUBSTRUCTURE
  1 ****  18 GROUP 4 **** **** 0

# MOE 2024.06 (io_trps.svl 2023.06)
