@<TRIPOS>MOLECULE
NONAME
45 47 1 0 0 
SMALL
USER_CHARGES


@<TRIPOS>ATOM
  1 F       -2.1310    -0.1360    -2.1350 F     1 <1>  -0.1900 
  2 C       -2.7240     0.6390    -1.2670 C.ar  1 <1>   0.1900 
  3 C       -3.2170     0.0840    -0.1000 C.ar  1 <1>  -0.1440 
  4 C       -2.8460     1.9830    -1.5570 C.ar  1 <1>  -0.1500 
  5 C       -3.8570     0.9220     0.8030 C.ar  1 <1>  -0.1500 
  6 C       -3.0570    -1.3980     0.1800 C.3   1 <1>   0.4870 
  7 C       -3.4880     2.8040    -0.6460 C.ar  1 <1>  -0.1500 
  8 C       -4.0010     2.2850     0.5430 C.ar  1 <1>  -0.1440 
  9 N       -3.8990    -2.1820    -0.7680 N.4   1 <1>  -0.9590 
 10 C       -4.7220     3.1810     1.5690 C.3   1 <1>   1.1630 
 11 C       -5.3550    -1.8870    -0.5860 C.3   1 <1>   0.3430 
 12 C       -3.7300    -3.6450    -0.5070 C.3   1 <1>   0.3430 
 13 F       -6.0060     2.8620     1.6710 F     1 <1>  -0.3400 
 14 F       -4.2080     3.0530     2.7850 F     1 <1>  -0.3400 
 15 F       -4.6770     4.4740     1.2730 F     1 <1>  -0.3400 
 16 C       -5.8610    -2.9290     0.4150 C.3   1 <1>   0.2000 
 17 C       -5.0730    -4.1770     0.0130 C.3   1 <1>  -0.0800 
 18 O       -5.4970    -2.5200     1.6970 O.3   1 <1>  -0.6800 
 19 C       -4.9040    -5.2530     1.1030 C.3   1 <1>   0.0210 
 20 C       -4.1530    -6.4580     0.5720 C.2   1 <1>   0.1080 
 21 N       -2.9500    -6.3850     0.0880 N.2   1 <1>  -0.7070 
 22 C       -4.6520    -7.7550     0.5460 C.2   1 <1>  -0.1500 
 23 N       -2.6430    -7.6550    -0.2520 N.pl3 1 <1>   0.3000 
 24 C       -3.6620    -8.4990     0.0110 C.2   1 <1>  -0.3320 
 25 C       -3.6240    -9.9920    -0.2630 C.3   1 <1>  -0.0600 
 26 H       -2.4470     2.3790    -2.4750 H     1 <1>   0.1500 
 27 H       -4.2510     0.5150     1.7230 H     1 <1>   0.1500 
 28 H       -3.3490    -1.6110     1.1960 H     1 <1>   0.0800 
 29 H       -2.0210    -1.6720     0.0610 H     1 <1>   0.0800 
 30 H       -3.5830     3.8550    -0.8740 H     1 <1>   0.1500 
 31 H       -3.5910    -1.9360    -1.7190 H     1 <1>   0.4500 
 32 H       -5.5360    -0.8850    -0.2330 H     1 <1>   0.0800 
 33 H       -5.8670    -2.0270    -1.5240 H     1 <1>   0.0800 
 34 H       -3.4470    -4.1740    -1.4040 H     1 <1>   0.0800 
 35 H       -2.9650    -3.8100     0.2350 H     1 <1>   0.0800 
 36 H       -6.9300    -3.0550     0.3760 H     1 <1>   0.0800 
 37 H       -5.5750    -4.6340    -0.8230 H     1 <1>   0.0800 
 38 H       -5.9770    -3.0330     2.3820 H     1 <1>   0.4000 
 39 H       -5.8690    -5.5690     1.4570 H     1 <1>   0.0800 
 40 H       -4.3520    -4.8630     1.9400 H     1 <1>   0.0800 
 41 H       -5.6210    -8.0770     0.8870 H     1 <1>   0.1500 
 42 H       -1.7350    -7.9190    -0.6550 H     1 <1>   0.2700 
 43 H       -4.5520   -10.4470     0.0350 H     1 <1>   0.0800 
 44 H       -2.8250   -10.4520     0.2920 H     1 <1>   0.0800 
 45 H       -3.4740   -10.1760    -1.3120 H     1 <1>   0.0800 
@<TRIPOS>BOND
  1   1   2  1   
  2   2   3  ar  
  3   2   4  ar  
  4   3   5  ar  
  5   3   6  1   
  6   4   7  ar  
  7   4  26  1   
  8   5   8  ar  
  9   5  27  1   
 10   6   9  1   
 11   6  28  1   
 12   6  29  1   
 13   7   8  ar  
 14   7  30  1   
 15   8  10  1   
 16   9  11  1   
 17   9  12  1   
 18   9  31  1   
 19  10  13  1   
 20  10  14  1   
 21  10  15  1   
 22  11  16  1   
 23  11  32  1   
 24  11  33  1   
 25  12  17  1   
 26  12  34  1   
 27  12  35  1   
 28  16  17  1   
 29  16  18  1   
 30  16  36  1   
 31  17  19  1   
 32  17  37  1   
 33  18  38  1   
 34  19  20  1   
 35  19  39  1   
 36  19  40  1   
 37  20  21  2   
 38  20  22  1   
 39  21  23  1   
 40  22  24  2   
 41  22  41  1   
 42  23  24  1   
 43  23  42  1   
 44  24  25  1   
 45  25  43  1   
 46  25  44  1   
 47  25  45  1   
@<TRIPOS>SUBSTRUCTURE
  1 ****   9 GROUP 4 **** **** 0

# MOE 2024.06 (io_trps.svl 2023.06)
