@<TRIPOS>MOLECULE
NONAME
49 51 1 0 0 
SMALL
USER_CHARGES


@<TRIPOS>ATOM
  1 S        1.4650     1.1350     1.6430 S.3   1 <1>  -0.0800 
  2 C        3.2100     1.4010     1.5200 C.2   1 <1>  -0.0450 
  3 C        1.6280     0.2720     3.1560 C.2   1 <1>  -0.1100 
  4 C        3.7520     2.1050     0.3860 C.2   1 <1>   0.7150 
  5 C        3.8080     0.8300     2.5970 C.2   1 <1>  -0.1500 
  6 C        2.9210     0.2000     3.5180 C.2   1 <1>  -0.1500 
  7 O        4.9490     2.0820     0.1520 O.2   1 <1>  -0.5700 
  8 N        2.9890     2.8850    -0.4500 N.am  1 <1>  -0.6600 
  9 C        3.1970     2.8500    -1.9340 C.3   1 <1>   0.1400 
 10 C        2.2640     4.0720     0.0710 C.3   1 <1>   0.1400 
 11 C        4.4920     3.5640    -2.3820 C.3   1 <1>   0.3430 
 12 C        3.2150     5.2700     0.2100 C.3   1 <1>  -0.1600 
 13 N        4.9830     4.5440    -1.3650 N.4   1 <1>  -0.9590 
 14 C        4.0070     5.6280    -1.0520 C.3   1 <1>   0.3430 
 15 C        6.3540     5.0340    -1.6600 C.3   1 <1>   0.5240 
 16 C        6.8270     5.9000    -0.5130 C.2   1 <1>  -0.1810 
 17 C        7.1800     5.4800     0.7670 C.2   1 <1>   0.1080 
 18 C        6.9910     7.2430    -0.4880 C.2   1 <1>  -0.3020 
 19 N        7.5110     6.4750     1.5230 N.2   1 <1>  -0.7070 
 20 C        7.2050     4.0620     1.2950 C.3   1 <1>  -0.0590 
 21 N        7.4100     7.5690     0.7510 N.pl3 1 <1>   0.3140 
 22 C        7.7320     8.9200     1.2520 C.3   1 <1>   0.0960 
 23 C        9.1090     8.9290     1.9180 C.3   1 <1>   0.1200 
 24 O        9.4600    10.2380     2.2190 O.3   1 <1>  -0.6800 
 25 H        0.7300    -0.0970     3.6210 H     1 <1>   0.1500 
 26 H        4.8710     0.8310     2.7730 H     1 <1>   0.1500 
 27 H        3.2920    -0.2790     4.4080 H     1 <1>   0.1500 
 28 H        2.3530     3.3020    -2.4240 H     1 <1>   0.0800 
 29 H        3.2360     1.8240    -2.2600 H     1 <1>   0.0800 
 30 H        1.8390     3.8480     1.0350 H     1 <1>   0.0800 
 31 H        1.4480     4.3150    -0.5900 H     1 <1>   0.0800 
 32 H        4.3290     4.0480    -3.3300 H     1 <1>   0.0800 
 33 H        5.2460     2.8070    -2.5270 H     1 <1>   0.0800 
 34 H        3.8960     5.1020     1.0260 H     1 <1>   0.0800 
 35 H        2.6220     6.1250     0.4820 H     1 <1>   0.0800 
 36 H        5.0690     3.9770    -0.5010 H     1 <1>   0.4500 
 37 H        4.5300     6.5520    -0.8690 H     1 <1>   0.0800 
 38 H        3.3380     5.7830    -1.8820 H     1 <1>   0.0800 
 39 H        6.3530     5.6120    -2.5690 H     1 <1>   0.0800 
 40 H        7.0290     4.2030    -1.7810 H     1 <1>   0.0800 
 41 H        6.8430     7.9770    -1.2590 H     1 <1>   0.1500 
 42 H        7.3310     3.3520     0.5000 H     1 <1>   0.0800 
 43 H        6.2950     3.8530     1.8250 H     1 <1>   0.0800 
 44 H        8.0270     3.9520     1.9800 H     1 <1>   0.0800 
 45 H        6.9840     9.2030     1.9670 H     1 <1>   0.0800 
 46 H        7.7190     9.6040     0.4240 H     1 <1>   0.0800 
 47 H        9.8640     8.5130     1.2730 H     1 <1>   0.0800 
 48 H        9.0780     8.3730     2.8410 H     1 <1>   0.0800 
 49 H        9.8180    10.7010     1.4360 H     1 <1>   0.4000 
@<TRIPOS>BOND
  1   1   2  1   
  2   1   3  1   
  3   2   4  1   
  4   2   5  2   
  5   3   6  2   
  6   3  25  1   
  7   4   7  2   
  8   4   8  am  
  9   5   6  1   
 10   5  26  1   
 11   6  27  1   
 12   8   9  1   
 13   8  10  1   
 14   9  11  1   
 15   9  28  1   
 16   9  29  1   
 17  10  12  1   
 18  10  30  1   
 19  10  31  1   
 20  11  13  1   
 21  11  32  1   
 22  11  33  1   
 23  12  14  1   
 24  12  34  1   
 25  12  35  1   
 26  13  14  1   
 27  13  15  1   
 28  13  36  1   
 29  14  37  1   
 30  14  38  1   
 31  15  16  1   
 32  15  39  1   
 33  15  40  1   
 34  16  17  1   
 35  16  18  2   
 36  17  19  2   
 37  17  20  1   
 38  18  21  1   
 39  18  41  1   
 40  19  21  1   
 41  20  42  1   
 42  20  43  1   
 43  20  44  1   
 44  21  22  1   
 45  22  23  1   
 46  22  45  1   
 47  22  46  1   
 48  23  24  1   
 49  23  47  1   
 50  23  48  1   
 51  24  49  1   
@<TRIPOS>SUBSTRUCTURE
  1 ****  13 GROUP 4 **** **** 0

# MOE 2024.06 (io_trps.svl 2023.06)
