@<TRIPOS>MOLECULE
NONAME
46 49 1 0 0 
SMALL
USER_CHARGES


@<TRIPOS>ATOM
  1 O       -2.3200     0.7270     0.9460 O.co2 1 <1>  -0.9000 
  2 C       -2.4830     0.3100    -0.2040 C.2   1 <1>   0.9060 
  3 O       -1.6240     0.3670    -1.0860 O.co2 1 <1>  -0.9000 
  4 C       -3.7210    -0.5480    -0.4640 C.3   1 <1>   0.2370 
  5 N       -3.5100    -2.0270    -0.1670 N.4   1 <1>  -0.9590 
  6 C       -3.0120    -2.2190     1.2490 C.3   1 <1>   0.4230 
  7 C       -2.6420    -2.6280    -1.2110 C.3   1 <1>   0.3430 
  8 C       -1.4720    -2.2830     1.4270 C.3   1 <1>   0.1200 
  9 C       -3.6900    -3.5020     1.8020 C.3   1 <1>   0.2090 
 10 C       -2.1560    -4.0390    -0.8520 C.3   1 <1>  -0.0800 
 11 O       -0.9800    -3.5790     1.2140 O.3   1 <1>  -0.5600 
 12 N       -4.2470    -4.4050     0.7050 N.pl3 1 <1>  -0.8380 
 13 C       -0.8130    -3.9570    -0.1080 C.3   1 <1>   0.1200 
 14 C       -3.1770    -5.0060    -0.1890 C.3   1 <1>   0.2090 
 15 C       -5.5670    -4.7520     0.6460 C.ar  1 <1>   0.1000 
 16 C       -6.0460    -6.0650     0.3020 C.ar  1 <1>   0.0000 
 17 C       -6.5420    -3.7800     0.9010 C.ar  1 <1>  -0.1500 
 18 C       -7.4180    -6.2470     0.0210 C.ar  1 <1>   0.3610 
 19 C       -5.2490    -7.2290     0.2840 C.ar  1 <1>  -0.1500 
 20 C       -7.8770    -4.0160     0.6950 C.ar  1 <1>   0.2110 
 21 N       -8.2930    -5.2080     0.2350 N.ar  1 <1>  -0.1790 
 22 C       -7.9000    -7.4880    -0.4200 C.ar  1 <1>  -0.1500 
 23 C       -5.7360    -8.4440    -0.1220 C.ar  1 <1>  -0.1500 
 24 C       -7.0690    -8.5740    -0.5010 C.ar  1 <1>  -0.1500 
 25 H       -3.9990    -0.4110    -1.4930 H     1 <1>   0.0800 
 26 H       -4.5050    -0.1570     0.1580 H     1 <1>   0.0800 
 27 H       -4.3750    -2.5850    -0.1880 H     1 <1>   0.4500 
 28 H       -3.3460    -1.3820     1.8390 H     1 <1>   0.0800 
 29 H       -3.1940    -2.6710    -2.1350 H     1 <1>   0.0800 
 30 H       -1.7850    -1.9920    -1.3780 H     1 <1>   0.0800 
 31 H       -1.2390    -2.0330     2.4470 H     1 <1>   0.0800 
 32 H       -0.9520    -1.5810     0.7980 H     1 <1>   0.0800 
 33 H       -4.4770    -3.2040     2.4700 H     1 <1>   0.0800 
 34 H       -2.9990    -4.0630     2.4070 H     1 <1>   0.0800 
 35 H       -1.8950    -4.4910    -1.7920 H     1 <1>   0.0800 
 36 H       -0.1400    -3.2590    -0.5810 H     1 <1>   0.0800 
 37 H       -0.3380    -4.9230    -0.0980 H     1 <1>   0.0800 
 38 H       -2.6230    -5.7330     0.3800 H     1 <1>   0.0800 
 39 H       -3.6690    -5.5340    -0.9880 H     1 <1>   0.0800 
 40 H       -6.2450    -2.8060     1.2420 H     1 <1>   0.1500 
 41 H       -4.2290    -7.1800     0.6160 H     1 <1>   0.1500 
 42 H       -8.6100    -3.2480     0.8880 H     1 <1>   0.1500 
 43 H       -9.2880    -5.3900     0.0700 H     1 <1>   0.4570 
 44 H       -8.9360    -7.6050    -0.6900 H     1 <1>   0.1500 
 45 H       -5.0970    -9.3130    -0.1450 H     1 <1>   0.1500 
 46 H       -7.4300    -9.5340    -0.8360 H     1 <1>   0.1500 
@<TRIPOS>BOND
  1   1   2  ar  
  2   2   3  ar  
  3   2   4  1   
  4   4   5  1   
  5   4  25  1   
  6   4  26  1   
  7   5   6  1   
  8   5   7  1   
  9   5  27  1   
 10   6   8  1   
 11   6   9  1   
 12   6  28  1   
 13   7  10  1   
 14   7  29  1   
 15   7  30  1   
 16   8  11  1   
 17   8  31  1   
 18   8  32  1   
 19   9  12  1   
 20   9  33  1   
 21   9  34  1   
 22  10  13  1   
 23  10  14  1   
 24  10  35  1   
 25  11  13  1   
 26  12  14  1   
 27  12  15  1   
 28  13  36  1   
 29  13  37  1   
 30  14  38  1   
 31  14  39  1   
 32  15  16  ar  
 33  15  17  ar  
 34  16  18  ar  
 35  16  19  ar  
 36  17  20  ar  
 37  17  40  1   
 38  18  21  ar  
 39  18  22  ar  
 40  19  23  ar  
 41  19  41  1   
 42  20  21  ar  
 43  20  42  1   
 44  21  43  1   
 45  22  24  ar  
 46  22  44  1   
 47  23  24  ar  
 48  23  45  1   
 49  24  46  1   
@<TRIPOS>SUBSTRUCTURE
  1 ****  12 GROUP 4 **** **** 0

# MOE 2024.06 (io_trps.svl 2023.06)
