@<TRIPOS>MOLECULE
NONAME
51 54 1 0 0 
SMALL
USER_CHARGES


@<TRIPOS>ATOM
  1 O       -3.0140     1.4390     0.9080 O.3   1 <1>  -0.0190 
  2 N       -2.3140     2.4470     1.3310 N.2   1 <1>  -0.4100 
  3 C       -2.2360     0.8630     0.0240 C.2   1 <1>   0.2980 
  4 C       -1.2030     2.4250     0.7060 C.2   1 <1>   0.3350 
  5 N       -1.1040     1.4170    -0.1510 N.2   1 <1>  -0.5650 
  6 C       -2.7280    -0.3830    -0.7000 C.3   1 <1>   0.1000 
  7 C       -0.0540     3.4200     0.8790 C.3   1 <1>   0.1010 
  8 C       -3.9740    -0.0800    -1.5450 C.3   1 <1>  -0.1600 
  9 C       -3.0200    -1.5240     0.2870 C.3   1 <1>  -0.1600 
 10 C        0.9800     2.8830     1.8780 C.3   1 <1>  -0.2400 
 11 C       -0.5400     4.8100     1.3200 C.3   1 <1>  -0.2400 
 12 C       -4.4840    -1.3310    -2.2620 C.3   1 <1>   0.2090 
 13 C       -3.5050    -2.7770    -0.4420 C.3   1 <1>   0.2090 
 14 N       -4.6770    -2.4430    -1.2910 N.pl3 1 <1>  -0.8380 
 15 C       -5.9530    -2.7350    -0.8310 C.ar  1 <1>   0.4100 
 16 N       -6.6750    -1.6850    -0.4590 N.ar  1 <1>  -0.6200 
 17 C       -6.4260    -4.0530    -0.7670 C.ar  1 <1>   0.0730 
 18 C       -7.8920    -1.9160    -0.0040 C.ar  1 <1>   0.1670 
 19 C       -5.6150    -5.1510    -1.1920 C.1   1 <1>   0.4840 
 20 C       -7.7030    -4.2730    -0.2880 C.ar  1 <1>  -0.1500 
 21 C       -8.4530    -3.1840     0.1060 C.ar  1 <1>  -0.1430 
 22 C       -8.6600    -0.6730     0.4260 C.3   1 <1>  -0.0170 
 23 N       -4.9870    -6.0540    -1.4960 N.1   1 <1>  -0.5570 
 24 C       -9.8660    -3.4100     0.6300 C.3   1 <1>  -0.0170 
 25 C      -10.1630    -0.9140     0.6210 C.3   1 <1>  -0.1600 
 26 C      -10.4020    -2.2050     1.4090 C.3   1 <1>  -0.1600 
 27 H       -1.9430    -0.7030    -1.3620 H     1 <1>   0.0800 
 28 H        0.4250     3.5260    -0.0790 H     1 <1>   0.0800 
 29 H       -3.7450     0.6780    -2.2720 H     1 <1>   0.0800 
 30 H       -4.7610     0.2980    -0.9150 H     1 <1>   0.0800 
 31 H       -3.7790    -1.2190     0.9860 H     1 <1>   0.0800 
 32 H       -2.1310    -1.7570     0.8440 H     1 <1>   0.0800 
 33 H        0.5280     2.7530     2.8460 H     1 <1>   0.0800 
 34 H        1.8090     3.5620     1.9660 H     1 <1>   0.0800 
 35 H        1.3510     1.9300     1.5440 H     1 <1>   0.0800 
 36 H       -1.0060     4.7550     2.2880 H     1 <1>   0.0800 
 37 H       -1.2610     5.1850     0.6160 H     1 <1>   0.0800 
 38 H        0.2840     5.4990     1.3690 H     1 <1>   0.0800 
 39 H       -3.7750    -1.6420    -3.0110 H     1 <1>   0.0800 
 40 H       -5.4160    -1.1130    -2.7560 H     1 <1>   0.0800 
 41 H       -3.7720    -3.5290     0.2810 H     1 <1>   0.0800 
 42 H       -2.7210    -3.1740    -1.0650 H     1 <1>   0.0800 
 43 H       -8.1010    -5.2720    -0.2250 H     1 <1>   0.1500 
 44 H       -8.5180     0.1010    -0.3070 H     1 <1>   0.0800 
 45 H       -8.2320    -0.3280     1.3500 H     1 <1>   0.0800 
 46 H       -9.8870    -4.2780     1.2660 H     1 <1>   0.0800 
 47 H      -10.5120    -3.6020    -0.2100 H     1 <1>   0.0800 
 48 H      -10.6390    -0.9900    -0.3420 H     1 <1>   0.0800 
 49 H      -10.5970    -0.0770     1.1410 H     1 <1>   0.0800 
 50 H       -9.9020    -2.1410     2.3610 H     1 <1>   0.0800 
 51 H      -11.4540    -2.3330     1.5940 H     1 <1>   0.0800 
@<TRIPOS>BOND
  1   1   2  1   
  2   1   3  1   
  3   2   4  2   
  4   3   5  2   
  5   3   6  1   
  6   4   5  1   
  7   4   7  1   
  8   6   8  1   
  9   6   9  1   
 10   6  27  1   
 11   7  10  1   
 12   7  11  1   
 13   7  28  1   
 14   8  12  1   
 15   8  29  1   
 16   8  30  1   
 17   9  13  1   
 18   9  31  1   
 19   9  32  1   
 20  10  33  1   
 21  10  34  1   
 22  10  35  1   
 23  11  36  1   
 24  11  37  1   
 25  11  38  1   
 26  12  14  1   
 27  12  39  1   
 28  12  40  1   
 29  13  14  1   
 30  13  41  1   
 31  13  42  1   
 32  14  15  1   
 33  15  16  ar  
 34  15  17  ar  
 35  16  18  ar  
 36  17  19  1   
 37  17  20  ar  
 38  18  21  ar  
 39  18  22  1   
 40  19  23  3   
 41  20  21  ar  
 42  20  43  1   
 43  21  24  1   
 44  22  25  1   
 45  22  44  1   
 46  22  45  1   
 47  24  26  1   
 48  24  46  1   
 49  24  47  1   
 50  25  26  1   
 51  25  48  1   
 52  25  49  1   
 53  26  50  1   
 54  26  51  1   
@<TRIPOS>SUBSTRUCTURE
  1 ****   9 GROUP 4 **** **** 0

# MOE 2024.06 (io_trps.svl 2023.06)
