@<TRIPOS>MOLECULE
NONAME
49 53 1 0 0 
SMALL
USER_CHARGES


@<TRIPOS>ATOM
  1 O        0.5790     0.3780    -1.5660 O.2   1 <1>  -0.5700 
  2 C        0.0710     1.4560    -1.3240 C.2   1 <1>   0.5440 
  3 N       -1.3040     1.5490    -1.2580 N.am  1 <1>  -0.6600 
  4 C        0.9160     2.6060    -1.1060 C.ar  1 <1>   0.0860 
  5 C       -2.0450     2.8040    -0.9170 C.3   1 <1>   0.1400 
  6 C       -2.1600     0.3390    -1.4610 C.3   1 <1>   0.1400 
  7 C        1.6490     2.7720     0.0950 C.ar  1 <1>   0.0000 
  8 C        1.0250     3.6030    -2.0410 C.ar  1 <1>  -0.1500 
  9 C       -2.8610     2.6400     0.3850 C.3   1 <1>   0.1440 
 10 C       -3.5640     0.5130    -0.8550 C.3   1 <1>  -0.1600 
 11 C        2.3860     3.9660     0.2630 C.ar  1 <1>   0.3100 
 12 C        1.6780     1.8140     1.1320 C.ar  1 <1>  -0.1500 
 13 C        1.7930     4.7380    -1.7830 C.ar  1 <1>   0.1600 
 14 C       -3.8930     3.7560     0.4060 C.ar  1 <1>   0.1660 
 15 C       -3.4960     1.2290     0.5030 C.3   1 <1>  -0.1600 
 16 C       -2.0050     2.9750     1.6340 C.3   1 <1>  -0.1600 
 17 N        2.4420     4.9390    -0.6790 N.ar  1 <1>  -0.6200 
 18 C        3.0950     4.1590     1.4590 C.ar  1 <1>  -0.1500 
 19 C        2.3820     2.0320     2.2860 C.ar  1 <1>  -0.1500 
 20 N       -4.9940     3.7940    -0.3120 N.ar  1 <1>  -0.6200 
 21 C       -3.5330     4.7560     1.2590 C.ar  1 <1>  -0.1430 
 22 C       -2.2190     4.4670     1.9400 C.3   1 <1>  -0.0170 
 23 C        3.0970     3.2190     2.4550 C.ar  1 <1>  -0.1500 
 24 C       -5.7320     4.8790    -0.1270 C.ar  1 <1>   0.4770 
 25 C       -4.3720     5.8370     1.3710 C.ar  1 <1>   0.1600 
 26 N       -5.4880     5.9070     0.6750 N.ar  1 <1>  -0.6200 
 27 C       -7.0130     4.9570    -0.9220 C.3   1 <1>  -0.0970 
 28 H       -2.7190     3.0200    -1.7290 H     1 <1>   0.0800 
 29 H       -1.3840     3.6460    -0.8240 H     1 <1>   0.0800 
 30 H       -1.6820    -0.5040    -0.9900 H     1 <1>   0.0800 
 31 H       -2.2360     0.1290    -2.5140 H     1 <1>   0.0800 
 32 H        0.5120     3.5220    -2.9830 H     1 <1>   0.1500 
 33 H       -4.0200    -0.4540    -0.7390 H     1 <1>   0.0800 
 34 H       -4.1810     1.0800    -1.5320 H     1 <1>   0.0800 
 35 H        1.1380     0.8900     1.0090 H     1 <1>   0.1500 
 36 H        1.8470     5.4980    -2.5460 H     1 <1>   0.1500 
 37 H       -4.4810     1.3020     0.9310 H     1 <1>   0.0800 
 38 H       -2.9010     0.6180     1.1590 H     1 <1>   0.0800 
 39 H       -0.9660     2.7370     1.4950 H     1 <1>   0.0800 
 40 H       -2.3690     2.4150     2.4780 H     1 <1>   0.0800 
 41 H        3.6440     5.0770     1.5660 H     1 <1>   0.1500 
 42 H        2.3970     1.2940     3.0700 H     1 <1>   0.1500 
 43 H       -1.4390     5.0630     1.4980 H     1 <1>   0.0800 
 44 H       -2.2660     4.6520     2.9990 H     1 <1>   0.0800 
 45 H        3.6480     3.3800     3.3660 H     1 <1>   0.1500 
 46 H       -4.1310     6.6500     2.0340 H     1 <1>   0.1500 
 47 H       -6.9870     4.2680    -1.7450 H     1 <1>   0.0800 
 48 H       -7.1440     5.9530    -1.3040 H     1 <1>   0.0800 
 49 H       -7.8410     4.7130    -0.2830 H     1 <1>   0.0800 
@<TRIPOS>BOND
  1   1   2  2   
  2   2   3  am  
  3   2   4  1   
  4   3   5  1   
  5   3   6  1   
  6   4   7  ar  
  7   4   8  ar  
  8   5   9  1   
  9   5  28  1   
 10   5  29  1   
 11   6  10  1   
 12   6  30  1   
 13   6  31  1   
 14   7  11  ar  
 15   7  12  ar  
 16   8  13  ar  
 17   8  32  1   
 18   9  14  1   
 19   9  15  1   
 20   9  16  1   
 21  10  15  1   
 22  10  33  1   
 23  10  34  1   
 24  11  17  ar  
 25  11  18  ar  
 26  12  19  ar  
 27  12  35  1   
 28  13  17  ar  
 29  13  36  1   
 30  14  20  ar  
 31  14  21  ar  
 32  15  37  1   
 33  15  38  1   
 34  16  22  1   
 35  16  39  1   
 36  16  40  1   
 37  18  23  ar  
 38  18  41  1   
 39  19  23  ar  
 40  19  42  1   
 41  20  24  ar  
 42  21  22  1   
 43  21  25  ar  
 44  22  43  1   
 45  22  44  1   
 46  23  45  1   
 47  24  26  ar  
 48  24  27  1   
 49  25  26  ar  
 50  25  46  1   
 51  27  47  1   
 52  27  48  1   
 53  27  49  1   
@<TRIPOS>SUBSTRUCTURE
  1 ****   5 GROUP 4 **** **** 0

# MOE 2024.06 (io_trps.svl 2023.06)
