@<TRIPOS>MOLECULE
NONAME
50 53 1 0 0 
SMALL
USER_CHARGES


@<TRIPOS>ATOM
  1 O        1.6730    -0.5750     1.7210 O.co2 1 <1>  -0.9000 
  2 C        1.4710    -1.0860     0.6050 C.2   1 <1>   0.9790 
  3 O        1.3130    -0.3460    -0.3810 O.co2 1 <1>  -0.9000 
  4 C        1.3960    -2.5350     0.4590 C.ar  1 <1>  -0.1790 
  5 C        1.5190    -3.3830     1.5590 C.ar  1 <1>  -0.1500 
  6 C        1.1960    -3.1300    -0.7860 C.ar  1 <1>  -0.1500 
  7 C        1.4190    -4.7550     1.4320 C.ar  1 <1>  -0.1500 
  8 C        1.0940    -4.5000    -0.9260 C.ar  1 <1>  -0.1500 
  9 C        1.1840    -5.3210     0.1880 C.ar  1 <1>  -0.1430 
 10 C        0.9910    -6.8110     0.0510 C.3   1 <1>   0.4870 
 11 N       -0.3420    -7.1530     0.6510 N.4   1 <1>  -0.9590 
 12 C       -0.4860    -8.6390     0.9000 C.3   1 <1>   0.3430 
 13 C       -1.4780    -6.4160    -0.0170 C.3   1 <1>   0.3430 
 14 C       -1.2600    -9.5000    -0.1540 C.3   1 <1>   0.4230 
 15 C       -2.1440    -7.1180    -1.2170 C.3   1 <1>  -0.0800 
 16 N       -2.7540    -9.2920    -0.0860 N.4   1 <1>  -0.9590 
 17 C       -0.7540    -9.2370    -1.5860 C.3   1 <1>  -0.1600 
 18 C       -3.2700    -8.0500    -0.7550 C.3   1 <1>   0.3430 
 19 C       -1.1960    -7.8770    -2.1670 C.3   1 <1>  -0.1600 
 20 C       -3.4760   -10.4850    -0.6160 C.3   1 <1>   0.4380 
 21 C       -4.8910   -10.4630    -0.0440 C.3   1 <1>  -0.1950 
 22 C       -5.1570   -10.7470     1.4040 C.3   1 <1>  -0.2000 
 23 C       -5.5580   -11.7420     0.3530 C.3   1 <1>  -0.2000 
 24 H        1.6970    -2.9360     2.5250 H     1 <1>   0.1500 
 25 H        1.1220    -2.4870    -1.6490 H     1 <1>   0.1500 
 26 H        1.5290    -5.3540     2.3190 H     1 <1>   0.1500 
 27 H        0.9410    -4.9010    -1.9130 H     1 <1>   0.1500 
 28 H        1.7850    -7.3120     0.5820 H     1 <1>   0.0800 
 29 H        1.0410    -7.0950    -0.9850 H     1 <1>   0.0800 
 30 H       -0.2590    -6.6910     1.5710 H     1 <1>   0.4500 
 31 H        0.5010    -9.0600     0.9970 H     1 <1>   0.0800 
 32 H       -0.9690    -8.7850     1.8520 H     1 <1>   0.0800 
 33 H       -2.2400    -6.2110     0.7180 H     1 <1>   0.0800 
 34 H       -1.1260    -5.4520    -0.3490 H     1 <1>   0.0800 
 35 H       -1.0550   -10.5310     0.0880 H     1 <1>   0.0800 
 36 H       -2.6160    -6.3350    -1.7870 H     1 <1>   0.0800 
 37 H       -3.0550    -9.2640     0.8990 H     1 <1>   0.4500 
 38 H        0.3200    -9.3080    -1.6080 H     1 <1>   0.0800 
 39 H       -1.1130   -10.0240    -2.2280 H     1 <1>   0.0800 
 40 H       -3.8440    -8.3290    -1.6250 H     1 <1>   0.0800 
 41 H       -3.9360    -7.5230    -0.0900 H     1 <1>   0.0800 
 42 H       -1.7180    -8.0630    -3.0930 H     1 <1>   0.0800 
 43 H       -0.3480    -7.2670    -2.4250 H     1 <1>   0.0800 
 44 H       -3.5000   -10.4820    -1.6950 H     1 <1>   0.0800 
 45 H       -2.9870   -11.3880    -0.2870 H     1 <1>   0.0800 
 46 H       -5.5320    -9.7610    -0.5520 H     1 <1>   0.1000 
 47 H       -4.3760   -11.0510     2.0790 H     1 <1>   0.1000 
 48 H       -5.9490   -10.2200     1.9130 H     1 <1>   0.1000 
 49 H       -6.6090   -11.8710     0.1510 H     1 <1>   0.1000 
 50 H       -5.0220   -12.6760     0.3080 H     1 <1>   0.1000 
@<TRIPOS>BOND
  1   1   2  ar  
  2   2   3  ar  
  3   2   4  1   
  4   4   5  ar  
  5   4   6  ar  
  6   5   7  ar  
  7   5  24  1   
  8   6   8  ar  
  9   6  25  1   
 10   7   9  ar  
 11   7  26  1   
 12   8   9  ar  
 13   8  27  1   
 14   9  10  1   
 15  10  11  1   
 16  10  28  1   
 17  10  29  1   
 18  11  12  1   
 19  11  13  1   
 20  11  30  1   
 21  12  14  1   
 22  12  31  1   
 23  12  32  1   
 24  13  15  1   
 25  13  33  1   
 26  13  34  1   
 27  14  16  1   
 28  14  17  1   
 29  14  35  1   
 30  15  18  1   
 31  15  19  1   
 32  15  36  1   
 33  16  18  1   
 34  16  20  1   
 35  16  37  1   
 36  17  19  1   
 37  17  38  1   
 38  17  39  1   
 39  18  40  1   
 40  18  41  1   
 41  19  42  1   
 42  19  43  1   
 43  20  21  1   
 44  20  44  1   
 45  20  45  1   
 46  21  22  1   
 47  21  23  1   
 48  21  46  1   
 49  22  23  1   
 50  22  47  1   
 51  22  48  1   
 52  23  49  1   
 53  23  50  1   
@<TRIPOS>SUBSTRUCTURE
  1 ****  13 GROUP 4 **** **** 0

# MOE 2024.06 (io_trps.svl 2023.06)
