@<TRIPOS>MOLECULE
NONAME
52 55 1 0 0 
SMALL
USER_CHARGES


@<TRIPOS>ATOM
  1 S       -3.8020    -0.7760    -2.2900 S.3   1 <1>  -0.0800 
  2 C       -3.1930    -1.3400    -0.7300 C.2   1 <1>  -0.0450 
  3 C       -3.9050     0.8800    -1.7340 C.2   1 <1>  -0.1100 
  4 C       -2.9100    -2.7440    -0.5630 C.2   1 <1>   0.7150 
  5 C       -3.0960    -0.2740     0.1070 C.2   1 <1>  -0.1500 
  6 C       -3.4980     0.9730    -0.4560 C.2   1 <1>  -0.1500 
  7 O       -2.6900    -3.4650    -1.5190 O.2   1 <1>  -0.5700 
  8 N       -2.9400    -3.3340     0.6850 N.am  1 <1>  -0.6600 
  9 C       -4.0940    -3.1270     1.5860 C.3   1 <1>   0.1400 
 10 C       -2.1860    -4.5840     0.9430 C.3   1 <1>   0.1400 
 11 C       -5.0920    -4.2560     1.3180 C.3   1 <1>  -0.1600 
 12 C       -3.1150    -5.7660     0.6700 C.3   1 <1>  -0.1600 
 13 C       -4.4290    -5.6360     1.4560 C.3   1 <1>   0.4230 
 14 N       -5.4010    -6.6890     1.0600 N.4   1 <1>  -0.9060 
 15 C       -5.7700    -6.7730    -0.3880 C.3   1 <1>   0.4230 
 16 C       -7.2090    -7.2630    -0.5460 C.3   1 <1>  -0.0800 
 17 C       -5.0380    -7.9680    -0.9900 C.3   1 <1>   0.1200 
 18 C       -7.0740    -8.7910    -0.4360 C.3   1 <1>   0.1200 
 19 C       -8.2740    -6.6500     0.3860 C.3   1 <1>  -0.0160 
 20 O       -5.7000    -9.0470    -0.4190 O.3   1 <1>  -0.5600 
 21 C       -9.6570    -7.1500     0.0080 C.ar  1 <1>  -0.1430 
 22 C      -10.3640    -6.6020    -1.0440 C.ar  1 <1>  -0.1500 
 23 C      -10.2820    -8.1750     0.6920 C.ar  1 <1>  -0.1500 
 24 C      -11.6190    -7.0960    -1.3590 C.ar  1 <1>   0.1600 
 25 C      -11.5410    -8.5950     0.2950 C.ar  1 <1>   0.1600 
 26 N      -12.2210    -8.0810    -0.7150 N.ar  1 <1>  -0.6200 
 27 H       -4.2610     1.6190    -2.4310 H     1 <1>   0.1500 
 28 H       -2.7400    -0.3240     1.1210 H     1 <1>   0.1500 
 29 H       -3.4620     1.8820     0.1200 H     1 <1>   0.1500 
 30 H       -3.7590    -3.1410     2.6100 H     1 <1>   0.0800 
 31 H       -4.5600    -2.1740     1.3980 H     1 <1>   0.0800 
 32 H       -1.3230    -4.6320     0.2970 H     1 <1>   0.0800 
 33 H       -1.8390    -4.5910     1.9630 H     1 <1>   0.0800 
 34 H       -5.4820    -4.1130     0.3260 H     1 <1>   0.0800 
 35 H       -5.9030    -4.1670     2.0180 H     1 <1>   0.0800 
 36 H       -2.6080    -6.6730     0.9450 H     1 <1>   0.0800 
 37 H       -3.2910    -5.7810    -0.3900 H     1 <1>   0.0800 
 38 H       -4.1880    -5.7680     2.4990 H     1 <1>   0.0800 
 39 H       -6.2520    -6.5810     1.6130 H     1 <1>   0.4500 
 40 H       -5.0350    -7.6260     1.2930 H     1 <1>   0.4500 
 41 H       -5.5780    -5.8520    -0.9140 H     1 <1>   0.0800 
 42 H       -7.5080    -7.0510    -1.5590 H     1 <1>   0.0800 
 43 H       -3.9910    -8.0140    -0.7480 H     1 <1>   0.0800 
 44 H       -5.1660    -8.0140    -2.0590 H     1 <1>   0.0800 
 45 H       -7.5110    -9.2910    -1.2860 H     1 <1>   0.0800 
 46 H       -7.4990    -9.1870     0.4710 H     1 <1>   0.0800 
 47 H       -8.2610    -5.5770     0.3010 H     1 <1>   0.0800 
 48 H       -8.0870    -6.9060     1.4140 H     1 <1>   0.0800 
 49 H       -9.9590    -5.7950    -1.6270 H     1 <1>   0.1500 
 50 H       -9.8130    -8.6580     1.5290 H     1 <1>   0.1500 
 51 H      -12.1580    -6.6580    -2.1820 H     1 <1>   0.1500 
 52 H      -12.0150    -9.3960     0.8380 H     1 <1>   0.1500 
@<TRIPOS>BOND
  1   1   2  1   
  2   1   3  1   
  3   2   4  1   
  4   2   5  2   
  5   3   6  2   
  6   3  27  1   
  7   4   7  2   
  8   4   8  am  
  9   5   6  1   
 10   5  28  1   
 11   6  29  1   
 12   8   9  1   
 13   8  10  1   
 14   9  11  1   
 15   9  30  1   
 16   9  31  1   
 17  10  12  1   
 18  10  32  1   
 19  10  33  1   
 20  11  13  1   
 21  11  34  1   
 22  11  35  1   
 23  12  13  1   
 24  12  36  1   
 25  12  37  1   
 26  13  14  1   
 27  13  38  1   
 28  14  15  1   
 29  14  39  1   
 30  14  40  1   
 31  15  16  1   
 32  15  17  1   
 33  15  41  1   
 34  16  18  1   
 35  16  19  1   
 36  16  42  1   
 37  17  20  1   
 38  17  43  1   
 39  17  44  1   
 40  18  20  1   
 41  18  45  1   
 42  18  46  1   
 43  19  21  1   
 44  19  47  1   
 45  19  48  1   
 46  21  22  ar  
 47  21  23  ar  
 48  22  24  ar  
 49  22  49  1   
 50  23  25  ar  
 51  23  50  1   
 52  24  26  ar  
 53  24  51  1   
 54  25  26  ar  
 55  25  52  1   
@<TRIPOS>SUBSTRUCTURE
  1 ****  15 GROUP 4 **** **** 0

# MOE 2024.06 (io_trps.svl 2023.06)
