@<TRIPOS>MOLECULE
NONAME
43 46 1 0 0 
SMALL
USER_CHARGES


@<TRIPOS>ATOM
  1 S        0.3910     0.1150    -0.8850 S.3   1 <1>  -0.0800 
  2 C        0.0440    -1.5510    -1.2850 C.2   1 <1>  -0.1100 
  3 C        1.1710    -0.3690     0.6070 C.2   1 <1>  -0.1100 
  4 C        0.4830    -2.4080    -0.3300 C.2   1 <1>  -0.0860 
  5 C        1.1370    -1.7060     0.7450 C.2   1 <1>  -0.1500 
  6 C        0.3590    -3.8530    -0.3300 C.2   1 <1>   0.7160 
  7 O        1.2530    -4.5300     0.1410 O.2   1 <1>  -0.5700 
  8 N       -0.7550    -4.4820    -0.8410 N.am  1 <1>  -0.6600 
  9 C       -2.1230    -3.8770    -0.8220 C.3   1 <1>   0.1400 
 10 C       -0.7690    -5.9490    -1.1280 C.3   1 <1>   0.1400 
 11 C       -3.0620    -4.6660     0.1100 C.3   1 <1>   0.1900 
 12 C       -1.7430    -6.6840    -0.1940 C.3   1 <1>   0.1100 
 13 N       -3.1010    -6.1010    -0.2680 N.3   1 <1>  -0.8100 
 14 C       -4.4800    -4.0610     0.0840 C.3   1 <1>   0.1200 
 15 C       -4.0590    -6.8250     0.6020 C.3   1 <1>   0.3330 
 16 O       -5.3320    -4.7740     0.9330 O.3   1 <1>  -0.5600 
 17 C       -4.2200    -8.2770     0.1520 C.ar  1 <1>  -0.1430 
 18 C       -5.4380    -6.1320     0.5950 C.3   1 <1>   0.1200 
 19 C       -4.4380    -8.5890    -1.1830 C.ar  1 <1>  -0.1500 
 20 C       -4.1540    -9.3050     1.0820 C.ar  1 <1>  -0.1500 
 21 C       -4.5880    -9.9050    -1.5830 C.ar  1 <1>  -0.1500 
 22 C       -4.3040   -10.6220     0.6840 C.ar  1 <1>  -0.1500 
 23 C       -4.5220   -10.9230    -0.6490 C.ar  1 <1>  -0.1500 
 24 H       -0.4610    -1.7390    -2.2160 H     1 <1>   0.1500 
 25 H        1.5800     0.4080     1.2280 H     1 <1>   0.1500 
 26 H        1.5550    -2.2560     1.5710 H     1 <1>   0.1500 
 27 H       -2.0820    -2.8580    -0.4810 H     1 <1>   0.0800 
 28 H       -2.5240    -3.8830    -1.8210 H     1 <1>   0.0800 
 29 H       -1.0770    -6.1050    -2.1470 H     1 <1>   0.0800 
 30 H        0.2160    -6.3680    -1.0170 H     1 <1>   0.0800 
 31 H       -2.6850    -4.5720     1.1150 H     1 <1>   0.0800 
 32 H       -1.3700    -6.6340     0.8150 H     1 <1>   0.0800 
 33 H       -1.7730    -7.7200    -0.4860 H     1 <1>   0.0800 
 34 H       -4.8860    -4.0850    -0.9120 H     1 <1>   0.0800 
 35 H       -4.4590    -3.0420     0.4280 H     1 <1>   0.0800 
 36 H       -3.6900    -6.8120     1.6140 H     1 <1>   0.0800 
 37 H       -6.0870    -6.6000     1.3120 H     1 <1>   0.0800 
 38 H       -5.8900    -6.2090    -0.3780 H     1 <1>   0.0800 
 39 H       -4.4840    -7.7990    -1.9140 H     1 <1>   0.1500 
 40 H       -3.9860    -9.0870     2.1220 H     1 <1>   0.1500 
 41 H       -4.7560   -10.1350    -2.6210 H     1 <1>   0.1500 
 42 H       -4.2510   -11.4140     1.4110 H     1 <1>   0.1500 
 43 H       -4.6380   -11.9460    -0.9590 H     1 <1>   0.1500 
@<TRIPOS>BOND
  1   1   2  1   
  2   1   3  1   
  3   2   4  2   
  4   2  24  1   
  5   3   5  2   
  6   3  25  1   
  7   4   5  1   
  8   4   6  1   
  9   5  26  1   
 10   6   7  2   
 11   6   8  am  
 12   8   9  1   
 13   8  10  1   
 14   9  11  1   
 15   9  27  1   
 16   9  28  1   
 17  10  12  1   
 18  10  29  1   
 19  10  30  1   
 20  11  13  1   
 21  11  14  1   
 22  11  31  1   
 23  12  13  1   
 24  12  32  1   
 25  12  33  1   
 26  13  15  1   
 27  14  16  1   
 28  14  34  1   
 29  14  35  1   
 30  15  17  1   
 31  15  18  1   
 32  15  36  1   
 33  16  18  1   
 34  17  19  ar  
 35  17  20  ar  
 36  18  37  1   
 37  18  38  1   
 38  19  21  ar  
 39  19  39  1   
 40  20  22  ar  
 41  20  40  1   
 42  21  23  ar  
 43  21  41  1   
 44  22  23  ar  
 45  22  42  1   
 46  23  43  1   
@<TRIPOS>SUBSTRUCTURE
  1 ****  13 GROUP 4 **** **** 0

# MOE 2024.06 (io_trps.svl 2023.06)
