@<TRIPOS>MOLECULE
NONAME
42 44 1 0 0 
SMALL
USER_CHARGES


@<TRIPOS>ATOM
  1 F        5.1750     0.5720     0.5600 F     1 <1>  -0.1900 
  2 C        4.1280    -0.1590     0.2760 C.ar  1 <1>   0.1900 
  3 C        2.9170     0.4660    -0.0070 C.ar  1 <1>  -0.1440 
  4 C        4.2810    -1.5310     0.2660 C.ar  1 <1>  -0.1500 
  5 C        1.8200    -0.3280    -0.3170 C.ar  1 <1>  -0.1500 
  6 C        2.7830     1.9830     0.0150 C.3   1 <1>  -0.0160 
  7 C        3.1660    -2.2840    -0.0450 C.ar  1 <1>   0.1900 
  8 C        1.9410    -1.7100    -0.3360 C.ar  1 <1>  -0.1500 
  9 C        3.2910     2.5890    -1.2980 C.3   1 <1>  -0.0990 
 10 F        3.2720    -3.5850    -0.0650 F     1 <1>  -0.1900 
 11 C        3.3250     4.0990    -1.2170 C.2   1 <1>   0.5690 
 12 O        2.3460     4.7120    -1.5630 O.2   1 <1>  -0.5700 
 13 N        4.4670     4.6780    -0.7350 N.am  1 <1>  -0.4940 
 14 C        4.7630     6.0520    -0.5450 C.2   1 <1>  -0.0880 
 15 N        5.9040     6.5490     0.0140 N.pl3 1 <1>   0.3140 
 16 C        4.0040     7.1270    -0.8680 C.2   1 <1>  -0.1500 
 17 N        5.8830     7.9060     0.0450 N.2   1 <1>  -0.7070 
 18 C        7.0560     5.7590     0.5390 C.3   1 <1>   0.1760 
 19 C        4.7450     8.2340    -0.4820 C.2   1 <1>   0.1390 
 20 C        7.4080     6.0830     1.9910 C.3   1 <1>  -0.1600 
 21 C        8.3580     6.0170    -0.2200 C.3   1 <1>  -0.1600 
 22 C        8.8520     5.6020     2.1540 C.3   1 <1>  -0.1600 
 23 C        9.4750     5.6230     0.7520 C.3   1 <1>  -0.1600 
 24 H        5.2240    -1.9950     0.4880 H     1 <1>   0.1500 
 25 H        0.8680     0.1220    -0.5440 H     1 <1>   0.1500 
 26 H        3.3420     2.3790     0.8450 H     1 <1>   0.0800 
 27 H        1.7540     2.2640     0.1620 H     1 <1>   0.0800 
 28 H        1.1000    -2.3370    -0.5740 H     1 <1>   0.1500 
 29 H        2.6400     2.2980    -2.1030 H     1 <1>   0.0800 
 30 H        4.2750     2.2220    -1.5220 H     1 <1>   0.0800 
 31 H        5.2000     4.0190    -0.4780 H     1 <1>   0.3700 
 32 H        3.0330     7.1440    -1.3280 H     1 <1>   0.1500 
 33 H        6.8240     4.7130     0.4740 H     1 <1>   0.0800 
 34 H        4.4200     9.2530    -0.6040 H     1 <1>   0.1500 
 35 H        6.7420     5.6010     2.6840 H     1 <1>   0.0800 
 36 H        7.3760     7.1490     2.1440 H     1 <1>   0.0800 
 37 H        8.4440     7.0690    -0.4400 H     1 <1>   0.0800 
 38 H        8.4060     5.4550    -1.1360 H     1 <1>   0.0800 
 39 H        8.8600     4.5950     2.5370 H     1 <1>   0.0800 
 40 H        9.3930     6.2360     2.8360 H     1 <1>   0.0800 
 41 H       10.2850     6.3310     0.7000 H     1 <1>   0.0800 
 42 H        9.8560     4.6460     0.5080 H     1 <1>   0.0800 
@<TRIPOS>BOND
  1   1   2  1   
  2   2   3  ar  
  3   2   4  ar  
  4   3   5  ar  
  5   3   6  1   
  6   4   7  ar  
  7   4  24  1   
  8   5   8  ar  
  9   5  25  1   
 10   6   9  1   
 11   6  26  1   
 12   6  27  1   
 13   7   8  ar  
 14   7  10  1   
 15   8  28  1   
 16   9  11  1   
 17   9  29  1   
 18   9  30  1   
 19  11  12  2   
 20  11  13  am  
 21  13  14  1   
 22  13  31  1   
 23  14  15  1   
 24  14  16  2   
 25  15  17  1   
 26  15  18  1   
 27  16  19  1   
 28  16  32  1   
 29  17  19  2   
 30  18  20  1   
 31  18  21  1   
 32  18  33  1   
 33  19  34  1   
 34  20  22  1   
 35  20  35  1   
 36  20  36  1   
 37  21  23  1   
 38  21  37  1   
 39  21  38  1   
 40  22  23  1   
 41  22  39  1   
 42  22  40  1   
 43  23  41  1   
 44  23  42  1   
@<TRIPOS>SUBSTRUCTURE
  1 ****  13 GROUP 4 **** **** 0

# MOE 2024.06 (io_trps.svl 2023.06)
