@<TRIPOS>MOLECULE
NONAME
54 57 1 0 0 
SMALL
USER_CHARGES


@<TRIPOS>ATOM
  1 F        1.7080     0.3260    -1.7680 F     1 <1>  -0.1900 
  2 C        2.3210     1.0350    -0.8580 C.ar  1 <1>   0.1900 
  3 C        2.0630     2.3900    -0.7870 C.ar  1 <1>  -0.1500 
  4 C        3.2040     0.4010    -0.0090 C.ar  1 <1>  -0.1500 
  5 C        2.7010     3.1690     0.1780 C.ar  1 <1>  -0.1440 
  6 C        3.8520     1.1650     0.9430 C.ar  1 <1>  -0.1500 
  7 C        3.6030     2.5270     1.0280 C.ar  1 <1>  -0.1500 
  8 C        2.4680     4.6980     0.3020 C.3   1 <1>   0.1440 
  9 C        1.1470     5.1170    -0.3980 C.3   1 <1>  -0.1600 
 10 C        2.3560     5.0790     1.8020 C.3   1 <1>  -0.1600 
 11 C        3.7140     5.3350    -0.3760 C.3   1 <1>   0.2090 
 12 C        0.6130     6.4910     0.0230 C.3   1 <1>   0.1200 
 13 C        1.7230     6.4510     2.0630 C.3   1 <1>   0.1200 
 14 N        3.7410     6.8270    -0.4370 N.pl3 1 <1>  -0.8690 
 15 O        0.4990     6.5250     1.4060 O.3   1 <1>  -0.5600 
 16 C        4.6320     7.5960     0.2760 C.ar  1 <1>   0.4100 
 17 N        5.1740     7.0610     1.3600 N.ar  1 <1>  -0.6200 
 18 C        4.9090     8.8840    -0.1570 C.ar  1 <1>  -0.1500 
 19 C        6.0060     7.8360     2.0320 C.ar  1 <1>   0.1600 
 20 C        5.7970     9.6910     0.5280 C.ar  1 <1>   0.0860 
 21 C        6.3420     9.1240     1.6720 C.ar  1 <1>  -0.1500 
 22 C        6.1140    11.0330     0.0830 C.2   1 <1>   0.5440 
 23 O        5.2100    11.8080    -0.1590 O.2   1 <1>  -0.5700 
 24 N        7.4160    11.4480    -0.0900 N.am  1 <1>  -0.6600 
 25 C        7.7580    12.8100    -0.5600 C.3   1 <1>   0.1400 
 26 C        8.5790    10.5400    -0.2210 C.3   1 <1>   0.1400 
 27 C        9.0880    12.6490    -1.2860 C.3   1 <1>  -0.1600 
 28 C        9.7420    11.4400    -0.6260 C.3   1 <1>  -0.1600 
 29 H        1.3680     2.7970    -1.4970 H     1 <1>   0.1500 
 30 H        3.3770    -0.6560    -0.0950 H     1 <1>   0.1500 
 31 H        4.5510     0.7040     1.6190 H     1 <1>   0.1500 
 32 H        4.1400     3.0820     1.7760 H     1 <1>   0.1500 
 33 H        0.3770     4.4090    -0.1470 H     1 <1>   0.0800 
 34 H        1.2710     5.1060    -1.4650 H     1 <1>   0.0800 
 35 H        3.3260     5.0740     2.2630 H     1 <1>   0.0800 
 36 H        1.7500     4.3470     2.3070 H     1 <1>   0.0800 
 37 H        3.7760     4.9620    -1.3840 H     1 <1>   0.0800 
 38 H        4.5970     4.9830     0.1300 H     1 <1>   0.0800 
 39 H       -0.3690     6.6510    -0.3860 H     1 <1>   0.0800 
 40 H        1.2510     7.2970    -0.2910 H     1 <1>   0.0800 
 41 H        2.3510     7.2560     1.7230 H     1 <1>   0.0800 
 42 H        1.5390     6.5830     3.1140 H     1 <1>   0.0800 
 43 H        3.4260     7.2160    -1.3270 H     1 <1>   0.4000 
 44 H        4.4270     9.2650    -1.0360 H     1 <1>   0.1500 
 45 H        6.4420     7.4170     2.9230 H     1 <1>   0.1500 
 46 H        7.0210     9.6970     2.2770 H     1 <1>   0.1500 
 47 H        7.8660    13.4560     0.2940 H     1 <1>   0.0800 
 48 H        6.9970    13.2040    -1.2140 H     1 <1>   0.0800 
 49 H        8.3780     9.8160    -0.9940 H     1 <1>   0.0800 
 50 H        8.7880    10.0360     0.7060 H     1 <1>   0.0800 
 51 H        9.6920    13.5360    -1.2140 H     1 <1>   0.0800 
 52 H        8.8930    12.4410    -2.3240 H     1 <1>   0.0800 
 53 H       10.4290    10.9360    -1.2820 H     1 <1>   0.0800 
 54 H       10.2680    11.7500     0.2610 H     1 <1>   0.0800 
@<TRIPOS>BOND
  1   1   2  1   
  2   2   3  ar  
  3   2   4  ar  
  4   3   5  ar  
  5   3  29  1   
  6   4   6  ar  
  7   4  30  1   
  8   5   7  ar  
  9   5   8  1   
 10   6   7  ar  
 11   6  31  1   
 12   7  32  1   
 13   8   9  1   
 14   8  10  1   
 15   8  11  1   
 16   9  12  1   
 17   9  33  1   
 18   9  34  1   
 19  10  13  1   
 20  10  35  1   
 21  10  36  1   
 22  11  14  1   
 23  11  37  1   
 24  11  38  1   
 25  12  15  1   
 26  12  39  1   
 27  12  40  1   
 28  13  15  1   
 29  13  41  1   
 30  13  42  1   
 31  14  16  1   
 32  14  43  1   
 33  16  17  ar  
 34  16  18  ar  
 35  17  19  ar  
 36  18  20  ar  
 37  18  44  1   
 38  19  21  ar  
 39  19  45  1   
 40  20  21  ar  
 41  20  22  1   
 42  21  46  1   
 43  22  23  2   
 44  22  24  am  
 45  24  25  1   
 46  24  26  1   
 47  25  27  1   
 48  25  47  1   
 49  25  48  1   
 50  26  28  1   
 51  26  49  1   
 52  26  50  1   
 53  27  28  1   
 54  27  51  1   
 55  27  52  1   
 56  28  53  1   
 57  28  54  1   
@<TRIPOS>SUBSTRUCTURE
  1 ****  16 GROUP 4 **** **** 0

# MOE 2024.06 (io_trps.svl 2023.06)
