@<TRIPOS>MOLECULE
NONAME
58 62 1 0 0 
SMALL
USER_CHARGES


@<TRIPOS>ATOM
  1 S        0.1080    -0.1010     1.0040 S.o2  1 <1>   1.5010 
  2 O       -0.9740    -0.9930     0.6440 O.2   1 <1>  -0.6500 
  3 O        0.6720    -0.2060     2.3350 O.2   1 <1>  -0.6500 
  4 N        1.3410    -0.5510    -0.0500 N.am  1 <1>  -0.9140 
  5 C       -0.2700     1.6470     0.5840 C.2   1 <1>   0.1640 
  6 C        2.1780    -1.6710     0.3650 C.3   1 <1>   0.1960 
  7 N       -0.5620     2.0840    -0.6750 N.2   1 <1>  -0.5650 
  8 C       -0.3150     2.7060     1.4340 C.2   1 <1>  -0.3020 
  9 C        1.3990    -2.9890     0.5730 C.3   1 <1>  -0.0800 
 10 C       -0.7660     3.3530    -0.5480 C.2   1 <1>   0.0060 
 11 N       -0.6300     3.7980     0.7200 N.pl3 1 <1>   0.0480 
 12 C        0.7450    -3.4850    -0.7250 C.3   1 <1>   0.2000 
 13 C        2.2760    -4.2130     0.9280 C.3   1 <1>  -0.0800 
 14 C       -1.1250     4.2500    -1.7160 C.3   1 <1>  -0.0600 
 15 C       -0.7860     5.1700     1.2360 C.3   1 <1>   0.0160 
 16 O        1.7960    -4.1880    -1.2680 O.3   1 <1>  -0.5600 
 17 C       -0.2630    -4.6150    -0.4610 C.3   1 <1>  -0.1600 
 18 C        2.0200    -5.1220    -0.2750 C.3   1 <1>   0.2800 
 19 C        3.8080    -4.0730     0.9850 C.3   1 <1>   0.3430 
 20 C        0.6600    -5.8120    -0.1950 C.3   1 <1>  -0.1600 
 21 C        3.3280    -5.8610    -0.5340 C.3   1 <1>   0.3430 
 22 N        4.3410    -4.8320    -0.1830 N.4   1 <1>  -0.9590 
 23 C        5.7700    -5.2220    -0.0840 C.3   1 <1>   0.5230 
 24 C        6.6110    -3.9600    -0.2520 C.2   1 <1>   0.0060 
 25 N        6.1250    -2.8410    -0.7030 N.2   1 <1>  -0.5650 
 26 N        7.9330    -3.8950     0.0480 N.pl3 1 <1>   0.0480 
 27 C        7.1770    -2.0040    -0.6960 C.2   1 <1>   0.0770 
 28 C        8.2830    -2.6290    -0.2400 C.2   1 <1>  -0.3020 
 29 C        8.8420    -4.9360     0.5670 C.3   1 <1>   0.0160 
 30 H        0.8620    -0.7570    -0.9240 H     1 <1>   0.4200 
 31 H        2.9330    -1.8140    -0.3910 H     1 <1>   0.0800 
 32 H        2.6790    -1.4010     1.2800 H     1 <1>   0.0800 
 33 H       -0.1370     2.7200     2.4940 H     1 <1>   0.1500 
 34 H        0.6600    -2.8540     1.3420 H     1 <1>   0.0800 
 35 H        0.3890    -2.7200    -1.3940 H     1 <1>   0.0800 
 36 H        1.9350    -4.6700     1.8400 H     1 <1>   0.0800 
 37 H       -1.1730     3.6680    -2.6190 H     1 <1>   0.0800 
 38 H       -0.3790     5.0130    -1.8390 H     1 <1>   0.0800 
 39 H       -2.0830     4.7070    -1.5500 H     1 <1>   0.0800 
 40 H       -0.6070     5.1790     2.2960 H     1 <1>   0.0800 
 41 H       -1.7850     5.5130     1.0390 H     1 <1>   0.0800 
 42 H       -0.0780     5.8160     0.7490 H     1 <1>   0.0800 
 43 H       -0.9070    -4.3840     0.3700 H     1 <1>   0.0800 
 44 H       -0.8670    -4.7790    -1.3370 H     1 <1>   0.0800 
 45 H        4.1690    -4.5090     1.9020 H     1 <1>   0.0800 
 46 H        4.1290    -3.0450     0.9440 H     1 <1>   0.0800 
 47 H        0.5640    -6.5500    -0.9730 H     1 <1>   0.0800 
 48 H        0.4820    -6.2670     0.7640 H     1 <1>   0.0800 
 49 H        3.4000    -6.1750    -1.5630 H     1 <1>   0.0800 
 50 H        3.4070    -6.7100     0.1240 H     1 <1>   0.0800 
 51 H        4.3370    -4.1300    -0.9490 H     1 <1>   0.4500 
 52 H        5.9690    -5.6840     0.8680 H     1 <1>   0.0800 
 53 H        6.0190    -5.9120    -0.8730 H     1 <1>   0.0800 
 54 H        7.0870    -0.9800    -1.0240 H     1 <1>   0.1500 
 55 H        9.2780    -2.2410    -0.1140 H     1 <1>   0.1500 
 56 H        9.8340    -4.5310     0.6590 H     1 <1>   0.0800 
 57 H        8.8670    -5.7680    -0.1130 H     1 <1>   0.0800 
 58 H        8.5060    -5.2610     1.5350 H     1 <1>   0.0800 
@<TRIPOS>BOND
  1   1   2  2   
  2   1   3  2   
  3   1   4  am  
  4   1   5  1   
  5   4   6  1   
  6   4  30  1   
  7   5   7  1   
  8   5   8  2   
  9   6   9  1   
 10   6  31  1   
 11   6  32  1   
 12   7  10  2   
 13   8  11  1   
 14   8  33  1   
 15   9  12  1   
 16   9  13  1   
 17   9  34  1   
 18  10  11  1   
 19  10  14  1   
 20  11  15  1   
 21  12  16  1   
 22  12  17  1   
 23  12  35  1   
 24  13  18  1   
 25  13  19  1   
 26  13  36  1   
 27  14  37  1   
 28  14  38  1   
 29  14  39  1   
 30  15  40  1   
 31  15  41  1   
 32  15  42  1   
 33  16  18  1   
 34  17  20  1   
 35  17  43  1   
 36  17  44  1   
 37  18  20  1   
 38  18  21  1   
 39  19  22  1   
 40  19  45  1   
 41  19  46  1   
 42  20  47  1   
 43  20  48  1   
 44  21  22  1   
 45  21  49  1   
 46  21  50  1   
 47  22  23  1   
 48  22  51  1   
 49  23  24  1   
 50  23  52  1   
 51  23  53  1   
 52  24  25  2   
 53  24  26  1   
 54  25  27  1   
 55  26  28  1   
 56  26  29  1   
 57  27  28  2   
 58  27  54  1   
 59  28  55  1   
 60  29  56  1   
 61  29  57  1   
 62  29  58  1   
@<TRIPOS>SUBSTRUCTURE
  1 ****   6 GROUP 4 **** **** 0

# MOE 2024.06 (io_trps.svl 2023.06)
