@<TRIPOS>MOLECULE
NONAME
45 47 1 0 0 
SMALL
USER_CHARGES


@<TRIPOS>ATOM
  1 CL      -0.8000    -1.1310     3.3140 Cl    1 <1>  -0.1770 
  2 C       -1.5960    -1.5550     1.8200 C.ar  1 <1>   0.1770 
  3 C       -1.8260    -0.5870     0.8590 C.ar  1 <1>   0.1600 
  4 C       -1.9950    -2.8540     1.6080 C.ar  1 <1>  -0.1500 
  5 N       -2.4220    -0.8270    -0.3020 N.ar  1 <1>  -0.6200 
  6 C       -2.6310    -3.1390     0.4060 C.ar  1 <1>   0.0860 
  7 C       -2.7950    -2.0850    -0.4950 C.ar  1 <1>   0.1600 
  8 C       -3.1030    -4.4720     0.0930 C.2   1 <1>   0.5440 
  9 O       -2.5070    -5.4480     0.5100 O.2   1 <1>  -0.5700 
 10 N       -4.2470    -4.6950    -0.6410 N.am  1 <1>  -0.6600 
 11 C       -4.4690    -6.0390    -1.2380 C.3   1 <1>   0.1400 
 12 C       -5.5100    -3.9740    -0.3210 C.3   1 <1>   0.1400 
 13 C       -5.2310    -6.9160    -0.2190 C.3   1 <1>   0.4230 
 14 C       -6.2980    -4.8180     0.6910 C.3   1 <1>  -0.1600 
 15 N       -5.3370    -8.3810    -0.6180 N.4   1 <1>  -0.9590 
 16 C       -6.5860    -6.2710     0.2070 C.3   1 <1>   0.0000 
 17 C       -6.3930    -9.1430     0.1250 C.3   1 <1>   0.3430 
 18 C       -5.4510    -8.6470    -2.0890 C.3   1 <1>   0.2630 
 19 C       -7.1900    -7.0820     1.3920 C.3   1 <1>  -0.1600 
 20 C       -7.5720    -6.2540    -0.9960 C.3   1 <1>   0.1200 
 21 C       -6.6540    -8.5230     1.4970 C.3   1 <1>  -0.1600 
 22 O       -8.6980    -5.4960    -0.7240 O.3   1 <1>  -0.6800 
 23 H       -1.5040     0.4210     1.0550 H     1 <1>   0.1500 
 24 H       -1.8180    -3.6180     2.3450 H     1 <1>   0.1500 
 25 H       -3.2670    -2.3000    -1.4390 H     1 <1>   0.1500 
 26 H       -5.0150    -5.9250    -2.1560 H     1 <1>   0.0800 
 27 H       -3.5160    -6.4880    -1.4640 H     1 <1>   0.0800 
 28 H       -5.3020    -3.0070     0.1040 H     1 <1>   0.0800 
 29 H       -6.0850    -3.8220    -1.2200 H     1 <1>   0.0800 
 30 H       -4.6190    -6.8940     0.6690 H     1 <1>   0.0800 
 31 H       -5.7220    -4.8450     1.6010 H     1 <1>   0.0800 
 32 H       -7.2150    -4.3060     0.9290 H     1 <1>   0.0800 
 33 H       -4.4360    -8.7840    -0.3150 H     1 <1>   0.4500 
 34 H       -7.3140    -9.1300    -0.4350 H     1 <1>   0.0800 
 35 H       -6.0910   -10.1720     0.2410 H     1 <1>   0.0800 
 36 H       -6.3530    -8.2080    -2.4840 H     1 <1>   0.0800 
 37 H       -5.4770    -9.7090    -2.2760 H     1 <1>   0.0800 
 38 H       -4.6060    -8.2350    -2.6160 H     1 <1>   0.0800 
 39 H       -6.9820    -6.5950     2.3300 H     1 <1>   0.0800 
 40 H       -8.2620    -7.1140     1.3080 H     1 <1>   0.0800 
 41 H       -7.9060    -7.2450    -1.2480 H     1 <1>   0.0800 
 42 H       -7.1220    -5.8170    -1.8680 H     1 <1>   0.0800 
 43 H       -7.3700    -9.1270     2.0280 H     1 <1>   0.0800 
 44 H       -5.7430    -8.5400     2.0700 H     1 <1>   0.0800 
 45 H       -9.2220    -5.8600     0.0170 H     1 <1>   0.4000 
@<TRIPOS>BOND
  1   1   2  1   
  2   2   3  ar  
  3   2   4  ar  
  4   3   5  ar  
  5   3  23  1   
  6   4   6  ar  
  7   4  24  1   
  8   5   7  ar  
  9   6   7  ar  
 10   6   8  1   
 11   7  25  1   
 12   8   9  2   
 13   8  10  am  
 14  10  11  1   
 15  10  12  1   
 16  11  13  1   
 17  11  26  1   
 18  11  27  1   
 19  12  14  1   
 20  12  28  1   
 21  12  29  1   
 22  13  15  1   
 23  13  16  1   
 24  13  30  1   
 25  14  16  1   
 26  14  31  1   
 27  14  32  1   
 28  15  17  1   
 29  15  18  1   
 30  15  33  1   
 31  16  19  1   
 32  16  20  1   
 33  17  21  1   
 34  17  34  1   
 35  17  35  1   
 36  18  36  1   
 37  18  37  1   
 38  18  38  1   
 39  19  21  1   
 40  19  39  1   
 41  19  40  1   
 42  20  22  1   
 43  20  41  1   
 44  20  42  1   
 45  21  43  1   
 46  21  44  1   
 47  22  45  1   
@<TRIPOS>SUBSTRUCTURE
  1 ****  10 GROUP 4 **** **** 0

# MOE 2024.06 (io_trps.svl 2023.06)
