@<TRIPOS>MOLECULE
NONAME
40 42 1 0 0 
SMALL
USER_CHARGES


@<TRIPOS>ATOM
  1 S       -0.0020     0.1180     1.1950 S.3   1 <1>  -0.0800 
  2 C       -1.2910     0.7920     0.2090 C.2   1 <1>   0.4620 
  3 C        0.7730     1.6700     1.2100 C.2   1 <1>  -0.1100 
  4 N       -1.1330     2.0360    -0.0650 N.2   1 <1>  -0.5650 
  5 N       -2.3250    -0.0190    -0.1890 N.pl3 1 <1>  -0.8220 
  6 C        0.0420     2.5560     0.5000 C.2   1 <1>   0.1410 
  7 C       -3.5640     0.5310    -0.7900 C.3   1 <1>   0.2090 
  8 C       -2.5830    -1.3700     0.3550 C.3   1 <1>   0.2090 
  9 C        0.3980     3.9540     0.3000 C.2   1 <1>   0.7160 
 10 C       -4.6580    -0.5170    -0.5280 C.3   1 <1>   0.2000 
 11 C       -3.8750    -1.8190    -0.3310 C.3   1 <1>  -0.0800 
 12 O        1.4030     4.4410     0.7750 O.2   1 <1>  -0.5700 
 13 N       -0.3890     4.7720    -0.4340 N.am  1 <1>  -0.8000 
 14 O       -5.3480    -0.2270     0.6580 O.3   1 <1>  -0.5600 
 15 C       -4.6300    -2.9160     0.4430 C.3   1 <1>   0.0200 
 16 C       -6.3820     0.6980     0.5350 C.3   1 <1>   0.0400 
 17 C       -3.8930    -4.2440     0.4680 C.2   1 <1>  -0.0400 
 18 O       -4.3520    -5.2030     1.2280 O.3   1 <1>  -0.0190 
 19 C       -2.7990    -4.7100    -0.1570 C.2   1 <1>  -0.1500 
 20 N       -3.6260    -6.2800     1.1490 N.2   1 <1>  -0.4100 
 21 C       -2.6820    -6.0120     0.3210 C.2   1 <1>   0.1080 
 22 C       -1.5960    -6.9880    -0.0750 C.3   1 <1>  -0.0590 
 23 H        1.6990     1.7770     1.7450 H     1 <1>   0.1500 
 24 H       -3.8110     1.4850    -0.3600 H     1 <1>   0.0800 
 25 H       -3.4080     0.6440    -1.8480 H     1 <1>   0.0800 
 26 H       -1.7640    -2.0340     0.1420 H     1 <1>   0.0800 
 27 H       -2.7280    -1.2980     1.4210 H     1 <1>   0.0800 
 28 H       -5.3630    -0.5910    -1.3380 H     1 <1>   0.0800 
 29 H       -3.6160    -2.1940    -1.3050 H     1 <1>   0.0800 
 30 H       -0.1350     5.7460    -0.5790 H     1 <1>   0.3700 
 31 H       -1.2410     4.4110    -0.8640 H     1 <1>   0.3700 
 32 H       -5.5940    -3.0720    -0.0070 H     1 <1>   0.0800 
 33 H       -4.7940    -2.5960     1.4580 H     1 <1>   0.0800 
 34 H       -6.8260     0.8300     1.5060 H     1 <1>   0.0800 
 35 H       -7.1200     0.3190    -0.1500 H     1 <1>   0.0800 
 36 H       -5.9890     1.6380     0.1910 H     1 <1>   0.0800 
 37 H       -2.1440    -4.2370    -0.8640 H     1 <1>   0.1500 
 38 H       -0.6300    -6.5540     0.1080 H     1 <1>   0.0800 
 39 H       -1.6860    -7.2300    -1.1170 H     1 <1>   0.0800 
 40 H       -1.6870    -7.8910     0.5010 H     1 <1>   0.0800 
@<TRIPOS>BOND
  1   1   2  1   
  2   1   3  1   
  3   2   4  2   
  4   2   5  1   
  5   3   6  2   
  6   3  23  1   
  7   4   6  1   
  8   5   7  1   
  9   5   8  1   
 10   6   9  1   
 11   7  10  1   
 12   7  24  1   
 13   7  25  1   
 14   8  11  1   
 15   8  26  1   
 16   8  27  1   
 17   9  12  2   
 18   9  13  am  
 19  10  11  1   
 20  10  14  1   
 21  10  28  1   
 22  11  15  1   
 23  11  29  1   
 24  13  30  1   
 25  13  31  1   
 26  14  16  1   
 27  15  17  1   
 28  15  32  1   
 29  15  33  1   
 30  16  34  1   
 31  16  35  1   
 32  16  36  1   
 33  17  18  1   
 34  17  19  2   
 35  18  20  1   
 36  19  21  1   
 37  19  37  1   
 38  20  21  2   
 39  21  22  1   
 40  22  38  1   
 41  22  39  1   
 42  22  40  1   
@<TRIPOS>SUBSTRUCTURE
  1 ****   8 GROUP 4 **** **** 0

# MOE 2024.06 (io_trps.svl 2023.06)
