@<TRIPOS>MOLECULE
NONAME
43 44 1 0 0 
SMALL
USER_CHARGES


@<TRIPOS>ATOM
  1 O       -0.3280    -0.9510     2.0260 O.co2 1 <1>  -0.9000 
  2 C       -0.8450    -1.4880     1.0480 C.2   1 <1>   0.9060 
  3 O       -0.3780    -1.4460    -0.0920 O.co2 1 <1>  -0.9000 
  4 C       -2.1660    -2.1900     1.2280 C.3   1 <1>  -0.2660 
  5 C       -3.2890    -1.3830     0.5620 C.3   1 <1>  -0.1600 
  6 C       -4.5960    -2.1630     0.5710 C.3   1 <1>   0.3430 
  7 N       -5.6630    -1.3730    -0.0960 N.4   1 <1>  -0.9590 
  8 C       -7.0190    -1.9150     0.2510 C.3   1 <1>   0.3430 
  9 C       -5.4640    -1.2540    -1.5660 C.3   1 <1>   0.3430 
 10 C       -8.1590    -1.3490    -0.6400 C.3   1 <1>   0.0000 
 11 C       -6.4310    -0.2100    -2.1390 C.3   1 <1>  -0.1600 
 12 C       -9.4350    -1.1590     0.1940 C.3   1 <1>   0.2000 
 13 C       -7.7290    -0.0350    -1.3260 C.3   1 <1>  -0.1600 
 14 C       -8.5990    -2.4160    -1.6550 C.3   1 <1>  -0.1600 
 15 O       -9.1170    -0.6510     1.4540 O.3   1 <1>  -0.5600 
 16 C      -10.0750    -2.5470     0.2980 C.3   1 <1>  -0.1600 
 17 C       -9.5250    -3.3600    -0.8810 C.3   1 <1>  -0.1600 
 18 C      -10.2010    -0.1410     2.1690 C.3   1 <1>   0.0400 
 19 H       -2.0710    -3.1600     0.7780 H     1 <1>   0.0800 
 20 H       -2.3460    -2.3090     2.2800 H     1 <1>   0.0800 
 21 H       -2.9790    -1.1720    -0.4460 H     1 <1>   0.0800 
 22 H       -3.4000    -0.4520     1.0900 H     1 <1>   0.0800 
 23 H       -4.8710    -2.3600     1.5950 H     1 <1>   0.0800 
 24 H       -4.4610    -3.1060     0.0670 H     1 <1>   0.0800 
 25 H       -5.6180    -0.4190     0.2870 H     1 <1>   0.4500 
 26 H       -7.0160    -2.9880     0.1600 H     1 <1>   0.0800 
 27 H       -7.2190    -1.6860     1.2850 H     1 <1>   0.0800 
 28 H       -4.4510    -0.9640    -1.7960 H     1 <1>   0.0800 
 29 H       -5.6500    -2.2110    -2.0260 H     1 <1>   0.0800 
 30 H       -5.9260     0.7380    -2.2060 H     1 <1>   0.0800 
 31 H       -6.6740    -0.5030    -3.1460 H     1 <1>   0.0800 
 32 H      -10.1020    -0.4780    -0.3090 H     1 <1>   0.0800 
 33 H       -8.5120     0.3370    -1.9660 H     1 <1>   0.0800 
 34 H       -7.5660     0.7080    -0.5620 H     1 <1>   0.0800 
 35 H       -9.1680    -1.9520    -2.4440 H     1 <1>   0.0800 
 36 H       -7.7760    -2.9480    -2.1000 H     1 <1>   0.0800 
 37 H       -9.8060    -3.0220     1.2260 H     1 <1>   0.0800 
 38 H      -11.1460    -2.4680     0.2370 H     1 <1>   0.0800 
 39 H       -8.9740    -4.2080    -0.5120 H     1 <1>   0.0800 
 40 H      -10.3210    -3.7190    -1.5130 H     1 <1>   0.0800 
 41 H       -9.8380     0.2300     3.1110 H     1 <1>   0.0800 
 42 H      -10.9190    -0.9230     2.3440 H     1 <1>   0.0800 
 43 H      -10.6490     0.6650     1.6130 H     1 <1>   0.0800 
@<TRIPOS>BOND
  1   1   2  ar  
  2   2   3  ar  
  3   2   4  1   
  4   4   5  1   
  5   4  19  1   
  6   4  20  1   
  7   5   6  1   
  8   5  21  1   
  9   5  22  1   
 10   6   7  1   
 11   6  23  1   
 12   6  24  1   
 13   7   8  1   
 14   7   9  1   
 15   7  25  1   
 16   8  10  1   
 17   8  26  1   
 18   8  27  1   
 19   9  11  1   
 20   9  28  1   
 21   9  29  1   
 22  10  12  1   
 23  10  13  1   
 24  10  14  1   
 25  11  13  1   
 26  11  30  1   
 27  11  31  1   
 28  12  15  1   
 29  12  16  1   
 30  12  32  1   
 31  13  33  1   
 32  13  34  1   
 33  14  17  1   
 34  14  35  1   
 35  14  36  1   
 36  15  18  1   
 37  16  17  1   
 38  16  37  1   
 39  16  38  1   
 40  17  39  1   
 41  17  40  1   
 42  18  41  1   
 43  18  42  1   
 44  18  43  1   
@<TRIPOS>SUBSTRUCTURE
  1 ****   7 GROUP 4 **** **** 0

# MOE 2024.06 (io_trps.svl 2023.06)
