@<TRIPOS>MOLECULE
NONAME
41 43 1 0 0 
SMALL
USER_CHARGES


@<TRIPOS>ATOM
  1 O       -0.4040    -0.7830     1.6700 O.3   1 <1>  -0.5600 
  2 C        0.7530    -0.3220     1.0430 C.3   1 <1>   0.1200 
  3 C       -1.5130    -0.2490     1.0250 C.3   1 <1>   0.1200 
  4 C        0.4220     1.0580     0.4720 C.3   1 <1>   0.2890 
  5 C       -1.0960     1.1580     0.6080 C.3   1 <1>  -0.0800 
  6 N        1.0720     2.1340     1.2480 N.pl3 1 <1>  -0.8690 
  7 C       -1.7810     1.6520    -0.6750 C.3   1 <1>  -0.0170 
  8 C        1.2270     3.4000     0.8040 C.ar  1 <1>   0.7200 
  9 C       -3.2930     1.6780    -0.5160 C.ar  1 <1>  -0.1440 
 10 N        1.2070     3.6130    -0.5070 N.ar  1 <1>  -0.6200 
 11 N        1.3660     4.2980     1.7650 N.ar  1 <1>  -0.6200 
 12 C       -3.9230     2.6570     0.2250 C.ar  1 <1>  -0.1500 
 13 C       -4.1120     0.7300    -1.0960 C.ar  1 <1>  -0.1500 
 14 C        1.3620     4.8620    -0.8760 C.ar  1 <1>   0.1600 
 15 C        1.5180     5.5360     1.3620 C.ar  1 <1>   0.1600 
 16 C       -5.3020     2.6400     0.3500 C.ar  1 <1>   0.1600 
 17 C       -5.4830     0.8040    -0.9090 C.ar  1 <1>   0.1600 
 18 C        1.5270     5.8860     0.0300 C.ar  1 <1>  -0.1440 
 19 N       -6.0980     1.7360    -0.1990 N.ar  1 <1>  -0.6200 
 20 C        1.7060     7.3280    -0.4170 C.3   1 <1>  -0.0170 
 21 C        0.3490     8.0220    -0.5530 C.3   1 <1>  -0.2400 
 22 H        1.5550    -0.2910     1.7590 H     1 <1>   0.0800 
 23 H        0.9920    -1.0100     0.2510 H     1 <1>   0.0800 
 24 H       -1.7300    -0.8690     0.1720 H     1 <1>   0.0800 
 25 H       -2.3510    -0.2460     1.7010 H     1 <1>   0.0800 
 26 H        0.7430     1.1000    -0.5560 H     1 <1>   0.0800 
 27 H       -1.3470     1.8210     1.4180 H     1 <1>   0.0800 
 28 H        0.9380     2.0880     2.2570 H     1 <1>   0.4000 
 29 H       -1.5120     1.0200    -1.5030 H     1 <1>   0.0800 
 30 H       -1.4350     2.6460    -0.9010 H     1 <1>   0.0800 
 31 H       -3.3530     3.4310     0.7060 H     1 <1>   0.1500 
 32 H       -3.7010    -0.0640    -1.6910 H     1 <1>   0.1500 
 33 H        1.3580     5.0760    -1.9310 H     1 <1>   0.1500 
 34 H        1.6380     6.2950     2.1160 H     1 <1>   0.1500 
 35 H       -5.7750     3.4120     0.9330 H     1 <1>   0.1500 
 36 H       -6.1070     0.0580    -1.3690 H     1 <1>   0.1500 
 37 H        2.3120     7.8580     0.2980 H     1 <1>   0.0800 
 38 H        2.2210     7.3540    -1.3620 H     1 <1>   0.0800 
 39 H       -0.1690     8.0190     0.3910 H     1 <1>   0.0800 
 40 H       -0.2590     7.5160    -1.2810 H     1 <1>   0.0800 
 41 H        0.4860     9.0420    -0.8660 H     1 <1>   0.0800 
@<TRIPOS>BOND
  1   1   2  1   
  2   1   3  1   
  3   2   4  1   
  4   2  22  1   
  5   2  23  1   
  6   3   5  1   
  7   3  24  1   
  8   3  25  1   
  9   4   5  1   
 10   4   6  1   
 11   4  26  1   
 12   5   7  1   
 13   5  27  1   
 14   6   8  1   
 15   6  28  1   
 16   7   9  1   
 17   7  29  1   
 18   7  30  1   
 19   8  10  ar  
 20   8  11  ar  
 21   9  12  ar  
 22   9  13  ar  
 23  10  14  ar  
 24  11  15  ar  
 25  12  16  ar  
 26  12  31  1   
 27  13  17  ar  
 28  13  32  1   
 29  14  18  ar  
 30  14  33  1   
 31  15  18  ar  
 32  15  34  1   
 33  16  19  ar  
 34  16  35  1   
 35  17  19  ar  
 36  17  36  1   
 37  18  20  1   
 38  20  21  1   
 39  20  37  1   
 40  20  38  1   
 41  21  39  1   
 42  21  40  1   
 43  21  41  1   
@<TRIPOS>SUBSTRUCTURE
  1 ****   7 GROUP 4 **** **** 0

# MOE 2024.06 (io_trps.svl 2023.06)
