@<TRIPOS>MOLECULE
NONAME
46 48 1 0 0 
SMALL
USER_CHARGES


@<TRIPOS>ATOM
  1 S       -0.2270    -0.2640    -1.5120 S.3   1 <1>  -0.0800 
  2 C        0.2450    -1.6170    -0.5150 C.2   1 <1>  -0.1400 
  3 C        0.8970     0.7440    -0.6310 C.2   1 <1>   0.2280 
  4 C        1.1800    -1.2010     0.3560 C.2   1 <1>   0.0460 
  5 C       -0.4080    -2.9560    -0.7640 C.3   1 <1>   0.5230 
  6 N        1.5310     0.1330     0.2860 N.2   1 <1>  -0.5650 
  7 C        1.9050    -2.0120     1.4110 C.3   1 <1>  -0.0590 
  8 N       -1.7720    -2.9220    -0.1730 N.4   1 <1>  -0.9590 
  9 C       -2.1710    -4.2690     0.3710 C.3   1 <1>   0.3430 
 10 C       -2.7730    -2.4040    -1.1560 C.3   1 <1>   0.3430 
 11 C       -3.4030    -4.2280     1.3010 C.3   1 <1>   0.1400 
 12 C       -3.7750    -1.4600    -0.4820 C.3   1 <1>  -0.1600 
 13 N       -4.5490    -3.5040     0.6760 N.am  1 <1>  -0.6600 
 14 C       -4.4660    -2.0210     0.7660 C.3   1 <1>   0.1400 
 15 C       -5.6110    -4.1260     0.0360 C.2   1 <1>   0.7150 
 16 O       -6.5330    -3.4250    -0.3360 O.2   1 <1>  -0.5700 
 17 C       -5.6380    -5.5470    -0.2440 C.2   1 <1>   0.0550 
 18 O       -4.5310    -6.2100    -0.5680 O.3   1 <1>  -0.2800 
 19 C       -6.6770    -6.4080    -0.2670 C.2   1 <1>   0.0460 
 20 C       -4.9930    -7.4300    -0.7620 C.2   1 <1>   0.2980 
 21 N       -6.2450    -7.6180    -0.5950 N.2   1 <1>  -0.5650 
 22 C       -8.1510    -6.1870     0.0100 C.3   1 <1>  -0.0590 
 23 C       -4.0170    -8.5110    -1.1660 C.3   1 <1>  -0.0600 
 24 H        0.9690     1.7790    -0.9190 H     1 <1>   0.1500 
 25 H        0.1810    -3.7180    -0.2820 H     1 <1>   0.0800 
 26 H       -0.4470    -3.1700    -1.8200 H     1 <1>   0.0800 
 27 H        1.5880    -3.0360     1.4110 H     1 <1>   0.0800 
 28 H        1.7210    -1.5870     2.3820 H     1 <1>   0.0800 
 29 H        2.9640    -1.9770     1.2230 H     1 <1>   0.0800 
 30 H       -1.7240    -2.2430     0.5980 H     1 <1>   0.4500 
 31 H       -1.3500    -4.6920     0.9270 H     1 <1>   0.0800 
 32 H       -2.3850    -4.9380    -0.4470 H     1 <1>   0.0800 
 33 H       -3.3070    -3.2290    -1.6000 H     1 <1>   0.0800 
 34 H       -2.2800    -1.8680    -1.9500 H     1 <1>   0.0800 
 35 H       -3.1370    -3.7460     2.2270 H     1 <1>   0.0800 
 36 H       -3.6940    -5.2320     1.5550 H     1 <1>   0.0800 
 37 H       -4.5400    -1.2330    -1.2040 H     1 <1>   0.0800 
 38 H       -3.2990    -0.5270    -0.2400 H     1 <1>   0.0800 
 39 H       -5.4530    -1.5950     0.8600 H     1 <1>   0.0800 
 40 H       -3.9180    -1.7430     1.6500 H     1 <1>   0.0800 
 41 H       -8.3450    -5.1730     0.3060 H     1 <1>   0.0800 
 42 H       -8.4730    -6.8460     0.7960 H     1 <1>   0.0800 
 43 H       -8.7180    -6.4040    -0.8770 H     1 <1>   0.0800 
 44 H       -3.5450    -8.2470    -2.0940 H     1 <1>   0.0800 
 45 H       -4.5400    -9.4410    -1.2950 H     1 <1>   0.0800 
 46 H       -3.2720    -8.6340    -0.4040 H     1 <1>   0.0800 
@<TRIPOS>BOND
  1   1   2  1   
  2   1   3  1   
  3   2   4  2   
  4   2   5  1   
  5   3   6  2   
  6   3  24  1   
  7   4   6  1   
  8   4   7  1   
  9   5   8  1   
 10   5  25  1   
 11   5  26  1   
 12   7  27  1   
 13   7  28  1   
 14   7  29  1   
 15   8   9  1   
 16   8  10  1   
 17   8  30  1   
 18   9  11  1   
 19   9  31  1   
 20   9  32  1   
 21  10  12  1   
 22  10  33  1   
 23  10  34  1   
 24  11  13  1   
 25  11  35  1   
 26  11  36  1   
 27  12  14  1   
 28  12  37  1   
 29  12  38  1   
 30  13  14  1   
 31  13  15  am  
 32  14  39  1   
 33  14  40  1   
 34  15  16  2   
 35  15  17  1   
 36  17  18  1   
 37  17  19  2   
 38  18  20  1   
 39  19  21  1   
 40  19  22  1   
 41  20  21  2   
 42  20  23  1   
 43  22  41  1   
 44  22  42  1   
 45  22  43  1   
 46  23  44  1   
 47  23  45  1   
 48  23  46  1   
@<TRIPOS>SUBSTRUCTURE
  1 ****   9 GROUP 4 **** **** 0

# MOE 2024.06 (io_trps.svl 2023.06)
