@<TRIPOS>MOLECULE
NONAME
52 56 1 0 0 
SMALL
USER_CHARGES


@<TRIPOS>ATOM
  1 O        1.9900    -0.5490    -0.8540 O.3   1 <1>  -0.5600 
  2 C        2.5800    -1.3580     0.1440 C.3   1 <1>   0.4600 
  3 C        0.5900    -0.3670    -0.8270 C.3   1 <1>   0.1200 
  4 C        1.6920    -2.5640     0.4170 C.2   1 <1>  -0.3320 
  5 C        2.8090    -0.5050     1.4030 C.3   1 <1>  -0.1600 
  6 C        3.9310    -1.7930    -0.4220 C.3   1 <1>  -0.1600 
  7 C       -0.1470    -1.6990    -1.0360 C.3   1 <1>   0.0210 
  8 N        1.9810    -3.6450     1.2080 N.pl3 1 <1>   0.0330 
  9 C        0.4650    -2.7260    -0.1170 C.2   1 <1>  -0.1810 
 10 C        3.9950     0.4600     1.2840 C.3   1 <1>   0.3430 
 11 C        4.7940    -0.5960    -0.8380 C.3   1 <1>   0.3430 
 12 C        0.9100    -4.5030     1.1630 C.ar  1 <1>  -0.1520 
 13 C       -0.0630    -3.9530     0.3330 C.ar  1 <1>   0.0000 
 14 N        4.3630     0.6520    -0.1430 N.4   1 <1>  -0.9590 
 15 C        0.7050    -5.7360     1.7860 C.ar  1 <1>  -0.1500 
 16 C       -1.2600    -4.6420     0.1180 C.ar  1 <1>  -0.1500 
 17 C        5.2190     1.8430    -0.3950 C.3   1 <1>   0.5230 
 18 C       -0.4780    -6.4030     1.5670 C.ar  1 <1>  -0.1500 
 19 C       -1.4610    -5.8560     0.7320 C.ar  1 <1>  -0.1500 
 20 C        4.3830     3.1030    -0.2190 C.2   1 <1>   0.0060 
 21 N        3.0950     3.1240    -0.1550 N.2   1 <1>  -0.5650 
 22 N        4.8970     4.3380    -0.1190 N.pl3 1 <1>   0.3140 
 23 C        2.8550     4.4340    -0.0100 C.2   1 <1>   0.3660 
 24 N        3.8980     5.1920     0.0200 N.2   1 <1>  -0.7070 
 25 C        6.3040     4.8020    -0.1530 C.3   1 <1>   0.0960 
 26 C        6.9990     4.5850     1.1970 C.3   1 <1>  -0.2400 
 27 H        0.3310     0.3250    -1.6090 H     1 <1>   0.0800 
 28 H        0.3140     0.0640     0.1190 H     1 <1>   0.0800 
 29 H        3.0000    -1.1520     2.2380 H     1 <1>   0.0800 
 30 H        1.9180     0.0420     1.6440 H     1 <1>   0.0800 
 31 H        3.7730    -2.4360    -1.2690 H     1 <1>   0.0800 
 32 H        4.4590    -2.3680     0.3150 H     1 <1>   0.0800 
 33 H       -0.0510    -2.0200    -2.0570 H     1 <1>   0.0800 
 34 H       -1.1910    -1.5740    -0.8110 H     1 <1>   0.0800 
 35 H        2.8340    -3.8280     1.7430 H     1 <1>   0.2700 
 36 H        4.8400     0.0640     1.8230 H     1 <1>   0.0800 
 37 H        3.7220     1.4060     1.7270 H     1 <1>   0.0800 
 38 H        4.6910    -0.4530    -1.9020 H     1 <1>   0.0800 
 39 H        5.8290    -0.8100    -0.6240 H     1 <1>   0.0800 
 40 H        3.4500     0.9050    -0.5810 H     1 <1>   0.4500 
 41 H        1.4630    -6.1530     2.4250 H     1 <1>   0.1500 
 42 H       -2.0050    -4.2110    -0.5250 H     1 <1>   0.1500 
 43 H        5.5900     1.8170    -1.4070 H     1 <1>   0.0800 
 44 H        6.0550     1.8490     0.2830 H     1 <1>   0.0800 
 45 H       -0.6610    -7.3550     2.0350 H     1 <1>   0.1500 
 46 H       -2.3770    -6.3980     0.5770 H     1 <1>   0.1500 
 47 H        1.8470     4.8120     0.0760 H     1 <1>   0.1500 
 48 H        6.3010     5.8520    -0.3890 H     1 <1>   0.0800 
 49 H        6.8280     4.2870    -0.9370 H     1 <1>   0.0800 
 50 H        6.4740     5.1200     1.9710 H     1 <1>   0.0800 
 51 H        8.0030     4.9690     1.1520 H     1 <1>   0.0800 
 52 H        7.0470     3.5430     1.4540 H     1 <1>   0.0800 
@<TRIPOS>BOND
  1   1   2  1   
  2   1   3  1   
  3   2   4  1   
  4   2   5  1   
  5   2   6  1   
  6   3   7  1   
  7   3  27  1   
  8   3  28  1   
  9   4   8  1   
 10   4   9  2   
 11   5  10  1   
 12   5  29  1   
 13   5  30  1   
 14   6  11  1   
 15   6  31  1   
 16   6  32  1   
 17   7   9  1   
 18   7  33  1   
 19   7  34  1   
 20   8  12  1   
 21   8  35  1   
 22   9  13  1   
 23  10  14  1   
 24  10  36  1   
 25  10  37  1   
 26  11  14  1   
 27  11  38  1   
 28  11  39  1   
 29  12  13  ar  
 30  12  15  ar  
 31  13  16  ar  
 32  14  17  1   
 33  14  40  1   
 34  15  18  ar  
 35  15  41  1   
 36  16  19  ar  
 37  16  42  1   
 38  17  20  1   
 39  17  43  1   
 40  17  44  1   
 41  18  19  ar  
 42  18  45  1   
 43  19  46  1   
 44  20  21  2   
 45  20  22  1   
 46  21  23  1   
 47  22  24  1   
 48  22  25  1   
 49  23  24  2   
 50  23  47  1   
 51  25  26  1   
 52  25  48  1   
 53  25  49  1   
 54  26  50  1   
 55  26  51  1   
 56  26  52  1   
@<TRIPOS>SUBSTRUCTURE
  1 ****   2 GROUP 4 **** **** 0

# MOE 2024.06 (io_trps.svl 2023.06)
