@<TRIPOS>MOLECULE
NONAME
56 59 1 0 0 
SMALL
USER_CHARGES


@<TRIPOS>ATOM
  1 O        0.0820     1.1170     0.5350 O.3   1 <1>  -0.5600 
  2 C        1.2630     1.8460     0.3570 C.3   1 <1>   0.1200 
  3 C       -1.0480     1.7230    -0.0150 C.3   1 <1>   0.1200 
  4 C        1.1520     3.2260     1.0270 C.3   1 <1>   0.2090 
  5 C       -1.2970     3.0940     0.6420 C.3   1 <1>   0.2090 
  6 N       -0.0750     3.9700     0.5540 N.pl3 1 <1>  -0.8380 
  7 C       -0.0060     5.2570     0.1140 C.ar  1 <1>   0.7710 
  8 N        1.1810     5.8310    -0.0330 N.ar  1 <1>  -0.6200 
  9 N       -1.1480     5.9220    -0.1500 N.ar  1 <1>  -0.1790 
 10 C        1.2140     7.0820    -0.4350 C.ar  1 <1>   0.4100 
 11 C       -1.1530     7.1930    -0.6180 C.ar  1 <1>   0.2180 
 12 N        2.4110     7.6990    -0.4720 N.pl3 1 <1>  -0.8380 
 13 C        0.0500     7.7840    -0.7870 C.ar  1 <1>  -0.1500 
 14 C       -2.4750     7.8860    -0.9130 C.3   1 <1>  -0.0170 
 15 C        2.8130     8.7950     0.4600 C.3   1 <1>   0.4690 
 16 C        3.5930     7.1720    -1.1900 C.3   1 <1>   0.2090 
 17 C       -3.2470     8.2010     0.3750 C.3   1 <1>  -0.2400 
 18 C        1.7150     9.8280     0.7470 C.2   1 <1>   0.2980 
 19 C        4.0780     9.3400    -0.1950 C.3   1 <1>  -0.1600 
 20 C        4.7430     8.1030    -0.8030 C.3   1 <1>  -0.1600 
 21 O        0.8060     9.4950     1.6310 O.3   1 <1>  -0.0190 
 22 N        1.5470    10.9710     0.2040 N.2   1 <1>  -0.5650 
 23 N       -0.0200    10.4940     1.6310 N.2   1 <1>  -0.4100 
 24 C        0.4300    11.3570     0.8070 C.2   1 <1>   0.3350 
 25 C       -0.2090    12.7080     0.4780 C.3   1 <1>   0.1010 
 26 C       -1.0670    13.2500     1.6320 C.3   1 <1>  -0.2400 
 27 C       -1.0520    12.6090    -0.8010 C.3   1 <1>  -0.2400 
 28 H        2.0650     1.2820     0.7990 H     1 <1>   0.0800 
 29 H        1.4540     1.9480    -0.6980 H     1 <1>   0.0800 
 30 H       -0.9030     1.8230    -1.0770 H     1 <1>   0.0800 
 31 H       -1.8830     1.0680     0.1590 H     1 <1>   0.0800 
 32 H        2.0580     3.7700     0.8290 H     1 <1>   0.0800 
 33 H        1.0910     3.0850     2.0930 H     1 <1>   0.0800 
 34 H       -1.5450     2.9340     1.6790 H     1 <1>   0.0800 
 35 H       -2.1450     3.5450     0.1630 H     1 <1>   0.0800 
 36 H       -2.0070     5.4290     0.0470 H     1 <1>   0.4570 
 37 H        0.1520     8.7840    -1.1700 H     1 <1>   0.1500 
 38 H       -2.2820     8.8110    -1.4300 H     1 <1>   0.0800 
 39 H       -3.0760     7.2740    -1.5640 H     1 <1>   0.0800 
 40 H        3.0900     8.3420     1.3960 H     1 <1>   0.0800 
 41 H        3.7970     6.1550    -0.8990 H     1 <1>   0.0800 
 42 H        3.4130     7.2150    -2.2510 H     1 <1>   0.0800 
 43 H       -2.6530     8.8240     1.0230 H     1 <1>   0.0800 
 44 H       -3.5130     7.3050     0.9060 H     1 <1>   0.0800 
 45 H       -4.1520     8.7340     0.1380 H     1 <1>   0.0800 
 46 H        3.8080    10.0290    -0.9760 H     1 <1>   0.0800 
 47 H        4.7090     9.8430     0.5160 H     1 <1>   0.0800 
 48 H        5.3560     7.6130    -0.0660 H     1 <1>   0.0800 
 49 H        5.3560     8.3490    -1.6530 H     1 <1>   0.0800 
 50 H        0.5900    13.4080     0.3040 H     1 <1>   0.0800 
 51 H       -1.8940    12.5910     1.8320 H     1 <1>   0.0800 
 52 H       -1.4520    14.2240     1.3890 H     1 <1>   0.0800 
 53 H       -0.4730    13.3320     2.5250 H     1 <1>   0.0800 
 54 H       -1.8620    11.9150    -0.6610 H     1 <1>   0.0800 
 55 H       -0.4400    12.2670    -1.6170 H     1 <1>   0.0800 
 56 H       -1.4580    13.5710    -1.0580 H     1 <1>   0.0800 
@<TRIPOS>BOND
  1   1   2  1   
  2   1   3  1   
  3   2   4  1   
  4   2  28  1   
  5   2  29  1   
  6   3   5  1   
  7   3  30  1   
  8   3  31  1   
  9   4   6  1   
 10   4  32  1   
 11   4  33  1   
 12   5   6  1   
 13   5  34  1   
 14   5  35  1   
 15   6   7  1   
 16   7   8  ar  
 17   7   9  ar  
 18   8  10  ar  
 19   9  11  ar  
 20   9  36  1   
 21  10  12  1   
 22  10  13  ar  
 23  11  13  ar  
 24  11  14  1   
 25  12  15  1   
 26  12  16  1   
 27  13  37  1   
 28  14  17  1   
 29  14  38  1   
 30  14  39  1   
 31  15  18  1   
 32  15  19  1   
 33  15  40  1   
 34  16  20  1   
 35  16  41  1   
 36  16  42  1   
 37  17  43  1   
 38  17  44  1   
 39  17  45  1   
 40  18  21  1   
 41  18  22  2   
 42  19  20  1   
 43  19  46  1   
 44  19  47  1   
 45  20  48  1   
 46  20  49  1   
 47  21  23  1   
 48  22  24  1   
 49  23  24  2   
 50  24  25  1   
 51  25  26  1   
 52  25  27  1   
 53  25  50  1   
 54  26  51  1   
 55  26  52  1   
 56  26  53  1   
 57  27  54  1   
 58  27  55  1   
 59  27  56  1   
@<TRIPOS>SUBSTRUCTURE
  1 ****  10 GROUP 4 **** **** 0

# MOE 2024.06 (io_trps.svl 2023.06)
