@<TRIPOS>MOLECULE
NONAME
49 52 1 0 0 
SMALL
USER_CHARGES


@<TRIPOS>ATOM
  1 O       -0.7800     0.2210     1.0870 O.2   1 <1>  -0.5700 
  2 C       -1.5870     0.7080     0.3180 C.2   1 <1>   0.5440 
  3 N       -2.4090    -0.1480    -0.3810 N.am  1 <1>  -0.6600 
  4 C       -1.5990     2.1380     0.1300 C.ar  1 <1>   0.0860 
  5 C       -2.6850    -1.5060     0.1810 C.3   1 <1>   0.1400 
  6 C       -3.0480     0.1860    -1.6830 C.3   1 <1>   0.1400 
  7 C       -0.4230     2.8350    -0.0630 C.ar  1 <1>   0.1600 
  8 C       -2.7470     2.9090     0.1270 C.ar  1 <1>   0.1600 
  9 C       -4.0170    -2.1290    -0.3120 C.3   1 <1>   0.4230 
 10 C       -4.5630    -0.0850    -1.6780 C.3   1 <1>  -0.1600 
 11 N       -0.3720     4.1330    -0.2750 N.ar  1 <1>  -0.6200 
 12 N       -2.7350     4.2090    -0.0890 N.ar  1 <1>  -0.6200 
 13 N       -4.5470    -3.1720     0.6330 N.4   1 <1>  -0.9590 
 14 C       -5.0760    -1.0330    -0.5490 C.3   1 <1>  -0.1060 
 15 C       -1.5430     4.7520    -0.2740 C.ar  1 <1>   0.5880 
 16 C       -5.7770    -3.8360     0.1360 C.3   1 <1>   0.3430 
 17 C       -3.5450    -4.1360     1.1650 C.3   1 <1>   0.2630 
 18 C       -5.2760    -0.2820     0.7850 C.2   1 <1>   0.9060 
 19 C       -6.4120    -1.6640    -1.0210 C.3   1 <1>  -0.1600 
 20 C       -1.5140     6.2540    -0.5210 C.3   1 <1>  -0.0680 
 21 C       -6.8760    -2.7980    -0.0950 C.3   1 <1>  -0.1600 
 22 O       -5.4740     0.9320     0.7840 O.co2 1 <1>  -0.9000 
 23 O       -5.2440    -0.9330     1.8430 O.co2 1 <1>  -0.9000 
 24 C       -0.6860     7.1670     0.3400 C.3   1 <1>  -0.2000 
 25 C       -2.1790     7.2130     0.4260 C.3   1 <1>  -0.2000 
 26 H       -1.8650    -2.1540    -0.0710 H     1 <1>   0.0800 
 27 H       -2.7250    -1.4100     1.2540 H     1 <1>   0.0800 
 28 H       -2.8680     1.2120    -1.9520 H     1 <1>   0.0800 
 29 H       -2.5870    -0.4240    -2.4410 H     1 <1>   0.0800 
 30 H        0.5070     2.2920    -0.0430 H     1 <1>   0.1500 
 31 H       -3.7000     2.4370     0.3060 H     1 <1>   0.1500 
 32 H       -3.8190    -2.6020    -1.2580 H     1 <1>   0.0800 
 33 H       -5.0810     0.8580    -1.6220 H     1 <1>   0.0800 
 34 H       -4.8060    -0.4890    -2.6440 H     1 <1>   0.0800 
 35 H       -4.8670    -2.5500     1.4280 H     1 <1>   0.4500 
 36 H       -5.5650    -4.3520    -0.7850 H     1 <1>   0.0800 
 37 H       -6.1220    -4.5550     0.8610 H     1 <1>   0.0800 
 38 H       -3.1330    -4.7270     0.3650 H     1 <1>   0.0800 
 39 H       -4.0100    -4.7920     1.8820 H     1 <1>   0.0800 
 40 H       -2.7460    -3.6080     1.6600 H     1 <1>   0.0800 
 41 H       -7.1720    -0.8990    -1.0560 H     1 <1>   0.0800 
 42 H       -6.3030    -2.0620    -2.0140 H     1 <1>   0.0800 
 43 H       -1.5710     6.4780    -1.5700 H     1 <1>   0.1000 
 44 H       -7.7350    -3.2820    -0.5250 H     1 <1>   0.0800 
 45 H       -7.1840    -2.3930     0.8540 H     1 <1>   0.0800 
 46 H       -0.1310     6.7330     1.1540 H     1 <1>   0.1000 
 47 H       -0.1610     7.9770    -0.1340 H     1 <1>   0.1000 
 48 H       -2.7050     8.0550     0.0130 H     1 <1>   0.1000 
 49 H       -2.6670     6.8070     1.2960 H     1 <1>   0.1000 
@<TRIPOS>BOND
  1   1   2  2   
  2   2   3  am  
  3   2   4  1   
  4   3   5  1   
  5   3   6  1   
  6   4   7  ar  
  7   4   8  ar  
  8   5   9  1   
  9   5  26  1   
 10   5  27  1   
 11   6  10  1   
 12   6  28  1   
 13   6  29  1   
 14   7  11  ar  
 15   7  30  1   
 16   8  12  ar  
 17   8  31  1   
 18   9  13  1   
 19   9  14  1   
 20   9  32  1   
 21  10  14  1   
 22  10  33  1   
 23  10  34  1   
 24  11  15  ar  
 25  12  15  ar  
 26  13  16  1   
 27  13  17  1   
 28  13  35  1   
 29  14  18  1   
 30  14  19  1   
 31  15  20  1   
 32  16  21  1   
 33  16  36  1   
 34  16  37  1   
 35  17  38  1   
 36  17  39  1   
 37  17  40  1   
 38  18  22  ar  
 39  18  23  ar  
 40  19  21  1   
 41  19  41  1   
 42  19  42  1   
 43  20  24  1   
 44  20  25  1   
 45  20  43  1   
 46  21  44  1   
 47  21  45  1   
 48  24  25  1   
 49  24  46  1   
 50  24  47  1   
 51  25  48  1   
 52  25  49  1   
@<TRIPOS>SUBSTRUCTURE
  1 ****   3 GROUP 4 **** **** 0

# MOE 2024.06 (io_trps.svl 2023.06)
