@<TRIPOS>MOLECULE
NONAME
49 51 1 0 0 
SMALL
USER_CHARGES


@<TRIPOS>ATOM
  1 F        0.2880     1.7750     2.0340 F     1 <1>  -0.1900 
  2 C        1.3500     1.6150     1.2880 C.ar  1 <1>   0.1900 
  3 C        1.8710     0.3430     1.1080 C.ar  1 <1>  -0.1440 
  4 C        1.9060     2.7420     0.7120 C.ar  1 <1>  -0.1500 
  5 C        3.0080     0.2570     0.3180 C.ar  1 <1>   0.1900 
  6 C        1.2460    -0.8920     1.7380 C.3   1 <1>   0.2540 
  7 C        3.0370     2.6160    -0.0810 C.ar  1 <1>   0.0830 
  8 F        3.5690    -0.9090     0.1250 F     1 <1>  -0.1900 
  9 C        3.5980     1.3570    -0.2790 C.ar  1 <1>  -0.1500 
 10 N        0.5050    -1.6600     0.7230 N.3   1 <1>  -0.8100 
 11 O        3.5340     3.7550    -0.6210 O.3   1 <1>  -0.3630 
 12 C        0.3190    -3.0600     1.1480 C.3   1 <1>   0.1100 
 13 C       -0.7930    -1.0180     0.4260 C.3   1 <1>   0.1100 
 14 C        4.6720     3.7360    -1.4550 C.3   1 <1>   0.0400 
 15 C       -0.3670    -3.8660     0.0200 C.3   1 <1>   0.4230 
 16 C       -1.5420    -1.7940    -0.6670 C.3   1 <1>  -0.1600 
 17 N       -0.4820    -5.3420     0.2760 N.4   1 <1>  -0.9590 
 18 C       -1.7620    -3.2830    -0.2840 C.3   1 <1>  -0.1060 
 19 C       -1.0930    -6.1130    -0.8480 C.3   1 <1>   0.3430 
 20 C        0.7170    -6.0050     0.8500 C.3   1 <1>   0.2630 
 21 C       -2.6300    -3.4150     0.9830 C.2   1 <1>   0.9060 
 22 C       -2.4430    -4.0370    -1.4640 C.3   1 <1>  -0.1600 
 23 C       -1.6000    -5.2130    -1.9830 C.3   1 <1>  -0.1600 
 24 O       -2.5140    -4.4410     1.6760 O.co2 1 <1>  -0.9000 
 25 O       -3.4240    -2.5260     1.2850 O.co2 1 <1>  -0.9000 
 26 H        1.4680     3.7090     0.8750 H     1 <1>   0.1500 
 27 H        0.5920    -0.6280     2.5530 H     1 <1>   0.0800 
 28 H        2.0390    -1.4980     2.1420 H     1 <1>   0.0800 
 29 H        4.4740     1.2090    -0.8790 H     1 <1>   0.1500 
 30 H        1.2890    -3.4780     1.3440 H     1 <1>   0.0800 
 31 H       -0.2670    -3.0940     2.0520 H     1 <1>   0.0800 
 32 H       -1.3960    -0.9680     1.3200 H     1 <1>   0.0800 
 33 H       -0.6310    -0.0100     0.0820 H     1 <1>   0.0800 
 34 H        4.8740     4.7440    -1.7670 H     1 <1>   0.0800 
 35 H        4.4650     3.1230    -2.3150 H     1 <1>   0.0800 
 36 H        5.5080     3.3510    -0.8980 H     1 <1>   0.0800 
 37 H        0.2440    -3.7300    -0.8560 H     1 <1>   0.0800 
 38 H       -2.4950    -1.3200    -0.8260 H     1 <1>   0.0800 
 39 H       -0.9830    -1.7180    -1.5820 H     1 <1>   0.0800 
 40 H       -1.2360    -5.3250     1.0160 H     1 <1>   0.4500 
 41 H       -0.3740    -6.8080    -1.2490 H     1 <1>   0.0800 
 42 H       -1.9230    -6.6800    -0.4580 H     1 <1>   0.0800 
 43 H        1.5410    -5.9460     0.1590 H     1 <1>   0.0800 
 44 H        0.5030    -7.0410     1.0550 H     1 <1>   0.0800 
 45 H        0.9970    -5.5290     1.7750 H     1 <1>   0.0800 
 46 H       -3.3970    -4.4160    -1.1320 H     1 <1>   0.0800 
 47 H       -2.6510    -3.3640    -2.2790 H     1 <1>   0.0800 
 48 H       -0.7590    -4.8390    -2.5400 H     1 <1>   0.0800 
 49 H       -2.1910    -5.8040    -2.6610 H     1 <1>   0.0800 
@<TRIPOS>BOND
  1   1   2  1   
  2   2   3  ar  
  3   2   4  ar  
  4   3   5  ar  
  5   3   6  1   
  6   4   7  ar  
  7   4  26  1   
  8   5   8  1   
  9   5   9  ar  
 10   6  10  1   
 11   6  27  1   
 12   6  28  1   
 13   7   9  ar  
 14   7  11  1   
 15   9  29  1   
 16  10  12  1   
 17  10  13  1   
 18  11  14  1   
 19  12  15  1   
 20  12  30  1   
 21  12  31  1   
 22  13  16  1   
 23  13  32  1   
 24  13  33  1   
 25  14  34  1   
 26  14  35  1   
 27  14  36  1   
 28  15  17  1   
 29  15  18  1   
 30  15  37  1   
 31  16  18  1   
 32  16  38  1   
 33  16  39  1   
 34  17  19  1   
 35  17  20  1   
 36  17  40  1   
 37  18  21  1   
 38  18  22  1   
 39  19  23  1   
 40  19  41  1   
 41  19  42  1   
 42  20  43  1   
 43  20  44  1   
 44  20  45  1   
 45  21  24  ar  
 46  21  25  ar  
 47  22  23  1   
 48  22  46  1   
 49  22  47  1   
 50  23  48  1   
 51  23  49  1   
@<TRIPOS>SUBSTRUCTURE
  1 ****  10 GROUP 4 **** **** 0

# MOE 2024.06 (io_trps.svl 2023.06)
