@<TRIPOS>MOLECULE
NONAME
49 52 1 0 0 
SMALL
USER_CHARGES


@<TRIPOS>ATOM
  1 O       -1.0790     0.9590    -1.5730 O.2   1 <1>  -0.5700 
  2 C       -1.9980     1.3790    -0.8910 C.2   1 <1>   0.7150 
  3 N       -3.2280     0.7590    -0.9720 N.am  1 <1>  -0.6600 
  4 C       -1.7760     2.4980    -0.0110 C.2   1 <1>  -0.2370 
  5 C       -3.5600    -0.1950    -2.0660 C.3   1 <1>   0.1400 
  6 C       -4.2620     0.8370     0.0960 C.3   1 <1>   0.1400 
  7 N       -0.6630     2.6370     0.7790 N.pl3 1 <1>   0.0480 
  8 C       -2.5710     3.5970     0.2030 C.2   1 <1>  -0.1500 
  9 C       -3.7650    -1.5960    -1.4830 C.3   1 <1>  -0.1600 
 10 C       -4.4710    -0.5520     0.7040 C.3   1 <1>  -0.1600 
 11 C       -0.7800     3.7940     1.4750 C.2   1 <1>  -0.3020 
 12 C        0.4730     1.7010     0.8700 C.3   1 <1>   0.0160 
 13 C       -1.9440     4.4100     1.1420 C.2   1 <1>  -0.1500 
 14 C       -4.8210    -1.6070    -0.3640 C.3   1 <1>   0.4240 
 15 O       -5.9970    -1.1610    -1.0050 O.3   1 <1>  -0.5600 
 16 C       -5.0020    -3.0310     0.2400 C.ar  1 <1>  -0.1430 
 17 C       -7.2170    -1.4620    -0.4110 C.3   1 <1>   0.1200 
 18 C       -3.9550    -3.7130     0.8740 C.ar  1 <1>   0.0830 
 19 C       -6.2420    -3.6660     0.1590 C.ar  1 <1>  -0.1430 
 20 C       -7.4190    -2.9670    -0.4890 C.3   1 <1>  -0.0170 
 21 O       -2.7440    -3.1050     0.9870 O.3   1 <1>  -0.3630 
 22 C       -4.1590    -4.9930     1.3870 C.ar  1 <1>  -0.1500 
 23 C       -6.4320    -4.9390     0.6690 C.ar  1 <1>  -0.1500 
 24 C       -1.5870    -3.7830     1.4250 C.3   1 <1>   0.0400 
 25 C       -5.3910    -5.6040     1.2820 C.ar  1 <1>  -0.1500 
 26 H       -2.7750    -0.2200    -2.8020 H     1 <1>   0.0800 
 27 H       -4.4590     0.1350    -2.5570 H     1 <1>   0.0800 
 28 H       -5.1820     1.1980    -0.3320 H     1 <1>   0.0800 
 29 H       -3.9640     1.5140     0.8760 H     1 <1>   0.0800 
 30 H       -3.5140     3.8110    -0.2690 H     1 <1>   0.1500 
 31 H       -2.8160    -1.9350    -1.1210 H     1 <1>   0.0800 
 32 H       -4.0700    -2.2720    -2.2590 H     1 <1>   0.0800 
 33 H       -5.2390    -0.5160     1.4520 H     1 <1>   0.0800 
 34 H       -3.5640    -0.8220     1.2070 H     1 <1>   0.0800 
 35 H       -0.0320     4.1290     2.1710 H     1 <1>   0.1500 
 36 H        0.1020     0.7090     1.0490 H     1 <1>   0.0800 
 37 H        1.1230     1.9950     1.6730 H     1 <1>   0.0800 
 38 H        1.0150     1.7170    -0.0580 H     1 <1>   0.0800 
 39 H       -2.3260     5.3450     1.5160 H     1 <1>   0.1500 
 40 H       -7.9870    -0.9470    -0.9580 H     1 <1>   0.0800 
 41 H       -7.2140    -1.1200     0.6090 H     1 <1>   0.0800 
 42 H       -7.5000    -3.2660    -1.5190 H     1 <1>   0.0800 
 43 H       -8.3330    -3.2260     0.0140 H     1 <1>   0.0800 
 44 H       -3.3720    -5.5330     1.8770 H     1 <1>   0.1500 
 45 H       -7.3920    -5.4190     0.5920 H     1 <1>   0.1500 
 46 H       -0.7530    -3.1110     1.3320 H     1 <1>   0.0800 
 47 H       -1.4320    -4.6460     0.8020 H     1 <1>   0.0800 
 48 H       -1.7160    -4.0650     2.4540 H     1 <1>   0.0800 
 49 H       -5.5410    -6.5930     1.6780 H     1 <1>   0.1500 
@<TRIPOS>BOND
  1   1   2  2   
  2   2   3  am  
  3   2   4  1   
  4   3   5  1   
  5   3   6  1   
  6   4   7  1   
  7   4   8  2   
  8   5   9  1   
  9   5  26  1   
 10   5  27  1   
 11   6  10  1   
 12   6  28  1   
 13   6  29  1   
 14   7  11  1   
 15   7  12  1   
 16   8  13  1   
 17   8  30  1   
 18   9  14  1   
 19   9  31  1   
 20   9  32  1   
 21  10  14  1   
 22  10  33  1   
 23  10  34  1   
 24  11  13  2   
 25  11  35  1   
 26  12  36  1   
 27  12  37  1   
 28  12  38  1   
 29  13  39  1   
 30  14  15  1   
 31  14  16  1   
 32  15  17  1   
 33  16  18  ar  
 34  16  19  ar  
 35  17  20  1   
 36  17  40  1   
 37  17  41  1   
 38  18  21  1   
 39  18  22  ar  
 40  19  20  1   
 41  19  23  ar  
 42  20  42  1   
 43  20  43  1   
 44  21  24  1   
 45  22  25  ar  
 46  22  44  1   
 47  23  25  ar  
 48  23  45  1   
 49  24  46  1   
 50  24  47  1   
 51  24  48  1   
 52  25  49  1   
@<TRIPOS>SUBSTRUCTURE
  1 ****  10 GROUP 4 **** **** 0

# MOE 2024.06 (io_trps.svl 2023.06)
