@<TRIPOS>MOLECULE
NONAME
59 63 1 0 0 
SMALL
USER_CHARGES


@<TRIPOS>ATOM
  1 O       -2.4440    -0.6050     0.5490 O.2   1 <1>  -0.5700 
  2 C       -2.8850     0.3580    -0.1000 C.2   1 <1>   0.6160 
  3 N       -2.7970     1.6780     0.2440 N.am  1 <1>  -0.1570 
  4 C       -3.6210     0.2500    -1.2880 C.2   1 <1>  -0.1240 
  5 N       -3.5360     2.3870    -0.7570 N.pl3 1 <1>  -0.4890 
  6 C       -1.6250     2.2200     0.8030 C.ar  1 <1>   0.1170 
  7 C       -4.0080     1.4970    -1.6610 C.2   1 <1>  -0.0380 
  8 C       -3.8730    -1.0900    -1.9320 C.3   1 <1>   0.4810 
  9 C       -3.8540     3.8290    -0.5790 C.3   1 <1>   0.1290 
 10 C       -1.4060     2.1420     2.1740 C.ar  1 <1>  -0.1500 
 11 C       -0.6630     2.8360     0.0080 C.ar  1 <1>  -0.1500 
 12 C       -4.8380     1.9230    -2.8580 C.3   1 <1>  -0.1020 
 13 N       -4.3270    -2.0570    -0.8990 N.4   1 <1>  -0.9590 
 14 C       -0.2590     2.6700     2.7380 C.ar  1 <1>  -0.1500 
 15 C        0.4860     3.3640     0.5680 C.ar  1 <1>  -0.1500 
 16 C       -5.6610    -1.6900    -0.3040 C.3   1 <1>   0.3430 
 17 C       -4.3110    -3.4770    -1.3770 C.3   1 <1>   0.3430 
 18 C        0.6880     3.2820     1.9350 C.ar  1 <1>  -0.1500 
 19 C       -6.0950    -2.6920     0.7850 C.3   1 <1>   0.1900 
 20 C       -4.7830    -4.4530    -0.2800 C.3   1 <1>   0.1100 
 21 N       -6.1140    -4.0780     0.2460 N.3   1 <1>  -0.8100 
 22 C       -7.4790    -2.3010     1.3370 C.3   1 <1>   0.1200 
 23 C       -6.6140    -5.0160     1.2870 C.3   1 <1>   0.2850 
 24 O       -7.8620    -3.2020     2.3280 O.3   1 <1>  -0.5600 
 25 C       -6.8110    -6.4190     0.6930 C.3   1 <1>  -0.1950 
 26 C       -7.9580    -4.5230     1.8710 C.3   1 <1>   0.1200 
 27 C       -6.9640    -7.6080     1.5920 C.3   1 <1>  -0.2000 
 28 C       -5.7400    -7.4680     0.7360 C.3   1 <1>  -0.2000 
 29 H       -2.9540    -1.4380    -2.3740 H     1 <1>   0.0800 
 30 H       -4.6140    -0.9960    -2.7090 H     1 <1>   0.0800 
 31 H       -4.5940     4.1430    -1.2910 H     1 <1>   0.0800 
 32 H       -2.9620     4.4150    -0.7160 H     1 <1>   0.0800 
 33 H       -4.2300     3.9930     0.4160 H     1 <1>   0.0800 
 34 H       -2.1380     1.6630     2.7990 H     1 <1>   0.1500 
 35 H       -0.8170     2.8980    -1.0550 H     1 <1>   0.1500 
 36 H       -4.2910     2.6420    -3.4420 H     1 <1>   0.0800 
 37 H       -5.7560     2.3750    -2.5280 H     1 <1>   0.0800 
 38 H       -5.0750     1.0860    -3.4880 H     1 <1>   0.0800 
 39 H       -3.6290    -1.9740    -0.1310 H     1 <1>   0.4500 
 40 H       -0.0990     2.6040     3.8010 H     1 <1>   0.1500 
 41 H        1.2230     3.8380    -0.0560 H     1 <1>   0.1500 
 42 H       -5.6100    -0.7050     0.1280 H     1 <1>   0.0800 
 43 H       -6.4130    -1.6800    -1.0750 H     1 <1>   0.0800 
 44 H       -4.9650    -3.5840    -2.2260 H     1 <1>   0.0800 
 45 H       -3.3150    -3.7500    -1.6850 H     1 <1>   0.0800 
 46 H        1.5820     3.6920     2.3730 H     1 <1>   0.1500 
 47 H       -5.3930    -2.6310     1.6000 H     1 <1>   0.0800 
 48 H       -4.0630    -4.4800     0.5210 H     1 <1>   0.0800 
 49 H       -4.8300    -5.4350    -0.7170 H     1 <1>   0.0800 
 50 H       -8.2250    -2.3070     0.5610 H     1 <1>   0.0800 
 51 H       -7.4480    -1.3240     1.7860 H     1 <1>   0.0800 
 52 H       -5.9040    -5.0720     2.0950 H     1 <1>   0.0800 
 53 H       -7.4560    -6.3980    -0.1690 H     1 <1>   0.1000 
 54 H       -8.2440    -5.1380     2.7060 H     1 <1>   0.0800 
 55 H       -8.7330    -4.5740     1.1270 H     1 <1>   0.0800 
 56 H       -6.8550    -7.4900     2.6570 H     1 <1>   0.1000 
 57 H       -7.6890    -8.3620     1.3350 H     1 <1>   0.1000 
 58 H       -5.6270    -8.1310    -0.1050 H     1 <1>   0.1000 
 59 H       -4.8050    -7.2630     1.2270 H     1 <1>   0.1000 
@<TRIPOS>BOND
  1   1   2  2   
  2   2   3  am  
  3   2   4  1   
  4   3   5  1   
  5   3   6  1   
  6   4   7  2   
  7   4   8  1   
  8   5   7  1   
  9   5   9  1   
 10   6  10  ar  
 11   6  11  ar  
 12   7  12  1   
 13   8  13  1   
 14   8  29  1   
 15   8  30  1   
 16   9  31  1   
 17   9  32  1   
 18   9  33  1   
 19  10  14  ar  
 20  10  34  1   
 21  11  15  ar  
 22  11  35  1   
 23  12  36  1   
 24  12  37  1   
 25  12  38  1   
 26  13  16  1   
 27  13  17  1   
 28  13  39  1   
 29  14  18  ar  
 30  14  40  1   
 31  15  18  ar  
 32  15  41  1   
 33  16  19  1   
 34  16  42  1   
 35  16  43  1   
 36  17  20  1   
 37  17  44  1   
 38  17  45  1   
 39  18  46  1   
 40  19  21  1   
 41  19  22  1   
 42  19  47  1   
 43  20  21  1   
 44  20  48  1   
 45  20  49  1   
 46  21  23  1   
 47  22  24  1   
 48  22  50  1   
 49  22  51  1   
 50  23  25  1   
 51  23  26  1   
 52  23  52  1   
 53  24  26  1   
 54  25  27  1   
 55  25  28  1   
 56  25  53  1   
 57  26  54  1   
 58  26  55  1   
 59  27  28  1   
 60  27  56  1   
 61  27  57  1   
 62  28  58  1   
 63  28  59  1   
@<TRIPOS>SUBSTRUCTURE
  1 ****  13 GROUP 4 **** **** 0

# MOE 2024.06 (io_trps.svl 2023.06)
