@<TRIPOS>MOLECULE
NONAME
39 41 1 0 0 
SMALL
USER_CHARGES


@<TRIPOS>ATOM
  1 O        1.2400     1.4890    -2.4070 O.2   1 <1>  -0.5700 
  2 C        1.5770     1.0290    -1.3280 C.2   1 <1>   0.5440 
  3 N        0.9860     1.5360    -0.1940 N.am  1 <1>  -0.6600 
  4 C        2.6240     0.0400    -1.2810 C.ar  1 <1>   0.0860 
  5 C        1.2200     1.0540     1.1880 C.3   1 <1>   0.1400 
  6 C       -0.0850     2.5510    -0.2250 C.3   1 <1>   0.1400 
  7 C        2.4240    -1.3290    -0.9870 C.ar  1 <1>   0.4100 
  8 C        3.9200     0.4690    -1.5340 C.ar  1 <1>  -0.1500 
  9 C        0.1670     1.7590     2.0360 C.3   1 <1>  -0.1600 
 10 C       -0.2440     2.9850     1.2260 C.3   1 <1>  -0.1600 
 11 N        3.4330    -2.2010    -0.8990 N.ar  1 <1>  -0.6200 
 12 N        1.1920    -1.9150    -0.7490 N.pl3 1 <1>  -0.8380 
 13 C        4.9450    -0.4440    -1.4600 C.ar  1 <1>  -0.1500 
 14 C        4.6460    -1.7520    -1.1360 C.ar  1 <1>   0.1600 
 15 C        0.9550    -2.6390     0.5310 C.3   1 <1>   0.2090 
 16 C       -0.1020    -1.5890    -1.3880 C.3   1 <1>   0.2090 
 17 C       -0.5550    -2.6180     0.7410 C.3   1 <1>  -0.1860 
 18 C       -1.0880    -1.5600    -0.2320 C.3   1 <1>  -0.1600 
 19 C       -0.9200    -2.3800     2.1930 C.2   1 <1>   0.9060 
 20 O       -1.7500    -3.1290     2.7160 O.co2 1 <1>  -0.9000 
 21 O       -0.3860    -1.4530     2.8140 O.co2 1 <1>  -0.9000 
 22 H        2.2100     1.3330     1.5030 H     1 <1>   0.0800 
 23 H        1.1060    -0.0120     1.2560 H     1 <1>   0.0800 
 24 H       -0.9890     2.0890    -0.5840 H     1 <1>   0.0800 
 25 H        0.1830     3.3740    -0.8650 H     1 <1>   0.0800 
 26 H        4.1060     1.4990    -1.7810 H     1 <1>   0.1500 
 27 H        0.5440     2.0060     3.0120 H     1 <1>   0.0800 
 28 H       -0.6730     1.0960     2.1560 H     1 <1>   0.0800 
 29 H       -1.2500     3.2970     1.4430 H     1 <1>   0.0800 
 30 H        0.4310     3.7980     1.4250 H     1 <1>   0.0800 
 31 H        5.9620    -0.1500    -1.6480 H     1 <1>   0.1500 
 32 H        5.4480    -2.4670    -1.0710 H     1 <1>   0.1500 
 33 H        1.4750    -2.1420     1.3320 H     1 <1>   0.0800 
 34 H        1.3170    -3.6490     0.4580 H     1 <1>   0.0800 
 35 H       -0.3570    -2.3870    -2.0630 H     1 <1>   0.0800 
 36 H       -0.0950    -0.6660    -1.9350 H     1 <1>   0.0800 
 37 H       -0.9410    -3.5790     0.4610 H     1 <1>   0.0800 
 38 H       -2.0930    -1.7690    -0.5470 H     1 <1>   0.0800 
 39 H       -1.0600    -0.5890     0.2300 H     1 <1>   0.0800 
@<TRIPOS>BOND
  1   1   2  2   
  2   2   3  am  
  3   2   4  1   
  4   3   5  1   
  5   3   6  1   
  6   4   7  ar  
  7   4   8  ar  
  8   5   9  1   
  9   5  22  1   
 10   5  23  1   
 11   6  10  1   
 12   6  24  1   
 13   6  25  1   
 14   7  11  ar  
 15   7  12  1   
 16   8  13  ar  
 17   8  26  1   
 18   9  10  1   
 19   9  27  1   
 20   9  28  1   
 21  10  29  1   
 22  10  30  1   
 23  11  14  ar  
 24  12  15  1   
 25  12  16  1   
 26  13  14  ar  
 27  13  31  1   
 28  14  32  1   
 29  15  17  1   
 30  15  33  1   
 31  15  34  1   
 32  16  18  1   
 33  16  35  1   
 34  16  36  1   
 35  17  18  1   
 36  17  19  1   
 37  17  37  1   
 38  18  38  1   
 39  18  39  1   
 40  19  20  ar  
 41  19  21  ar  
@<TRIPOS>SUBSTRUCTURE
  1 ****  12 GROUP 4 **** **** 0

# MOE 2024.06 (io_trps.svl 2023.06)
