@<TRIPOS>MOLECULE
NONAME
53 54 1 0 0 
SMALL
USER_CHARGES


@<TRIPOS>ATOM
  1 F       -0.7260     0.2820     1.1030 F     1 <1>  -0.1900 
  2 C       -1.9920     0.5180     0.8710 C.ar  1 <1>   0.1900 
  3 C       -2.4400     1.0330    -0.3510 C.ar  1 <1>   0.0830 
  4 C       -2.8680     0.2290     1.8990 C.ar  1 <1>  -0.1500 
  5 O       -1.6770     1.3610    -1.4320 O.3   1 <1>  -0.3630 
  6 C       -3.8010     1.2380    -0.5010 C.ar  1 <1>  -0.1500 
  7 C       -4.2210     0.4470     1.7170 C.ar  1 <1>  -0.1500 
  8 C       -0.2660     1.3180    -1.4210 C.3   1 <1>   0.0400 
  9 C       -4.7170     0.9490     0.5120 C.ar  1 <1>   0.0530 
 10 C       -6.1280     1.1520     0.3080 C.2   1 <1>   0.0870 
 11 O       -6.5730     2.1110    -0.4630 O.3   1 <1>  -0.0190 
 12 C       -7.2150     0.4840     0.7710 C.2   1 <1>  -0.0860 
 13 N       -7.8790     2.1310    -0.5460 N.2   1 <1>  -0.4100 
 14 C       -8.2900     1.1600     0.1930 C.2   1 <1>   0.3720 
 15 C       -7.2960    -0.6670     1.6050 C.2   1 <1>   0.7160 
 16 N       -9.6370     0.8140     0.3660 N.pl3 1 <1>  -0.8210 
 17 O       -7.6170    -0.5610     2.7700 O.2   1 <1>  -0.5700 
 18 N       -6.9720    -1.9240     1.2090 N.am  1 <1>  -0.7300 
 19 C      -10.5300     1.1610    -0.7750 C.3   1 <1>   0.1290 
 20 C      -10.2040     1.2620     1.6680 C.3   1 <1>   0.1290 
 21 C       -6.8940    -2.6150    -0.1130 C.3   1 <1>   0.3610 
 22 C       -7.7720    -3.9180    -0.1170 C.2   1 <1>   0.5690 
 23 C       -7.3000    -1.7260    -1.3010 C.3   1 <1>  -0.2400 
 24 C       -5.4000    -2.9440    -0.2730 C.3   1 <1>  -0.2400 
 25 O       -7.3070    -4.9060    -0.6460 O.2   1 <1>  -0.5700 
 26 N       -9.0330    -3.9800     0.4580 N.am  1 <1>  -0.6600 
 27 C       -9.7560    -5.2790     0.5730 C.3   1 <1>   0.0600 
 28 C       -9.8330    -2.8210     0.9540 C.3   1 <1>   0.0600 
 29 H       -2.4930    -0.1610     2.8290 H     1 <1>   0.1500 
 30 H       -4.1570     1.6310    -1.4370 H     1 <1>   0.1500 
 31 H       -4.8990     0.2300     2.5250 H     1 <1>   0.1500 
 32 H        0.0870     1.6790    -2.3700 H     1 <1>   0.0800 
 33 H        0.0530     0.3010    -1.2770 H     1 <1>   0.0800 
 34 H        0.0970     1.9530    -0.6320 H     1 <1>   0.0800 
 35 H       -7.0500    -2.5990     1.9700 H     1 <1>   0.3700 
 36 H      -10.0880     0.8270    -1.6980 H     1 <1>   0.0800 
 37 H      -10.6700     2.2280    -0.8250 H     1 <1>   0.0800 
 38 H      -11.4850     0.6810    -0.6550 H     1 <1>   0.0800 
 39 H       -9.4900     1.1190     2.4610 H     1 <1>   0.0800 
 40 H      -11.0880     0.6940     1.8970 H     1 <1>   0.0800 
 41 H      -10.4560     2.3080     1.6200 H     1 <1>   0.0800 
 42 H       -8.2970    -1.3470    -1.1890 H     1 <1>   0.0800 
 43 H       -7.2790    -2.3130    -2.2010 H     1 <1>   0.0800 
 44 H       -6.6150    -0.9110    -1.4370 H     1 <1>   0.0800 
 45 H       -5.0820    -3.6170     0.5030 H     1 <1>   0.0800 
 46 H       -4.8040    -2.0500    -0.2330 H     1 <1>   0.0800 
 47 H       -5.2240    -3.4240    -1.2190 H     1 <1>   0.0800 
 48 H       -9.0940    -6.1080     0.3940 H     1 <1>   0.0800 
 49 H      -10.5540    -5.3140    -0.1480 H     1 <1>   0.0800 
 50 H      -10.1670    -5.3820     1.5630 H     1 <1>   0.0800 
 51 H       -9.5430    -1.9080     0.4700 H     1 <1>   0.0800 
 52 H       -9.6960    -2.7110     2.0160 H     1 <1>   0.0800 
 53 H      -10.8780    -2.9800     0.7520 H     1 <1>   0.0800 
@<TRIPOS>BOND
  1   1   2  1   
  2   2   3  ar  
  3   2   4  ar  
  4   3   5  1   
  5   3   6  ar  
  6   4   7  ar  
  7   4  29  1   
  8   5   8  1   
  9   6   9  ar  
 10   6  30  1   
 11   7   9  ar  
 12   7  31  1   
 13   8  32  1   
 14   8  33  1   
 15   8  34  1   
 16   9  10  1   
 17  10  11  1   
 18  10  12  2   
 19  11  13  1   
 20  12  14  1   
 21  12  15  1   
 22  13  14  2   
 23  14  16  1   
 24  15  17  2   
 25  15  18  am  
 26  16  19  1   
 27  16  20  1   
 28  18  21  1   
 29  18  35  1   
 30  19  36  1   
 31  19  37  1   
 32  19  38  1   
 33  20  39  1   
 34  20  40  1   
 35  20  41  1   
 36  21  22  1   
 37  21  23  1   
 38  21  24  1   
 39  22  25  2   
 40  22  26  am  
 41  23  42  1   
 42  23  43  1   
 43  23  44  1   
 44  24  45  1   
 45  24  46  1   
 46  24  47  1   
 47  26  27  1   
 48  26  28  1   
 49  27  48  1   
 50  27  49  1   
 51  27  50  1   
 52  28  51  1   
 53  28  52  1   
 54  28  53  1   
@<TRIPOS>SUBSTRUCTURE
  1 ****  12 GROUP 4 **** **** 0

# MOE 2024.06 (io_trps.svl 2023.06)
