@<TRIPOS>MOLECULE
NONAME
48 49 1 0 0 
SMALL
USER_CHARGES


@<TRIPOS>ATOM
  1 O        1.4070     0.4370     2.8330 O.co2 1 <1>  -0.9000 
  2 C        1.5680    -0.1540     1.7630 C.2   1 <1>   0.9060 
  3 O        1.4560    -1.3830     1.6620 O.co2 1 <1>  -0.9000 
  4 C        1.9900     0.6350     0.5110 C.3   1 <1>  -0.1060 
  5 C        3.2480    -0.1100     0.0010 C.3   1 <1>   0.2000 
  6 C        2.3940     2.0900     0.9000 C.3   1 <1>  -0.1600 
  7 C        0.7600     0.6290    -0.4550 C.3   1 <1>  -0.1600 
  8 O        2.8930    -1.3020    -0.5940 O.3   1 <1>  -0.6800 
  9 C        4.1130     0.6840    -0.9820 C.3   1 <1>   0.3430 
 10 C        3.2570     2.8290    -0.1210 C.3   1 <1>   0.3430 
 11 C        0.8810     1.2840    -1.8410 C.3   1 <1>  -0.1600 
 12 N        4.4770     2.0300    -0.4320 N.4   1 <1>  -0.9590 
 13 C       -0.4140     1.0950    -2.6350 C.3   1 <1>  -0.2400 
 14 C        5.4040     2.7460    -1.3410 C.3   1 <1>   0.4860 
 15 C        5.8910     4.0070    -0.6540 C.ar  1 <1>  -0.1440 
 16 C        5.3420     5.2330    -0.9990 C.ar  1 <1>  -0.1500 
 17 C        6.8760     3.9510     0.3230 C.ar  1 <1>  -0.1500 
 18 C        5.7690     6.3810    -0.3600 C.ar  1 <1>   0.0820 
 19 C        7.3060     5.1060     0.9590 C.ar  1 <1>  -0.1500 
 20 O        5.2200     7.5580    -0.6970 O.3   1 <1>  -0.5330 
 21 C        6.7520     6.3360     0.6230 C.ar  1 <1>   0.0820 
 22 O        7.1140     7.5180     1.2000 O.3   1 <1>  -0.3620 
 23 C        8.1380     7.5720     2.1690 C.3   1 <1>   0.0400 
 24 H        3.8630    -0.3690     0.8470 H     1 <1>   0.0800 
 25 H        2.9490     2.0710     1.8230 H     1 <1>   0.0800 
 26 H        1.5050     2.6620     1.1000 H     1 <1>   0.0800 
 27 H        0.4600    -0.3960    -0.6030 H     1 <1>   0.0800 
 28 H       -0.0620     1.0950     0.0650 H     1 <1>   0.0800 
 29 H        2.2850    -1.7490     0.0660 H     1 <1>   0.4000 
 30 H        3.5740     0.8030    -1.9030 H     1 <1>   0.0800 
 31 H        5.0050     0.1140    -1.1790 H     1 <1>   0.0800 
 32 H        3.5380     3.7850     0.2940 H     1 <1>   0.0800 
 33 H        2.7000     3.0110    -1.0220 H     1 <1>   0.0800 
 34 H        1.0550     2.3380    -1.7470 H     1 <1>   0.0800 
 35 H        1.6790     0.8310    -2.3990 H     1 <1>   0.0800 
 36 H        4.9600     1.8900     0.4640 H     1 <1>   0.4500 
 37 H       -1.2440     1.5400    -2.1150 H     1 <1>   0.0800 
 38 H       -0.6190     0.0470    -2.7750 H     1 <1>   0.0800 
 39 H       -0.3280     1.5570    -3.6030 H     1 <1>   0.0800 
 40 H        6.2490     2.1210    -1.5760 H     1 <1>   0.0800 
 41 H        4.9010     3.0000    -2.2600 H     1 <1>   0.0800 
 42 H        4.5850     5.3240    -1.7570 H     1 <1>   0.1500 
 43 H        7.3230     3.0110     0.6010 H     1 <1>   0.1500 
 44 H        8.0710     5.0280     1.7100 H     1 <1>   0.1500 
 45 H        5.6370     8.2750    -0.1750 H     1 <1>   0.4500 
 46 H        8.2640     8.5980     2.4660 H     1 <1>   0.0800 
 47 H        9.0520     7.2050     1.7350 H     1 <1>   0.0800 
 48 H        7.8490     6.9810     3.0200 H     1 <1>   0.0800 
@<TRIPOS>BOND
  1   1   2  ar  
  2   2   3  ar  
  3   2   4  1   
  4   4   5  1   
  5   4   6  1   
  6   4   7  1   
  7   5   8  1   
  8   5   9  1   
  9   5  24  1   
 10   6  10  1   
 11   6  25  1   
 12   6  26  1   
 13   7  11  1   
 14   7  27  1   
 15   7  28  1   
 16   8  29  1   
 17   9  12  1   
 18   9  30  1   
 19   9  31  1   
 20  10  12  1   
 21  10  32  1   
 22  10  33  1   
 23  11  13  1   
 24  11  34  1   
 25  11  35  1   
 26  12  14  1   
 27  12  36  1   
 28  13  37  1   
 29  13  38  1   
 30  13  39  1   
 31  14  15  1   
 32  14  40  1   
 33  14  41  1   
 34  15  16  ar  
 35  15  17  ar  
 36  16  18  ar  
 37  16  42  1   
 38  17  19  ar  
 39  17  43  1   
 40  18  20  1   
 41  18  21  ar  
 42  19  21  ar  
 43  19  44  1   
 44  20  45  1   
 45  21  22  1   
 46  22  23  1   
 47  23  46  1   
 48  23  47  1   
 49  23  48  1   
@<TRIPOS>SUBSTRUCTURE
  1 ****  10 GROUP 4 **** **** 0

# MOE 2024.06 (io_trps.svl 2023.06)
