@<TRIPOS>MOLECULE
NONAME
45 47 1 0 0 
SMALL
USER_CHARGES


@<TRIPOS>ATOM
  1 S        0.8010     0.6080     0.8970 S.3   1 <1>  -0.3320 
  2 C        0.5190     2.1650     0.0350 C.ar  1 <1>   0.1020 
  3 C       -0.8600    -0.1410     1.2000 C.3   1 <1>  -0.0100 
  4 C        1.6370     2.9030    -0.3100 C.ar  1 <1>  -0.1500 
  5 C       -0.7540     2.6170    -0.2750 C.ar  1 <1>  -0.1500 
  6 C        1.4920     4.1100    -0.9770 C.ar  1 <1>  -0.1430 
  7 C       -0.9000     3.8250    -0.9360 C.ar  1 <1>  -0.1500 
  8 C        0.2170     4.5660    -1.2840 C.ar  1 <1>  -0.1500 
  9 C        2.7110     4.9310    -1.3590 C.3   1 <1>   0.3530 
 10 N        2.8840     5.9850    -0.3450 N.pl3 1 <1>  -0.8690 
 11 C        4.0430     6.6950    -0.2080 C.ar  1 <1>   0.4100 
 12 N        4.9260     6.6190    -1.1960 N.ar  1 <1>  -0.6200 
 13 C        4.2570     7.4570     0.9370 C.ar  1 <1>  -0.1500 
 14 C        6.0400     7.3130    -1.0360 C.ar  1 <1>   0.1600 
 15 C        5.4180     8.1750     1.0820 C.ar  1 <1>  -0.1500 
 16 C        6.3560     8.1190     0.0540 C.ar  1 <1>   0.0860 
 17 C        7.6080     8.8370     0.0930 C.2   1 <1>   0.5440 
 18 O        8.6200     8.2850    -0.2980 O.2   1 <1>  -0.5700 
 19 N        7.6990    10.1370     0.5480 N.am  1 <1>  -0.6600 
 20 C        9.0140    10.7690     0.8740 C.3   1 <1>   0.1400 
 21 C        6.5810    11.1260     0.4650 C.3   1 <1>   0.1400 
 22 C        9.2710    11.9840    -0.0310 C.3   1 <1>   0.1200 
 23 C        6.9830    12.3300    -0.4060 C.3   1 <1>   0.1200 
 24 O        8.1950    12.8780     0.0290 O.3   1 <1>  -0.5600 
 25 H       -0.7050    -1.0750     1.7100 H     1 <1>   0.0800 
 26 H       -1.3320    -0.3010     0.2480 H     1 <1>   0.0800 
 27 H       -1.4240     0.5380     1.8130 H     1 <1>   0.0800 
 28 H        2.6120     2.5280    -0.0540 H     1 <1>   0.1500 
 29 H       -1.6270     2.0530    -0.0120 H     1 <1>   0.1500 
 30 H       -1.8820     4.1890    -1.1820 H     1 <1>   0.1500 
 31 H        0.0940     5.5060    -1.7950 H     1 <1>   0.1500 
 32 H        2.5750     5.3820    -2.3270 H     1 <1>   0.0800 
 33 H        3.5890     4.3070    -1.3920 H     1 <1>   0.0800 
 34 H        2.3080     5.8250     0.4830 H     1 <1>   0.4000 
 35 H        3.5030     7.4710     1.7010 H     1 <1>   0.1500 
 36 H        6.7680     7.2450    -1.8280 H     1 <1>   0.1500 
 37 H        5.6100     8.7630     1.9630 H     1 <1>   0.1500 
 38 H        9.8180    10.0630     0.7600 H     1 <1>   0.0800 
 39 H        9.0050    11.0910     1.9010 H     1 <1>   0.0800 
 40 H        6.3390    11.4720     1.4550 H     1 <1>   0.0800 
 41 H        5.7020    10.6730     0.0430 H     1 <1>   0.0800 
 42 H        9.4060    11.6700    -1.0520 H     1 <1>   0.0800 
 43 H       10.1530    12.5080     0.2910 H     1 <1>   0.0800 
 44 H        6.2340    13.1000    -0.3440 H     1 <1>   0.0800 
 45 H        7.0900    12.0340    -1.4350 H     1 <1>   0.0800 
@<TRIPOS>BOND
  1   1   2  1   
  2   1   3  1   
  3   2   4  ar  
  4   2   5  ar  
  5   3  25  1   
  6   3  26  1   
  7   3  27  1   
  8   4   6  ar  
  9   4  28  1   
 10   5   7  ar  
 11   5  29  1   
 12   6   8  ar  
 13   6   9  1   
 14   7   8  ar  
 15   7  30  1   
 16   8  31  1   
 17   9  10  1   
 18   9  32  1   
 19   9  33  1   
 20  10  11  1   
 21  10  34  1   
 22  11  12  ar  
 23  11  13  ar  
 24  12  14  ar  
 25  13  15  ar  
 26  13  35  1   
 27  14  16  ar  
 28  14  36  1   
 29  15  16  ar  
 30  15  37  1   
 31  16  17  1   
 32  17  18  2   
 33  17  19  am  
 34  19  20  1   
 35  19  21  1   
 36  20  22  1   
 37  20  38  1   
 38  20  39  1   
 39  21  23  1   
 40  21  40  1   
 41  21  41  1   
 42  22  24  1   
 43  22  42  1   
 44  22  43  1   
 45  23  24  1   
 46  23  44  1   
 47  23  45  1   
@<TRIPOS>SUBSTRUCTURE
  1 ****  11 GROUP 4 **** **** 0

# MOE 2024.06 (io_trps.svl 2023.06)
