@<TRIPOS>MOLECULE
NONAME
47 49 1 0 0 
SMALL
USER_CHARGES


@<TRIPOS>ATOM
  1 S       -0.6140    -0.1820     0.8520 S.o2  1 <1>   1.4470 
  2 O       -0.4790    -1.5710     1.2280 O.2   1 <1>  -0.6500 
  3 O       -1.3900     0.6680     1.7220 O.2   1 <1>  -0.6500 
  4 N       -1.4630    -0.1200    -0.6000 N.am  1 <1>  -0.9140 
  5 C        1.0160     0.5150     0.4780 C.ar  1 <1>  -0.0090 
  6 C       -1.6200    -1.2760    -1.4910 C.3   1 <1>   0.2760 
  7 C        1.1600     1.8230     0.0210 C.ar  1 <1>   0.0830 
  8 C        2.1620    -0.2570     0.6380 C.ar  1 <1>  -0.1500 
  9 C       -2.5930    -2.3700    -1.0390 C.3   1 <1>  -0.0800 
 10 C       -0.3220    -2.0350    -1.8120 C.3   1 <1>   0.1200 
 11 O        0.0350     2.5670    -0.1310 O.3   1 <1>  -0.3630 
 12 C        2.4260     2.3290    -0.2650 C.ar  1 <1>  -0.1500 
 13 C        3.4210     0.2400     0.3520 C.ar  1 <1>  -0.1430 
 14 C       -1.6850    -3.5810    -0.8440 C.3   1 <1>   0.1200 
 15 C       -3.5330    -2.0780     0.1480 C.3   1 <1>  -0.0170 
 16 O       -0.6360    -3.3920    -1.7370 O.3   1 <1>  -0.5600 
 17 C        0.0780     3.9480    -0.4110 C.3   1 <1>   0.0400 
 18 C        3.5480     1.5400    -0.1000 C.ar  1 <1>  -0.1500 
 19 C        4.6500    -0.6320     0.5380 C.3   1 <1>  -0.0970 
 20 C       -4.4360    -3.2670     0.4300 C.ar  1 <1>  -0.1430 
 21 C       -4.1550    -4.1680     1.4370 C.ar  1 <1>  -0.1500 
 22 C       -5.5790    -3.5110    -0.3050 C.ar  1 <1>  -0.1500 
 23 C       -5.0040    -5.2400     1.6540 C.ar  1 <1>   0.1600 
 24 C       -6.3620    -4.6140    -0.0060 C.ar  1 <1>   0.1600 
 25 N       -6.1010    -5.4860     0.9550 N.ar  1 <1>  -0.6200 
 26 H       -2.3660     0.2690    -0.3420 H     1 <1>   0.4200 
 27 H       -1.9920    -0.8880    -2.4240 H     1 <1>   0.0800 
 28 H        2.0650    -1.2700     0.9940 H     1 <1>   0.1500 
 29 H       -3.2130    -2.6050    -1.8860 H     1 <1>   0.0800 
 30 H        0.4630    -1.8440    -1.1060 H     1 <1>   0.0800 
 31 H        0.0240    -1.8240    -2.8080 H     1 <1>   0.0800 
 32 H        2.5590     3.3330    -0.6200 H     1 <1>   0.1500 
 33 H       -2.1820    -4.5080    -1.0720 H     1 <1>   0.0800 
 34 H       -1.2760    -3.6240     0.1510 H     1 <1>   0.0800 
 35 H       -4.1410    -1.2190    -0.0740 H     1 <1>   0.0800 
 36 H       -2.9740    -1.8570     1.0380 H     1 <1>   0.0800 
 37 H       -0.9310     4.3200    -0.4040 H     1 <1>   0.0800 
 38 H        0.5140     4.0960    -1.3830 H     1 <1>   0.0800 
 39 H        0.6530     4.4420     0.3520 H     1 <1>   0.0800 
 40 H        4.5200     1.9430    -0.3230 H     1 <1>   0.1500 
 41 H        5.4170    -0.3580    -0.1650 H     1 <1>   0.0800 
 42 H        4.4050    -1.6680     0.3820 H     1 <1>   0.0800 
 43 H        5.0340    -0.5130     1.5350 H     1 <1>   0.0800 
 44 H       -3.2830    -4.0450     2.0540 H     1 <1>   0.1500 
 45 H       -5.8700    -2.8550    -1.1050 H     1 <1>   0.1500 
 46 H       -4.7680    -5.9320     2.4440 H     1 <1>   0.1500 
 47 H       -7.2500    -4.7900    -0.5890 H     1 <1>   0.1500 
@<TRIPOS>BOND
  1   1   2  2   
  2   1   3  2   
  3   1   4  am  
  4   1   5  1   
  5   4   6  1   
  6   4  26  1   
  7   5   7  ar  
  8   5   8  ar  
  9   6   9  1   
 10   6  10  1   
 11   6  27  1   
 12   7  11  1   
 13   7  12  ar  
 14   8  13  ar  
 15   8  28  1   
 16   9  14  1   
 17   9  15  1   
 18   9  29  1   
 19  10  16  1   
 20  10  30  1   
 21  10  31  1   
 22  11  17  1   
 23  12  18  ar  
 24  12  32  1   
 25  13  18  ar  
 26  13  19  1   
 27  14  16  1   
 28  14  33  1   
 29  14  34  1   
 30  15  20  1   
 31  15  35  1   
 32  15  36  1   
 33  17  37  1   
 34  17  38  1   
 35  17  39  1   
 36  18  40  1   
 37  19  41  1   
 38  19  42  1   
 39  19  43  1   
 40  20  21  ar  
 41  20  22  ar  
 42  21  23  ar  
 43  21  44  1   
 44  22  24  ar  
 45  22  45  1   
 46  23  25  ar  
 47  23  46  1   
 48  24  25  ar  
 49  24  47  1   
@<TRIPOS>SUBSTRUCTURE
  1 ****   4 GROUP 4 **** **** 0

# MOE 2024.06 (io_trps.svl 2023.06)
