@<TRIPOS>MOLECULE
NONAME
40 41 1 0 0 
SMALL
USER_CHARGES


@<TRIPOS>ATOM
  1 O        0.6180    -0.4920     1.2930 O.3   1 <1>  -0.0190 
  2 N        0.4560     0.7670     1.0300 N.2   1 <1>  -0.4100 
  3 C        1.2320    -1.1160     0.3260 C.2   1 <1>  -0.0400 
  4 C        0.9880     0.9670    -0.1220 C.2   1 <1>   0.1080 
  5 C        1.5110    -0.2180    -0.6330 C.2   1 <1>  -0.1500 
  6 C        1.4970    -2.6020     0.4520 C.3   1 <1>   0.5230 
  7 C        1.0330     2.3120    -0.8150 C.3   1 <1>  -0.0590 
  8 N        0.2320    -3.3760     0.2680 N.4   1 <1>  -0.9590 
  9 C        0.5130    -4.8100     0.0180 C.3   1 <1>   0.4810 
 10 C       -0.7220    -3.1850     1.3970 C.3   1 <1>   0.3430 
 11 C       -0.7750    -5.4700    -0.4100 C.2   1 <1>  -0.2880 
 12 C       -1.9920    -2.5480     0.8520 C.3   1 <1>  -0.2400 
 13 C       -1.4370    -6.3970     0.3060 C.2   1 <1>  -0.1780 
 14 C       -2.6790    -7.0580    -0.0300 C.ar  1 <1>   0.0280 
 15 C       -3.3420    -7.8170     0.9320 C.ar  1 <1>  -0.1500 
 16 C       -3.2610    -6.9700    -1.2940 C.ar  1 <1>  -0.1500 
 17 C       -4.5370    -8.4540     0.6510 C.ar  1 <1>  -0.1500 
 18 C       -4.4560    -7.6050    -1.5820 C.ar  1 <1>  -0.1500 
 19 C       -5.0970    -8.3480    -0.6090 C.ar  1 <1>  -0.1500 
 20 H        2.0100    -0.3260    -1.5800 H     1 <1>   0.1500 
 21 H        1.9300    -2.8110     1.4170 H     1 <1>   0.0800 
 22 H        2.2080    -2.8840    -0.3070 H     1 <1>   0.0800 
 23 H        0.5210     2.2580    -1.7570 H     1 <1>   0.0800 
 24 H        2.0540     2.6050    -0.9820 H     1 <1>   0.0800 
 25 H        0.5560     3.0570    -0.2030 H     1 <1>   0.0800 
 26 H       -0.2350    -2.9980    -0.5640 H     1 <1>   0.4500 
 27 H        1.2500    -4.9240    -0.7630 H     1 <1>   0.0800 
 28 H        0.8860    -5.2780     0.9150 H     1 <1>   0.0800 
 29 H       -0.9630    -4.1320     1.8540 H     1 <1>   0.0800 
 30 H       -0.2950    -2.5450     2.1540 H     1 <1>   0.0800 
 31 H       -1.1230    -5.1160    -1.3630 H     1 <1>   0.1500 
 32 H       -2.4690    -3.1900     0.1330 H     1 <1>   0.0800 
 33 H       -1.7860    -1.5900     0.4090 H     1 <1>   0.0800 
 34 H       -2.6830    -2.3930     1.6620 H     1 <1>   0.0800 
 35 H       -1.0400    -6.7190     1.2540 H     1 <1>   0.1500 
 36 H       -2.9250    -7.9140     1.9180 H     1 <1>   0.1500 
 37 H       -2.7830    -6.4070    -2.0720 H     1 <1>   0.1500 
 38 H       -5.0320    -9.0340     1.4100 H     1 <1>   0.1500 
 39 H       -4.8880    -7.5250    -2.5640 H     1 <1>   0.1500 
 40 H       -6.0270    -8.8430    -0.8310 H     1 <1>   0.1500 
@<TRIPOS>BOND
  1   1   2  1   
  2   1   3  1   
  3   2   4  2   
  4   3   5  2   
  5   3   6  1   
  6   4   5  1   
  7   4   7  1   
  8   5  20  1   
  9   6   8  1   
 10   6  21  1   
 11   6  22  1   
 12   7  23  1   
 13   7  24  1   
 14   7  25  1   
 15   8   9  1   
 16   8  10  1   
 17   8  26  1   
 18   9  11  1   
 19   9  27  1   
 20   9  28  1   
 21  10  12  1   
 22  10  29  1   
 23  10  30  1   
 24  11  13  2   
 25  11  31  1   
 26  12  32  1   
 27  12  33  1   
 28  12  34  1   
 29  13  14  1   
 30  13  35  1   
 31  14  15  ar  
 32  14  16  ar  
 33  15  17  ar  
 34  15  36  1   
 35  16  18  ar  
 36  16  37  1   
 37  17  19  ar  
 38  17  38  1   
 39  18  19  ar  
 40  18  39  1   
 41  19  40  1   
@<TRIPOS>SUBSTRUCTURE
  1 ****   8 GROUP 4 **** **** 0

# MOE 2024.06 (io_trps.svl 2023.06)
