@<TRIPOS>MOLECULE
NONAME
59 62 1 0 0 
SMALL
USER_CHARGES


@<TRIPOS>ATOM
  1 O        2.7950     2.1780     1.6980 O.co2 1 <1>  -0.9000 
  2 C        2.2730     1.1190     1.3440 C.2   1 <1>   0.9060 
  3 O        2.2050     0.1590     2.1160 O.co2 1 <1>  -0.9000 
  4 C        2.0780     0.8580    -0.1640 C.3   1 <1>  -0.1060 
  5 C        3.0530    -0.2920    -0.4850 C.3   1 <1>   0.4230 
  6 C        2.4980     2.0900    -1.0340 C.3   1 <1>  -0.1600 
  7 C        0.6150     0.4850    -0.5210 C.3   1 <1>  -0.1600 
  8 N        2.5710    -1.5710     0.1550 N.4   1 <1>  -0.9590 
  9 C        4.5050     0.1340    -0.0630 C.3   1 <1>   0.3430 
 10 C        4.0150     2.3500    -1.1440 C.3   1 <1>   0.3430 
 11 C        0.2030    -0.8920     0.0200 C.3   1 <1>  -0.1600 
 12 C        1.2220    -1.9790    -0.3220 C.3   1 <1>   0.3430 
 13 C        3.5180    -2.7230     0.1650 C.3   1 <1>   0.2630 
 14 N        4.7350     1.6270    -0.0620 N.4   1 <1>  -0.9590 
 15 C        6.1440     2.0440     0.1580 C.3   1 <1>   0.4860 
 16 C        6.2250     3.5570     0.2510 C.ar  1 <1>  -0.1440 
 17 C        5.5040     4.2420     1.2200 C.ar  1 <1>  -0.1500 
 18 C        7.0140     4.2700    -0.6410 C.ar  1 <1>  -0.1500 
 19 C        5.5660     5.6210     1.2860 C.ar  1 <1>  -0.1500 
 20 C        7.0770     5.6520    -0.5730 C.ar  1 <1>  -0.1500 
 21 C        6.3470     6.3360     0.3940 C.ar  1 <1>   0.0820 
 22 O        6.3450     7.6840     0.5290 O.3   1 <1>  -0.3630 
 23 C        7.1260     8.5130    -0.3160 C.3   1 <1>   0.2640 
 24 C        6.9620     9.9930     0.0170 C.ar  1 <1>   0.1670 
 25 N        7.6540    10.8190    -0.7590 N.ar  1 <1>  -0.6200 
 26 C        6.1450    10.4240     1.0560 C.ar  1 <1>  -0.1500 
 27 C        7.5280    12.1090    -0.4910 C.ar  1 <1>   0.1600 
 28 C        6.0240    11.7710     1.3240 C.ar  1 <1>  -0.1500 
 29 C        6.7410    12.6300     0.5210 C.ar  1 <1>  -0.1500 
 30 H        3.0530    -0.4350    -1.5520 H     1 <1>   0.0800 
 31 H        2.0350     2.9740    -0.6270 H     1 <1>   0.0800 
 32 H        2.1210     1.9930    -2.0370 H     1 <1>   0.0800 
 33 H       -0.0530     1.2350    -0.1280 H     1 <1>   0.0800 
 34 H        0.4880     0.4710    -1.5900 H     1 <1>   0.0800 
 35 H        2.4020    -1.2610     1.1540 H     1 <1>   0.4500 
 36 H        5.2100    -0.3390    -0.7240 H     1 <1>   0.0800 
 37 H        4.6780    -0.2260     0.9390 H     1 <1>   0.0800 
 38 H        4.1900     3.4120    -1.0650 H     1 <1>   0.0800 
 39 H        4.3770     2.0200    -2.1040 H     1 <1>   0.0800 
 40 H       -0.7540    -1.1640    -0.3890 H     1 <1>   0.0800 
 41 H        0.0820    -0.8460     1.0900 H     1 <1>   0.0800 
 42 H        1.2400    -2.1390    -1.3880 H     1 <1>   0.0800 
 43 H        0.9250    -2.8980     0.1570 H     1 <1>   0.0800 
 44 H        3.7360    -3.0410    -0.8410 H     1 <1>   0.0800 
 45 H        3.0820    -3.5510     0.7010 H     1 <1>   0.0800 
 46 H        4.4370    -2.4540     0.6600 H     1 <1>   0.0800 
 47 H        4.2290     1.9860     0.7950 H     1 <1>   0.4500 
 48 H        6.5120     1.6160     1.0770 H     1 <1>   0.0800 
 49 H        6.7620     1.6990    -0.6540 H     1 <1>   0.0800 
 50 H        4.8820     3.7190     1.9320 H     1 <1>   0.1500 
 51 H        7.5880     3.7630    -1.3980 H     1 <1>   0.1500 
 52 H        5.0020     6.1510     2.0340 H     1 <1>   0.1500 
 53 H        7.6980     6.1740    -1.2780 H     1 <1>   0.1500 
 54 H        8.1570     8.2360    -0.1980 H     1 <1>   0.0800 
 55 H        6.8170     8.3450    -1.3310 H     1 <1>   0.0800 
 56 H        5.6030     9.7160     1.6580 H     1 <1>   0.1500 
 57 H        8.0840    12.7900    -1.1120 H     1 <1>   0.1500 
 58 H        5.3990    12.1310     2.1220 H     1 <1>   0.1500 
 59 H        6.6910    13.6920     0.6750 H     1 <1>   0.1500 
@<TRIPOS>BOND
  1   1   2  ar  
  2   2   3  ar  
  3   2   4  1   
  4   4   5  1   
  5   4   6  1   
  6   4   7  1   
  7   5   8  1   
  8   5   9  1   
  9   5  30  1   
 10   6  10  1   
 11   6  31  1   
 12   6  32  1   
 13   7  11  1   
 14   7  33  1   
 15   7  34  1   
 16   8  12  1   
 17   8  13  1   
 18   8  35  1   
 19   9  14  1   
 20   9  36  1   
 21   9  37  1   
 22  10  14  1   
 23  10  38  1   
 24  10  39  1   
 25  11  12  1   
 26  11  40  1   
 27  11  41  1   
 28  12  42  1   
 29  12  43  1   
 30  13  44  1   
 31  13  45  1   
 32  13  46  1   
 33  14  15  1   
 34  14  47  1   
 35  15  16  1   
 36  15  48  1   
 37  15  49  1   
 38  16  17  ar  
 39  16  18  ar  
 40  17  19  ar  
 41  17  50  1   
 42  18  20  ar  
 43  18  51  1   
 44  19  21  ar  
 45  19  52  1   
 46  20  21  ar  
 47  20  53  1   
 48  21  22  1   
 49  22  23  1   
 50  23  24  1   
 51  23  54  1   
 52  23  55  1   
 53  24  25  ar  
 54  24  26  ar  
 55  25  27  ar  
 56  26  28  ar  
 57  26  56  1   
 58  27  29  ar  
 59  27  57  1   
 60  28  29  ar  
 61  28  58  1   
 62  29  59  1   
@<TRIPOS>SUBSTRUCTURE
  1 ****  17 GROUP 4 **** **** 0

# MOE 2024.06 (io_trps.svl 2023.06)
