@<TRIPOS>MOLECULE
NONAME
52 55 1 0 0 
SMALL
USER_CHARGES


@<TRIPOS>ATOM
  1 S       -4.0730     1.4730     0.1130 S.3   1 <1>  -0.0800 
  2 C       -3.6520    -0.1750     0.5410 C.2   1 <1>  -0.1100 
  3 C       -3.3590     1.2840    -1.4770 C.2   1 <1>  -0.1100 
  4 C       -3.0230    -0.7930    -0.4770 C.2   1 <1>  -0.1810 
  5 C       -2.8530     0.0460    -1.6280 C.2   1 <1>  -0.1500 
  6 C       -2.5110    -2.2310    -0.4900 C.3   1 <1>   0.0820 
  7 C       -2.9700    -3.0720     0.6980 C.2   1 <1>   0.5690 
  8 O       -2.1220    -3.4090     1.4910 O.2   1 <1>  -0.5700 
  9 N       -4.2860    -3.4500     0.8470 N.am  1 <1>  -0.6600 
 10 C       -4.7280    -4.2820     2.0010 C.3   1 <1>   0.1400 
 11 C       -5.4050    -3.0580    -0.0570 C.3   1 <1>   0.1400 
 12 C       -5.3960    -5.5570     1.4790 C.3   1 <1>  -0.1600 
 13 C       -6.0700    -4.3210    -0.6070 C.3   1 <1>  -0.1600 
 14 C       -6.5560    -5.2480     0.5210 C.3   1 <1>   0.4240 
 15 O       -7.4960    -4.5400     1.2940 O.3   1 <1>  -0.5600 
 16 C       -7.1500    -6.5540    -0.0490 C.ar  1 <1>  -0.1430 
 17 C       -8.8160    -4.5200     0.8470 C.3   1 <1>   0.1200 
 18 C       -8.4860    -6.8820     0.1370 C.ar  1 <1>  -0.1430 
 19 C       -6.3530    -7.4330    -0.7720 C.ar  1 <1>  -0.1500 
 20 C       -9.3810    -5.9360     0.9140 C.3   1 <1>  -0.0170 
 21 C       -9.0050    -8.0560    -0.3840 C.ar  1 <1>  -0.1500 
 22 C       -6.8520    -8.6140    -1.2950 C.ar  1 <1>   0.0830 
 23 C       -8.2060    -8.9350    -1.1110 C.ar  1 <1>   0.0830 
 24 O       -5.9360    -9.3690    -1.9670 O.3   1 <1>  -0.3620 
 25 O       -8.7190   -10.0780    -1.6550 O.3   1 <1>  -0.3630 
 26 C       -6.0230   -10.7760    -1.9930 C.3   1 <1>   0.0400 
 27 C      -10.1000   -10.3640    -1.6400 C.3   1 <1>   0.0400 
 28 H       -3.9250    -0.5130     1.5270 H     1 <1>   0.1500 
 29 H       -3.3920     2.1320    -2.1370 H     1 <1>   0.1500 
 30 H       -2.3600    -0.3150    -2.5130 H     1 <1>   0.1500 
 31 H       -1.4370    -2.2110    -0.4970 H     1 <1>   0.0800 
 32 H       -2.8280    -2.7210    -1.3910 H     1 <1>   0.0800 
 33 H       -5.4260    -3.7180     2.5960 H     1 <1>   0.0800 
 34 H       -3.8940    -4.5450     2.6280 H     1 <1>   0.0800 
 35 H       -5.0610    -2.4510    -0.8740 H     1 <1>   0.0800 
 36 H       -6.1210    -2.4810     0.5040 H     1 <1>   0.0800 
 37 H       -5.7660    -6.1380     2.3030 H     1 <1>   0.0800 
 38 H       -4.6470    -6.1440     0.9820 H     1 <1>   0.0800 
 39 H       -5.3540    -4.8410    -1.2160 H     1 <1>   0.0800 
 40 H       -6.8910    -4.0570    -1.2460 H     1 <1>   0.0800 
 41 H       -8.8460    -4.1380    -0.1580 H     1 <1>   0.0800 
 42 H       -9.3730    -3.8620     1.4910 H     1 <1>   0.0800 
 43 H       -5.3150    -7.2150    -0.9420 H     1 <1>   0.1500 
 44 H      -10.3740    -5.9400     0.5030 H     1 <1>   0.0800 
 45 H       -9.4360    -6.2510     1.9410 H     1 <1>   0.0800 
 46 H      -10.0410    -8.2700    -0.2110 H     1 <1>   0.1500 
 47 H       -5.0550   -11.1670    -2.2490 H     1 <1>   0.0800 
 48 H       -6.7400   -11.0650    -2.7390 H     1 <1>   0.0800 
 49 H       -6.3190   -11.1280    -1.0210 H     1 <1>   0.0800 
 50 H      -10.2570   -11.2770    -2.1860 H     1 <1>   0.0800 
 51 H      -10.6290    -9.5580    -2.1170 H     1 <1>   0.0800 
 52 H      -10.4200   -10.4900    -0.6210 H     1 <1>   0.0800 
@<TRIPOS>BOND
  1   1   2  1   
  2   1   3  1   
  3   2   4  2   
  4   2  28  1   
  5   3   5  2   
  6   3  29  1   
  7   4   5  1   
  8   4   6  1   
  9   5  30  1   
 10   6   7  1   
 11   6  31  1   
 12   6  32  1   
 13   7   8  2   
 14   7   9  am  
 15   9  10  1   
 16   9  11  1   
 17  10  12  1   
 18  10  33  1   
 19  10  34  1   
 20  11  13  1   
 21  11  35  1   
 22  11  36  1   
 23  12  14  1   
 24  12  37  1   
 25  12  38  1   
 26  13  14  1   
 27  13  39  1   
 28  13  40  1   
 29  14  15  1   
 30  14  16  1   
 31  15  17  1   
 32  16  18  ar  
 33  16  19  ar  
 34  17  20  1   
 35  17  41  1   
 36  17  42  1   
 37  18  20  1   
 38  18  21  ar  
 39  19  22  ar  
 40  19  43  1   
 41  20  44  1   
 42  20  45  1   
 43  21  23  ar  
 44  21  46  1   
 45  22  23  ar  
 46  22  24  1   
 47  23  25  1   
 48  24  26  1   
 49  25  27  1   
 50  26  47  1   
 51  26  48  1   
 52  26  49  1   
 53  27  50  1   
 54  27  51  1   
 55  27  52  1   
@<TRIPOS>SUBSTRUCTURE
  1 ****  13 GROUP 4 **** **** 0

# MOE 2024.06 (io_trps.svl 2023.06)
