@<TRIPOS>MOLECULE
NONAME
24 25 1 0 0 
SMALL
USER_CHARGES


@<TRIPOS>ATOM
  1 O        0.0410    -0.4840    -0.6680 O.3   1 <1>  -0.5320 
  2 C        0.1020    -1.7890    -0.3270 C.ar  1 <1>   0.0830 
  3 C       -0.5660    -2.7470    -1.0760 C.ar  1 <1>   0.1600 
  4 C        0.8360    -2.1790     0.7760 C.ar  1 <1>  -0.1500 
  5 N       -0.5630    -4.0470    -0.8180 N.ar  1 <1>  -0.6200 
  6 C        0.8460    -3.5270     1.0530 C.ar  1 <1>  -0.1500 
  7 C        0.1440    -4.4180     0.2450 C.ar  1 <1>   0.4100 
  8 N        0.1790    -5.7640     0.5500 N.pl3 1 <1>  -0.8380 
  9 C       -1.1320    -6.4010     0.8380 C.3   1 <1>   0.2090 
 10 C        0.9380    -6.6160    -0.3970 C.3   1 <1>   0.2090 
 11 C       -1.2550    -7.5550    -0.1480 C.3   1 <1>  -0.1600 
 12 C        0.1850    -7.9380    -0.4570 C.3   1 <1>  -0.1600 
 13 H        0.5500     0.0850    -0.0630 H     1 <1>   0.4500 
 14 H       -1.1300    -2.4170    -1.9290 H     1 <1>   0.1500 
 15 H        1.3710    -1.4770     1.3870 H     1 <1>   0.1500 
 16 H        1.3890    -3.9210     1.8900 H     1 <1>   0.1500 
 17 H       -1.9470    -5.7050     0.7280 H     1 <1>   0.0800 
 18 H       -1.1190    -6.7740     1.8470 H     1 <1>   0.0800 
 19 H        1.9480    -6.7560    -0.0520 H     1 <1>   0.0800 
 20 H        0.9540    -6.1560    -1.3720 H     1 <1>   0.0800 
 21 H       -1.7370    -7.1930    -1.0400 H     1 <1>   0.0800 
 22 H       -1.8250    -8.3710     0.2570 H     1 <1>   0.0800 
 23 H        0.5640    -8.5920     0.3080 H     1 <1>   0.0800 
 24 H        0.2880    -8.4130    -1.4160 H     1 <1>   0.0800 
@<TRIPOS>BOND
  1   1   2  1   
  2   1  13  1   
  3   2   3  ar  
  4   2   4  ar  
  5   3   5  ar  
  6   3  14  1   
  7   4   6  ar  
  8   4  15  1   
  9   5   7  ar  
 10   6   7  ar  
 11   6  16  1   
 12   7   8  1   
 13   8   9  1   
 14   8  10  1   
 15   9  11  1   
 16   9  17  1   
 17   9  18  1   
 18  10  12  1   
 19  10  19  1   
 20  10  20  1   
 21  11  12  1   
 22  11  21  1   
 23  11  22  1   
 24  12  23  1   
 25  12  24  1   
@<TRIPOS>SUBSTRUCTURE
  1 ****   7 GROUP 4 **** **** 0

# MOE 2024.06 (io_trps.svl 2023.06)
