@<TRIPOS>MOLECULE
NONAME
41 43 1 0 0 
SMALL
USER_CHARGES


@<TRIPOS>ATOM
  1 O       -1.0450     1.0830     2.3140 O.3   1 <1>  -0.5600 
  2 C        0.0640     1.2400     1.4730 C.3   1 <1>   0.1200 
  3 C       -2.2050     1.5790     1.7120 C.3   1 <1>   0.1200 
  4 C       -0.3770     2.1390     0.3200 C.3   1 <1>   0.2890 
  5 C       -1.8640     1.8480     0.2440 C.3   1 <1>  -0.0800 
  6 N       -0.1860     3.5620     0.6960 N.pl3 1 <1>  -0.8690 
  7 C       -2.1590     0.6330    -0.6570 C.3   1 <1>  -0.0170 
  8 C        0.6340     4.4510     0.0500 C.ar  1 <1>   0.4100 
  9 C       -3.6500     0.3400    -0.7300 C.ar  1 <1>  -0.1430 
 10 N        1.1300     4.0910    -1.1150 N.ar  1 <1>  -0.6200 
 11 C        0.9290     5.6880     0.6080 C.ar  1 <1>  -0.1430 
 12 C       -4.2210    -0.7250    -0.0630 C.ar  1 <1>  -0.1500 
 13 C       -4.5100     1.1270    -1.4690 C.ar  1 <1>  -0.1500 
 14 C        1.9150     4.9690    -1.7060 C.ar  1 <1>   0.4770 
 15 C        1.7590     6.5100    -0.1080 C.ar  1 <1>   0.1600 
 16 C        0.3620     6.1260     1.9540 C.3   1 <1>  -0.0970 
 17 C       -5.5860    -0.9430    -0.1620 C.ar  1 <1>   0.1600 
 18 C       -5.8610     0.8220    -1.5010 C.ar  1 <1>   0.1600 
 19 N        2.2660     6.1650    -1.2750 N.ar  1 <1>  -0.6200 
 20 C        2.4840     4.5630    -3.0440 C.3   1 <1>  -0.0970 
 21 N       -6.4200    -0.1940    -0.8640 N.ar  1 <1>  -0.6200 
 22 H        0.8840     1.6600     2.0280 H     1 <1>   0.0800 
 23 H        0.3340     0.2650     1.1080 H     1 <1>   0.0800 
 24 H       -3.0020     0.8690     1.8430 H     1 <1>   0.0800 
 25 H       -2.4610     2.4970     2.2120 H     1 <1>   0.0800 
 26 H        0.1430     1.9020    -0.5920 H     1 <1>   0.0800 
 27 H       -2.4050     2.6990    -0.1300 H     1 <1>   0.0800 
 28 H       -0.4270     3.7600     1.6680 H     1 <1>   0.4000 
 29 H       -1.6400    -0.2360    -0.2930 H     1 <1>   0.0800 
 30 H       -1.8000     0.8330    -1.6520 H     1 <1>   0.0800 
 31 H       -3.6200    -1.3870     0.5340 H     1 <1>   0.1500 
 32 H       -4.1430     1.9740    -2.0190 H     1 <1>   0.1500 
 33 H        2.0240     7.4800     0.2730 H     1 <1>   0.1500 
 34 H        0.6750     7.1260     2.1970 H     1 <1>   0.0800 
 35 H        0.7030     5.4640     2.7300 H     1 <1>   0.0800 
 36 H       -0.7130     6.1050     1.9230 H     1 <1>   0.0800 
 37 H       -6.0130    -1.7790     0.3660 H     1 <1>   0.1500 
 38 H       -6.5160     1.4470    -2.0830 H     1 <1>   0.1500 
 39 H        3.5300     4.8040    -3.0800 H     1 <1>   0.0800 
 40 H        1.9710     5.0950    -3.8220 H     1 <1>   0.0800 
 41 H        2.3640     3.5070    -3.2000 H     1 <1>   0.0800 
@<TRIPOS>BOND
  1   1   2  1   
  2   1   3  1   
  3   2   4  1   
  4   2  22  1   
  5   2  23  1   
  6   3   5  1   
  7   3  24  1   
  8   3  25  1   
  9   4   5  1   
 10   4   6  1   
 11   4  26  1   
 12   5   7  1   
 13   5  27  1   
 14   6   8  1   
 15   6  28  1   
 16   7   9  1   
 17   7  29  1   
 18   7  30  1   
 19   8  10  ar  
 20   8  11  ar  
 21   9  12  ar  
 22   9  13  ar  
 23  10  14  ar  
 24  11  15  ar  
 25  11  16  1   
 26  12  17  ar  
 27  12  31  1   
 28  13  18  ar  
 29  13  32  1   
 30  14  19  ar  
 31  14  20  1   
 32  15  19  ar  
 33  15  33  1   
 34  16  34  1   
 35  16  35  1   
 36  16  36  1   
 37  17  21  ar  
 38  17  37  1   
 39  18  21  ar  
 40  18  38  1   
 41  20  39  1   
 42  20  40  1   
 43  20  41  1   
@<TRIPOS>SUBSTRUCTURE
  1 ****   5 GROUP 4 **** **** 0

# MOE 2024.06 (io_trps.svl 2023.06)
