@<TRIPOS>MOLECULE
NONAME
59 63 1 0 0 
SMALL
USER_CHARGES


@<TRIPOS>ATOM
  1 O        0.2290     0.5990     1.2650 O.2   1 <1>  -0.5700 
  2 C       -0.3630     1.6260     0.9650 C.2   1 <1>   0.7160 
  3 N       -1.7350     1.5410     0.7700 N.am  1 <1>  -0.6600 
  4 C        0.3970     2.8680     0.8010 C.2   1 <1>   0.2030 
  5 C       -2.5640     2.6430     0.1890 C.3   1 <1>   0.1400 
  6 C       -2.5130     0.3050     1.0730 C.3   1 <1>   0.1400 
  7 N        0.0540     4.0650     1.2570 N.2   1 <1>  -0.7070 
  8 C        1.6240     2.9560     0.1250 C.2   1 <1>  -0.1810 
  9 C       -3.7140     3.0280     1.1370 C.3   1 <1>   0.1430 
 10 C       -3.6860     0.6350     2.0070 C.3   1 <1>  -0.1600 
 11 N        1.0420     4.8820     0.8760 N.pl3 1 <1>   0.3000 
 12 C        2.0140     4.2530     0.1840 C.2   1 <1>  -0.2050 
 13 C        2.3630     1.8140    -0.5520 C.3   1 <1>  -0.0590 
 14 C       -4.5190     4.1310     0.4770 C.ar  1 <1>   0.1670 
 15 C       -4.5600     1.7760     1.4540 C.3   1 <1>  -0.1600 
 16 C       -3.2010     3.7210     2.4280 C.3   1 <1>  -0.1600 
 17 C        3.1800     4.9260    -0.3240 C.ar  1 <1>   0.0530 
 18 N       -5.3350     3.9750    -0.5360 N.ar  1 <1>  -0.6200 
 19 C       -4.2730     5.3410     1.0530 C.ar  1 <1>  -0.1440 
 20 C       -3.2760     5.2360     2.1790 C.3   1 <1>  -0.0170 
 21 C        4.4540     4.5440     0.0820 C.ar  1 <1>  -0.1500 
 22 C        3.0660     5.9780    -1.2270 C.ar  1 <1>  -0.1500 
 23 C       -5.9270     5.0910    -0.9670 C.ar  1 <1>   0.7200 
 24 C       -4.9290     6.4330     0.5450 C.ar  1 <1>   0.1600 
 25 C        5.5790     5.1940    -0.3920 C.ar  1 <1>  -0.1500 
 26 C        4.1870     6.6330    -1.7040 C.ar  1 <1>  -0.1500 
 27 N       -5.7590     6.3200    -0.4650 N.ar  1 <1>  -0.6200 
 28 N       -6.7930     4.9640    -2.0360 N.pl3 1 <1>  -0.8380 
 29 C        5.4470     6.2420    -1.2860 C.ar  1 <1>  -0.1500 
 30 C       -7.2870     6.1440    -2.7980 C.3   1 <1>   0.1290 
 31 C       -7.3130     3.6420    -2.4790 C.3   1 <1>   0.1290 
 32 H       -2.9840     2.3010    -0.7410 H     1 <1>   0.0800 
 33 H       -1.9730     3.5110    -0.0360 H     1 <1>   0.0800 
 34 H       -1.8880    -0.4390     1.5380 H     1 <1>   0.0800 
 35 H       -2.8850    -0.1050     0.1500 H     1 <1>   0.0800 
 36 H       -3.2930     0.9050     2.9720 H     1 <1>   0.0800 
 37 H       -4.2880    -0.2460     2.1390 H     1 <1>   0.0800 
 38 H        1.0550     5.8830     1.1030 H     1 <1>   0.2700 
 39 H        1.7000     1.2860    -1.2130 H     1 <1>   0.0800 
 40 H        2.7310     1.1270     0.1890 H     1 <1>   0.0800 
 41 H        3.1940     2.1840    -1.1240 H     1 <1>   0.0800 
 42 H       -5.0360     1.4410     0.5490 H     1 <1>   0.0800 
 43 H       -5.3380     2.0220     2.1540 H     1 <1>   0.0800 
 44 H       -2.2070     3.4120     2.6980 H     1 <1>   0.0800 
 45 H       -3.8580     3.4870     3.2460 H     1 <1>   0.0800 
 46 H       -2.3210     5.6110     1.8530 H     1 <1>   0.0800 
 47 H       -3.6010     5.7670     3.0560 H     1 <1>   0.0800 
 48 H        4.5580     3.7310     0.7780 H     1 <1>   0.1500 
 49 H        2.0900     6.2800    -1.5640 H     1 <1>   0.1500 
 50 H       -4.7700     7.4090     0.9680 H     1 <1>   0.1500 
 51 H        6.5580     4.8860    -0.0660 H     1 <1>   0.1500 
 52 H        4.0820     7.4450    -2.4030 H     1 <1>   0.1500 
 53 H        6.3210     6.7500    -1.6560 H     1 <1>   0.1500 
 54 H       -6.5640     6.9410    -2.7720 H     1 <1>   0.0800 
 55 H       -8.2070     6.4930    -2.3620 H     1 <1>   0.0800 
 56 H       -7.4580     5.8760    -3.8250 H     1 <1>   0.0800 
 57 H       -7.3550     2.9560    -1.6510 H     1 <1>   0.0800 
 58 H       -6.6660     3.2370    -3.2370 H     1 <1>   0.0800 
 59 H       -8.3070     3.7490    -2.8780 H     1 <1>   0.0800 
@<TRIPOS>BOND
  1   1   2  2   
  2   2   3  am  
  3   2   4  1   
  4   3   5  1   
  5   3   6  1   
  6   4   7  2   
  7   4   8  1   
  8   5   9  1   
  9   5  32  1   
 10   5  33  1   
 11   6  10  1   
 12   6  34  1   
 13   6  35  1   
 14   7  11  1   
 15   8  12  2   
 16   8  13  1   
 17   9  14  1   
 18   9  15  1   
 19   9  16  1   
 20  10  15  1   
 21  10  36  1   
 22  10  37  1   
 23  11  12  1   
 24  11  38  1   
 25  12  17  1   
 26  13  39  1   
 27  13  40  1   
 28  13  41  1   
 29  14  18  ar  
 30  14  19  ar  
 31  15  42  1   
 32  15  43  1   
 33  16  20  1   
 34  16  44  1   
 35  16  45  1   
 36  17  21  ar  
 37  17  22  ar  
 38  18  23  ar  
 39  19  20  1   
 40  19  24  ar  
 41  20  46  1   
 42  20  47  1   
 43  21  25  ar  
 44  21  48  1   
 45  22  26  ar  
 46  22  49  1   
 47  23  27  ar  
 48  23  28  1   
 49  24  27  ar  
 50  24  50  1   
 51  25  29  ar  
 52  25  51  1   
 53  26  29  ar  
 54  26  52  1   
 55  28  30  1   
 56  28  31  1   
 57  29  53  1   
 58  30  54  1   
 59  30  55  1   
 60  30  56  1   
 61  31  57  1   
 62  31  58  1   
 63  31  59  1   
@<TRIPOS>SUBSTRUCTURE
  1 ****   5 GROUP 4 **** **** 0

# MOE 2024.06 (io_trps.svl 2023.06)
