@<TRIPOS>MOLECULE
NONAME
55 58 1 0 0 
SMALL
USER_CHARGES


@<TRIPOS>ATOM
  1 O       -1.6200     0.8400     2.1940 O.2   1 <1>  -0.5700 
  2 C       -2.2180     1.1090     1.1720 C.2   1 <1>   0.5440 
  3 N       -3.2680     0.3050     0.7790 N.am  1 <1>  -0.6600 
  4 C       -1.8280     2.2690     0.4080 C.ar  1 <1>   0.0860 
  5 C       -3.4620    -1.0430     1.4250 C.3   1 <1>   0.3210 
  6 C       -4.1940     0.6600    -0.3460 C.3   1 <1>   0.1400 
  7 C       -1.2760     2.1670    -0.8760 C.ar  1 <1>   0.0000 
  8 C       -2.0000     3.5710     0.8420 C.ar  1 <1>  -0.1440 
  9 C       -3.5480    -2.1800     0.4040 C.2   1 <1>   0.0460 
 10 C       -5.6720     0.5510     0.0760 C.3   1 <1>   0.3430 
 11 C       -1.0450     3.3150    -1.5990 C.ar  1 <1>   0.3970 
 12 C       -0.8510     1.1590    -1.7610 C.2   1 <1>   0.1080 
 13 C       -1.7010     4.6460     0.0230 C.ar  1 <1>   0.1660 
 14 C       -2.5170     4.0370     2.1850 C.3   1 <1>  -0.0160 
 15 N       -4.6610    -2.3940    -0.3380 N.2   1 <1>  -0.5650 
 16 C       -2.6010    -3.1070     0.1240 C.2   1 <1>  -0.3320 
 17 N       -6.6200     0.7040    -1.0800 N.4   1 <1>  -0.9590 
 18 O       -0.5840     2.9550    -2.7840 O.3   1 <1>  -0.0190 
 19 N       -1.2460     4.5750    -1.2050 N.ar  1 <1>  -0.5670 
 20 N       -0.4680     1.6500    -2.8780 N.2   1 <1>  -0.4100 
 21 C       -0.8110    -0.3240    -1.4530 C.3   1 <1>  -0.0590 
 22 C       -1.9740     5.9530     0.7210 C.3   1 <1>  -0.0170 
 23 C       -2.2280     5.5480     2.1850 C.3   1 <1>  -0.1600 
 24 C       -4.3700    -3.4480    -1.0330 C.2   1 <1>   0.0360 
 25 N       -3.1310    -3.9270    -0.8010 N.pl3 1 <1>   0.0330 
 26 C       -1.1990    -3.3080     0.6790 C.3   1 <1>  -0.0600 
 27 C       -8.0150     0.8920    -0.5800 C.3   1 <1>   0.2630 
 28 C       -6.5580    -0.5020    -1.9690 C.3   1 <1>   0.2630 
 29 H       -4.3600    -1.0330     2.0160 H     1 <1>   0.0800 
 30 H       -2.6520    -1.2570     2.0990 H     1 <1>   0.0800 
 31 H       -3.9930    -0.0020    -1.1690 H     1 <1>   0.0800 
 32 H       -4.0130     1.6660    -0.6770 H     1 <1>   0.0800 
 33 H       -5.8710     1.3140     0.8100 H     1 <1>   0.0800 
 34 H       -5.8370    -0.4100     0.5340 H     1 <1>   0.0800 
 35 H       -2.0080     3.5430     2.9970 H     1 <1>   0.0800 
 36 H       -3.5740     3.8520     2.2560 H     1 <1>   0.0800 
 37 H       -6.3520     1.5360    -1.6270 H     1 <1>   0.4500 
 38 H       -0.4560    -0.4860    -0.4520 H     1 <1>   0.0800 
 39 H       -0.1430    -0.8200    -2.1360 H     1 <1>   0.0800 
 40 H       -1.7880    -0.7550    -1.5580 H     1 <1>   0.0800 
 41 H       -2.8440     6.4140     0.2890 H     1 <1>   0.0800 
 42 H       -1.1320     6.6180     0.6360 H     1 <1>   0.0800 
 43 H       -1.3330     5.7300     2.7550 H     1 <1>   0.0800 
 44 H       -3.0360     6.1110     2.6200 H     1 <1>   0.0800 
 45 H       -5.0340    -3.9230    -1.7340 H     1 <1>   0.1500 
 46 H       -2.6970    -4.7530    -1.2260 H     1 <1>   0.2700 
 47 H       -0.9330    -2.5150     1.3550 H     1 <1>   0.0800 
 48 H       -0.4800    -3.3230    -0.1210 H     1 <1>   0.0800 
 49 H       -1.1410    -4.2410     1.2120 H     1 <1>   0.0800 
 50 H       -8.3250     0.0340    -0.0040 H     1 <1>   0.0800 
 51 H       -8.6960     1.0150    -1.4070 H     1 <1>   0.0800 
 52 H       -8.0750     1.7670     0.0470 H     1 <1>   0.0800 
 53 H       -6.8090    -1.3900    -1.4100 H     1 <1>   0.0800 
 54 H       -5.5660    -0.6280    -2.3690 H     1 <1>   0.0800 
 55 H       -7.2500    -0.4010    -2.7900 H     1 <1>   0.0800 
@<TRIPOS>BOND
  1   1   2  2   
  2   2   3  am  
  3   2   4  1   
  4   3   5  1   
  5   3   6  1   
  6   4   7  ar  
  7   4   8  ar  
  8   5   9  1   
  9   5  29  1   
 10   5  30  1   
 11   6  10  1   
 12   6  31  1   
 13   6  32  1   
 14   7  11  ar  
 15   7  12  1   
 16   8  13  ar  
 17   8  14  1   
 18   9  15  1   
 19   9  16  2   
 20  10  17  1   
 21  10  33  1   
 22  10  34  1   
 23  11  18  1   
 24  11  19  ar  
 25  12  20  2   
 26  12  21  1   
 27  13  19  ar  
 28  13  22  1   
 29  14  23  1   
 30  14  35  1   
 31  14  36  1   
 32  15  24  2   
 33  16  25  1   
 34  16  26  1   
 35  17  27  1   
 36  17  28  1   
 37  17  37  1   
 38  18  20  1   
 39  21  38  1   
 40  21  39  1   
 41  21  40  1   
 42  22  23  1   
 43  22  41  1   
 44  22  42  1   
 45  23  43  1   
 46  23  44  1   
 47  24  25  1   
 48  24  45  1   
 49  25  46  1   
 50  26  47  1   
 51  26  48  1   
 52  26  49  1   
 53  27  50  1   
 54  27  51  1   
 55  27  52  1   
 56  28  53  1   
 57  28  54  1   
 58  28  55  1   
@<TRIPOS>SUBSTRUCTURE
  1 ****   3 GROUP 4 **** **** 0

# MOE 2024.06 (io_trps.svl 2023.06)
