@<TRIPOS>MOLECULE
NONAME
51 53 1 0 0 
SMALL
USER_CHARGES


@<TRIPOS>ATOM
  1 S        2.2380    -0.3860    -1.5180 S.3   1 <1>  -0.0800 
  2 C        1.1680    -0.8770    -0.2220 C.2   1 <1>   0.1980 
  3 C        1.7960    -1.8150    -2.3920 C.2   1 <1>  -0.1100 
  4 N        0.5620    -1.9750    -0.4420 N.2   1 <1>  -0.5650 
  5 C        1.0590     0.0180     1.0090 C.3   1 <1>   0.1000 
  6 C        0.8980    -2.5380    -1.6880 C.2   1 <1>   0.1410 
  7 C        0.4830     1.3950     0.6530 C.3   1 <1>  -0.2400 
  8 C        2.4090     0.1640     1.7230 C.3   1 <1>  -0.2400 
  9 C        0.3340    -3.8100    -2.1320 C.2   1 <1>   0.7160 
 10 O        1.0310    -4.5740    -2.7750 O.2   1 <1>  -0.5700 
 11 N       -0.9590    -4.2230    -1.8470 N.am  1 <1>  -0.6600 
 12 C       -1.3370    -5.6610    -1.8770 C.3   1 <1>   0.1400 
 13 C       -2.0460    -3.3170    -1.3830 C.3   1 <1>   0.1400 
 14 C       -1.7630    -6.1090    -0.4600 C.3   1 <1>   0.4230 
 15 C       -2.4530    -3.7350     0.0350 C.3   1 <1>  -0.1600 
 16 N       -2.0190    -7.6070    -0.3390 N.4   1 <1>  -0.9590 
 17 C       -2.9020    -5.2230     0.1300 C.3   1 <1>   0.0000 
 18 C       -2.8100    -7.9980     0.8740 C.3   1 <1>   0.3430 
 19 C       -2.5990    -8.2630    -1.5580 C.3   1 <1>   0.2630 
 20 C       -3.1060    -5.5840     1.6320 C.3   1 <1>  -0.1600 
 21 C       -4.2200    -5.4440    -0.6660 C.3   1 <1>   0.1200 
 22 C       -2.6080    -6.9930     2.0070 C.3   1 <1>  -0.1600 
 23 O       -5.1920    -4.5220    -0.3180 O.3   1 <1>  -0.6800 
 24 H        2.2510    -1.9890    -3.3500 H     1 <1>   0.1500 
 25 H        0.3750    -0.4610     1.6890 H     1 <1>   0.0800 
 26 H        1.1490     1.9300     0.0000 H     1 <1>   0.0800 
 27 H        0.3330     1.9780     1.5440 H     1 <1>   0.0800 
 28 H       -0.4640     1.2780     0.1580 H     1 <1>   0.0800 
 29 H        3.1200     0.6760     1.0980 H     1 <1>   0.0800 
 30 H        2.8020    -0.8080     1.9650 H     1 <1>   0.0800 
 31 H        2.2900     0.7220     2.6350 H     1 <1>   0.0800 
 32 H       -2.1330    -5.7870    -2.5880 H     1 <1>   0.0800 
 33 H       -0.5010    -6.2590    -2.1960 H     1 <1>   0.0800 
 34 H       -1.7280    -2.2890    -1.3910 H     1 <1>   0.0800 
 35 H       -2.8870    -3.3920    -2.0520 H     1 <1>   0.0800 
 36 H       -0.9060    -5.9030     0.1600 H     1 <1>   0.0800 
 37 H       -1.6040    -3.5610     0.6740 H     1 <1>   0.0800 
 38 H       -3.2320    -3.0780     0.3770 H     1 <1>   0.0800 
 39 H       -1.0810    -8.0150    -0.2050 H     1 <1>   0.4500 
 40 H       -3.8590    -8.0310     0.6310 H     1 <1>   0.0800 
 41 H       -2.5150    -8.9820     1.2020 H     1 <1>   0.0800 
 42 H       -3.5690    -7.8520    -1.7830 H     1 <1>   0.0800 
 43 H       -2.7060    -9.3240    -1.3950 H     1 <1>   0.0800 
 44 H       -1.9550    -8.1170    -2.4100 H     1 <1>   0.0800 
 45 H       -2.5860    -4.8820     2.2630 H     1 <1>   0.0800 
 46 H       -4.1470    -5.4990     1.8930 H     1 <1>   0.0800 
 47 H       -4.6290    -6.4220    -0.4890 H     1 <1>   0.0800 
 48 H       -4.0630    -5.3300    -1.7240 H     1 <1>   0.0800 
 49 H       -3.1390    -7.3320     2.8800 H     1 <1>   0.0800 
 50 H       -1.5640    -6.9600     2.2680 H     1 <1>   0.0800 
 51 H       -5.4280    -4.5710     0.6290 H     1 <1>   0.4000 
@<TRIPOS>BOND
  1   1   2  1   
  2   1   3  1   
  3   2   4  2   
  4   2   5  1   
  5   3   6  2   
  6   3  24  1   
  7   4   6  1   
  8   5   7  1   
  9   5   8  1   
 10   5  25  1   
 11   6   9  1   
 12   7  26  1   
 13   7  27  1   
 14   7  28  1   
 15   8  29  1   
 16   8  30  1   
 17   8  31  1   
 18   9  10  2   
 19   9  11  am  
 20  11  12  1   
 21  11  13  1   
 22  12  14  1   
 23  12  32  1   
 24  12  33  1   
 25  13  15  1   
 26  13  34  1   
 27  13  35  1   
 28  14  16  1   
 29  14  17  1   
 30  14  36  1   
 31  15  17  1   
 32  15  37  1   
 33  15  38  1   
 34  16  18  1   
 35  16  19  1   
 36  16  39  1   
 37  17  20  1   
 38  17  21  1   
 39  18  22  1   
 40  18  40  1   
 41  18  41  1   
 42  19  42  1   
 43  19  43  1   
 44  19  44  1   
 45  20  22  1   
 46  20  45  1   
 47  20  46  1   
 48  21  23  1   
 49  21  47  1   
 50  21  48  1   
 51  22  49  1   
 52  22  50  1   
 53  23  51  1   
@<TRIPOS>SUBSTRUCTURE
  1 ****  11 GROUP 4 **** **** 0

# MOE 2024.06 (io_trps.svl 2023.06)
