@<TRIPOS>MOLECULE
NONAME
49 52 1 0 0 
SMALL
USER_CHARGES


@<TRIPOS>ATOM
  1 S       -0.0600    -1.1710    -2.1590 S.3   1 <1>  -0.0800 
  2 C       -1.1870     0.0020    -1.5230 C.2   1 <1>   0.1980 
  3 C        1.1380     0.0800    -2.2790 C.2   1 <1>  -0.1100 
  4 N       -0.7070     1.1760    -1.4390 N.2   1 <1>  -0.5650 
  5 C       -2.5780    -0.4800    -1.1400 C.3   1 <1>   0.1640 
  6 C        0.6290     1.2570    -1.8530 C.2   1 <1>   0.1410 
  7 C       -3.2420     0.4740    -0.1500 C.ar  1 <1>  -0.1440 
  8 C        1.3390     2.5290    -1.7780 C.2   1 <1>   0.7160 
  9 C       -3.1950     0.2200     1.2140 C.ar  1 <1>  -0.1500 
 10 C       -3.8850     1.6150    -0.6040 C.ar  1 <1>  -0.1500 
 11 O        2.5500     2.5910    -1.9050 O.2   1 <1>  -0.5700 
 12 N        0.7110     3.7120    -1.4590 N.am  1 <1>  -0.6600 
 13 C       -3.7860     1.0950     2.1090 C.ar  1 <1>  -0.1500 
 14 C       -4.4770     2.4910     0.2900 C.ar  1 <1>  -0.1500 
 15 C        0.1650     3.8550    -0.0620 C.3   1 <1>   0.2200 
 16 C        1.0280     4.9430    -2.2460 C.3   1 <1>   0.1400 
 17 C       -4.4270     2.2310     1.6480 C.ar  1 <1>  -0.1500 
 18 C       -0.9520     4.9030     0.0490 C.3   1 <1>   0.1200 
 19 C        1.3130     4.1530     0.9340 C.3   1 <1>   0.3430 
 20 C        1.3320     6.1920    -1.3970 C.3   1 <1>  -0.0800 
 21 O       -0.4120     6.1720     0.2770 O.3   1 <1>  -0.5600 
 22 N        2.5640     4.6490     0.2510 N.4   1 <1>  -0.9590 
 23 C        0.0520     6.8410    -0.8460 C.3   1 <1>   0.1200 
 24 C        2.4240     6.0290    -0.3160 C.3   1 <1>   0.3430 
 25 C        3.7550     4.5350     1.1370 C.3   1 <1>   0.2630 
 26 H        2.1120    -0.1810    -2.6520 H     1 <1>   0.1500 
 27 H       -3.1770    -0.5590    -2.0280 H     1 <1>   0.0800 
 28 H       -2.5040    -1.4590    -0.7030 H     1 <1>   0.0800 
 29 H       -2.6980    -0.6580     1.5870 H     1 <1>   0.1500 
 30 H       -3.9240     1.8290    -1.6590 H     1 <1>   0.1500 
 31 H       -3.7500     0.8900     3.1650 H     1 <1>   0.1500 
 32 H       -4.9780     3.3720    -0.0720 H     1 <1>   0.1500 
 33 H       -0.2810     2.9230     0.2360 H     1 <1>   0.0800 
 34 H        1.8730     4.7480    -2.8870 H     1 <1>   0.0800 
 35 H        0.1930     5.1500    -2.8950 H     1 <1>   0.0800 
 36 H       -4.8900     2.9090     2.3440 H     1 <1>   0.1500 
 37 H       -1.5650     4.6720     0.9030 H     1 <1>   0.0800 
 38 H       -1.5840     4.9100    -0.8230 H     1 <1>   0.0800 
 39 H        1.5380     3.2380     1.4550 H     1 <1>   0.0800 
 40 H        0.9790     4.8680     1.6680 H     1 <1>   0.0800 
 41 H        1.7160     6.9190    -2.0890 H     1 <1>   0.0800 
 42 H        2.6930     4.0110    -0.5650 H     1 <1>   0.4500 
 43 H       -0.7320     6.8710    -1.5860 H     1 <1>   0.0800 
 44 H        0.2580     7.8520    -0.5410 H     1 <1>   0.0800 
 45 H        2.2280     6.7270     0.4830 H     1 <1>   0.0800 
 46 H        3.3670     6.3040    -0.7600 H     1 <1>   0.0800 
 47 H        3.6440     5.1720     1.9990 H     1 <1>   0.0800 
 48 H        4.6460     4.8240     0.6030 H     1 <1>   0.0800 
 49 H        3.8740     3.5170     1.4710 H     1 <1>   0.0800 
@<TRIPOS>BOND
  1   1   2  1   
  2   1   3  1   
  3   2   4  2   
  4   2   5  1   
  5   3   6  2   
  6   3  26  1   
  7   4   6  1   
  8   5   7  1   
  9   5  27  1   
 10   5  28  1   
 11   6   8  1   
 12   7   9  ar  
 13   7  10  ar  
 14   8  11  2   
 15   8  12  am  
 16   9  13  ar  
 17   9  29  1   
 18  10  14  ar  
 19  10  30  1   
 20  12  15  1   
 21  12  16  1   
 22  13  17  ar  
 23  13  31  1   
 24  14  17  ar  
 25  14  32  1   
 26  15  18  1   
 27  15  19  1   
 28  15  33  1   
 29  16  20  1   
 30  16  34  1   
 31  16  35  1   
 32  17  36  1   
 33  18  21  1   
 34  18  37  1   
 35  18  38  1   
 36  19  22  1   
 37  19  39  1   
 38  19  40  1   
 39  20  23  1   
 40  20  24  1   
 41  20  41  1   
 42  21  23  1   
 43  22  24  1   
 44  22  25  1   
 45  22  42  1   
 46  23  43  1   
 47  23  44  1   
 48  24  45  1   
 49  24  46  1   
 50  25  47  1   
 51  25  48  1   
 52  25  49  1   
@<TRIPOS>SUBSTRUCTURE
  1 ****  15 GROUP 4 **** **** 0

# MOE 2024.06 (io_trps.svl 2023.06)
