@<TRIPOS>MOLECULE
NONAME
54 57 1 0 0 
SMALL
USER_CHARGES


@<TRIPOS>ATOM
  1 O       -0.9160     0.2180     1.5700 O.2   1 <1>  -0.5700 
  2 C       -1.7300     0.8350     0.9120 C.2   1 <1>   0.5440 
  3 N       -2.7560     0.1360     0.3120 N.am  1 <1>  -0.6600 
  4 C       -1.5840     2.2580     0.7680 C.ar  1 <1>   0.0860 
  5 C       -3.4790     0.5810    -0.9120 C.3   1 <1>   0.1400 
  6 C       -2.9180    -1.3350     0.4840 C.3   1 <1>   0.1400 
  7 C       -2.6380     3.1450     0.8950 C.ar  1 <1>   0.1600 
  8 C       -0.3600     2.8420     0.5000 C.ar  1 <1>   0.1600 
  9 C       -4.4200    -0.5750    -1.2460 C.3   1 <1>   0.2000 
 10 C       -3.6560    -1.8170    -0.7720 C.3   1 <1>  -0.0800 
 11 N       -2.5160     4.4400     0.7360 N.ar  1 <1>  -0.6200 
 12 N       -0.1980     4.1330     0.3360 N.ar  1 <1>  -0.6200 
 13 O       -5.5750    -0.4200    -0.4930 O.3   1 <1>  -0.6800 
 14 C       -4.5370    -3.0650    -0.5520 C.3   1 <1>  -0.0170 
 15 C       -1.2940     4.8760     0.4600 C.ar  1 <1>   0.7200 
 16 C       -3.8130    -4.3780    -0.2260 C.ar  1 <1>  -0.1430 
 17 N       -1.2000     6.2090     0.3000 N.pl3 1 <1>  -0.8690 
 18 C       -4.5670    -5.5120     0.1690 C.ar  1 <1>   0.0000 
 19 C       -2.4570    -4.5350    -0.3040 C.ar  1 <1>  -0.1500 
 20 C        0.0120     7.0050     0.1060 C.3   1 <1>   0.2890 
 21 C       -3.8650    -6.7050     0.4770 C.ar  1 <1>   0.3100 
 22 C       -5.9790    -5.5370     0.2720 C.ar  1 <1>  -0.1500 
 23 C       -1.8630    -5.7620     0.0170 C.ar  1 <1>   0.1600 
 24 C        0.2610     7.8010     1.3800 C.3   1 <1>  -0.2400 
 25 C       -0.2190     7.9240    -1.0870 C.3   1 <1>  -0.2400 
 26 N       -2.5170    -6.8120     0.3960 N.ar  1 <1>  -0.6200 
 27 C       -4.5880    -7.8390     0.8800 C.ar  1 <1>  -0.1500 
 28 C       -6.6540    -6.6600     0.6660 C.ar  1 <1>  -0.1500 
 29 C       -5.9530    -7.8270     0.9770 C.ar  1 <1>  -0.1500 
 30 H       -4.0270     1.4940    -0.7590 H     1 <1>   0.0800 
 31 H       -2.7700     0.7160    -1.7100 H     1 <1>   0.0800 
 32 H       -1.9620    -1.8190     0.5910 H     1 <1>   0.0800 
 33 H       -3.5030    -1.5200     1.3690 H     1 <1>   0.0800 
 34 H       -3.6140     2.7620     1.1390 H     1 <1>   0.1500 
 35 H        0.5080     2.2090     0.4190 H     1 <1>   0.1500 
 36 H       -4.6930    -0.6110    -2.2880 H     1 <1>   0.0800 
 37 H       -2.9240    -2.0370    -1.5280 H     1 <1>   0.0800 
 38 H       -5.3280    -0.2720     0.4410 H     1 <1>   0.4000 
 39 H       -5.1270    -3.2240    -1.4380 H     1 <1>   0.0800 
 40 H       -5.2190    -2.8540     0.2530 H     1 <1>   0.0800 
 41 H       -2.0620     6.7210     0.4620 H     1 <1>   0.4000 
 42 H       -1.7950    -3.7500    -0.6100 H     1 <1>   0.1500 
 43 H        0.8570     6.3650    -0.0930 H     1 <1>   0.0800 
 44 H       -6.5450    -4.6570     0.0330 H     1 <1>   0.1500 
 45 H       -0.7910    -5.8350    -0.0560 H     1 <1>   0.1500 
 46 H       -0.5700     8.4480     1.5950 H     1 <1>   0.0800 
 47 H        1.1460     8.4000     1.2710 H     1 <1>   0.0800 
 48 H        0.4080     7.1260     2.2040 H     1 <1>   0.0800 
 49 H       -1.0560     8.5750    -0.9100 H     1 <1>   0.0800 
 50 H       -0.4050     7.3360    -1.9670 H     1 <1>   0.0800 
 51 H        0.6540     8.5250    -1.2600 H     1 <1>   0.0800 
 52 H       -4.0270    -8.7250     1.1110 H     1 <1>   0.1500 
 53 H       -7.7280    -6.6610     0.7400 H     1 <1>   0.1500 
 54 H       -6.4940    -8.7040     1.2870 H     1 <1>   0.1500 
@<TRIPOS>BOND
  1   1   2  2   
  2   2   3  am  
  3   2   4  1   
  4   3   5  1   
  5   3   6  1   
  6   4   7  ar  
  7   4   8  ar  
  8   5   9  1   
  9   5  30  1   
 10   5  31  1   
 11   6  10  1   
 12   6  32  1   
 13   6  33  1   
 14   7  11  ar  
 15   7  34  1   
 16   8  12  ar  
 17   8  35  1   
 18   9  10  1   
 19   9  13  1   
 20   9  36  1   
 21  10  14  1   
 22  10  37  1   
 23  11  15  ar  
 24  12  15  ar  
 25  13  38  1   
 26  14  16  1   
 27  14  39  1   
 28  14  40  1   
 29  15  17  1   
 30  16  18  ar  
 31  16  19  ar  
 32  17  20  1   
 33  17  41  1   
 34  18  21  ar  
 35  18  22  ar  
 36  19  23  ar  
 37  19  42  1   
 38  20  24  1   
 39  20  25  1   
 40  20  43  1   
 41  21  26  ar  
 42  21  27  ar  
 43  22  28  ar  
 44  22  44  1   
 45  23  26  ar  
 46  23  45  1   
 47  24  46  1   
 48  24  47  1   
 49  24  48  1   
 50  25  49  1   
 51  25  50  1   
 52  25  51  1   
 53  27  29  ar  
 54  27  52  1   
 55  28  29  ar  
 56  28  53  1   
 57  29  54  1   
@<TRIPOS>SUBSTRUCTURE
  1 ****   3 GROUP 4 **** **** 0

# MOE 2024.06 (io_trps.svl 2023.06)
