@<TRIPOS>MOLECULE
NONAME
48 51 1 0 0 
SMALL
USER_CHARGES


@<TRIPOS>ATOM
  1 S        0.5960    -0.6290     0.8580 S.3   1 <1>  -0.0800 
  2 C        0.0480    -2.3040     0.8280 C.ar  1 <1>   0.2970 
  3 C       -0.7490    -0.1140    -0.1650 C.2   1 <1>  -0.1400 
  4 N        0.6760    -3.2850     1.4390 N.ar  1 <1>  -0.5670 
  5 C       -1.1000    -2.4170     0.0860 C.ar  1 <1>   0.0000 
  6 C       -1.5300    -1.1630    -0.4770 C.2   1 <1>  -0.1500 
  7 C       -0.8130     1.3560    -0.5230 C.3   1 <1>  -0.0600 
  8 C        0.0830    -4.4500     1.2670 C.ar  1 <1>   0.4700 
  9 C       -1.6270    -3.7060     0.0050 C.ar  1 <1>   0.4100 
 10 N       -1.0270    -4.7320     0.5890 N.ar  1 <1>  -0.6200 
 11 N       -2.8030    -3.9740    -0.6660 N.pl3 1 <1>  -0.8380 
 12 C       -2.9550    -5.2710    -1.3740 C.3   1 <1>   0.2090 
 13 C       -4.0700    -3.4030    -0.1350 C.3   1 <1>   0.2090 
 14 C       -3.6050    -6.3150    -0.4330 C.3   1 <1>   0.4230 
 15 C       -4.7100    -4.4250     0.8110 C.3   1 <1>  -0.1600 
 16 N       -3.6640    -7.7280    -1.0090 N.4   1 <1>  -0.9590 
 17 C       -4.9590    -5.8140     0.1550 C.3   1 <1>   0.0000 
 18 C       -4.6340    -8.6330    -0.3130 C.3   1 <1>   0.3430 
 19 C       -3.8610    -7.8110    -2.4930 C.3   1 <1>   0.2630 
 20 C       -5.4400    -6.8030     1.2590 C.3   1 <1>  -0.1600 
 21 C       -6.0230    -5.6960    -0.9730 C.3   1 <1>   0.1200 
 22 C       -4.8290    -8.2120     1.1420 C.3   1 <1>  -0.1600 
 23 O       -7.1700    -5.0580    -0.5320 O.3   1 <1>  -0.6800 
 24 H       -2.4090    -1.1250    -1.0960 H     1 <1>   0.1500 
 25 H       -1.6670     1.5500    -1.1460 H     1 <1>   0.0800 
 26 H        0.0770     1.6420    -1.0540 H     1 <1>   0.0800 
 27 H       -0.8920     1.9480     0.3700 H     1 <1>   0.0800 
 28 H        0.5650    -5.2870     1.7440 H     1 <1>   0.1500 
 29 H       -3.5490    -5.1090    -2.2550 H     1 <1>   0.0800 
 30 H       -1.9820    -5.6160    -1.6800 H     1 <1>   0.0800 
 31 H       -3.8690    -2.4930     0.4060 H     1 <1>   0.0800 
 32 H       -4.7340    -3.1640    -0.9490 H     1 <1>   0.0800 
 33 H       -2.9400    -6.3650     0.4130 H     1 <1>   0.0800 
 34 H       -4.0480    -4.5320     1.6540 H     1 <1>   0.0800 
 35 H       -5.6280    -4.0130     1.1920 H     1 <1>   0.0800 
 36 H       -2.7280    -8.1130    -0.8110 H     1 <1>   0.4500 
 37 H       -5.5910    -8.5950    -0.8090 H     1 <1>   0.0800 
 38 H       -4.2800    -9.6510    -0.3550 H     1 <1>   0.0800 
 39 H       -4.8070    -7.3780    -2.7740 H     1 <1>   0.0800 
 40 H       -3.8460    -8.8400    -2.8150 H     1 <1>   0.0800 
 41 H       -3.0740    -7.2860    -3.0100 H     1 <1>   0.0800 
 42 H       -5.1910    -6.4280     2.2380 H     1 <1>   0.0800 
 43 H       -6.5130    -6.8860     1.2380 H     1 <1>   0.0800 
 44 H       -6.3150    -6.6630    -1.3430 H     1 <1>   0.0800 
 45 H       -5.6550    -5.1150    -1.8000 H     1 <1>   0.0800 
 46 H       -5.4770    -8.9180     1.6330 H     1 <1>   0.0800 
 47 H       -3.8800    -8.2490     1.6500 H     1 <1>   0.0800 
 48 H       -7.6110    -5.5460     0.1920 H     1 <1>   0.4000 
@<TRIPOS>BOND
  1   1   2  1   
  2   1   3  1   
  3   2   4  ar  
  4   2   5  ar  
  5   3   6  2   
  6   3   7  1   
  7   4   8  ar  
  8   5   6  1   
  9   5   9  ar  
 10   6  24  1   
 11   7  25  1   
 12   7  26  1   
 13   7  27  1   
 14   8  10  ar  
 15   8  28  1   
 16   9  10  ar  
 17   9  11  1   
 18  11  12  1   
 19  11  13  1   
 20  12  14  1   
 21  12  29  1   
 22  12  30  1   
 23  13  15  1   
 24  13  31  1   
 25  13  32  1   
 26  14  16  1   
 27  14  17  1   
 28  14  33  1   
 29  15  17  1   
 30  15  34  1   
 31  15  35  1   
 32  16  18  1   
 33  16  19  1   
 34  16  36  1   
 35  17  20  1   
 36  17  21  1   
 37  18  22  1   
 38  18  37  1   
 39  18  38  1   
 40  19  39  1   
 41  19  40  1   
 42  19  41  1   
 43  20  22  1   
 44  20  42  1   
 45  20  43  1   
 46  21  23  1   
 47  21  44  1   
 48  21  45  1   
 49  22  46  1   
 50  22  47  1   
 51  23  48  1   
@<TRIPOS>SUBSTRUCTURE
  1 ****  11 GROUP 4 **** **** 0

# MOE 2024.06 (io_trps.svl 2023.06)
