@<TRIPOS>MOLECULE
NONAME
54 57 1 0 0 
SMALL
USER_CHARGES


@<TRIPOS>ATOM
  1 O        0.4280    -0.4590     2.8540 O.3   1 <1>  -0.8290 
  2 C        1.4260    -0.9790     2.3390 C.ar  1 <1>   0.4490 
  3 N        1.3490    -2.2900     2.0740 N.ar  1 <1>  -0.6200 
  4 N        2.4790    -0.1830     2.0810 N.ar  1 <1>  -0.6200 
  5 C        2.3730    -2.8430     1.4530 C.ar  1 <1>   0.3960 
  6 C        3.4970    -0.7440     1.4990 C.ar  1 <1>   0.1660 
  7 C        2.3520    -4.2600     1.0570 C.2   1 <1>   0.5440 
  8 C        3.4920    -2.0760     1.1630 C.ar  1 <1>  -0.1500 
  9 C        4.7090     0.1220     1.1960 C.3   1 <1>  -0.0170 
 10 O        3.4110    -4.8560     0.9180 O.2   1 <1>  -0.5700 
 11 N        1.1950    -4.9830     0.7920 N.am  1 <1>  -0.6600 
 12 C        4.8700     0.4250    -0.3080 C.3   1 <1>  -0.0800 
 13 C        1.1730    -6.4770     0.7590 C.3   1 <1>   0.1400 
 14 C       -0.1640    -4.3700     0.6310 C.3   1 <1>   0.1400 
 15 C        6.1700     1.1990    -0.5600 C.3   1 <1>  -0.2400 
 16 C        3.6780     1.2260    -0.8510 C.3   1 <1>  -0.2400 
 17 C        0.3310    -6.9980    -0.4180 C.3   1 <1>   0.3430 
 18 C       -0.9660    -5.0340    -0.5120 C.3   1 <1>   0.2950 
 19 O       -0.9500    -6.4280    -0.3880 O.3   1 <1>  -0.5600 
 20 C        0.2090    -8.5190    -0.3590 C.ar  1 <1>  -0.1430 
 21 C       -2.4440    -4.6100    -0.5900 C.3   1 <1>  -0.1950 
 22 C       -0.7770    -9.1330     0.4010 C.ar  1 <1>  -0.1500 
 23 C        1.1050    -9.3100    -1.0660 C.ar  1 <1>  -0.1500 
 24 C       -2.9390    -3.2670    -0.1440 C.3   1 <1>  -0.2000 
 25 C       -3.3430    -4.5070     0.6030 C.3   1 <1>  -0.2000 
 26 C       -0.8660   -10.5130     0.4570 C.ar  1 <1>  -0.1500 
 27 C        1.0170   -10.6900    -1.0120 C.ar  1 <1>  -0.1500 
 28 C        0.0320   -11.2930    -0.2500 C.ar  1 <1>  -0.1500 
 29 H        4.3370    -2.5220     0.6790 H     1 <1>   0.1500 
 30 H        4.6230     1.0450     1.7440 H     1 <1>   0.0800 
 31 H        5.5830    -0.3860     1.5590 H     1 <1>   0.0800 
 32 H        4.9230    -0.5080    -0.8420 H     1 <1>   0.0800 
 33 H        2.1700    -6.8710     0.6750 H     1 <1>   0.0800 
 34 H        0.7530    -6.8410     1.6790 H     1 <1>   0.0800 
 35 H       -0.6960    -4.4540     1.5610 H     1 <1>   0.0800 
 36 H       -0.0770    -3.3250     0.3950 H     1 <1>   0.0800 
 37 H        6.1530     2.1430    -0.0440 H     1 <1>   0.0800 
 38 H        6.2940     1.3850    -1.6130 H     1 <1>   0.0800 
 39 H        7.0170     0.6320    -0.2150 H     1 <1>   0.0800 
 40 H        3.5760     2.1560    -0.3210 H     1 <1>   0.0800 
 41 H        2.7640     0.6710    -0.7260 H     1 <1>   0.0800 
 42 H        3.8060     1.4340    -1.8980 H     1 <1>   0.0800 
 43 H        0.7980    -6.7150    -1.3450 H     1 <1>   0.0800 
 44 H       -0.4950    -4.7800    -1.4460 H     1 <1>   0.0800 
 45 H       -2.8920    -5.0010    -1.4870 H     1 <1>   0.1000 
 46 H       -1.4810    -8.5320     0.9510 H     1 <1>   0.1500 
 47 H        1.8780    -8.8560    -1.6610 H     1 <1>   0.1500 
 48 H       -2.2880    -2.5720     0.3630 H     1 <1>   0.1000 
 49 H       -3.6780    -2.7620    -0.7420 H     1 <1>   0.1000 
 50 H       -4.3540    -4.8640     0.5120 H     1 <1>   0.1000 
 51 H       -2.9420    -4.6690     1.5890 H     1 <1>   0.1000 
 52 H       -1.6350   -10.9770     1.0480 H     1 <1>   0.1500 
 53 H        1.7150   -11.2960    -1.5630 H     1 <1>   0.1500 
 54 H       -0.0370   -12.3660    -0.2080 H     1 <1>   0.1500 
@<TRIPOS>BOND
  1   1   2  1   
  2   2   3  ar  
  3   2   4  ar  
  4   3   5  ar  
  5   4   6  ar  
  6   5   7  1   
  7   5   8  ar  
  8   6   8  ar  
  9   6   9  1   
 10   7  10  2   
 11   7  11  am  
 12   8  29  1   
 13   9  12  1   
 14   9  30  1   
 15   9  31  1   
 16  11  13  1   
 17  11  14  1   
 18  12  15  1   
 19  12  16  1   
 20  12  32  1   
 21  13  17  1   
 22  13  33  1   
 23  13  34  1   
 24  14  18  1   
 25  14  35  1   
 26  14  36  1   
 27  15  37  1   
 28  15  38  1   
 29  15  39  1   
 30  16  40  1   
 31  16  41  1   
 32  16  42  1   
 33  17  19  1   
 34  17  20  1   
 35  17  43  1   
 36  18  19  1   
 37  18  21  1   
 38  18  44  1   
 39  20  22  ar  
 40  20  23  ar  
 41  21  24  1   
 42  21  25  1   
 43  21  45  1   
 44  22  26  ar  
 45  22  46  1   
 46  23  27  ar  
 47  23  47  1   
 48  24  25  1   
 49  24  48  1   
 50  24  49  1   
 51  25  50  1   
 52  25  51  1   
 53  26  28  ar  
 54  26  52  1   
 55  27  28  ar  
 56  27  53  1   
 57  28  54  1   
@<TRIPOS>SUBSTRUCTURE
  1 ****  11 GROUP 4 **** **** 0

# MOE 2024.06 (io_trps.svl 2023.06)
