@<TRIPOS>MOLECULE
NONAME
34 34 1 0 0 
SMALL
USER_CHARGES


@<TRIPOS>ATOM
  1 S        0.8710     0.0980    -0.6290 S.o2  1 <1>   1.3330 
  2 O        1.2100    -1.2300    -0.1860 O.2   1 <1>  -0.6500 
  3 O        1.3050     0.5690    -1.9210 O.2   1 <1>  -0.6500 
  4 N        1.5100     1.1190     0.5330 N.am  1 <1>  -0.9140 
  5 C       -0.8830     0.3390    -0.4510 C.3   1 <1>  -0.1350 
  6 C        1.7570     2.4860     0.0680 C.3   1 <1>   0.1960 
  7 C        2.2090     3.3800     1.2270 C.3   1 <1>   0.2090 
  8 N        2.3570     4.7830     0.7640 N.pl3 1 <1>  -0.8690 
  9 C        3.4990     5.3000     0.1980 C.ar  1 <1>   0.4100 
 10 N        4.3940     4.4040    -0.2150 N.ar  1 <1>  -0.6200 
 11 C        3.6680     6.6940     0.0700 C.ar  1 <1>   0.0860 
 12 C        5.4950     4.8760    -0.7620 C.ar  1 <1>   0.1600 
 13 C        2.6500     7.6220     0.5080 C.2   1 <1>   0.5440 
 14 C        4.8480     7.1490    -0.5060 C.ar  1 <1>  -0.1500 
 15 C        5.7710     6.2210    -0.9270 C.ar  1 <1>  -0.1500 
 16 O        2.0370     7.4520     1.5470 O.2   1 <1>  -0.5700 
 17 N        2.3510     8.7220    -0.2510 N.am  1 <1>  -0.7300 
 18 C        1.3310     9.7510     0.0830 C.3   1 <1>   0.0600 
 19 H        2.4150     0.6970     0.7430 H     1 <1>   0.4200 
 20 H       -1.4110    -0.2990    -1.1310 H     1 <1>   0.0800 
 21 H       -1.1420     1.3580    -0.6620 H     1 <1>   0.0800 
 22 H       -1.1870     0.1040     0.5500 H     1 <1>   0.0800 
 23 H        0.8520     2.8940    -0.3490 H     1 <1>   0.0800 
 24 H        2.5170     2.4820    -0.6970 H     1 <1>   0.0800 
 25 H        3.1480     3.0280     1.6170 H     1 <1>   0.0800 
 26 H        1.4740     3.3480     2.0130 H     1 <1>   0.0800 
 27 H        1.8160     5.4780     1.3080 H     1 <1>   0.4000 
 28 H        6.2220     4.1540    -1.0960 H     1 <1>   0.1500 
 29 H        5.0380     8.2030    -0.6130 H     1 <1>   0.1500 
 30 H        6.6980     6.5290    -1.3780 H     1 <1>   0.1500 
 31 H        2.7710     8.8040    -1.1790 H     1 <1>   0.3700 
 32 H        0.9730     9.6150     1.0900 H     1 <1>   0.0800 
 33 H        0.4980     9.6690    -0.5940 H     1 <1>   0.0800 
 34 H        1.7630    10.7330     0.0000 H     1 <1>   0.0800 
@<TRIPOS>BOND
  1   1   2  2   
  2   1   3  2   
  3   1   4  am  
  4   1   5  1   
  5   4   6  1   
  6   4  19  1   
  7   5  20  1   
  8   5  21  1   
  9   5  22  1   
 10   6   7  1   
 11   6  23  1   
 12   6  24  1   
 13   7   8  1   
 14   7  25  1   
 15   7  26  1   
 16   8   9  1   
 17   8  27  1   
 18   9  10  ar  
 19   9  11  ar  
 20  10  12  ar  
 21  11  13  1   
 22  11  14  ar  
 23  12  15  ar  
 24  12  28  1   
 25  13  16  2   
 26  13  17  am  
 27  14  15  ar  
 28  14  29  1   
 29  15  30  1   
 30  17  18  1   
 31  17  31  1   
 32  18  32  1   
 33  18  33  1   
 34  18  34  1   
@<TRIPOS>SUBSTRUCTURE
  1 ****   8 GROUP 4 **** **** 0

# MOE 2024.06 (io_trps.svl 2023.06)
