@<TRIPOS>MOLECULE
NONAME
42 44 1 0 0 
SMALL
USER_CHARGES


@<TRIPOS>ATOM
  1 O       -0.3830     0.1750    -0.2600 O.2   1 <1>  -0.5700 
  2 C       -1.3900     0.7930     0.0320 C.2   1 <1>   0.7160 
  3 N       -2.5620     0.0950     0.2150 N.am  1 <1>  -0.6600 
  4 C       -1.3400     2.2290     0.1590 C.2   1 <1>  -0.0860 
  5 C       -3.9140     0.6660    -0.0240 C.3   1 <1>   0.1400 
  6 C       -2.6070    -1.3870     0.1410 C.3   1 <1>   0.1400 
  7 C       -2.0680     3.0160     1.0550 C.2   1 <1>   0.1390 
  8 C       -0.5970     3.1470    -0.5170 C.2   1 <1>  -0.3020 
  9 C       -4.7510    -0.5120    -0.5200 C.3   1 <1>   0.2000 
 10 C       -4.0920    -1.7500     0.0810 C.3   1 <1>  -0.0800 
 11 N       -1.8240     4.2820     0.9340 N.2   1 <1>  -0.7070 
 12 N       -0.9020     4.3630    -0.0400 N.pl3 1 <1>   0.3140 
 13 O       -6.0680    -0.4180    -0.1020 O.3   1 <1>  -0.6800 
 14 C       -4.3790    -3.0320    -0.7130 C.3   1 <1>   0.0200 
 15 C       -0.3360     5.6550    -0.4760 C.3   1 <1>   0.0960 
 16 C       -3.6300    -4.2110    -0.1240 C.2   1 <1>  -0.0400 
 17 C        1.0200     5.9170     0.1930 C.3   1 <1>  -0.2400 
 18 O       -3.8660    -4.5880     1.1040 O.3   1 <1>  -0.0190 
 19 C       -2.6860    -5.0190    -0.6290 C.2   1 <1>  -0.1500 
 20 N       -3.1270    -5.6010     1.4500 N.2   1 <1>  -0.4100 
 21 C       -2.4060    -5.8840     0.4250 C.2   1 <1>   0.1080 
 22 C       -1.3930    -7.0060     0.3820 C.3   1 <1>  -0.0590 
 23 H       -4.3060     1.0450     0.9030 H     1 <1>   0.0800 
 24 H       -3.8770     1.4480    -0.7630 H     1 <1>   0.0800 
 25 H       -2.0950    -1.7120    -0.7490 H     1 <1>   0.0800 
 26 H       -2.1290    -1.8260     1.0020 H     1 <1>   0.0800 
 27 H       -2.7580     2.6190     1.7790 H     1 <1>   0.1500 
 28 H        0.1220     2.9770    -1.2970 H     1 <1>   0.1500 
 29 H       -4.7360    -0.5390    -1.5970 H     1 <1>   0.0800 
 30 H       -4.4270    -1.8770     1.0960 H     1 <1>   0.0800 
 31 H       -6.1260    -0.4710     0.8720 H     1 <1>   0.4000 
 32 H       -4.0860    -2.9040    -1.7400 H     1 <1>   0.0800 
 33 H       -5.4350    -3.2410    -0.6910 H     1 <1>   0.0800 
 34 H       -0.2270     5.6370    -1.5450 H     1 <1>   0.0800 
 35 H       -1.0320     6.4310    -0.2140 H     1 <1>   0.0800 
 36 H        1.7250     5.1500    -0.0730 H     1 <1>   0.0800 
 37 H        0.9030     5.9380     1.2620 H     1 <1>   0.0800 
 38 H        1.4070     6.8670    -0.1280 H     1 <1>   0.0800 
 39 H       -2.2280    -5.0280    -1.6010 H     1 <1>   0.1500 
 40 H       -1.6480    -7.6980    -0.3990 H     1 <1>   0.0800 
 41 H       -1.3850    -7.5290     1.3210 H     1 <1>   0.0800 
 42 H       -0.4140    -6.6060     0.1980 H     1 <1>   0.0800 
@<TRIPOS>BOND
  1   1   2  2   
  2   2   3  am  
  3   2   4  1   
  4   3   5  1   
  5   3   6  1   
  6   4   7  1   
  7   4   8  2   
  8   5   9  1   
  9   5  23  1   
 10   5  24  1   
 11   6  10  1   
 12   6  25  1   
 13   6  26  1   
 14   7  11  2   
 15   7  27  1   
 16   8  12  1   
 17   8  28  1   
 18   9  10  1   
 19   9  13  1   
 20   9  29  1   
 21  10  14  1   
 22  10  30  1   
 23  11  12  1   
 24  12  15  1   
 25  13  31  1   
 26  14  16  1   
 27  14  32  1   
 28  14  33  1   
 29  15  17  1   
 30  15  34  1   
 31  15  35  1   
 32  16  18  1   
 33  16  19  2   
 34  17  36  1   
 35  17  37  1   
 36  17  38  1   
 37  18  20  1   
 38  19  21  1   
 39  19  39  1   
 40  20  21  2   
 41  21  22  1   
 42  22  40  1   
 43  22  41  1   
 44  22  42  1   
@<TRIPOS>SUBSTRUCTURE
  1 ****   3 GROUP 4 **** **** 0

# MOE 2024.06 (io_trps.svl 2023.06)
