@<TRIPOS>MOLECULE
NONAME
48 51 1 0 0 
SMALL
USER_CHARGES


@<TRIPOS>ATOM
  1 S       -2.1580    -0.4170    -2.0880 S.3   1 <1>  -0.0800 
  2 C       -2.7570     0.6820    -0.8660 C.2   1 <1>   0.1980 
  3 C       -2.2460    -1.7070    -0.9270 C.2   1 <1>  -0.1100 
  4 N       -2.9940     0.1390     0.2600 N.2   1 <1>  -0.5650 
  5 C       -2.9300     2.1300    -1.2590 C.3   1 <1>  -0.0600 
  6 C       -2.7040    -1.2160     0.2370 C.2   1 <1>   0.0460 
  7 C       -2.9450    -1.9900     1.5210 C.3   1 <1>   0.0820 
  8 C       -3.1860    -3.4700     1.2710 C.2   1 <1>   0.5690 
  9 O       -2.3530    -4.2440     1.6810 O.2   1 <1>  -0.5700 
 10 N       -4.3090    -3.9080     0.6080 N.am  1 <1>  -0.6600 
 11 C       -5.3810    -3.0320     0.0340 C.3   1 <1>   0.1400 
 12 C       -4.5540    -5.3630     0.3620 C.3   1 <1>   0.1400 
 13 C       -6.7790    -3.4940     0.4890 C.3   1 <1>   0.1900 
 14 C       -5.9740    -5.7670     0.7920 C.3   1 <1>   0.1100 
 15 N       -7.0000    -4.9200     0.1430 N.3   1 <1>  -0.8100 
 16 C       -7.8690    -2.6070    -0.1430 C.3   1 <1>   0.1200 
 17 C       -8.3740    -5.3260     0.5230 C.3   1 <1>   0.3330 
 18 O       -9.1390    -3.0260     0.2650 O.3   1 <1>  -0.5600 
 19 C       -8.6770    -6.7480     0.0530 C.ar  1 <1>  -0.1440 
 20 C       -9.4170    -4.3580    -0.0780 C.3   1 <1>   0.1200 
 21 C       -8.3750    -7.1500    -1.2410 C.ar  1 <1>  -0.1500 
 22 C       -9.2660    -7.6570     0.9200 C.ar  1 <1>  -0.1500 
 23 C       -8.6570    -8.4370    -1.6630 C.ar  1 <1>  -0.1500 
 24 C       -9.5480    -8.9460     0.5010 C.ar  1 <1>  -0.1500 
 25 C       -9.2440    -9.3360    -0.7910 C.ar  1 <1>  -0.1500 
 26 H       -1.9460    -2.6920    -1.2360 H     1 <1>   0.1500 
 27 H       -3.3100     2.6900    -0.4230 H     1 <1>   0.0800 
 28 H       -3.6230     2.2060    -2.0760 H     1 <1>   0.0800 
 29 H       -1.9840     2.5420    -1.5550 H     1 <1>   0.0800 
 30 H       -3.7970    -1.5870     2.0340 H     1 <1>   0.0800 
 31 H       -2.0930    -1.8680     2.1630 H     1 <1>   0.0800 
 32 H       -5.2440    -2.0080     0.3270 H     1 <1>   0.0800 
 33 H       -5.3280    -3.0770    -1.0390 H     1 <1>   0.0800 
 34 H       -4.4340    -5.5670    -0.6870 H     1 <1>   0.0800 
 35 H       -3.8410    -5.9640     0.9000 H     1 <1>   0.0800 
 36 H       -6.8360    -3.3710     1.5580 H     1 <1>   0.0800 
 37 H       -6.0540    -5.6900     1.8630 H     1 <1>   0.0800 
 38 H       -6.1270    -6.7970     0.5210 H     1 <1>   0.0800 
 39 H       -7.8200    -2.6510    -1.2180 H     1 <1>   0.0800 
 40 H       -7.7480    -1.5850     0.1690 H     1 <1>   0.0800 
 41 H       -8.4670    -5.2840     1.5950 H     1 <1>   0.0800 
 42 H      -10.3960    -4.5970     0.2940 H     1 <1>   0.0800 
 43 H       -9.4270    -4.4410    -1.1510 H     1 <1>   0.0800 
 44 H       -7.9120    -6.4540    -1.9200 H     1 <1>   0.1500 
 45 H       -9.5090    -7.3680     1.9280 H     1 <1>   0.1500 
 46 H       -8.4180    -8.7380    -2.6680 H     1 <1>   0.1500 
 47 H      -10.0050    -9.6450     1.1790 H     1 <1>   0.1500 
 48 H       -9.4640   -10.3380    -1.1180 H     1 <1>   0.1500 
@<TRIPOS>BOND
  1   1   2  1   
  2   1   3  1   
  3   2   4  2   
  4   2   5  1   
  5   3   6  2   
  6   3  26  1   
  7   4   6  1   
  8   5  27  1   
  9   5  28  1   
 10   5  29  1   
 11   6   7  1   
 12   7   8  1   
 13   7  30  1   
 14   7  31  1   
 15   8   9  2   
 16   8  10  am  
 17  10  11  1   
 18  10  12  1   
 19  11  13  1   
 20  11  32  1   
 21  11  33  1   
 22  12  14  1   
 23  12  34  1   
 24  12  35  1   
 25  13  15  1   
 26  13  16  1   
 27  13  36  1   
 28  14  15  1   
 29  14  37  1   
 30  14  38  1   
 31  15  17  1   
 32  16  18  1   
 33  16  39  1   
 34  16  40  1   
 35  17  19  1   
 36  17  20  1   
 37  17  41  1   
 38  18  20  1   
 39  19  21  ar  
 40  19  22  ar  
 41  20  42  1   
 42  20  43  1   
 43  21  23  ar  
 44  21  44  1   
 45  22  24  ar  
 46  22  45  1   
 47  23  25  ar  
 48  23  46  1   
 49  24  25  ar  
 50  24  47  1   
 51  25  48  1   
@<TRIPOS>SUBSTRUCTURE
  1 ****  11 GROUP 4 **** **** 0

# MOE 2024.06 (io_trps.svl 2023.06)
