@<TRIPOS>MOLECULE
NONAME
56 60 1 0 0 
SMALL
USER_CHARGES


@<TRIPOS>ATOM
  1 O       -2.0180    -0.1990     2.2880 O.3   1 <1>  -0.3630 
  2 C       -2.8200    -1.2290     1.9830 C.ar  1 <1>   0.0830 
  3 C       -1.0010    -0.0720     1.3050 C.3   1 <1>   0.1200 
  4 C       -2.4720    -1.8530     0.8150 C.ar  1 <1>  -0.1440 
  5 C       -3.8930    -1.6570     2.7390 C.ar  1 <1>  -0.1500 
  6 C       -1.2640    -1.1630     0.2500 C.3   1 <1>  -0.0160 
  7 C       -3.1980    -2.9320     0.3510 C.ar  1 <1>  -0.1500 
  8 C       -4.6290    -2.7400     2.2860 C.ar  1 <1>  -0.1500 
  9 C       -4.2920    -3.3740     1.0900 C.ar  1 <1>  -0.1440 
 10 C       -5.1260    -4.5340     0.5860 C.3   1 <1>   0.4870 
 11 N       -6.0200    -4.0150    -0.4820 N.4   1 <1>  -0.9590 
 12 C       -7.0480    -3.0760     0.0900 C.3   1 <1>   0.3430 
 13 C       -6.6600    -5.1090    -1.2630 C.3   1 <1>   0.3430 
 14 C       -7.9060    -2.4220    -1.0050 C.3   1 <1>   0.1440 
 15 C       -7.4750    -4.5120    -2.4140 C.3   1 <1>  -0.1600 
 16 C       -8.9880    -1.6210    -0.3260 C.ar  1 <1>   0.1670 
 17 C       -8.5260    -3.5010    -1.9180 C.3   1 <1>  -0.1600 
 18 C       -7.1360    -1.3390    -1.8090 C.3   1 <1>  -0.1600 
 19 N       -9.7370    -2.0730     0.6450 N.ar  1 <1>  -0.6200 
 20 C       -9.0770    -0.3590    -0.8260 C.ar  1 <1>  -0.1430 
 21 C       -8.0770    -0.1230    -1.9290 C.3   1 <1>  -0.0170 
 22 C      -10.6230    -1.1940     1.1240 C.ar  1 <1>   0.7200 
 23 C      -10.0160     0.4730    -0.2720 C.ar  1 <1>   0.1600 
 24 N      -10.7910     0.0640     0.7050 N.ar  1 <1>  -0.6200 
 25 N      -11.4330    -1.6280     2.1530 N.pl3 1 <1>  -0.8380 
 26 C      -11.7870    -3.0620     2.3380 C.3   1 <1>   0.1290 
 27 C      -12.2040    -0.6700     2.9930 C.3   1 <1>   0.1290 
 28 H       -0.0500    -0.2110     1.7890 H     1 <1>   0.0800 
 29 H       -1.0630     0.9160     0.8830 H     1 <1>   0.0800 
 30 H       -4.1350    -1.1500     3.6560 H     1 <1>   0.1500 
 31 H       -0.4260    -1.8320     0.1750 H     1 <1>   0.0800 
 32 H       -1.4720    -0.7250    -0.7090 H     1 <1>   0.0800 
 33 H       -2.9020    -3.4110    -0.5660 H     1 <1>   0.1500 
 34 H       -5.4640    -3.0770     2.8770 H     1 <1>   0.1500 
 35 H       -5.7040    -4.9580     1.3910 H     1 <1>   0.0800 
 36 H       -4.4730    -5.2950     0.1910 H     1 <1>   0.0800 
 37 H       -5.4250    -3.4610    -1.1090 H     1 <1>   0.4500 
 38 H       -6.5700    -2.2960     0.6610 H     1 <1>   0.0800 
 39 H       -7.7020    -3.6160     0.7560 H     1 <1>   0.0800 
 40 H       -7.3130    -5.6810    -0.6220 H     1 <1>   0.0800 
 41 H       -5.9080    -5.7720    -1.6610 H     1 <1>   0.0800 
 42 H       -7.9770    -5.3100    -2.9350 H     1 <1>   0.0800 
 43 H       -6.8100    -4.0450    -3.1190 H     1 <1>   0.0800 
 44 H       -9.0210    -3.0370    -2.7550 H     1 <1>   0.0800 
 45 H       -9.2800    -4.0330    -1.3610 H     1 <1>   0.0800 
 46 H       -6.8220    -1.6790    -2.7800 H     1 <1>   0.0800 
 47 H       -6.2640    -1.0280    -1.2580 H     1 <1>   0.0800 
 48 H       -8.5830    -0.1210    -2.8790 H     1 <1>   0.0800 
 49 H       -7.5490     0.8050    -1.7950 H     1 <1>   0.0800 
 50 H      -10.1330     1.4820    -0.6280 H     1 <1>   0.1500 
 51 H      -11.5360    -3.6350     1.4630 H     1 <1>   0.0800 
 52 H      -12.8450    -3.1590     2.5100 H     1 <1>   0.0800 
 53 H      -11.2530    -3.4580     3.1830 H     1 <1>   0.0800 
 54 H      -11.6670     0.2570     3.0950 H     1 <1>   0.0800 
 55 H      -12.3610    -1.0810     3.9740 H     1 <1>   0.0800 
 56 H      -13.1570    -0.4720     2.5320 H     1 <1>   0.0800 
@<TRIPOS>BOND
  1   1   2  1   
  2   1   3  1   
  3   2   4  ar  
  4   2   5  ar  
  5   3   6  1   
  6   3  28  1   
  7   3  29  1   
  8   4   6  1   
  9   4   7  ar  
 10   5   8  ar  
 11   5  30  1   
 12   6  31  1   
 13   6  32  1   
 14   7   9  ar  
 15   7  33  1   
 16   8   9  ar  
 17   8  34  1   
 18   9  10  1   
 19  10  11  1   
 20  10  35  1   
 21  10  36  1   
 22  11  12  1   
 23  11  13  1   
 24  11  37  1   
 25  12  14  1   
 26  12  38  1   
 27  12  39  1   
 28  13  15  1   
 29  13  40  1   
 30  13  41  1   
 31  14  16  1   
 32  14  17  1   
 33  14  18  1   
 34  15  17  1   
 35  15  42  1   
 36  15  43  1   
 37  16  19  ar  
 38  16  20  ar  
 39  17  44  1   
 40  17  45  1   
 41  18  21  1   
 42  18  46  1   
 43  18  47  1   
 44  19  22  ar  
 45  20  21  1   
 46  20  23  ar  
 47  21  48  1   
 48  21  49  1   
 49  22  24  ar  
 50  22  25  1   
 51  23  24  ar  
 52  23  50  1   
 53  25  26  1   
 54  25  27  1   
 55  26  51  1   
 56  26  52  1   
 57  26  53  1   
 58  27  54  1   
 59  27  55  1   
 60  27  56  1   
@<TRIPOS>SUBSTRUCTURE
  1 ****  12 GROUP 4 **** **** 0

# MOE 2024.06 (io_trps.svl 2023.06)
