@<TRIPOS>MOLECULE
NONAME
45 47 1 0 0 
SMALL
USER_CHARGES


@<TRIPOS>ATOM
  1 F       -1.7590    -0.7390    -1.2910 F     1 <1>  -0.1900 
  2 C       -2.1570     0.4050    -0.8010 C.ar  1 <1>   0.1900 
  3 C       -2.9010     0.4160     0.3670 C.ar  1 <1>  -0.1440 
  4 C       -1.8240     1.5600    -1.4780 C.ar  1 <1>  -0.1500 
  5 C       -3.3110     1.6460     0.8640 C.ar  1 <1>  -0.1500 
  6 C       -3.2510    -0.8740     1.0880 C.3   1 <1>   0.4870 
  7 C       -2.2510     2.7760    -0.9730 C.ar  1 <1>  -0.1500 
  8 C       -3.0010     2.8330     0.2010 C.ar  1 <1>  -0.1440 
  9 N       -3.9940    -1.8120     0.1900 N.4   1 <1>  -0.9590 
 10 C       -3.4920     4.1740     0.7790 C.3   1 <1>   1.1630 
 11 C       -5.4600    -1.5290     0.0950 C.3   1 <1>   0.4230 
 12 C       -3.7050    -3.2210     0.6090 C.3   1 <1>   0.2630 
 13 F       -4.7950     4.1460     1.0310 F     1 <1>  -0.3400 
 14 F       -3.2870     5.2080    -0.0250 F     1 <1>  -0.3400 
 15 F       -2.8960     4.4610     1.9280 F     1 <1>  -0.3400 
 16 C       -6.1910    -2.5690    -0.7540 C.3   1 <1>  -0.1600 
 17 C       -5.7670    -0.2130    -0.6190 C.3   1 <1>  -0.1600 
 18 C       -7.4690    -1.8730    -1.2330 C.3   1 <1>  -0.0800 
 19 C       -7.1850    -0.3660    -1.1810 C.3   1 <1>  -0.0800 
 20 C       -8.6830    -2.1150    -0.3240 C.3   1 <1>  -0.1600 
 21 C       -8.2740     0.2550    -0.2920 C.3   1 <1>  -0.1600 
 22 C       -9.3950    -0.7730    -0.2830 C.3   1 <1>   0.2000 
 23 O      -10.1380    -0.6600     0.8700 O.3   1 <1>  -0.6800 
 24 H       -1.2410     1.5110    -2.3830 H     1 <1>   0.1500 
 25 H       -3.8820     1.6940     1.7790 H     1 <1>   0.1500 
 26 H       -3.8350    -0.6630     1.9680 H     1 <1>   0.0800 
 27 H       -2.3280    -1.3340     1.4040 H     1 <1>   0.0800 
 28 H       -1.9900     3.6780    -1.5050 H     1 <1>   0.1500 
 29 H       -3.5920    -1.6710    -0.7500 H     1 <1>   0.4500 
 30 H       -5.9070    -1.5100     1.0760 H     1 <1>   0.0800 
 31 H       -4.1260    -3.4190     1.5810 H     1 <1>   0.0800 
 32 H       -2.6410    -3.3880     0.6500 H     1 <1>   0.0800 
 33 H       -4.1270    -3.9180    -0.0970 H     1 <1>   0.0800 
 34 H       -5.6010    -2.8150    -1.6200 H     1 <1>   0.0800 
 35 H       -6.4160    -3.4660    -0.2050 H     1 <1>   0.0800 
 36 H       -5.7030     0.6340     0.0390 H     1 <1>   0.0800 
 37 H       -5.0930    -0.0760    -1.4460 H     1 <1>   0.0800 
 38 H       -7.7140    -2.1700    -2.2410 H     1 <1>   0.0800 
 39 H       -7.2490     0.0560    -2.1710 H     1 <1>   0.0800 
 40 H       -8.3680    -2.3900     0.6670 H     1 <1>   0.0800 
 41 H       -9.3270    -2.8800    -0.7230 H     1 <1>   0.0800 
 42 H       -8.6180     1.1930    -0.6910 H     1 <1>   0.0800 
 43 H       -7.9110     0.4040     0.7100 H     1 <1>   0.0800 
 44 H      -10.0450    -0.6500    -1.1340 H     1 <1>   0.0800 
 45 H       -9.5720    -0.7310     1.6590 H     1 <1>   0.4000 
@<TRIPOS>BOND
  1   1   2  1   
  2   2   3  ar  
  3   2   4  ar  
  4   3   5  ar  
  5   3   6  1   
  6   4   7  ar  
  7   4  24  1   
  8   5   8  ar  
  9   5  25  1   
 10   6   9  1   
 11   6  26  1   
 12   6  27  1   
 13   7   8  ar  
 14   7  28  1   
 15   8  10  1   
 16   9  11  1   
 17   9  12  1   
 18   9  29  1   
 19  10  13  1   
 20  10  14  1   
 21  10  15  1   
 22  11  16  1   
 23  11  17  1   
 24  11  30  1   
 25  12  31  1   
 26  12  32  1   
 27  12  33  1   
 28  16  18  1   
 29  16  34  1   
 30  16  35  1   
 31  17  19  1   
 32  17  36  1   
 33  17  37  1   
 34  18  19  1   
 35  18  20  1   
 36  18  38  1   
 37  19  21  1   
 38  19  39  1   
 39  20  22  1   
 40  20  40  1   
 41  20  41  1   
 42  21  22  1   
 43  21  42  1   
 44  21  43  1   
 45  22  23  1   
 46  22  44  1   
 47  23  45  1   
@<TRIPOS>SUBSTRUCTURE
  1 ****  17 GROUP 4 **** **** 0

# MOE 2024.06 (io_trps.svl 2023.06)
