@<TRIPOS>MOLECULE
NONAME
49 52 1 0 0 
SMALL
USER_CHARGES


@<TRIPOS>ATOM
  1 O       -1.5440     0.6890    -2.2270 O.2   1 <1>  -0.5700 
  2 C       -1.7080     0.8400    -1.0300 C.2   1 <1>   0.7160 
  3 N       -1.9050    -0.2740    -0.2430 N.am  1 <1>  -0.6600 
  4 C       -1.6590     2.1450    -0.4600 C.2   1 <1>  -0.0860 
  5 C       -2.2140    -1.6060    -0.8620 C.3   1 <1>   0.3210 
  6 C       -1.8980    -0.2430     1.2500 C.3   1 <1>   0.0600 
  7 C       -2.7090     3.0650    -0.3270 C.2   1 <1>   0.3720 
  8 C       -0.6010     2.7750     0.1130 C.2   1 <1>   0.0870 
  9 C       -3.5140    -2.2100    -0.3290 C.2   1 <1>   0.3350 
 10 N       -2.2990     4.1250     0.2830 N.2   1 <1>  -0.4100 
 11 N       -4.0290     2.9130    -0.7920 N.pl3 1 <1>  -0.8210 
 12 O       -1.0330     3.9310     0.5410 O.3   1 <1>  -0.0190 
 13 C        0.7680     2.3770     0.3130 C.ar  1 <1>   0.0530 
 14 N       -3.5730    -3.2110     0.4590 N.2   1 <1>  -0.4100 
 15 N       -4.7090    -1.7250    -0.6530 N.2   1 <1>  -0.5650 
 16 C       -4.6640     1.5730    -0.8430 C.3   1 <1>   0.2090 
 17 C       -5.0490     3.9370    -0.4350 C.3   1 <1>   0.2090 
 18 C        1.4430     1.5760    -0.6090 C.ar  1 <1>  -0.1500 
 19 C        1.4710     2.7780     1.4500 C.ar  1 <1>  -0.1500 
 20 O       -4.8290    -3.4420     0.6960 O.3   1 <1>  -0.0190 
 21 C       -5.4510    -2.5240     0.0030 C.2   1 <1>   0.3280 
 22 C       -6.1620     1.8380    -0.8420 C.3   1 <1>  -0.1600 
 23 C       -6.3110     3.1540    -0.0910 C.3   1 <1>  -0.1600 
 24 C        2.7500     1.1770    -0.4020 C.ar  1 <1>  -0.1500 
 25 C        2.7780     2.3850     1.6640 C.ar  1 <1>  -0.1500 
 26 C        3.4290     1.5790     0.7450 C.ar  1 <1>   0.0830 
 27 O        4.7060     1.2320     1.0280 O.3   1 <1>  -0.3620 
 28 C        5.4740     0.4500     0.1410 C.3   1 <1>   0.0400 
 29 H       -1.4040    -2.2810    -0.6510 H     1 <1>   0.0800 
 30 H       -2.3010    -1.5230    -1.9300 H     1 <1>   0.0800 
 31 H       -1.3720     0.6190     1.6190 H     1 <1>   0.0800 
 32 H       -1.4100    -1.1230     1.6330 H     1 <1>   0.0800 
 33 H       -2.9090    -0.2170     1.6180 H     1 <1>   0.0800 
 34 H       -4.3910     1.0100     0.0330 H     1 <1>   0.0800 
 35 H       -4.3670     1.0390    -1.7300 H     1 <1>   0.0800 
 36 H       -5.2190     4.5640    -1.2930 H     1 <1>   0.0800 
 37 H       -4.7440     4.5490     0.3960 H     1 <1>   0.0800 
 38 H        0.9420     1.2660    -1.5090 H     1 <1>   0.1500 
 39 H        0.9830     3.4050     2.1760 H     1 <1>   0.1500 
 40 H       -6.5270    -2.5070     0.0340 H     1 <1>   0.1500 
 41 H       -6.7080     1.0340    -0.3840 H     1 <1>   0.0800 
 42 H       -6.4920     1.9560    -1.8590 H     1 <1>   0.0800 
 43 H       -7.2000     3.6900    -0.3690 H     1 <1>   0.0800 
 44 H       -6.3260     2.9720     0.9690 H     1 <1>   0.0800 
 45 H        3.2240     0.5590    -1.1400 H     1 <1>   0.1500 
 46 H        3.3060     2.7000     2.5460 H     1 <1>   0.1500 
 47 H        6.4510     0.3190     0.5720 H     1 <1>   0.0800 
 48 H        5.5560     0.9670    -0.7990 H     1 <1>   0.0800 
 49 H        4.9990    -0.5070     0.0160 H     1 <1>   0.0800 
@<TRIPOS>BOND
  1   1   2  2   
  2   2   3  am  
  3   2   4  1   
  4   3   5  1   
  5   3   6  1   
  6   4   7  1   
  7   4   8  2   
  8   5   9  1   
  9   5  29  1   
 10   5  30  1   
 11   6  31  1   
 12   6  32  1   
 13   6  33  1   
 14   7  10  2   
 15   7  11  1   
 16   8  12  1   
 17   8  13  1   
 18   9  14  2   
 19   9  15  1   
 20  10  12  1   
 21  11  16  1   
 22  11  17  1   
 23  13  18  ar  
 24  13  19  ar  
 25  14  20  1   
 26  15  21  2   
 27  16  22  1   
 28  16  34  1   
 29  16  35  1   
 30  17  23  1   
 31  17  36  1   
 32  17  37  1   
 33  18  24  ar  
 34  18  38  1   
 35  19  25  ar  
 36  19  39  1   
 37  20  21  1   
 38  21  40  1   
 39  22  23  1   
 40  22  41  1   
 41  22  42  1   
 42  23  43  1   
 43  23  44  1   
 44  24  26  ar  
 45  24  45  1   
 46  25  26  ar  
 47  25  46  1   
 48  26  27  1   
 49  27  28  1   
 50  28  47  1   
 51  28  48  1   
 52  28  49  1   
@<TRIPOS>SUBSTRUCTURE
  1 ****   2 GROUP 4 **** **** 0

# MOE 2024.06 (io_trps.svl 2023.06)
