@<TRIPOS>MOLECULE
NONAME
47 50 1 0 0 
SMALL
USER_CHARGES


@<TRIPOS>ATOM
  1 S       -1.0440     0.5010     2.5740 S.3   1 <1>  -0.0800 
  2 C       -0.6100     2.1550     2.2120 C.2   1 <1>   0.4620 
  3 C       -2.2170     0.5200     1.2710 C.2   1 <1>  -0.0450 
  4 N       -1.2600     2.6670     1.2340 N.2   1 <1>  -0.5650 
  5 N        0.3400     2.7630     2.9520 N.pl3 1 <1>  -0.8840 
  6 C       -2.9910    -0.6620     1.0110 C.2   1 <1>   0.7150 
  7 C       -2.1380     1.7520     0.7150 C.2   1 <1>   0.0770 
  8 O       -2.4730    -1.7550     1.1710 O.2   1 <1>  -0.5700 
  9 N       -4.3050    -0.6270     0.5760 N.am  1 <1>  -0.6600 
 10 C       -5.2110     0.5550     0.7310 C.3   1 <1>   0.1400 
 11 C       -4.9990    -1.9140     0.2490 C.3   1 <1>   0.1400 
 12 C       -6.0660     0.7960    -0.5370 C.3   1 <1>   0.1440 
 13 C       -6.4590    -1.7100    -0.1890 C.3   1 <1>  -0.1600 
 14 C       -7.1900     1.7360    -0.1350 C.ar  1 <1>   0.1670 
 15 C       -6.5800    -0.5290    -1.1620 C.3   1 <1>  -0.1600 
 16 C       -5.3110     1.6460    -1.5920 C.3   1 <1>  -0.1600 
 17 N       -8.2590     1.3970     0.5410 N.ar  1 <1>  -0.6200 
 18 C       -6.9450     3.0110    -0.5470 C.ar  1 <1>  -0.1430 
 19 C       -5.6390     3.1190    -1.2930 C.3   1 <1>  -0.0170 
 20 C       -9.1140     2.3920     0.7930 C.ar  1 <1>   0.7200 
 21 C       -7.8750     3.9700    -0.2370 C.ar  1 <1>   0.1600 
 22 N       -8.9630     3.6700     0.4320 N.ar  1 <1>  -0.6200 
 23 N      -10.2600     2.0690     1.4940 N.pl3 1 <1>  -0.8380 
 24 C      -10.4280     0.7580     2.1800 C.3   1 <1>   0.1290 
 25 C      -11.4170     3.0010     1.5880 C.3   1 <1>   0.1290 
 26 H        0.6250     3.7190     2.7370 H     1 <1>   0.4000 
 27 H        0.8450     2.2890     3.7000 H     1 <1>   0.4000 
 28 H       -2.7230     2.0670    -0.1280 H     1 <1>   0.1500 
 29 H       -4.6700     1.4460     0.9860 H     1 <1>   0.0800 
 30 H       -5.8740     0.3520     1.5560 H     1 <1>   0.0800 
 31 H       -4.9680    -2.5650     1.1070 H     1 <1>   0.0800 
 32 H       -4.4560    -2.3960    -0.5470 H     1 <1>   0.0800 
 33 H       -7.0760    -1.5330     0.6760 H     1 <1>   0.0800 
 34 H       -6.8170    -2.6090    -0.6580 H     1 <1>   0.0800 
 35 H       -5.9980    -0.7700    -2.0340 H     1 <1>   0.0800 
 36 H       -7.6030    -0.4160    -1.4770 H     1 <1>   0.0800 
 37 H       -5.7040     1.4260    -2.5690 H     1 <1>   0.0800 
 38 H       -4.2560     1.4460    -1.6070 H     1 <1>   0.0800 
 39 H       -5.7390     3.6950    -2.1970 H     1 <1>   0.0800 
 40 H       -4.8920     3.5600    -0.6560 H     1 <1>   0.0800 
 41 H       -7.7270     4.9920    -0.5400 H     1 <1>   0.1500 
 42 H       -9.4750     0.3770     2.5060 H     1 <1>   0.0800 
 43 H      -10.8730     0.0520     1.5010 H     1 <1>   0.0800 
 44 H      -11.0590     0.8690     3.0440 H     1 <1>   0.0800 
 45 H      -11.4690     3.6270     0.7130 H     1 <1>   0.0800 
 46 H      -11.3060     3.6250     2.4580 H     1 <1>   0.0800 
 47 H      -12.3360     2.4470     1.6610 H     1 <1>   0.0800 
@<TRIPOS>BOND
  1   1   2  1   
  2   1   3  1   
  3   2   4  2   
  4   2   5  1   
  5   3   6  1   
  6   3   7  2   
  7   4   7  1   
  8   5  26  1   
  9   5  27  1   
 10   6   8  2   
 11   6   9  am  
 12   7  28  1   
 13   9  10  1   
 14   9  11  1   
 15  10  12  1   
 16  10  29  1   
 17  10  30  1   
 18  11  13  1   
 19  11  31  1   
 20  11  32  1   
 21  12  14  1   
 22  12  15  1   
 23  12  16  1   
 24  13  15  1   
 25  13  33  1   
 26  13  34  1   
 27  14  17  ar  
 28  14  18  ar  
 29  15  35  1   
 30  15  36  1   
 31  16  19  1   
 32  16  37  1   
 33  16  38  1   
 34  17  20  ar  
 35  18  19  1   
 36  18  21  ar  
 37  19  39  1   
 38  19  40  1   
 39  20  22  ar  
 40  20  23  1   
 41  21  22  ar  
 42  21  41  1   
 43  23  24  1   
 44  23  25  1   
 45  24  42  1   
 46  24  43  1   
 47  24  44  1   
 48  25  45  1   
 49  25  46  1   
 50  25  47  1   
@<TRIPOS>SUBSTRUCTURE
  1 ****  10 GROUP 4 **** **** 0

# MOE 2024.06 (io_trps.svl 2023.06)
