@<TRIPOS>MOLECULE
NONAME
50 54 1 0 0 
SMALL
USER_CHARGES


@<TRIPOS>ATOM
  1 O        0.7290     0.0740    -0.0470 O.2   1 <1>  -0.5700 
  2 C        0.0730     0.9100     0.5310 C.2   1 <1>   0.5690 
  3 N       -1.2150     1.2010     0.1420 N.am  1 <1>  -0.6600 
  4 C        0.7240     1.5760     1.7310 C.3   1 <1>   0.0820 
  5 C       -2.0840     2.2590     0.7600 C.3   1 <1>   0.1400 
  6 C       -1.8960     0.3960    -0.9140 C.3   1 <1>   0.1400 
  7 C        1.1480     3.0110     1.4780 C.2   1 <1>   0.1080 
  8 C       -2.6840     3.1980    -0.3070 C.3   1 <1>   0.1440 
  9 C       -2.4700     1.3110    -1.9990 C.3   1 <1>  -0.1600 
 10 N        0.8500     3.9700     2.2930 N.2   1 <1>  -0.7070 
 11 C        1.9190     3.4490     0.3820 C.ar  1 <1>   0.0000 
 12 C       -3.6270     4.1700     0.3770 C.ar  1 <1>   0.1670 
 13 C       -3.4020     2.3750    -1.3980 C.3   1 <1>  -0.1600 
 14 C       -1.6100     4.1400    -0.9150 C.3   1 <1>  -0.1600 
 15 N        1.4380     5.0690     1.7700 N.pl3 1 <1>   0.3000 
 16 C        2.0840     4.8000     0.6020 C.ar  1 <1>  -0.1520 
 17 C        2.4930     2.8670    -0.7590 C.ar  1 <1>  -0.1500 
 18 N       -4.8060     3.8670     0.8770 N.ar  1 <1>  -0.6200 
 19 C       -3.1040     5.4270     0.4300 C.ar  1 <1>  -0.1440 
 20 C       -1.7340     5.4930    -0.1930 C.3   1 <1>  -0.0170 
 21 C        2.8030     5.6060    -0.2870 C.ar  1 <1>  -0.1500 
 22 C        3.2000     3.6520    -1.6380 C.ar  1 <1>  -0.1500 
 23 C       -5.4470     4.8890     1.4270 C.ar  1 <1>   0.4770 
 24 C       -3.8550     6.4100     1.0240 C.ar  1 <1>   0.1600 
 25 C        3.3560     5.0250    -1.4030 C.ar  1 <1>  -0.1500 
 26 N       -5.0430     6.1490     1.5300 N.ar  1 <1>  -0.6200 
 27 C       -6.8090     4.5850     2.0030 C.3   1 <1>  -0.0970 
 28 H        1.5970     1.0150     2.0050 H     1 <1>   0.0800 
 29 H        0.0480     1.5400     2.5630 H     1 <1>   0.0800 
 30 H       -1.5380     2.8480     1.4740 H     1 <1>   0.0800 
 31 H       -2.8880     1.7750     1.2870 H     1 <1>   0.0800 
 32 H       -2.6910    -0.1690    -0.4580 H     1 <1>   0.0800 
 33 H       -1.2120    -0.3030    -1.3650 H     1 <1>   0.0800 
 34 H       -3.0160     0.7150    -2.7090 H     1 <1>   0.0800 
 35 H       -1.6560     1.7790    -2.5260 H     1 <1>   0.0800 
 36 H       -3.7720     3.0260    -2.1700 H     1 <1>   0.0800 
 37 H       -4.2520     1.8820    -0.9590 H     1 <1>   0.0800 
 38 H       -1.8170     4.3010    -1.9580 H     1 <1>   0.0800 
 39 H       -0.6170     3.7370    -0.8330 H     1 <1>   0.0800 
 40 H        1.4040     5.9860     2.2290 H     1 <1>   0.2700 
 41 H        2.3750     1.8120    -0.9340 H     1 <1>   0.1500 
 42 H       -1.6440     6.3170    -0.8800 H     1 <1>   0.0800 
 43 H       -0.9940     5.5770     0.5810 H     1 <1>   0.0800 
 44 H        2.9190     6.6590    -0.0950 H     1 <1>   0.1500 
 45 H        3.6440     3.2170    -2.5160 H     1 <1>   0.1500 
 46 H       -3.4840     7.4180     1.0890 H     1 <1>   0.1500 
 47 H        3.9170     5.6140    -2.1070 H     1 <1>   0.1500 
 48 H       -6.8760     3.5470     2.2720 H     1 <1>   0.0800 
 49 H       -7.5600     4.8090     1.2700 H     1 <1>   0.0800 
 50 H       -6.9790     5.1840     2.8780 H     1 <1>   0.0800 
@<TRIPOS>BOND
  1   1   2  2   
  2   2   3  am  
  3   2   4  1   
  4   3   5  1   
  5   3   6  1   
  6   4   7  1   
  7   4  28  1   
  8   4  29  1   
  9   5   8  1   
 10   5  30  1   
 11   5  31  1   
 12   6   9  1   
 13   6  32  1   
 14   6  33  1   
 15   7  10  2   
 16   7  11  1   
 17   8  12  1   
 18   8  13  1   
 19   8  14  1   
 20   9  13  1   
 21   9  34  1   
 22   9  35  1   
 23  10  15  1   
 24  11  16  ar  
 25  11  17  ar  
 26  12  18  ar  
 27  12  19  ar  
 28  13  36  1   
 29  13  37  1   
 30  14  20  1   
 31  14  38  1   
 32  14  39  1   
 33  15  16  1   
 34  15  40  1   
 35  16  21  ar  
 36  17  22  ar  
 37  17  41  1   
 38  18  23  ar  
 39  19  20  1   
 40  19  24  ar  
 41  20  42  1   
 42  20  43  1   
 43  21  25  ar  
 44  21  44  1   
 45  22  25  ar  
 46  22  45  1   
 47  23  26  ar  
 48  23  27  1   
 49  24  26  ar  
 50  24  46  1   
 51  25  47  1   
 52  27  48  1   
 53  27  49  1   
 54  27  50  1   
@<TRIPOS>SUBSTRUCTURE
  1 ****  14 GROUP 4 **** **** 0

# MOE 2024.06 (io_trps.svl 2023.06)
