@<TRIPOS>MOLECULE
NONAME
50 53 1 0 0 
SMALL
USER_CHARGES


@<TRIPOS>ATOM
  1 F       -1.7020    -0.6520    -2.0420 F     1 <1>  -0.3400 
  2 C       -2.1060    -0.6200    -0.7800 C.3   1 <1>   1.2400 
  3 F       -1.0280    -0.6100    -0.0090 F     1 <1>  -0.3400 
  4 O       -2.8970    -1.7660    -0.4960 O.3   1 <1>  -0.3630 
  5 O       -2.8830     0.5440    -0.5480 O.3   1 <1>  -0.3630 
  6 C       -4.0810    -1.2800    -0.1100 C.ar  1 <1>   0.0820 
  7 C       -4.0740     0.0880    -0.1400 C.ar  1 <1>   0.0820 
  8 C       -5.2000    -1.9890     0.2790 C.ar  1 <1>  -0.1500 
  9 C       -5.1870     0.8190     0.2190 C.ar  1 <1>  -0.1500 
 10 C       -6.3380    -1.2720     0.6380 C.ar  1 <1>  -0.1440 
 11 C       -6.3230     0.1240     0.6110 C.ar  1 <1>  -0.1500 
 12 C       -7.6000    -2.0010     1.0650 C.3   1 <1>   0.4870 
 13 N       -8.2470    -2.6150    -0.1320 N.4   1 <1>  -0.9590 
 14 C       -8.6820    -1.5610    -1.1150 C.3   1 <1>   0.3430 
 15 C       -9.3540    -3.5280     0.2740 C.3   1 <1>   0.3430 
 16 C      -10.2020    -1.4080    -1.2090 C.3   1 <1>  -0.1600 
 17 C      -10.5290    -2.7600     0.8900 C.3   1 <1>  -0.1600 
 18 C      -10.8620    -1.4280     0.1800 C.3   1 <1>   0.2800 
 19 O      -10.2030    -0.4150     0.9140 O.3   1 <1>  -0.5600 
 20 C      -12.4080    -1.2180     0.1270 C.3   1 <1>   0.2000 
 21 C      -10.9530     0.6380     1.4550 C.3   1 <1>   0.1200 
 22 O      -13.0010    -2.1260    -0.7560 O.3   1 <1>  -0.6800 
 23 C      -12.8550     0.2500    -0.1580 C.3   1 <1>   0.2800 
 24 C      -11.8130     1.2570     0.3530 C.3   1 <1>  -0.1600 
 25 O      -14.0070     0.4500     0.5750 O.3   1 <1>  -0.6800 
 26 C      -13.2460     0.5640    -1.6100 C.3   1 <1>  -0.2400 
 27 H       -5.1590    -3.0640     0.2980 H     1 <1>   0.1500 
 28 H       -5.1620     1.8960     0.1940 H     1 <1>   0.1500 
 29 H       -7.1990     0.6840     0.8990 H     1 <1>   0.1500 
 30 H       -8.2730    -1.3120     1.5460 H     1 <1>   0.0800 
 31 H       -7.3410    -2.7660     1.7780 H     1 <1>   0.0800 
 32 H       -7.5140    -3.1680    -0.5920 H     1 <1>   0.4500 
 33 H       -8.2680    -0.6100    -0.8250 H     1 <1>   0.0800 
 34 H       -8.2950    -1.7950    -2.0940 H     1 <1>   0.0800 
 35 H       -9.7120    -4.0470    -0.6010 H     1 <1>   0.0800 
 36 H       -8.9970    -4.2680     0.9710 H     1 <1>   0.0800 
 37 H      -10.6050    -2.1950    -1.8220 H     1 <1>   0.0800 
 38 H      -10.4190    -0.4840    -1.7100 H     1 <1>   0.0800 
 39 H      -10.3570    -2.5860     1.9370 H     1 <1>   0.0800 
 40 H      -11.3760    -3.4210     0.8320 H     1 <1>   0.0800 
 41 H      -12.7780    -1.4770     1.1040 H     1 <1>   0.0800 
 42 H      -11.5590     0.2620     2.2630 H     1 <1>   0.0800 
 43 H      -10.2640     1.3660     1.8490 H     1 <1>   0.0800 
 44 H      -13.9720    -1.9870    -0.7370 H     1 <1>   0.4000 
 45 H      -11.1560     1.5520    -0.4460 H     1 <1>   0.0800 
 46 H      -12.2920     2.1490     0.7160 H     1 <1>   0.0800 
 47 H      -14.3960     1.3170     0.3520 H     1 <1>   0.4000 
 48 H      -12.4310     0.3580    -2.2760 H     1 <1>   0.0800 
 49 H      -13.5050     1.6020    -1.7170 H     1 <1>   0.0800 
 50 H      -14.0840    -0.0350    -1.9200 H     1 <1>   0.0800 
@<TRIPOS>BOND
  1   1   2  1   
  2   2   3  1   
  3   2   4  1   
  4   2   5  1   
  5   4   6  1   
  6   5   7  1   
  7   6   7  ar  
  8   6   8  ar  
  9   7   9  ar  
 10   8  10  ar  
 11   8  27  1   
 12   9  11  ar  
 13   9  28  1   
 14  10  11  ar  
 15  10  12  1   
 16  11  29  1   
 17  12  13  1   
 18  12  30  1   
 19  12  31  1   
 20  13  14  1   
 21  13  15  1   
 22  13  32  1   
 23  14  16  1   
 24  14  33  1   
 25  14  34  1   
 26  15  17  1   
 27  15  35  1   
 28  15  36  1   
 29  16  18  1   
 30  16  37  1   
 31  16  38  1   
 32  17  18  1   
 33  17  39  1   
 34  17  40  1   
 35  18  19  1   
 36  18  20  1   
 37  19  21  1   
 38  20  22  1   
 39  20  23  1   
 40  20  41  1   
 41  21  24  1   
 42  21  42  1   
 43  21  43  1   
 44  22  44  1   
 45  23  24  1   
 46  23  25  1   
 47  23  26  1   
 48  24  45  1   
 49  24  46  1   
 50  25  47  1   
 51  26  48  1   
 52  26  49  1   
 53  26  50  1   
@<TRIPOS>SUBSTRUCTURE
  1 ****  14 GROUP 4 **** **** 0

# MOE 2024.06 (io_trps.svl 2023.06)
