@<TRIPOS>MOLECULE
NONAME
57 59 1 0 0 
SMALL
USER_CHARGES


@<TRIPOS>ATOM
  1 O        0.4820     0.1940    -1.0260 O.2   1 <1>  -0.5700 
  2 C        1.2250    -0.5010    -0.3540 C.2   1 <1>   0.7150 
  3 N        2.2120     0.1070     0.3750 N.am  1 <1>  -0.5100 
  4 C        1.0290    -1.9360    -0.3490 C.2   1 <1>   0.0550 
  5 C        3.5910    -0.4470     0.5750 C.3   1 <1>   0.2250 
  6 C        2.7930     1.4440     0.0200 C.3   1 <1>   0.2250 
  7 O        1.6730    -2.7480     0.4810 O.3   1 <1>  -0.2800 
  8 C        0.2060    -2.6940    -1.1190 C.2   1 <1>  -0.1500 
  9 C        4.1270     1.0030     0.6760 C.3   1 <1>   0.2100 
 10 C        1.2980    -3.9890     0.2740 C.2   1 <1>  -0.0400 
 11 C        0.3660    -4.0220    -0.7120 C.2   1 <1>  -0.1810 
 12 N        5.3300     1.2630    -0.1440 N.3   1 <1>  -0.7500 
 13 C        1.9800    -5.0300     1.1540 C.3   1 <1>   0.0200 
 14 C       -0.4000    -5.1720    -1.3310 C.3   1 <1>   0.5240 
 15 C        5.5990     2.7110    -0.2450 C.3   1 <1>   0.1100 
 16 C        6.5130     0.5860     0.4240 C.3   1 <1>   0.1100 
 17 C        1.5890    -6.4830     0.8700 C.3   1 <1>  -0.2400 
 18 N       -1.6090    -5.4750    -0.5060 N.4   1 <1>  -0.9590 
 19 C        6.8950     2.9800    -1.0300 C.3   1 <1>   0.1200 
 20 C        7.7810     0.9180    -0.3820 C.3   1 <1>   0.1200 
 21 C       -2.3190    -6.6870    -0.9990 C.3   1 <1>   0.3430 
 22 C       -2.5220    -4.2990    -0.4130 C.3   1 <1>   0.3430 
 23 O        7.9690     2.3020    -0.4460 O.3   1 <1>  -0.5600 
 24 C       -1.5230    -7.9410    -0.6570 C.3   1 <1>  -0.2400 
 25 C       -3.4760    -4.4760     0.7630 C.3   1 <1>  -0.2400 
 26 H        3.9250    -0.9830    -0.2970 H     1 <1>   0.0000 
 27 H        3.6660    -0.9990     1.4940 H     1 <1>   0.0000 
 28 H        2.2960     2.2410     0.5440 H     1 <1>   0.0000 
 29 H        2.8490     1.5760    -1.0460 H     1 <1>   0.0000 
 30 H       -0.4420    -2.3260    -1.8970 H     1 <1>   0.1500 
 31 H        4.2320     1.3460     1.6910 H     1 <1>   0.0000 
 32 H        1.7620    -4.8000     2.1830 H     1 <1>   0.0800 
 33 H        3.0440    -4.9280     1.0250 H     1 <1>   0.0800 
 34 H        0.2420    -6.0350    -1.3790 H     1 <1>   0.0800 
 35 H       -0.6890    -4.9130    -2.3370 H     1 <1>   0.0800 
 36 H        5.6920     3.1390     0.7390 H     1 <1>   0.0800 
 37 H        4.7820     3.1970    -0.7480 H     1 <1>   0.0800 
 38 H        6.3620    -0.4790     0.4100 H     1 <1>   0.0800 
 39 H        6.6590     0.8920     1.4460 H     1 <1>   0.0800 
 40 H        0.5460    -6.6390     1.0640 H     1 <1>   0.0800 
 41 H        2.1490    -7.1340     1.5190 H     1 <1>   0.0800 
 42 H        1.8250    -6.7450    -0.1460 H     1 <1>   0.0800 
 43 H       -1.2650    -5.6520     0.4450 H     1 <1>   0.4500 
 44 H        7.1260     4.0300    -1.0220 H     1 <1>   0.0800 
 45 H        6.7930     2.6530    -2.0500 H     1 <1>   0.0800 
 46 H        7.7040     0.5320    -1.3840 H     1 <1>   0.0800 
 47 H        8.6470     0.4900     0.0910 H     1 <1>   0.0800 
 48 H       -2.4720    -6.6220    -2.0650 H     1 <1>   0.0800 
 49 H       -3.2860    -6.7620    -0.5300 H     1 <1>   0.0800 
 50 H       -3.0760    -4.1770    -1.3300 H     1 <1>   0.0800 
 51 H       -1.9520    -3.4000    -0.2420 H     1 <1>   0.0800 
 52 H       -0.5730    -7.9640    -1.1590 H     1 <1>   0.0800 
 53 H       -2.0790    -8.8050    -0.9790 H     1 <1>   0.0800 
 54 H       -1.3790    -8.0250     0.4050 H     1 <1>   0.0800 
 55 H       -4.1520    -5.2970     0.6120 H     1 <1>   0.0800 
 56 H       -4.0670    -3.5840     0.8690 H     1 <1>   0.0800 
 57 H       -2.9300    -4.6170     1.6800 H     1 <1>   0.0800 
@<TRIPOS>BOND
  1   1   2  2   
  2   2   3  am  
  3   2   4  1   
  4   3   5  1   
  5   3   6  1   
  6   4   7  1   
  7   4   8  2   
  8   5   9  1   
  9   5  26  1   
 10   5  27  1   
 11   6   9  1   
 12   6  28  1   
 13   6  29  1   
 14   7  10  1   
 15   8  11  1   
 16   8  30  1   
 17   9  12  1   
 18   9  31  1   
 19  10  11  2   
 20  10  13  1   
 21  11  14  1   
 22  12  15  1   
 23  12  16  1   
 24  13  17  1   
 25  13  32  1   
 26  13  33  1   
 27  14  18  1   
 28  14  34  1   
 29  14  35  1   
 30  15  19  1   
 31  15  36  1   
 32  15  37  1   
 33  16  20  1   
 34  16  38  1   
 35  16  39  1   
 36  17  40  1   
 37  17  41  1   
 38  17  42  1   
 39  18  21  1   
 40  18  22  1   
 41  18  43  1   
 42  19  23  1   
 43  19  44  1   
 44  19  45  1   
 45  20  23  1   
 46  20  46  1   
 47  20  47  1   
 48  21  24  1   
 49  21  48  1   
 50  21  49  1   
 51  22  25  1   
 52  22  50  1   
 53  22  51  1   
 54  24  52  1   
 55  24  53  1   
 56  24  54  1   
 57  25  55  1   
 58  25  56  1   
 59  25  57  1   
@<TRIPOS>SUBSTRUCTURE
  1 ****   4 GROUP 4 **** **** 0

# MOE 2024.06 (io_trps.svl 2023.06)
