@<TRIPOS>MOLECULE
NONAME
41 42 1 0 0 
SMALL
USER_CHARGES


@<TRIPOS>ATOM
  1 O       -1.2370    -0.7330     0.6280 O.2   1 <1>  -0.5700 
  2 C       -1.9420     0.2520     0.6720 C.2   1 <1>   0.5690 
  3 N       -3.2970     0.1310     0.8640 N.am  1 <1>  -0.6600 
  4 C       -1.2660     1.6210     0.5310 C.3   1 <1>   0.1810 
  5 C       -3.9020    -1.2090     1.1220 C.3   1 <1>   0.3200 
  6 C       -4.2850     1.2140     0.5890 C.3   1 <1>   0.1400 
  7 O       -1.5590     2.2380    -0.7010 O.3   1 <1>  -0.5600 
  8 C       -4.1510    -1.9400    -0.1860 C.2   1 <1>   0.0060 
  9 C       -4.6110     1.9820     1.8730 C.3   1 <1>   0.1200 
 10 C       -1.2200     3.5950    -0.8000 C.3   1 <1>   0.1200 
 11 N       -5.3020    -2.3720    -0.5960 N.2   1 <1>  -0.5650 
 12 N       -3.1400    -2.2000    -1.0410 N.pl3 1 <1>   0.0330 
 13 O       -5.5060     3.0040     1.5900 O.3   1 <1>  -0.6800 
 14 C        0.2980     3.8480    -0.7280 C.3   1 <1>   0.2000 
 15 C       -5.0230    -2.9440    -1.7850 C.2   1 <1>   0.0770 
 16 C       -3.7070    -2.8480    -2.0730 C.2   1 <1>  -0.3020 
 17 O        0.7530     3.7670     0.5860 O.3   1 <1>  -0.5600 
 18 C        0.7020     5.2500    -1.1630 C.3   1 <1>  -0.1600 
 19 C        1.9710     4.4290     0.7090 C.3   1 <1>   0.1200 
 20 C        1.9850     5.4960    -0.3840 C.3   1 <1>  -0.1600 
 21 H       -0.2020     1.4820     0.5930 H     1 <1>   0.0800 
 22 H       -1.5820     2.2640     1.3310 H     1 <1>   0.0800 
 23 H       -4.8310    -1.0980     1.6520 H     1 <1>   0.0800 
 24 H       -3.2400    -1.7970     1.7340 H     1 <1>   0.0800 
 25 H       -5.1880     0.7790     0.1930 H     1 <1>   0.0800 
 26 H       -3.8950     1.8860    -0.1520 H     1 <1>   0.0800 
 27 H       -3.7260     2.4220     2.2980 H     1 <1>   0.0800 
 28 H       -5.0750     1.3320     2.5940 H     1 <1>   0.0800 
 29 H       -1.7330     4.1460    -0.0320 H     1 <1>   0.0800 
 30 H       -1.5830     3.9270    -1.7560 H     1 <1>   0.0800 
 31 H       -2.1600    -1.9200    -0.8900 H     1 <1>   0.2700 
 32 H       -5.1160     3.6540     0.9740 H     1 <1>   0.4000 
 33 H        0.8270     3.1150    -1.3130 H     1 <1>   0.0800 
 34 H       -5.7970    -3.4000    -2.3790 H     1 <1>   0.1500 
 35 H       -3.1570    -3.1930    -2.9300 H     1 <1>   0.1500 
 36 H       -0.0500     5.9580    -0.8630 H     1 <1>   0.0800 
 37 H        0.8460     5.3110    -2.2270 H     1 <1>   0.0800 
 38 H        2.7600     3.7110     0.5650 H     1 <1>   0.0800 
 39 H        2.0330     4.8550     1.6950 H     1 <1>   0.0800 
 40 H        2.0080     6.4840     0.0400 H     1 <1>   0.0800 
 41 H        2.8520     5.3620    -1.0080 H     1 <1>   0.0800 
@<TRIPOS>BOND
  1   1   2  2   
  2   2   3  am  
  3   2   4  1   
  4   3   5  1   
  5   3   6  1   
  6   4   7  1   
  7   4  21  1   
  8   4  22  1   
  9   5   8  1   
 10   5  23  1   
 11   5  24  1   
 12   6   9  1   
 13   6  25  1   
 14   6  26  1   
 15   7  10  1   
 16   8  11  2   
 17   8  12  1   
 18   9  13  1   
 19   9  27  1   
 20   9  28  1   
 21  10  14  1   
 22  10  29  1   
 23  10  30  1   
 24  11  15  1   
 25  12  16  1   
 26  12  31  1   
 27  13  32  1   
 28  14  17  1   
 29  14  18  1   
 30  14  33  1   
 31  15  16  2   
 32  15  34  1   
 33  16  35  1   
 34  17  19  1   
 35  18  20  1   
 36  18  36  1   
 37  18  37  1   
 38  19  20  1   
 39  19  38  1   
 40  19  39  1   
 41  20  40  1   
 42  20  41  1   
@<TRIPOS>SUBSTRUCTURE
  1 ****   2 GROUP 4 **** **** 0

# MOE 2024.06 (io_trps.svl 2023.06)
