@<TRIPOS>MOLECULE
NONAME
62 66 1 0 0 
SMALL
USER_CHARGES


@<TRIPOS>ATOM
  1 O       -0.8690    -3.0690     2.2820 O.2   1 <1>  -0.5700 
  2 C       -0.5700    -3.1810     1.1100 C.2   1 <1>   0.5440 
  3 N       -1.3500    -2.7530     0.0630 N.am  1 <1>  -0.6600 
  4 C        0.6400    -3.7730     0.6200 C.ar  1 <1>   0.0860 
  5 C       -2.6420    -1.9860     0.1730 C.3   1 <1>   0.3000 
  6 C       -0.6210    -2.9960    -1.2200 C.3   1 <1>   0.2840 
  7 C        0.6470    -3.6900    -0.7580 C.ar  1 <1>  -0.1440 
  8 C        1.7090    -4.3670     1.2790 C.ar  1 <1>  -0.1500 
  9 C       -2.2860    -0.6120     0.7780 C.3   1 <1>  -0.1600 
 10 C       -3.2420    -1.7350    -1.2390 C.3   1 <1>  -0.1600 
 11 C       -3.5700    -2.8070     1.1180 C.3   1 <1>  -0.0990 
 12 C        1.6990    -4.1890    -1.5040 C.ar  1 <1>  -0.1500 
 13 C        2.7690    -4.8710     0.5430 C.ar  1 <1>  -0.1500 
 14 C       -3.4100     0.4160     0.6270 C.3   1 <1>   0.1200 
 15 C       -4.2830    -0.6060    -1.2820 C.3   1 <1>   0.1200 
 16 C       -5.0650    -2.7580     0.8730 C.2   1 <1>   0.5690 
 17 C        2.7640    -4.7830    -0.8430 C.ar  1 <1>  -0.1500 
 18 O       -3.7270     0.5380    -0.7230 O.3   1 <1>  -0.5600 
 19 O       -5.6810    -1.9000     1.4600 O.2   1 <1>  -0.5700 
 20 N       -5.7050    -3.6580     0.0490 N.am  1 <1>  -0.6600 
 21 C       -7.1920    -3.6440    -0.0770 C.3   1 <1>   0.1400 
 22 C       -5.0630    -4.8020    -0.6610 C.3   1 <1>   0.1400 
 23 C       -7.7770    -4.9470     0.4890 C.3   1 <1>  -0.0800 
 24 C       -5.5810    -6.1120    -0.0630 C.3   1 <1>  -0.1600 
 25 C       -7.1130    -6.2060    -0.1140 C.3   1 <1>   0.2800 
 26 C       -9.3200    -4.9690     0.3670 C.3   1 <1>  -0.1600 
 27 O       -7.4620    -6.2890    -1.4520 O.3   1 <1>  -0.6800 
 28 C       -7.6240    -7.4900     0.5770 C.3   1 <1>  -0.1600 
 29 C       -9.9210    -6.3870     0.4250 C.3   1 <1>  -0.1600 
 30 C       -9.0300    -7.3620     1.2030 C.3   1 <1>  -0.1600 
 31 H       -0.3800    -2.0650    -1.7030 H     1 <1>   0.0800 
 32 H       -1.1950    -3.6320    -1.8710 H     1 <1>   0.0800 
 33 H        1.6970    -4.4270     2.3530 H     1 <1>   0.1500 
 34 H       -1.4200    -0.2140     0.2790 H     1 <1>   0.0800 
 35 H       -2.0400    -0.7090     1.8200 H     1 <1>   0.0800 
 36 H       -3.6690    -2.6330    -1.6390 H     1 <1>   0.0800 
 37 H       -2.4780    -1.4080    -1.9160 H     1 <1>   0.0800 
 38 H       -3.4170    -2.4710     2.1270 H     1 <1>   0.0800 
 39 H       -3.2710    -3.8350     1.1260 H     1 <1>   0.0800 
 40 H        1.6970    -4.1200    -2.5780 H     1 <1>   0.1500 
 41 H        3.6010    -5.3320     1.0470 H     1 <1>   0.1500 
 42 H       -3.0840     1.3800     0.9740 H     1 <1>   0.0800 
 43 H       -4.2940     0.1340     1.1740 H     1 <1>   0.0800 
 44 H       -5.1920    -0.8390    -0.7590 H     1 <1>   0.0800 
 45 H       -4.5360    -0.3750    -2.3020 H     1 <1>   0.0800 
 46 H        3.5920    -5.1770    -1.4060 H     1 <1>   0.1500 
 47 H       -7.4550    -3.5340    -1.1150 H     1 <1>   0.0800 
 48 H       -7.6140    -2.8080     0.4530 H     1 <1>   0.0800 
 49 H       -3.9920    -4.7700    -0.5870 H     1 <1>   0.0800 
 50 H       -5.3130    -4.7530    -1.7060 H     1 <1>   0.0800 
 51 H       -7.5460    -4.9500     1.5410 H     1 <1>   0.0800 
 52 H       -5.2530    -6.1650     0.9590 H     1 <1>   0.0800 
 53 H       -5.1520    -6.9490    -0.5840 H     1 <1>   0.0800 
 54 H       -9.6260    -4.5170    -0.5600 H     1 <1>   0.0800 
 55 H       -9.7320    -4.3760     1.1650 H     1 <1>   0.0800 
 56 H       -7.4250    -5.4020    -1.8490 H     1 <1>   0.4000 
 57 H       -6.9510    -7.7640     1.3690 H     1 <1>   0.0800 
 58 H       -7.6170    -8.2980    -0.1340 H     1 <1>   0.0800 
 59 H      -10.0350    -6.7630    -0.5780 H     1 <1>   0.0800 
 60 H      -10.9020    -6.3480     0.8680 H     1 <1>   0.0800 
 61 H       -8.9370    -7.0060     2.2150 H     1 <1>   0.0800 
 62 H       -9.4950    -8.3320     1.2420 H     1 <1>   0.0800 
@<TRIPOS>BOND
  1   1   2  2   
  2   2   3  am  
  3   2   4  1   
  4   3   5  1   
  5   3   6  1   
  6   4   7  ar  
  7   4   8  ar  
  8   5   9  1   
  9   5  10  1   
 10   5  11  1   
 11   6   7  1   
 12   6  31  1   
 13   6  32  1   
 14   7  12  ar  
 15   8  13  ar  
 16   8  33  1   
 17   9  14  1   
 18   9  34  1   
 19   9  35  1   
 20  10  15  1   
 21  10  36  1   
 22  10  37  1   
 23  11  16  1   
 24  11  38  1   
 25  11  39  1   
 26  12  17  ar  
 27  12  40  1   
 28  13  17  ar  
 29  13  41  1   
 30  14  18  1   
 31  14  42  1   
 32  14  43  1   
 33  15  18  1   
 34  15  44  1   
 35  15  45  1   
 36  16  19  2   
 37  16  20  am  
 38  17  46  1   
 39  20  21  1   
 40  20  22  1   
 41  21  23  1   
 42  21  47  1   
 43  21  48  1   
 44  22  24  1   
 45  22  49  1   
 46  22  50  1   
 47  23  25  1   
 48  23  26  1   
 49  23  51  1   
 50  24  25  1   
 51  24  52  1   
 52  24  53  1   
 53  25  27  1   
 54  25  28  1   
 55  26  29  1   
 56  26  54  1   
 57  26  55  1   
 58  27  56  1   
 59  28  30  1   
 60  28  57  1   
 61  28  58  1   
 62  29  30  1   
 63  29  59  1   
 64  29  60  1   
 65  30  61  1   
 66  30  62  1   
@<TRIPOS>SUBSTRUCTURE
  1 ****  11 GROUP 4 **** **** 0

# MOE 2024.06 (io_trps.svl 2023.06)
