@<TRIPOS>MOLECULE
NONAME
54 58 1 0 0 
SMALL
USER_CHARGES


@<TRIPOS>ATOM
  1 O       -0.7190     0.4460     1.3490 O.2   1 <1>  -0.5700 
  2 C       -1.6980     1.0830     1.0060 C.2   1 <1>   0.5440 
  3 N       -2.8580     0.4080     0.7000 N.am  1 <1>  -0.6600 
  4 C       -1.6200     2.5260     0.9010 C.ar  1 <1>   0.0860 
  5 C       -3.9000     0.9210    -0.2270 C.3   1 <1>   0.1400 
  6 C       -3.0170    -1.0550     0.8690 C.3   1 <1>   0.1400 
  7 C       -2.5870     3.3570     1.4650 C.ar  1 <1>  -0.1500 
  8 C       -0.5700     3.1450     0.2280 C.ar  1 <1>  -0.1500 
  9 C       -4.7570    -0.2930    -0.6130 C.3   1 <1>   0.2000 
 10 C       -3.8450    -1.4940    -0.3390 C.3   1 <1>  -0.0800 
 11 C       -2.5210     4.7310     1.3400 C.ar  1 <1>  -0.1500 
 12 C       -0.5030     4.5200     0.1020 C.ar  1 <1>  -0.1500 
 13 O       -5.8720    -0.3700     0.2290 O.3   1 <1>  -0.5600 
 14 C       -4.5850    -2.8270    -0.1260 C.3   1 <1>   0.0200 
 15 C       -1.4800     5.3540     0.6490 C.ar  1 <1>   0.0540 
 16 C       -6.9820     0.3630    -0.1870 C.3   1 <1>   0.0400 
 17 C       -3.6500    -4.0220    -0.0310 C.2   1 <1>  -0.0400 
 18 C       -1.4220     6.7980     0.5110 C.2   1 <1>   0.4620 
 19 O       -4.1580    -5.1970     0.2290 O.3   1 <1>  -0.0190 
 20 C       -2.3220    -4.1730    -0.1650 C.2   1 <1>  -0.1500 
 21 N       -2.2700     7.6330     1.0010 N.2   1 <1>  -0.4100 
 22 N       -0.4510     7.4190    -0.1640 N.2   1 <1>  -0.5650 
 23 N       -3.2450    -6.1240     0.2790 N.2   1 <1>  -0.4100 
 24 C       -2.1280    -5.5350     0.0460 C.2   1 <1>   0.1080 
 25 O       -1.8890     8.8260     0.6700 O.3   1 <1>  -0.0190 
 26 C       -0.7970     8.6310    -0.0230 C.2   1 <1>   0.3930 
 27 C       -0.7870    -6.2340     0.0100 C.3   1 <1>  -0.0590 
 28 C       -0.0710     9.8450    -0.5810 C.3   1 <1>  -0.0150 
 29 C        1.4100     9.8360    -0.8190 C.3   1 <1>  -0.2000 
 30 C        0.8330    10.6580     0.2950 C.3   1 <1>  -0.2000 
 31 H       -4.4940     1.6830     0.2450 H     1 <1>   0.0800 
 32 H       -3.4210     1.3240    -1.1020 H     1 <1>   0.0800 
 33 H       -2.0650    -1.5560     0.9070 H     1 <1>   0.0800 
 34 H       -3.5550    -1.2400     1.7830 H     1 <1>   0.0800 
 35 H       -3.3980     2.9090     2.0140 H     1 <1>   0.1500 
 36 H        0.2030     2.5290    -0.1990 H     1 <1>   0.1500 
 37 H       -5.0840    -0.2640    -1.6390 H     1 <1>   0.0800 
 38 H       -3.1780    -1.5970    -1.1760 H     1 <1>   0.0800 
 39 H       -3.2900     5.3370     1.7900 H     1 <1>   0.1500 
 40 H        0.3260     4.9560    -0.4290 H     1 <1>   0.1500 
 41 H       -5.2620    -2.9930    -0.9450 H     1 <1>   0.0800 
 42 H       -5.1710    -2.7790     0.7750 H     1 <1>   0.0800 
 43 H       -7.7580     0.2360     0.5480 H     1 <1>   0.0800 
 44 H       -7.3210    -0.0140    -1.1360 H     1 <1>   0.0800 
 45 H       -6.7220     1.4040    -0.2610 H     1 <1>   0.0800 
 46 H       -1.5550    -3.4540    -0.3830 H     1 <1>   0.1500 
 47 H       -0.1230    -5.7860     0.7260 H     1 <1>   0.0800 
 48 H       -0.3610    -6.1530    -0.9720 H     1 <1>   0.0800 
 49 H       -0.9100    -7.2750     0.2520 H     1 <1>   0.0800 
 50 H       -0.6770    10.3760    -1.2940 H     1 <1>   0.1000 
 51 H        1.9650     8.9460    -0.5740 H     1 <1>   0.1000 
 52 H        1.7930    10.3340    -1.6920 H     1 <1>   0.1000 
 53 H        0.8190    11.7290     0.1990 H     1 <1>   0.1000 
 54 H        0.9990    10.3360     1.3090 H     1 <1>   0.1000 
@<TRIPOS>BOND
  1   1   2  2   
  2   2   3  am  
  3   2   4  1   
  4   3   5  1   
  5   3   6  1   
  6   4   7  ar  
  7   4   8  ar  
  8   5   9  1   
  9   5  31  1   
 10   5  32  1   
 11   6  10  1   
 12   6  33  1   
 13   6  34  1   
 14   7  11  ar  
 15   7  35  1   
 16   8  12  ar  
 17   8  36  1   
 18   9  10  1   
 19   9  13  1   
 20   9  37  1   
 21  10  14  1   
 22  10  38  1   
 23  11  15  ar  
 24  11  39  1   
 25  12  15  ar  
 26  12  40  1   
 27  13  16  1   
 28  14  17  1   
 29  14  41  1   
 30  14  42  1   
 31  15  18  1   
 32  16  43  1   
 33  16  44  1   
 34  16  45  1   
 35  17  19  1   
 36  17  20  2   
 37  18  21  2   
 38  18  22  1   
 39  19  23  1   
 40  20  24  1   
 41  20  46  1   
 42  21  25  1   
 43  22  26  2   
 44  23  24  2   
 45  24  27  1   
 46  25  26  1   
 47  26  28  1   
 48  27  47  1   
 49  27  48  1   
 50  27  49  1   
 51  28  29  1   
 52  28  30  1   
 53  28  50  1   
 54  29  30  1   
 55  29  51  1   
 56  29  52  1   
 57  30  53  1   
 58  30  54  1   
@<TRIPOS>SUBSTRUCTURE
  1 ****   4 GROUP 4 **** **** 0

# MOE 2024.06 (io_trps.svl 2023.06)
