@<TRIPOS>MOLECULE
NONAME
49 52 1 0 0 
SMALL
USER_CHARGES


@<TRIPOS>ATOM
  1 O        2.3730    -0.6730     3.3240 O.2   1 <1>  -0.5700 
  2 C        2.4350    -1.4350     2.3680 C.2   1 <1>   0.5650 
  3 N        2.5990    -0.9860     1.0270 N.pl3 1 <1>   0.5610 
  4 C        2.3230    -2.8420     2.5680 C.2   1 <1>  -0.1360 
  5 N        2.7010     0.2870     0.5120 N.2   1 <1>  -0.7070 
  6 C        2.6370    -1.8950    -0.0030 C.2   1 <1>  -0.0680 
  7 C        2.3680    -3.7310     1.5400 C.2   1 <1>  -0.0380 
  8 C        2.8000     0.1330    -0.7690 C.2   1 <1>   0.1080 
  9 N        2.5350    -3.2700     0.2560 N.pl3 1 <1>  -0.5840 
 10 C        2.7660    -1.2020    -1.1550 C.2   1 <1>  -0.1500 
 11 C        2.2340    -5.2410     1.7230 C.3   1 <1>   0.2480 
 12 C        2.9360     1.3070    -1.7110 C.3   1 <1>  -0.0590 
 13 N        1.1620    -5.7870     0.8590 N.3   1 <1>  -0.8100 
 14 C        1.1290    -7.2690     0.9260 C.3   1 <1>   0.2530 
 15 C       -0.1720    -5.2070     1.1660 C.3   1 <1>   0.1100 
 16 C        2.4060    -7.9160     0.3950 C.ar  1 <1>   0.1670 
 17 C       -0.6650    -4.2960     0.0230 C.3   1 <1>   0.2200 
 18 N        3.2750    -8.3650     1.2930 N.ar  1 <1>  -0.6200 
 19 C        2.5930    -8.0040    -0.9770 C.ar  1 <1>  -0.1500 
 20 N       -0.5180    -4.9930    -1.2560 N.am  1 <1>  -0.7300 
 21 C       -2.1750    -3.9980     0.0840 C.3   1 <1>  -0.1600 
 22 C        4.3690    -8.9230     0.8000 C.ar  1 <1>   0.1600 
 23 C        3.7390    -8.5860    -1.4740 C.ar  1 <1>  -0.1500 
 24 C       -1.6710    -5.3910    -1.8000 C.2   1 <1>   0.5690 
 25 C       -2.8360    -4.8380    -1.0290 C.3   1 <1>  -0.0990 
 26 C        4.6470    -9.0550    -0.5500 C.ar  1 <1>  -0.1500 
 27 O       -1.7670    -6.1460    -2.7320 O.2   1 <1>  -0.5700 
 28 H        2.1980    -3.1580     3.5860 H     1 <1>   0.1500 
 29 H        2.4990    -3.9500    -0.5190 H     1 <1>   0.4000 
 30 H        2.8280    -1.5790    -2.1590 H     1 <1>   0.1500 
 31 H        2.0330    -5.4790     2.7530 H     1 <1>   0.0800 
 32 H        3.1780    -5.6860     1.4580 H     1 <1>   0.0800 
 33 H        2.9690     0.9720    -2.7300 H     1 <1>   0.0800 
 34 H        3.8380     1.8440    -1.4850 H     1 <1>   0.0800 
 35 H        2.0980     1.9680    -1.5830 H     1 <1>   0.0800 
 36 H        0.9660    -7.5870     1.9420 H     1 <1>   0.0800 
 37 H        0.3060    -7.6290     0.3320 H     1 <1>   0.0800 
 38 H       -0.8960    -5.9930     1.3030 H     1 <1>   0.0800 
 39 H       -0.1440    -4.6430     2.0820 H     1 <1>   0.0800 
 40 H       -0.1030    -3.3790     0.0100 H     1 <1>   0.0800 
 41 H        1.8470    -7.6180    -1.6480 H     1 <1>   0.1500 
 42 H        0.3630    -5.4740    -1.4400 H     1 <1>   0.3700 
 43 H       -2.5930    -4.2160     1.0510 H     1 <1>   0.0800 
 44 H       -2.3260    -2.9520    -0.1190 H     1 <1>   0.0800 
 45 H        5.0860    -9.2970     1.5110 H     1 <1>   0.1500 
 46 H        3.9150    -8.6710    -2.5330 H     1 <1>   0.1500 
 47 H       -3.4550    -4.2380    -1.6710 H     1 <1>   0.0800 
 48 H       -3.4070    -5.6510    -0.6210 H     1 <1>   0.0800 
 49 H        5.5610    -9.5220    -0.8690 H     1 <1>   0.1500 
@<TRIPOS>BOND
  1   1   2  2   
  2   2   3  1   
  3   2   4  1   
  4   3   5  1   
  5   3   6  1   
  6   4   7  2   
  7   4  28  1   
  8   5   8  2   
  9   6   9  1   
 10   6  10  2   
 11   7   9  1   
 12   7  11  1   
 13   8  10  1   
 14   8  12  1   
 15   9  29  1   
 16  10  30  1   
 17  11  13  1   
 18  11  31  1   
 19  11  32  1   
 20  12  33  1   
 21  12  34  1   
 22  12  35  1   
 23  13  14  1   
 24  13  15  1   
 25  14  16  1   
 26  14  36  1   
 27  14  37  1   
 28  15  17  1   
 29  15  38  1   
 30  15  39  1   
 31  16  18  ar  
 32  16  19  ar  
 33  17  20  1   
 34  17  21  1   
 35  17  40  1   
 36  18  22  ar  
 37  19  23  ar  
 38  19  41  1   
 39  20  24  am  
 40  20  42  1   
 41  21  25  1   
 42  21  43  1   
 43  21  44  1   
 44  22  26  ar  
 45  22  45  1   
 46  23  26  ar  
 47  23  46  1   
 48  24  25  1   
 49  24  27  2   
 50  25  47  1   
 51  25  48  1   
 52  26  49  1   
@<TRIPOS>SUBSTRUCTURE
  1 ****   9 GROUP 4 **** **** 0

# MOE 2024.06 (io_trps.svl 2023.06)
