@<TRIPOS>MOLECULE
NONAME
50 52 1 0 0 
SMALL
USER_CHARGES


@<TRIPOS>ATOM
  1 S       -5.3260    -0.2880    -2.2090 S.3   1 <1>  -0.4600 
  2 C       -5.0960     0.3480    -0.5170 C.3   1 <1>   0.2510 
  3 C       -4.6390    -1.9560    -1.9810 C.3   1 <1>   0.2510 
  4 C       -4.5340    -0.8420     0.2240 C.2   1 <1>   0.1080 
  5 C       -4.3100    -1.9890    -0.5070 C.2   1 <1>  -0.1810 
  6 N       -4.2240    -0.9680     1.4750 N.2   1 <1>  -0.7070 
  7 C       -3.8340    -2.8940     0.3760 C.2   1 <1>  -0.0880 
  8 N       -3.7840    -2.2490     1.5800 N.pl3 1 <1>   0.3140 
  9 N       -3.4840    -4.2290     0.0730 N.am  1 <1>  -0.4940 
 10 C       -3.2720    -2.7470     2.8630 C.3   1 <1>   0.0160 
 11 C       -3.7240    -5.3780     0.7750 C.2   1 <1>   0.5690 
 12 O       -4.1320    -5.3800     1.9130 O.2   1 <1>  -0.5700 
 13 C       -3.5350    -6.7070     0.0320 C.3   1 <1>  -0.0190 
 14 C       -4.8200    -7.1260    -0.7390 C.3   1 <1>  -0.0190 
 15 C       -2.9970    -7.8350     0.9530 C.3   1 <1>  -0.1600 
 16 C       -5.5990    -5.9060    -1.2290 C.2   1 <1>   0.5690 
 17 C       -5.6540    -8.1320     0.0790 C.3   1 <1>  -0.1600 
 18 C       -3.3440    -9.2270     0.4110 C.3   1 <1>  -0.1600 
 19 O       -5.1840    -5.3240    -2.2040 O.2   1 <1>  -0.5700 
 20 N       -6.6590    -5.4510    -0.5150 N.am  1 <1>  -0.7300 
 21 C       -4.8690    -9.4330     0.3390 C.3   1 <1>  -0.1600 
 22 C       -7.3700    -4.1830    -0.7660 C.3   1 <1>   0.1400 
 23 C       -8.8310    -4.3340    -0.3460 C.3   1 <1>  -0.1600 
 24 C       -9.6080    -3.0340    -0.5820 C.3   1 <1>  -0.2400 
 25 H       -4.4020     1.1670    -0.5500 H     1 <1>   0.0800 
 26 H       -6.0520     0.6500    -0.1310 H     1 <1>   0.0800 
 27 H       -5.3890    -2.6740    -2.2580 H     1 <1>   0.0800 
 28 H       -3.7630    -2.0450    -2.5990 H     1 <1>   0.0800 
 29 H       -3.3520    -4.3900    -0.9290 H     1 <1>   0.3700 
 30 H       -2.4710    -3.4380     2.6840 H     1 <1>   0.0800 
 31 H       -4.0690    -3.2410     3.3870 H     1 <1>   0.0800 
 32 H       -2.9150    -1.9190     3.4460 H     1 <1>   0.0800 
 33 H       -2.7810    -6.5350    -0.7150 H     1 <1>   0.0800 
 34 H       -4.5080    -7.6450    -1.6290 H     1 <1>   0.0800 
 35 H       -1.9310    -7.7340     1.0600 H     1 <1>   0.0800 
 36 H       -3.4250    -7.7530     1.9380 H     1 <1>   0.0800 
 37 H       -5.9120    -7.6860     1.0260 H     1 <1>   0.0800 
 38 H       -6.5700    -8.3650    -0.4370 H     1 <1>   0.0800 
 39 H       -2.9180    -9.3370    -0.5720 H     1 <1>   0.0800 
 40 H       -2.9080    -9.9860     1.0390 H     1 <1>   0.0800 
 41 H       -6.8600    -5.8810     0.3900 H     1 <1>   0.3700 
 42 H       -5.2160    -9.8610     1.2640 H     1 <1>   0.0800 
 43 H       -5.0810   -10.1450    -0.4420 H     1 <1>   0.0800 
 44 H       -6.9000    -3.3980    -0.1980 H     1 <1>   0.0800 
 45 H       -7.3110    -3.9350    -1.8130 H     1 <1>   0.0800 
 46 H       -9.2850    -5.1250    -0.9170 H     1 <1>   0.0800 
 47 H       -8.8800    -4.5860     0.6990 H     1 <1>   0.0800 
 48 H       -9.5880    -2.7670    -1.6250 H     1 <1>   0.0800 
 49 H       -9.1780    -2.2300    -0.0110 H     1 <1>   0.0800 
 50 H      -10.6330    -3.1580    -0.2810 H     1 <1>   0.0800 
@<TRIPOS>BOND
  1   1   2  1   
  2   1   3  1   
  3   2   4  1   
  4   2  25  1   
  5   2  26  1   
  6   3   5  1   
  7   3  27  1   
  8   3  28  1   
  9   4   5  1   
 10   4   6  2   
 11   5   7  2   
 12   6   8  1   
 13   7   8  1   
 14   7   9  1   
 15   8  10  1   
 16   9  11  am  
 17   9  29  1   
 18  10  30  1   
 19  10  31  1   
 20  10  32  1   
 21  11  12  2   
 22  11  13  1   
 23  13  14  1   
 24  13  15  1   
 25  13  33  1   
 26  14  16  1   
 27  14  17  1   
 28  14  34  1   
 29  15  18  1   
 30  15  35  1   
 31  15  36  1   
 32  16  19  2   
 33  16  20  am  
 34  17  21  1   
 35  17  37  1   
 36  17  38  1   
 37  18  21  1   
 38  18  39  1   
 39  18  40  1   
 40  20  22  1   
 41  20  41  1   
 42  21  42  1   
 43  21  43  1   
 44  22  23  1   
 45  22  44  1   
 46  22  45  1   
 47  23  24  1   
 48  23  46  1   
 49  23  47  1   
 50  24  48  1   
 51  24  49  1   
 52  24  50  1   
@<TRIPOS>SUBSTRUCTURE
  1 ****   9 GROUP 4 **** **** 0

# MOE 2024.06 (io_trps.svl 2023.06)
