@<TRIPOS>MOLECULE
NONAME
64 68 1 0 0 
SMALL
USER_CHARGES


@<TRIPOS>ATOM
  1 S        1.6060    -1.0520    -2.5550 S.3   1 <1>  -0.0800 
  2 C        1.4960    -0.5680    -0.8830 C.2   1 <1>  -0.1400 
  3 C        0.0080    -1.7470    -2.4330 C.2   1 <1>   0.2280 
  4 C        0.3020    -0.9580    -0.4030 C.2   1 <1>   0.0460 
  5 C        2.6910     0.1610    -0.3030 C.3   1 <1>   0.0200 
  6 N       -0.5260    -1.6280    -1.2840 N.2   1 <1>  -0.5650 
  7 C       -0.2590    -0.7570     0.9900 C.3   1 <1>  -0.0590 
  8 C        3.9010    -0.7790    -0.3160 C.3   1 <1>   0.3430 
  9 N        5.1610    -0.1220     0.1690 N.4   1 <1>  -0.9590 
 10 C        6.3980    -0.9100    -0.1750 C.3   1 <1>   0.3430 
 11 C        5.1090     0.2210     1.6290 C.3   1 <1>   0.2630 
 12 C        6.4670    -2.3240     0.4350 C.3   1 <1>  -0.0800 
 13 C        5.8140    -3.3630    -0.4950 C.3   1 <1>   0.2000 
 14 C        7.9060    -2.9010     0.5090 C.3   1 <1>  -0.0800 
 15 O        6.8700    -3.6410    -1.3260 O.3   1 <1>  -0.5600 
 16 C        5.6090    -4.7100     0.2100 C.3   1 <1>  -0.1600 
 17 C        7.7960    -4.1120    -0.4130 C.3   1 <1>   0.2800 
 18 C        9.0930    -2.1150    -0.0780 C.3   1 <1>   0.1400 
 19 C        7.0340    -5.2650     0.2370 C.3   1 <1>  -0.1600 
 20 C        9.1810    -4.3610    -1.0100 C.3   1 <1>   0.1400 
 21 N        9.9680    -3.1380    -0.6900 N.am  1 <1>  -0.6600 
 22 C       11.3400    -3.1560    -0.5850 C.2   1 <1>   0.5440 
 23 O       11.9220    -4.2180    -0.6880 O.2   1 <1>  -0.5700 
 24 C       12.0900    -1.9440    -0.3300 C.ar  1 <1>   0.0860 
 25 C       11.9330    -0.7920    -1.0860 C.ar  1 <1>  -0.1500 
 26 C       13.0190    -1.8530     0.6940 C.ar  1 <1>  -0.1500 
 27 C       12.6550     0.3470    -0.7830 C.ar  1 <1>   0.1670 
 28 C       13.6930    -0.6690     0.9240 C.ar  1 <1>   0.1670 
 29 N       13.5180     0.4300     0.2130 N.ar  1 <1>  -0.6200 
 30 C       12.4900     1.6030    -1.6120 C.3   1 <1>  -0.0970 
 31 C       14.7040    -0.5720     2.0470 C.3   1 <1>  -0.0970 
 32 H       -0.3990    -2.2140    -3.3130 H     1 <1>   0.1500 
 33 H        2.8870     1.0310    -0.9040 H     1 <1>   0.0800 
 34 H        2.4640     0.4700     0.6990 H     1 <1>   0.0800 
 35 H        0.4270    -0.2270     1.6200 H     1 <1>   0.0800 
 36 H       -0.4750    -1.7130     1.4320 H     1 <1>   0.0800 
 37 H       -1.1750    -0.1970     0.9270 H     1 <1>   0.0800 
 38 H        4.0480    -1.1170    -1.3290 H     1 <1>   0.0800 
 39 H        3.6810    -1.6440     0.2890 H     1 <1>   0.0800 
 40 H        5.2440     0.7670    -0.3490 H     1 <1>   0.4500 
 41 H        6.4920    -0.9980    -1.2470 H     1 <1>   0.0800 
 42 H        7.2520    -0.3520     0.1740 H     1 <1>   0.0800 
 43 H        4.9560    -0.6670     2.2210 H     1 <1>   0.0800 
 44 H        4.3030     0.9080     1.8280 H     1 <1>   0.0800 
 45 H        6.0330     0.6840     1.9380 H     1 <1>   0.0800 
 46 H        6.0180    -2.3460     1.4110 H     1 <1>   0.0800 
 47 H        4.9620    -3.0400    -1.0650 H     1 <1>   0.0800 
 48 H        8.1590    -3.2200     1.5050 H     1 <1>   0.0800 
 49 H        5.1880    -4.5990     1.1930 H     1 <1>   0.0800 
 50 H        4.9680    -5.3420    -0.3810 H     1 <1>   0.0800 
 51 H        9.6140    -1.5640     0.6870 H     1 <1>   0.0800 
 52 H        8.7890    -1.4480    -0.8650 H     1 <1>   0.0800 
 53 H        7.1160    -6.1510    -0.3680 H     1 <1>   0.0800 
 54 H        7.3880    -5.4750     1.2320 H     1 <1>   0.0800 
 55 H        9.1240    -4.5160    -2.0730 H     1 <1>   0.0800 
 56 H        9.6380    -5.2160    -0.5430 H     1 <1>   0.0800 
 57 H       11.2510    -0.8000    -1.9150 H     1 <1>   0.1500 
 58 H       13.2060    -2.7190     1.3020 H     1 <1>   0.1500 
 59 H       11.7770     1.4590    -2.4030 H     1 <1>   0.0800 
 60 H       13.4370     1.8710    -2.0440 H     1 <1>   0.0800 
 61 H       12.1590     2.4090    -0.9830 H     1 <1>   0.0800 
 62 H       14.7860    -1.5020     2.5790 H     1 <1>   0.0800 
 63 H       14.4070     0.1990     2.7330 H     1 <1>   0.0800 
 64 H       15.6660    -0.3190     1.6390 H     1 <1>   0.0800 
@<TRIPOS>BOND
  1   1   2  1   
  2   1   3  1   
  3   2   4  2   
  4   2   5  1   
  5   3   6  2   
  6   3  32  1   
  7   4   6  1   
  8   4   7  1   
  9   5   8  1   
 10   5  33  1   
 11   5  34  1   
 12   7  35  1   
 13   7  36  1   
 14   7  37  1   
 15   8   9  1   
 16   8  38  1   
 17   8  39  1   
 18   9  10  1   
 19   9  11  1   
 20   9  40  1   
 21  10  12  1   
 22  10  41  1   
 23  10  42  1   
 24  11  43  1   
 25  11  44  1   
 26  11  45  1   
 27  12  13  1   
 28  12  14  1   
 29  12  46  1   
 30  13  15  1   
 31  13  16  1   
 32  13  47  1   
 33  14  17  1   
 34  14  18  1   
 35  14  48  1   
 36  15  17  1   
 37  16  19  1   
 38  16  49  1   
 39  16  50  1   
 40  17  19  1   
 41  17  20  1   
 42  18  21  1   
 43  18  51  1   
 44  18  52  1   
 45  19  53  1   
 46  19  54  1   
 47  20  21  1   
 48  20  55  1   
 49  20  56  1   
 50  21  22  am  
 51  22  23  2   
 52  22  24  1   
 53  24  25  ar  
 54  24  26  ar  
 55  25  27  ar  
 56  25  57  1   
 57  26  28  ar  
 58  26  58  1   
 59  27  29  ar  
 60  27  30  1   
 61  28  29  ar  
 62  28  31  1   
 63  30  59  1   
 64  30  60  1   
 65  30  61  1   
 66  31  62  1   
 67  31  63  1   
 68  31  64  1   
@<TRIPOS>SUBSTRUCTURE
  1 ****  12 GROUP 4 **** **** 0

# MOE 2024.06 (io_trps.svl 2023.06)
