@<TRIPOS>MOLECULE
NONAME
46 47 1 0 0 
SMALL
USER_CHARGES


@<TRIPOS>ATOM
  1 S        0.7870     0.7230    -1.6200 S.o2  1 <1>   1.3330 
  2 O        1.0360    -0.5010    -2.3490 O.2   1 <1>  -0.6500 
  3 O        0.1020     1.8170    -2.2700 O.2   1 <1>  -0.6500 
  4 N       -0.1090     0.3270    -0.2310 N.am  1 <1>  -0.8490 
  5 C        2.3530     1.3090    -0.9690 C.3   1 <1>  -0.0550 
  6 C       -0.7180     1.4920     0.4190 C.3   1 <1>   0.1160 
  7 C       -1.1380    -0.6790    -0.5090 C.3   1 <1>   0.1160 
  8 C        3.2170     0.2130    -0.3060 C.3   1 <1>  -0.0800 
  9 C        4.6120     0.6590     0.1040 C.3   1 <1>   0.2200 
 10 C        2.6500    -0.3630     0.9970 C.3   1 <1>   0.1200 
 11 N        4.5700     1.9980     0.7350 N.am  1 <1>  -0.7300 
 12 C        4.9390    -0.3810     1.1670 C.3   1 <1>   0.1200 
 13 O        3.7390    -0.6060     1.8410 O.3   1 <1>  -0.5600 
 14 C        4.9080     3.1860     0.1580 C.2   1 <1>   0.7160 
 15 O        5.2790     3.1650    -1.0000 O.2   1 <1>  -0.5700 
 16 C        4.7750     4.4110     0.9320 C.2   1 <1>   0.1410 
 17 N        4.1690     4.4080     2.1640 N.2   1 <1>  -0.5650 
 18 C        5.1550     5.6900     0.6740 C.2   1 <1>  -0.0400 
 19 C        4.2250     5.6310     2.5370 C.2   1 <1>   0.3280 
 20 O        4.8020     6.4330     1.6820 O.3   1 <1>  -0.2800 
 21 C        5.8690     6.3870    -0.4810 C.3   1 <1>   0.1000 
 22 C        5.0140     6.3900    -1.7520 C.3   1 <1>  -0.2400 
 23 C        7.2590     5.7940    -0.7360 C.3   1 <1>  -0.2400 
 24 H        2.9170     1.7260    -1.7820 H     1 <1>   0.0800 
 25 H        2.1700     2.1010    -0.2710 H     1 <1>   0.0800 
 26 H       -1.1990     1.1950     1.3360 H     1 <1>   0.0800 
 27 H       -1.4510     1.9460    -0.2290 H     1 <1>   0.0800 
 28 H        0.0340     2.2250     0.6540 H     1 <1>   0.0800 
 29 H       -1.6790    -0.9190     0.3910 H     1 <1>   0.0800 
 30 H       -0.6820    -1.5830    -0.8770 H     1 <1>   0.0800 
 31 H       -1.8280    -0.3130    -1.2510 H     1 <1>   0.0800 
 32 H        3.3230    -0.6030    -1.0010 H     1 <1>   0.0800 
 33 H        5.3130     0.6430    -0.7130 H     1 <1>   0.0800 
 34 H        2.1200    -1.2850     0.8310 H     1 <1>   0.0800 
 35 H        2.0070     0.3400     1.4980 H     1 <1>   0.0800 
 36 H        4.2260     2.0270     1.7000 H     1 <1>   0.3700 
 37 H        5.6900    -0.0480     1.8610 H     1 <1>   0.0800 
 38 H        5.2410    -1.3090     0.7130 H     1 <1>   0.0800 
 39 H        3.8520     6.0420     3.4600 H     1 <1>   0.1500 
 40 H        6.0150     7.4150    -0.1930 H     1 <1>   0.0800 
 41 H        4.8710     5.3930    -2.1250 H     1 <1>   0.0800 
 42 H        5.4920     6.9740    -2.5180 H     1 <1>   0.0800 
 43 H        4.0510     6.8200    -1.5450 H     1 <1>   0.0800 
 44 H        7.1930     4.7840    -1.0950 H     1 <1>   0.0800 
 45 H        7.8330     5.7990     0.1730 H     1 <1>   0.0800 
 46 H        7.7800     6.3800    -1.4720 H     1 <1>   0.0800 
@<TRIPOS>BOND
  1   1   2  2   
  2   1   3  2   
  3   1   4  am  
  4   1   5  1   
  5   4   6  1   
  6   4   7  1   
  7   5   8  1   
  8   5  24  1   
  9   5  25  1   
 10   6  26  1   
 11   6  27  1   
 12   6  28  1   
 13   7  29  1   
 14   7  30  1   
 15   7  31  1   
 16   8   9  1   
 17   8  10  1   
 18   8  32  1   
 19   9  11  1   
 20   9  12  1   
 21   9  33  1   
 22  10  13  1   
 23  10  34  1   
 24  10  35  1   
 25  11  14  am  
 26  11  36  1   
 27  12  13  1   
 28  12  37  1   
 29  12  38  1   
 30  14  15  2   
 31  14  16  1   
 32  16  17  1   
 33  16  18  2   
 34  17  19  2   
 35  18  20  1   
 36  18  21  1   
 37  19  20  1   
 38  19  39  1   
 39  21  22  1   
 40  21  23  1   
 41  21  40  1   
 42  22  41  1   
 43  22  42  1   
 44  22  43  1   
 45  23  44  1   
 46  23  45  1   
 47  23  46  1   
@<TRIPOS>SUBSTRUCTURE
  1 ****  11 GROUP 4 **** **** 0

# MOE 2024.06 (io_trps.svl 2023.06)
