@<TRIPOS>MOLECULE
NONAME
43 44 1 0 0 
SMALL
USER_CHARGES


@<TRIPOS>ATOM
  1 F       -1.3240    -0.9750     0.4150 F     1 <1>  -0.1900 
  2 C       -2.1140     0.0540     0.2400 C.ar  1 <1>   0.1900 
  3 C       -3.4560    -0.1410    -0.0950 C.ar  1 <1>   0.0820 
  4 C       -1.5680     1.3150     0.3870 C.ar  1 <1>  -0.1500 
  5 O       -4.0110    -1.3700    -0.2450 O.3   1 <1>  -0.3630 
  6 C       -4.2630     0.9690    -0.3100 C.ar  1 <1>  -0.1500 
  7 C       -2.4070     2.3930     0.1770 C.ar  1 <1>   0.1900 
  8 C       -4.1050    -2.2240     0.8910 C.3   1 <1>   0.2610 
  9 C       -3.7390     2.2460    -0.1710 C.ar  1 <1>  -0.1500 
 10 F       -1.9220     3.5990     0.3090 F     1 <1>  -0.1900 
 11 C       -4.2380    -3.7050     0.4780 C.2   1 <1>   0.5690 
 12 C       -5.2510    -1.7350     1.7920 C.3   1 <1>  -0.2400 
 13 O       -3.4380    -4.4610     0.9830 O.2   1 <1>  -0.5700 
 14 N       -5.2080    -4.1900    -0.3780 N.am  1 <1>  -0.6600 
 15 C       -5.2260    -5.6420    -0.7140 C.3   1 <1>   0.3200 
 16 C       -6.2390    -3.3680    -1.0910 C.3   1 <1>   0.1400 
 17 C       -6.2610    -6.3470     0.1400 C.2   1 <1>  -0.3320 
 18 C       -7.6470    -3.5900    -0.5240 C.3   1 <1>   0.1200 
 19 N       -7.1160    -7.2840    -0.3140 N.pl3 1 <1>   0.0330 
 20 C       -6.5340    -6.1960     1.4540 C.2   1 <1>   0.0770 
 21 O       -8.5180    -2.6750    -1.0970 O.3   1 <1>  -0.6800 
 22 C       -7.8660    -7.6290     0.7540 C.2   1 <1>   0.0060 
 23 N       -7.5480    -6.9950     1.8340 N.2   1 <1>  -0.5650 
 24 C       -8.9710    -8.6600     0.6830 C.3   1 <1>  -0.0600 
 25 H       -0.5360     1.4520     0.6480 H     1 <1>   0.1500 
 26 H       -5.2930     0.8300    -0.5860 H     1 <1>   0.1500 
 27 H       -3.1860    -2.1410     1.4420 H     1 <1>   0.0800 
 28 H       -4.3500     3.1170    -0.3310 H     1 <1>   0.1500 
 29 H       -6.1790    -1.7050     1.2560 H     1 <1>   0.0800 
 30 H       -5.0290    -0.7570     2.1790 H     1 <1>   0.0800 
 31 H       -5.3590    -2.4070     2.6250 H     1 <1>   0.0800 
 32 H       -4.2600    -6.0880    -0.5460 H     1 <1>   0.0800 
 33 H       -5.4590    -5.7610    -1.7580 H     1 <1>   0.0800 
 34 H       -6.2350    -3.6280    -2.1350 H     1 <1>   0.0800 
 35 H       -6.0040    -2.3250    -1.0200 H     1 <1>   0.0800 
 36 H       -7.6680    -3.4590     0.5440 H     1 <1>   0.0800 
 37 H       -8.0060    -4.5730    -0.7700 H     1 <1>   0.0800 
 38 H       -7.1970    -7.6630    -1.2610 H     1 <1>   0.2700 
 39 H       -6.0440    -5.5390     2.1540 H     1 <1>   0.1500 
 40 H       -8.3920    -1.7840    -0.7170 H     1 <1>   0.4000 
 41 H       -9.7230    -8.3480    -0.0170 H     1 <1>   0.0800 
 42 H       -9.4260    -8.7700     1.6510 H     1 <1>   0.0800 
 43 H       -8.5710    -9.6100     0.3820 H     1 <1>   0.0800 
@<TRIPOS>BOND
  1   1   2  1   
  2   2   3  ar  
  3   2   4  ar  
  4   3   5  1   
  5   3   6  ar  
  6   4   7  ar  
  7   4  25  1   
  8   5   8  1   
  9   6   9  ar  
 10   6  26  1   
 11   7   9  ar  
 12   7  10  1   
 13   8  11  1   
 14   8  12  1   
 15   8  27  1   
 16   9  28  1   
 17  11  13  2   
 18  11  14  am  
 19  12  29  1   
 20  12  30  1   
 21  12  31  1   
 22  14  15  1   
 23  14  16  1   
 24  15  17  1   
 25  15  32  1   
 26  15  33  1   
 27  16  18  1   
 28  16  34  1   
 29  16  35  1   
 30  17  19  1   
 31  17  20  2   
 32  18  21  1   
 33  18  36  1   
 34  18  37  1   
 35  19  22  1   
 36  19  38  1   
 37  20  23  1   
 38  20  39  1   
 39  21  40  1   
 40  22  23  2   
 41  22  24  1   
 42  24  41  1   
 43  24  42  1   
 44  24  43  1   
@<TRIPOS>SUBSTRUCTURE
  1 ****  11 GROUP 4 **** **** 0

# MOE 2024.06 (io_trps.svl 2023.06)
