@<TRIPOS>MOLECULE
NONAME
28 29 1 0 0 
SMALL
USER_CHARGES


@<TRIPOS>ATOM
  1 CL      -0.3740    -0.2660     0.6630 Cl    1 <1>  -0.1770 
  2 C        1.1810    -1.0100     0.3310 C.ar  1 <1>   0.1770 
  3 C        1.3390    -2.3900     0.3540 C.ar  1 <1>   0.4100 
  4 C        2.2710    -0.2370     0.0410 C.ar  1 <1>   0.1600 
  5 N        2.5180    -2.9320     0.1000 N.ar  1 <1>  -0.6200 
  6 N        0.2940    -3.2400     0.6390 N.pl3 1 <1>  -0.8690 
  7 N        3.4540    -0.7700    -0.2160 N.ar  1 <1>  -0.6200 
  8 C        3.5010    -2.0920    -0.1690 C.ar  1 <1>   0.4770 
  9 C        0.3250    -4.6990     0.4160 C.3   1 <1>   0.2090 
 10 C        4.8470    -2.7130    -0.4540 C.3   1 <1>  -0.0970 
 11 C       -1.1050    -5.2030     0.2530 C.3   1 <1>  -0.1600 
 12 C       -1.1350    -6.7180     0.0030 C.3   1 <1>   0.0080 
 13 C       -2.5510    -7.2140    -0.1620 C.2   1 <1>   0.5700 
 14 N       -3.2720    -7.6260     0.8160 N.2   1 <1>  -0.6190 
 15 N       -3.1560    -7.2600    -1.2970 N.2   1 <1>  -0.6190 
 16 N       -4.3980    -7.9550     0.2820 N.2   1 <1>  -0.2500 
 17 N       -4.3270    -7.7330    -1.0010 N.2   1 <1>  -0.2500 
 18 H        2.1790     0.8340     0.0160 H     1 <1>   0.1500 
 19 H       -0.6430    -2.8370     0.7400 H     1 <1>   0.4000 
 20 H        0.7970    -5.1750     1.2590 H     1 <1>   0.0800 
 21 H        0.8970    -4.9190    -0.4710 H     1 <1>   0.0800 
 22 H        4.7330    -3.7450    -0.7310 H     1 <1>   0.0800 
 23 H        5.4600    -2.6490     0.4250 H     1 <1>   0.0800 
 24 H        5.3290    -2.1880    -1.2590 H     1 <1>   0.0800 
 25 H       -1.5720    -4.7090    -0.5820 H     1 <1>   0.0800 
 26 H       -1.6720    -4.9900     1.1420 H     1 <1>   0.0800 
 27 H       -0.6920    -7.2420     0.8300 H     1 <1>   0.0800 
 28 H       -0.5910    -6.9610    -0.8900 H     1 <1>   0.0800 
@<TRIPOS>BOND
  1   1   2  1   
  2   2   3  ar  
  3   2   4  ar  
  4   3   5  ar  
  5   3   6  1   
  6   4   7  ar  
  7   4  18  1   
  8   5   8  ar  
  9   6   9  1   
 10   6  19  1   
 11   7   8  ar  
 12   8  10  1   
 13   9  11  1   
 14   9  20  1   
 15   9  21  1   
 16  10  22  1   
 17  10  23  1   
 18  10  24  1   
 19  11  12  1   
 20  11  25  1   
 21  11  26  1   
 22  12  13  1   
 23  12  27  1   
 24  12  28  1   
 25  13  14  1   
 26  13  15  2   
 27  14  16  1   
 28  15  17  1   
 29  16  17  2   
@<TRIPOS>SUBSTRUCTURE
  1 ****   9 GROUP 4 **** **** 0

# MOE 2024.06 (io_trps.svl 2023.06)
