@<TRIPOS>MOLECULE
NONAME
50 53 1 0 0 
SMALL
USER_CHARGES


@<TRIPOS>ATOM
  1 O        0.3020     2.3750    -1.3190 O.2   1 <1>  -0.5700 
  2 C       -0.7110     2.3360    -0.6380 C.2   1 <1>   0.5440 
  3 N       -1.6480     3.3410    -0.7420 N.am  1 <1>  -0.4200 
  4 C       -0.9680     1.2670     0.2860 C.ar  1 <1>   0.0860 
  5 C       -2.7810     3.2940     0.0340 C.2   1 <1>   0.4500 
  6 C       -1.4410     4.4810    -1.6690 C.3   1 <1>   0.1400 
  7 C       -2.1580     1.3240     1.0220 C.ar  1 <1>   0.1790 
  8 C       -0.1020     0.1880     0.4850 C.ar  1 <1>  -0.1500 
  9 N       -3.0530     2.3650     0.8690 N.2   1 <1>  -0.6290 
 10 C       -0.7210     5.6180    -0.9400 C.3   1 <1>  -0.1600 
 11 C       -2.4500     0.3110     1.9280 C.ar  1 <1>  -0.1500 
 12 C       -0.4050    -0.8100     1.3880 C.ar  1 <1>  -0.1500 
 13 C       -0.3980     6.7780    -1.8970 C.3   1 <1>  -0.0990 
 14 C       -1.5860    -0.7480     2.1140 C.ar  1 <1>  -0.1500 
 15 C        0.2100     7.9660    -1.1710 C.2   1 <1>   0.5690 
 16 O       -0.4350     8.9830    -1.1000 O.2   1 <1>  -0.5700 
 17 N        1.4480     7.8610    -0.6190 N.am  1 <1>  -0.5100 
 18 C        2.3600     8.9530    -0.1620 C.3   1 <1>   0.2250 
 19 C        2.6220     6.9890    -0.9410 C.3   1 <1>   0.2250 
 20 C        3.4670     8.2840    -1.0020 C.3   1 <1>   0.0850 
 21 N        4.7530     8.2180    -0.2790 N.pl3 1 <1>   0.4850 
 22 N        5.3030     7.0570     0.1340 N.2   1 <1>  -0.7070 
 23 C        5.5580     9.2680     0.0270 C.2   1 <1>  -0.3320 
 24 C        6.4220     7.3900     0.6930 C.2   1 <1>   0.1080 
 25 C        6.6390     8.7610     0.6570 C.2   1 <1>  -0.1500 
 26 C        5.2690    10.7240    -0.3030 C.3   1 <1>  -0.0600 
 27 C        7.3580     6.3720     1.3000 C.3   1 <1>  -0.0590 
 28 H       -3.4730     4.1090    -0.0870 H     1 <1>   0.0600 
 29 H       -2.3930     4.8210    -2.0380 H     1 <1>   0.0800 
 30 H       -0.8570     4.1570    -2.5150 H     1 <1>   0.0800 
 31 H        0.8140     0.1440    -0.0810 H     1 <1>   0.1500 
 32 H        0.1960     5.2440    -0.5170 H     1 <1>   0.0800 
 33 H       -1.3420     5.9840    -0.1400 H     1 <1>   0.0800 
 34 H       -3.3680     0.3690     2.4850 H     1 <1>   0.1500 
 35 H        0.2700    -1.6360     1.5320 H     1 <1>   0.1500 
 36 H       -1.3010     7.1080    -2.3790 H     1 <1>   0.0800 
 37 H        0.2800     6.4490    -2.6620 H     1 <1>   0.0800 
 38 H       -1.8240    -1.5260     2.8190 H     1 <1>   0.1500 
 39 H        2.5150     8.9030     0.9020 H     1 <1>   0.0000 
 40 H        2.0540     9.9160    -0.5290 H     1 <1>   0.0000 
 41 H        2.5110     6.4970    -1.8910 H     1 <1>   0.0000 
 42 H        2.8330     6.3310    -0.1170 H     1 <1>   0.0000 
 43 H        3.5660     8.6930    -1.9920 H     1 <1>   0.0000 
 44 H        7.4950     9.2780     1.0530 H     1 <1>   0.1500 
 45 H        5.1180    10.8470    -1.3610 H     1 <1>   0.0800 
 46 H        6.0980    11.3410    -0.0050 H     1 <1>   0.0800 
 47 H        4.3920    11.0620     0.2200 H     1 <1>   0.0800 
 48 H        6.8580     5.8600     2.1010 H     1 <1>   0.0800 
 49 H        8.2400     6.8510     1.6820 H     1 <1>   0.0800 
 50 H        7.6410     5.6550     0.5520 H     1 <1>   0.0800 
@<TRIPOS>BOND
  1   1   2  2   
  2   2   3  am  
  3   2   4  1   
  4   3   5  1   
  5   3   6  1   
  6   4   7  ar  
  7   4   8  ar  
  8   5   9  2   
  9   5  28  1   
 10   6  10  1   
 11   6  29  1   
 12   6  30  1   
 13   7   9  1   
 14   7  11  ar  
 15   8  12  ar  
 16   8  31  1   
 17  10  13  1   
 18  10  32  1   
 19  10  33  1   
 20  11  14  ar  
 21  11  34  1   
 22  12  14  ar  
 23  12  35  1   
 24  13  15  1   
 25  13  36  1   
 26  13  37  1   
 27  14  38  1   
 28  15  16  2   
 29  15  17  am  
 30  17  18  1   
 31  17  19  1   
 32  18  20  1   
 33  18  39  1   
 34  18  40  1   
 35  19  20  1   
 36  19  41  1   
 37  19  42  1   
 38  20  21  1   
 39  20  43  1   
 40  21  22  1   
 41  21  23  1   
 42  22  24  2   
 43  23  25  2   
 44  23  26  1   
 45  24  25  1   
 46  24  27  1   
 47  25  44  1   
 48  26  45  1   
 49  26  46  1   
 50  26  47  1   
 51  27  48  1   
 52  27  49  1   
 53  27  50  1   
@<TRIPOS>SUBSTRUCTURE
  1 ****  10 GROUP 4 **** **** 0

# MOE 2024.06 (io_trps.svl 2023.06)
