@<TRIPOS>MOLECULE
NONAME
41 44 1 0 0 
SMALL
USER_CHARGES


@<TRIPOS>ATOM
  1 S       -0.0130     0.3160     1.5000 S.o2  1 <1>   1.4470 
  2 O        0.8110    -0.2640     2.5360 O.2   1 <1>  -0.6500 
  3 O       -0.9120     1.4010     1.8270 O.2   1 <1>  -0.6500 
  4 N       -0.9580    -0.9320     0.8460 N.am  1 <1>  -0.8490 
  5 C        1.0420     0.7880     0.1180 C.ar  1 <1>  -0.0090 
  6 C       -1.9480    -0.4280    -0.1120 C.3   1 <1>   0.1960 
  7 C       -1.6200    -1.7030     1.9050 C.3   1 <1>   0.1960 
  8 C        1.0300     2.0950    -0.3440 C.ar  1 <1>   0.1600 
  9 C        1.8730    -0.1160    -0.5210 C.ar  1 <1>  -0.1500 
 10 C       -2.6440    -1.6020    -0.7990 C.3   1 <1>  -0.1600 
 11 C       -2.3180    -2.9220     1.3010 C.3   1 <1>  -0.1600 
 12 N        1.7460     2.5570    -1.3600 N.ar  1 <1>  -0.6200 
 13 C        2.6310     0.3440    -1.5770 C.ar  1 <1>  -0.1500 
 14 C       -3.3280    -2.5070     0.2300 C.3   1 <1>   0.4610 
 15 C        2.5310     1.6720    -1.9510 C.ar  1 <1>   0.1600 
 16 O       -4.3260    -1.7640     0.9070 O.3   1 <1>  -0.5600 
 17 C       -3.9510    -3.7380    -0.4330 C.2   1 <1>  -0.1810 
 18 C       -5.5780    -1.5920     0.2860 C.3   1 <1>   0.1200 
 19 C       -5.2800    -3.9010    -0.4690 C.2   1 <1>  -0.1400 
 20 C       -3.2390    -4.8130    -1.0650 C.2   1 <1>  -0.1500 
 21 C       -6.2930    -2.9390     0.0890 C.3   1 <1>   0.0200 
 22 S       -5.7350    -5.3940    -1.2620 S.3   1 <1>  -0.0800 
 23 C       -4.0450    -5.7750    -1.5570 C.2   1 <1>  -0.1100 
 24 H       -1.4600     0.1730    -0.8620 H     1 <1>   0.0800 
 25 H       -2.6750     0.1880     0.3930 H     1 <1>   0.0800 
 26 H       -2.3320    -1.0820     2.4250 H     1 <1>   0.0800 
 27 H       -0.8920    -2.0470     2.6210 H     1 <1>   0.0800 
 28 H        0.3900     2.8080     0.1510 H     1 <1>   0.1500 
 29 H        1.9200    -1.1430    -0.1970 H     1 <1>   0.1500 
 30 H       -1.9090    -2.1690    -1.3390 H     1 <1>   0.0800 
 31 H       -3.3600    -1.2450    -1.5140 H     1 <1>   0.0800 
 32 H       -2.8250    -3.4750     2.0690 H     1 <1>   0.0800 
 33 H       -1.5720    -3.5640     0.8730 H     1 <1>   0.0800 
 34 H        3.2940    -0.3180    -2.1050 H     1 <1>   0.1500 
 35 H        3.1270     2.0250    -2.7770 H     1 <1>   0.1500 
 36 H       -5.4260    -1.1080    -0.6620 H     1 <1>   0.0800 
 37 H       -6.1690    -0.9460     0.9110 H     1 <1>   0.0800 
 38 H       -2.1650    -4.8160    -1.1220 H     1 <1>   0.1500 
 39 H       -7.1150    -2.8200    -0.5920 H     1 <1>   0.0800 
 40 H       -6.6680    -3.3030     1.0290 H     1 <1>   0.0800 
 41 H       -3.8310    -6.6930    -2.0750 H     1 <1>   0.1500 
@<TRIPOS>BOND
  1   1   2  2   
  2   1   3  2   
  3   1   4  am  
  4   1   5  1   
  5   4   6  1   
  6   4   7  1   
  7   5   8  ar  
  8   5   9  ar  
  9   6  10  1   
 10   6  24  1   
 11   6  25  1   
 12   7  11  1   
 13   7  26  1   
 14   7  27  1   
 15   8  12  ar  
 16   8  28  1   
 17   9  13  ar  
 18   9  29  1   
 19  10  14  1   
 20  10  30  1   
 21  10  31  1   
 22  11  14  1   
 23  11  32  1   
 24  11  33  1   
 25  12  15  ar  
 26  13  15  ar  
 27  13  34  1   
 28  14  16  1   
 29  14  17  1   
 30  15  35  1   
 31  16  18  1   
 32  17  19  2   
 33  17  20  1   
 34  18  21  1   
 35  18  36  1   
 36  18  37  1   
 37  19  21  1   
 38  19  22  1   
 39  20  23  2   
 40  20  38  1   
 41  21  39  1   
 42  21  40  1   
 43  22  23  1   
 44  23  41  1   
@<TRIPOS>SUBSTRUCTURE
  1 ****   6 GROUP 4 **** **** 0

# MOE 2024.06 (io_trps.svl 2023.06)
