@<TRIPOS>MOLECULE
NONAME
50 52 1 0 0 
SMALL
USER_CHARGES


@<TRIPOS>ATOM
  1 S        0.1720    -0.4670    -0.1010 S.o2  1 <1>   1.3330 
  2 O       -0.6400     0.5990    -0.6400 O.2   1 <1>  -0.6500 
  3 O        0.0230    -0.8450     1.2860 O.2   1 <1>  -0.6500 
  4 N       -0.0760    -1.8560    -1.0460 N.am  1 <1>  -0.8490 
  5 C        1.8870    -0.0660    -0.4410 C.3   1 <1>  -0.0550 
  6 C        0.3430    -3.0950    -0.3810 C.3   1 <1>   0.1160 
  7 C       -1.4640    -1.9790    -1.5000 C.3   1 <1>   0.1160 
  8 C        2.3650     1.2300     0.2450 C.3   1 <1>  -0.0800 
  9 C        3.7340     1.6470    -0.2650 C.3   1 <1>   0.2200 
 10 C        2.6340     1.0230     1.7400 C.3   1 <1>   0.1200 
 11 N        3.9180     3.0970    -0.0330 N.am  1 <1>  -0.7300 
 12 C        4.6640     0.8590     0.6500 C.3   1 <1>   0.1200 
 13 O        3.9930     0.7220     1.8680 O.3   1 <1>  -0.5600 
 14 C        4.1110     4.0190    -1.0050 C.2   1 <1>   0.5690 
 15 O        4.1630     3.7220    -2.1720 O.2   1 <1>  -0.5700 
 16 C        4.2850     5.4650    -0.6110 C.3   1 <1>  -0.0990 
 17 C        5.7690     5.8390    -0.5660 C.3   1 <1>   0.0200 
 18 C        5.9330     7.2830    -0.1400 C.2   1 <1>   0.0060 
 19 N        6.0450     7.6540     1.0870 N.2   1 <1>  -0.5650 
 20 N        5.9650     8.3080    -1.0300 N.pl3 1 <1>   0.0330 
 21 C        6.1610     9.0100     1.0210 C.ar  1 <1>   0.2270 
 22 C        6.1120     9.4370    -0.2930 C.ar  1 <1>  -0.1520 
 23 C        6.3120     9.9410     2.0470 C.ar  1 <1>  -0.1500 
 24 C        6.2100    10.7900    -0.6220 C.ar  1 <1>  -0.1500 
 25 C        6.4100    11.2800     1.7340 C.ar  1 <1>  -0.1500 
 26 C        6.3580    11.7030     0.3990 C.ar  1 <1>  -0.1500 
 27 H        2.5130    -0.8850    -0.1420 H     1 <1>   0.0800 
 28 H        1.9900     0.0530    -1.5020 H     1 <1>   0.0800 
 29 H        0.2520    -3.9270    -1.0580 H     1 <1>   0.0800 
 30 H       -0.2670    -3.2810     0.4880 H     1 <1>   0.0800 
 31 H        1.3710    -3.0210    -0.0710 H     1 <1>   0.0800 
 32 H       -1.5820    -2.8600    -2.1080 H     1 <1>   0.0800 
 33 H       -1.7350    -1.1230    -2.0960 H     1 <1>   0.0800 
 34 H       -2.1310    -2.0370    -0.6560 H     1 <1>   0.0800 
 35 H        1.6350     2.0040     0.0770 H     1 <1>   0.0800 
 36 H        3.8920     1.4110    -1.3040 H     1 <1>   0.0800 
 37 H        2.0610     0.2260     2.1790 H     1 <1>   0.0800 
 38 H        2.4520     1.9310     2.2880 H     1 <1>   0.0800 
 39 H        3.9340     3.3720     0.9520 H     1 <1>   0.3700 
 40 H        5.6060     1.3540     0.8090 H     1 <1>   0.0800 
 41 H        4.8340    -0.1280     0.2600 H     1 <1>   0.0800 
 42 H        3.7740     6.0810    -1.3280 H     1 <1>   0.0800 
 43 H        3.8400     5.6370     0.3530 H     1 <1>   0.0800 
 44 H        6.2210     5.6840    -1.5300 H     1 <1>   0.0800 
 45 H        6.2760     5.2100     0.1440 H     1 <1>   0.0800 
 46 H        5.8930     8.2490    -2.0480 H     1 <1>   0.2700 
 47 H        6.3480     9.5880     3.0600 H     1 <1>   0.1500 
 48 H        6.1700    11.1050    -1.6500 H     1 <1>   0.1500 
 49 H        6.5270    12.0120     2.5140 H     1 <1>   0.1500 
 50 H        6.4370    12.7540     0.1810 H     1 <1>   0.1500 
@<TRIPOS>BOND
  1   1   2  2   
  2   1   3  2   
  3   1   4  am  
  4   1   5  1   
  5   4   6  1   
  6   4   7  1   
  7   5   8  1   
  8   5  27  1   
  9   5  28  1   
 10   6  29  1   
 11   6  30  1   
 12   6  31  1   
 13   7  32  1   
 14   7  33  1   
 15   7  34  1   
 16   8   9  1   
 17   8  10  1   
 18   8  35  1   
 19   9  11  1   
 20   9  12  1   
 21   9  36  1   
 22  10  13  1   
 23  10  37  1   
 24  10  38  1   
 25  11  14  am  
 26  11  39  1   
 27  12  13  1   
 28  12  40  1   
 29  12  41  1   
 30  14  15  2   
 31  14  16  1   
 32  16  17  1   
 33  16  42  1   
 34  16  43  1   
 35  17  18  1   
 36  17  44  1   
 37  17  45  1   
 38  18  19  2   
 39  18  20  1   
 40  19  21  1   
 41  20  22  1   
 42  20  46  1   
 43  21  22  ar  
 44  21  23  ar  
 45  22  24  ar  
 46  23  25  ar  
 47  23  47  1   
 48  24  26  ar  
 49  24  48  1   
 50  25  26  ar  
 51  25  49  1   
 52  26  50  1   
@<TRIPOS>SUBSTRUCTURE
  1 ****  11 GROUP 4 **** **** 0

# MOE 2024.06 (io_trps.svl 2023.06)
