@<TRIPOS>MOLECULE
NONAME
49 51 1 0 0 
SMALL
USER_CHARGES


@<TRIPOS>ATOM
  1 O        0.1660    -1.9430    -0.6430 O.3   1 <1>  -0.5600 
  2 C       -0.4570    -2.6280     0.4170 C.3   1 <1>   0.2800 
  3 C       -0.0530    -0.5620    -0.7470 C.3   1 <1>   0.1200 
  4 C       -1.9770    -2.3560     0.4020 C.3   1 <1>  -0.1600 
  5 C        0.2500    -2.2800     1.7410 C.3   1 <1>  -0.1600 
  6 C       -0.2050    -4.1230     0.1490 C.3   1 <1>  -0.1600 
  7 C       -1.5450    -0.2830    -0.9340 C.3   1 <1>  -0.1600 
  8 C       -2.3610    -0.8870     0.2070 C.3   1 <1>   0.2800 
  9 C        1.7600    -2.5450     1.6990 C.3   1 <1>   0.3430 
 10 C        1.2180    -4.5940     0.4780 C.3   1 <1>   0.3430 
 11 O       -2.0630    -0.2020     1.3610 O.3   1 <1>  -0.6800 
 12 C       -3.8620    -0.7190    -0.0150 C.3   1 <1>  -0.2400 
 13 N        2.1350    -3.4230     0.5460 N.4   1 <1>  -0.9590 
 14 C        3.5910    -3.7490     0.4530 C.3   1 <1>   0.4230 
 15 C        4.4330    -2.4590     0.5280 C.3   1 <1>  -0.1600 
 16 C        3.8820    -4.4940    -0.8640 C.3   1 <1>  -0.1600 
 17 C        5.9300    -2.7260     0.3220 C.3   1 <1>  -0.1600 
 18 C        5.3810    -4.7550    -1.0690 C.3   1 <1>  -0.1600 
 19 C        6.1870    -3.4560    -0.9990 C.3   1 <1>  -0.1600 
 20 H        0.4970    -0.2060    -1.6010 H     1 <1>   0.0800 
 21 H        0.3240    -0.0730     0.1340 H     1 <1>   0.0800 
 22 H       -2.4330    -2.7320     1.3010 H     1 <1>   0.0800 
 23 H       -2.4010    -2.9100    -0.4160 H     1 <1>   0.0800 
 24 H       -0.1790    -2.8730     2.5280 H     1 <1>   0.0800 
 25 H        0.0890    -1.2580     2.0240 H     1 <1>   0.0800 
 26 H       -0.4230    -4.3400    -0.8830 H     1 <1>   0.0800 
 27 H       -0.8830    -4.7150     0.7380 H     1 <1>   0.0800 
 28 H       -1.8550    -0.7160    -1.8680 H     1 <1>   0.0800 
 29 H       -1.7160     0.7760    -0.9960 H     1 <1>   0.0800 
 30 H        2.0760    -2.9920     2.6270 H     1 <1>   0.0800 
 31 H        2.2620    -1.5970     1.5950 H     1 <1>   0.0800 
 32 H        1.5310    -5.2890    -0.2820 H     1 <1>   0.0800 
 33 H        1.2220    -5.1050     1.4260 H     1 <1>   0.0800 
 34 H       -2.4890     0.6750     1.3340 H     1 <1>   0.4000 
 35 H       -4.1640    -1.2470    -0.9020 H     1 <1>   0.0800 
 36 H       -4.1180     0.3170    -0.1430 H     1 <1>   0.0800 
 37 H       -4.4130    -1.1210     0.8170 H     1 <1>   0.0800 
 38 H        1.8790    -2.8580    -0.2870 H     1 <1>   0.4500 
 39 H        3.8700    -4.3860     1.2770 H     1 <1>   0.0800 
 40 H        4.3260    -1.9950     1.4910 H     1 <1>   0.0800 
 41 H        4.1010    -1.7690    -0.2280 H     1 <1>   0.0800 
 42 H        3.5190    -3.9120    -1.6940 H     1 <1>   0.0800 
 43 H        3.3930    -5.4500    -0.8760 H     1 <1>   0.0800 
 44 H        6.3090    -3.3210     1.1360 H     1 <1>   0.0800 
 45 H        6.4680    -1.7930     0.3230 H     1 <1>   0.0800 
 46 H        5.5390    -5.2210    -2.0270 H     1 <1>   0.0800 
 47 H        5.7380    -5.4360    -0.3140 H     1 <1>   0.0800 
 48 H        7.2370    -3.6770    -1.0910 H     1 <1>   0.0800 
 49 H        5.9160    -2.8170    -1.8240 H     1 <1>   0.0800 
@<TRIPOS>BOND
  1   1   2  1   
  2   1   3  1   
  3   2   4  1   
  4   2   5  1   
  5   2   6  1   
  6   3   7  1   
  7   3  20  1   
  8   3  21  1   
  9   4   8  1   
 10   4  22  1   
 11   4  23  1   
 12   5   9  1   
 13   5  24  1   
 14   5  25  1   
 15   6  10  1   
 16   6  26  1   
 17   6  27  1   
 18   7   8  1   
 19   7  28  1   
 20   7  29  1   
 21   8  11  1   
 22   8  12  1   
 23   9  13  1   
 24   9  30  1   
 25   9  31  1   
 26  10  13  1   
 27  10  32  1   
 28  10  33  1   
 29  11  34  1   
 30  12  35  1   
 31  12  36  1   
 32  12  37  1   
 33  13  14  1   
 34  13  38  1   
 35  14  15  1   
 36  14  16  1   
 37  14  39  1   
 38  15  17  1   
 39  15  40  1   
 40  15  41  1   
 41  16  18  1   
 42  16  42  1   
 43  16  43  1   
 44  17  19  1   
 45  17  44  1   
 46  17  45  1   
 47  18  19  1   
 48  18  46  1   
 49  18  47  1   
 50  19  48  1   
 51  19  49  1   
@<TRIPOS>SUBSTRUCTURE
  1 ****  13 GROUP 4 **** **** 0

# MOE 2024.06 (io_trps.svl 2023.06)
