@<TRIPOS>MOLECULE
Untitled Document
36 37 1 0 0 
SMALL
USER_CHARGES


@<TRIPOS>ATOM
  1 S       -0.0150     0.2360    -1.0320 S.o   1 <1>   0.2430 
  2 O        0.2780    -1.2930    -1.3490 O.2   1 <1>  -0.5000 
  3 C       -1.8500     0.3650    -0.8240 C.ar  1 <1>   0.0640 
  4 C        0.5100     0.5540     0.7390 C.3   1 <1>  -0.0470 
  5 C       -2.4350     1.6170    -0.7850 C.ar  1 <1>  -0.1500 
  6 C       -2.6120    -0.7830    -0.6970 C.ar  1 <1>  -0.1500 
  7 C       -3.8050     1.7160    -0.6120 C.ar  1 <1>  -0.1500 
  8 C       -3.9800    -0.6710    -0.5280 C.ar  1 <1>  -0.1500 
  9 C       -4.6000     0.5780    -0.4790 C.ar  1 <1>   0.1170 
 10 N       -5.9920     0.6840    -0.2940 N.am  1 <1>  -0.4770 
 11 C       -6.8500     1.6510    -0.7410 C.2   1 <1>   0.7800 
 12 C       -6.7390    -0.2100     0.6020 C.3   1 <1>   0.1400 
 13 O       -6.5930     2.5690    -1.4860 O.2   1 <1>  -0.5700 
 14 O       -8.0790     1.4900    -0.2720 O.3   1 <1>  -0.4300 
 15 C       -8.1750     0.3220     0.5170 C.3   1 <1>   0.2000 
 16 C       -9.1390    -0.6600    -0.1620 C.3   1 <1>   0.1400 
 17 N      -10.4740    -0.0410    -0.3370 N.am  1 <1>  -0.7300 
 18 C      -11.5830    -0.3930     0.3560 C.2   1 <1>   0.5690 
 19 O      -11.5740    -1.2770     1.1750 O.2   1 <1>  -0.5700 
 20 C      -12.8570     0.3650     0.0940 C.3   1 <1>  -0.1790 
 21 H        0.3340     1.5760     1.0170 H     1 <1>   0.0800 
 22 H        1.5560     0.3460     0.8660 H     1 <1>   0.0800 
 23 H       -0.0370    -0.0780     1.4150 H     1 <1>   0.0800 
 24 H       -1.8350     2.5040    -0.8900 H     1 <1>   0.1500 
 25 H       -2.1390    -1.7500    -0.7360 H     1 <1>   0.1500 
 26 H       -4.2580     2.6910    -0.5810 H     1 <1>   0.1500 
 27 H       -4.5640    -1.5680    -0.4450 H     1 <1>   0.1500 
 28 H       -6.6770    -1.2310     0.2710 H     1 <1>   0.0800 
 29 H       -6.3610    -0.1300     1.6060 H     1 <1>   0.0800 
 30 H       -8.5430     0.5920     1.4910 H     1 <1>   0.0800 
 31 H       -9.2270    -1.5490     0.4410 H     1 <1>   0.0800 
 32 H       -8.7530    -0.9490    -1.1240 H     1 <1>   0.0800 
 33 H      -10.4940     0.7810    -0.9470 H     1 <1>   0.3700 
 34 H      -13.1190     0.2870    -0.9440 H     1 <1>   0.0800 
 35 H      -12.7250     1.3970     0.3570 H     1 <1>   0.0800 
 36 H      -13.6520    -0.0480     0.6870 H     1 <1>   0.0800 
@<TRIPOS>BOND
  1   1   2  2   
  2   1   3  1   
  3   1   4  1   
  4   3   5  ar  
  5   3   6  ar  
  6   4  21  1   
  7   4  22  1   
  8   4  23  1   
  9   5   7  ar  
 10   5  24  1   
 11   6   8  ar  
 12   6  25  1   
 13   7   9  ar  
 14   7  26  1   
 15   8   9  ar  
 16   8  27  1   
 17   9  10  1   
 18  10  11  am  
 19  10  12  1   
 20  11  13  2   
 21  11  14  1   
 22  12  15  1   
 23  12  28  1   
 24  12  29  1   
 25  14  15  1   
 26  15  16  1   
 27  15  30  1   
 28  16  17  1   
 29  16  31  1   
 30  16  32  1   
 31  17  18  am  
 32  17  33  1   
 33  18  19  2   
 34  18  20  1   
 35  20  34  1   
 36  20  35  1   
 37  20  36  1   
@<TRIPOS>SUBSTRUCTURE
  1 ****  10 GROUP 4 **** **** 0

# MOE 2024.06 (io_trps.svl 2023.06)
