@<TRIPOS>MOLECULE
NONAME
52 54 1 0 0 
SMALL
USER_CHARGES


@<TRIPOS>ATOM
  1 O        1.9550     2.7550    -0.0810 O.co2 1 <1>  -0.9000 
  2 C        2.2820     1.7170     0.5070 C.2   1 <1>   0.9060 
  3 O        2.3240     1.6640     1.7420 O.co2 1 <1>  -0.9000 
  4 C        2.9630     0.5890    -0.2900 C.3   1 <1>  -0.1060 
  5 C        4.4270     0.6390     0.1830 C.3   1 <1>   0.4230 
  6 C        2.9560     0.8880    -1.8230 C.3   1 <1>  -0.1600 
  7 C        2.3230    -0.8060    -0.0510 C.3   1 <1>  -0.1600 
  8 N        4.5480     0.1330     1.5920 N.4   1 <1>  -0.9590 
  9 C        4.9340     2.1030     0.0260 C.3   1 <1>   0.3430 
 10 C        4.0560     1.8560    -2.2920 C.3   1 <1>   0.3430 
 11 C        2.6160    -1.3670     1.3480 C.3   1 <1>  -0.1600 
 12 C        4.1010    -1.2720     1.7030 C.3   1 <1>   0.3430 
 13 C        5.9370     0.3030     2.1150 C.3   1 <1>   0.2630 
 14 N        4.4450     2.8060    -1.2150 N.4   1 <1>  -0.9590 
 15 C        5.4510     3.7690    -1.7390 C.3   1 <1>   0.4860 
 16 C        6.0200     4.6790    -0.6620 C.ar  1 <1>  -0.1430 
 17 C        7.1470     4.3870     0.1200 C.ar  1 <1>   0.0820 
 18 C        5.3580     5.8840    -0.4610 C.ar  1 <1>  -0.1500 
 19 O        7.8570     3.2280     0.0990 O.3   1 <1>  -0.3620 
 20 C        7.5770     5.3060     1.0640 C.ar  1 <1>  -0.1500 
 21 C        5.8000     6.7920     0.4840 C.ar  1 <1>  -0.1500 
 22 C        8.3590     2.5880    -1.0790 C.3   1 <1>   0.0140 
 23 C        6.9150     6.5040     1.2470 C.ar  1 <1>  -0.1500 
 24 C        7.5730     1.3320    -1.4390 C.2   1 <1>   0.9060 
 25 O        7.3130     0.4800    -0.5770 O.co2 1 <1>  -0.9000 
 26 O        7.0390     1.2740    -2.5510 O.co2 1 <1>  -0.9000 
 27 H        5.0280     0.0130    -0.4570 H     1 <1>   0.0800 
 28 H        1.9950     1.2790    -2.1110 H     1 <1>   0.0800 
 29 H        3.0930    -0.0170    -2.3860 H     1 <1>   0.0800 
 30 H        1.2580    -0.7430    -0.1980 H     1 <1>   0.0800 
 31 H        2.7110    -1.5090    -0.7680 H     1 <1>   0.0800 
 32 H        3.8430     0.7180     2.1130 H     1 <1>   0.4500 
 33 H        5.9990     2.0930     0.0550 H     1 <1>   0.0800 
 34 H        4.6000     2.6720     0.8780 H     1 <1>   0.0800 
 35 H        3.7120     2.3950    -3.1590 H     1 <1>   0.0800 
 36 H        4.9150     1.2770    -2.5850 H     1 <1>   0.0800 
 37 H        2.3090    -2.3970     1.3910 H     1 <1>   0.0800 
 38 H        2.0420    -0.8350     2.0880 H     1 <1>   0.0800 
 39 H        4.6790    -1.8890     1.0330 H     1 <1>   0.0800 
 40 H        4.2490    -1.6240     2.7100 H     1 <1>   0.0800 
 41 H        6.6340    -0.2490     1.5030 H     1 <1>   0.0800 
 42 H        6.0020    -0.0550     3.1290 H     1 <1>   0.0800 
 43 H        6.2260     1.3410     2.0990 H     1 <1>   0.0800 
 44 H        3.5560     3.2780    -0.9140 H     1 <1>   0.4500 
 45 H        6.2520     3.2440    -2.2200 H     1 <1>   0.0800 
 46 H        4.9860     4.3790    -2.4940 H     1 <1>   0.0800 
 47 H        4.4830     6.1290    -1.0390 H     1 <1>   0.1500 
 48 H        8.4400     5.0730     1.6630 H     1 <1>   0.1500 
 49 H        5.2750     7.7210     0.6280 H     1 <1>   0.1500 
 50 H        8.3450     3.2860    -1.8940 H     1 <1>   0.0800 
 51 H        9.3740     2.3020    -0.8820 H     1 <1>   0.0800 
 52 H        7.2620     7.2070     1.9850 H     1 <1>   0.1500 
@<TRIPOS>BOND
  1   1   2  ar  
  2   2   3  ar  
  3   2   4  1   
  4   4   5  1   
  5   4   6  1   
  6   4   7  1   
  7   5   8  1   
  8   5   9  1   
  9   5  27  1   
 10   6  10  1   
 11   6  28  1   
 12   6  29  1   
 13   7  11  1   
 14   7  30  1   
 15   7  31  1   
 16   8  12  1   
 17   8  13  1   
 18   8  32  1   
 19   9  14  1   
 20   9  33  1   
 21   9  34  1   
 22  10  14  1   
 23  10  35  1   
 24  10  36  1   
 25  11  12  1   
 26  11  37  1   
 27  11  38  1   
 28  12  39  1   
 29  12  40  1   
 30  13  41  1   
 31  13  42  1   
 32  13  43  1   
 33  14  15  1   
 34  14  44  1   
 35  15  16  1   
 36  15  45  1   
 37  15  46  1   
 38  16  17  ar  
 39  16  18  ar  
 40  17  19  1   
 41  17  20  ar  
 42  18  21  ar  
 43  18  47  1   
 44  19  22  1   
 45  20  23  ar  
 46  20  48  1   
 47  21  23  ar  
 48  21  49  1   
 49  22  24  1   
 50  22  50  1   
 51  22  51  1   
 52  23  52  1   
 53  24  25  ar  
 54  24  26  ar  
@<TRIPOS>SUBSTRUCTURE
  1 ****   9 GROUP 4 **** **** 0

# MOE 2024.06 (io_trps.svl 2023.06)
