@<TRIPOS>MOLECULE
NONAME
41 42 1 0 0 
SMALL
USER_CHARGES


@<TRIPOS>ATOM
  1 S        0.3480     0.2360    -1.1490 S.o2  1 <1>   1.3330 
  2 O       -0.7290     1.0970    -1.5830 O.2   1 <1>  -0.6500 
  3 O        0.6090    -0.9980    -1.8540 O.2   1 <1>  -0.6500 
  4 N        0.0600    -0.1460     0.4820 N.am  1 <1>  -0.8490 
  5 C        1.8720     1.1820    -1.1060 C.3   1 <1>  -0.0550 
  6 C       -0.5900     0.9370     1.2270 C.3   1 <1>   0.1160 
  7 C       -0.7170    -1.3820     0.6300 C.3   1 <1>   0.1160 
  8 C        3.1130     0.3670    -0.6820 C.3   1 <1>  -0.0800 
  9 C        4.4380     1.0950    -0.8440 C.3   1 <1>   0.2200 
 10 C        3.1400    -0.0650     0.7910 C.3   1 <1>   0.1200 
 11 N        4.3280     2.5030    -0.3930 N.am  1 <1>  -0.7300 
 12 C        5.3030     0.3290     0.1480 C.3   1 <1>   0.1200 
 13 O        4.4610     0.0700     1.2280 O.3   1 <1>  -0.5600 
 14 C        4.3000     3.5870    -1.2100 C.2   1 <1>   0.5690 
 15 O        4.2570     3.4660    -2.4100 O.2   1 <1>  -0.5700 
 16 C        4.2820     4.9810    -0.6000 C.3   1 <1>   0.0820 
 17 C        5.3530     5.2160     0.4620 C.2   1 <1>  -0.1810 
 18 C        6.5030     4.5280     0.6130 C.2   1 <1>  -0.1100 
 19 C        5.1950     6.2640     1.4270 C.2   1 <1>  -0.1500 
 20 S        7.4310     5.1420     1.9680 S.3   1 <1>  -0.0800 
 21 C        6.2120     6.3580     2.3020 C.2   1 <1>  -0.1100 
 22 H        2.0530     1.5680    -2.0910 H     1 <1>   0.0800 
 23 H        1.7490     2.0220    -0.4520 H     1 <1>   0.0800 
 24 H       -0.6650     0.6760     2.2690 H     1 <1>   0.0800 
 25 H       -1.5800     1.1210     0.8400 H     1 <1>   0.0800 
 26 H       -0.0150     1.8430     1.1450 H     1 <1>   0.0800 
 27 H       -0.8730    -1.6030     1.6720 H     1 <1>   0.0800 
 28 H       -0.1840    -2.2080     0.1880 H     1 <1>   0.0800 
 29 H       -1.6710    -1.2850     0.1390 H     1 <1>   0.0800 
 30 H        3.1560    -0.5260    -1.2820 H     1 <1>   0.0800 
 31 H        4.8230     1.0440    -1.8490 H     1 <1>   0.0800 
 32 H        2.8320    -1.0890     0.9120 H     1 <1>   0.0800 
 33 H        2.5300     0.5720     1.4070 H     1 <1>   0.0800 
 34 H        4.4010     2.6240     0.6220 H     1 <1>   0.3700 
 35 H        6.1600     0.8890     0.4780 H     1 <1>   0.0800 
 36 H        5.6140    -0.6150    -0.2650 H     1 <1>   0.0800 
 37 H        4.4030     5.7060    -1.3840 H     1 <1>   0.0800 
 38 H        3.3120     5.1290    -0.1650 H     1 <1>   0.0800 
 39 H        6.9280     3.7050     0.0640 H     1 <1>   0.1500 
 40 H        4.3280     6.9020     1.4220 H     1 <1>   0.1500 
 41 H        6.3910     7.0230     3.1280 H     1 <1>   0.1500 
@<TRIPOS>BOND
  1   1   2  2   
  2   1   3  2   
  3   1   4  am  
  4   1   5  1   
  5   4   6  1   
  6   4   7  1   
  7   5   8  1   
  8   5  22  1   
  9   5  23  1   
 10   6  24  1   
 11   6  25  1   
 12   6  26  1   
 13   7  27  1   
 14   7  28  1   
 15   7  29  1   
 16   8   9  1   
 17   8  10  1   
 18   8  30  1   
 19   9  11  1   
 20   9  12  1   
 21   9  31  1   
 22  10  13  1   
 23  10  32  1   
 24  10  33  1   
 25  11  14  am  
 26  11  34  1   
 27  12  13  1   
 28  12  35  1   
 29  12  36  1   
 30  14  15  2   
 31  14  16  1   
 32  16  17  1   
 33  16  37  1   
 34  16  38  1   
 35  17  18  2   
 36  17  19  1   
 37  18  20  1   
 38  18  39  1   
 39  19  21  2   
 40  19  40  1   
 41  20  21  1   
 42  21  41  1   
@<TRIPOS>SUBSTRUCTURE
  1 ****  11 GROUP 4 **** **** 0

# MOE 2024.06 (io_trps.svl 2023.06)
