@<TRIPOS>MOLECULE
NONAME
51 53 1 0 0 
SMALL
USER_CHARGES


@<TRIPOS>ATOM
  1 F       -1.2630     0.9740    -1.1100 F     1 <1>  -0.1900 
  2 C       -2.2780     1.5470    -0.5150 C.ar  1 <1>   0.1900 
  3 C       -3.4080     0.8150    -0.1260 C.ar  1 <1>   0.0820 
  4 C       -2.1800     2.9090    -0.3120 C.ar  1 <1>  -0.1500 
  5 O       -3.5860    -0.5320    -0.2860 O.3   1 <1>  -0.3630 
  6 C       -4.4570     1.5120     0.4700 C.ar  1 <1>  -0.1440 
  7 C       -3.2290     3.5800     0.2900 C.ar  1 <1>  -0.1500 
  8 C       -2.5000    -1.4170    -0.4870 C.3   1 <1>   0.0400 
  9 C       -4.3620     2.8830     0.6760 C.ar  1 <1>  -0.1500 
 10 C       -5.7170     0.7850     0.9020 C.3   1 <1>   0.4870 
 11 N       -6.3510     0.1540    -0.2900 N.4   1 <1>  -0.9590 
 12 C       -6.7490     1.1750    -1.3170 C.3   1 <1>   0.3430 
 13 C       -7.4540    -0.7580     0.1110 C.3   1 <1>   0.3430 
 14 C       -8.2670     1.3290    -1.4500 C.3   1 <1>  -0.1600 
 15 C       -8.6760     0.0070     0.6350 C.3   1 <1>  -0.1600 
 16 C       -8.9560     1.3560    -0.0680 C.3   1 <1>   0.2800 
 17 O       -8.3010     2.3340     0.7020 O.3   1 <1>  -0.5600 
 18 C      -10.5040     1.6140    -0.0870 C.3   1 <1>   0.2000 
 19 C       -8.4480     3.6950     0.3820 C.3   1 <1>   0.1200 
 20 O      -11.0330     1.1710    -1.3080 O.3   1 <1>  -0.6800 
 21 C      -10.9160     3.0840     0.2180 C.3   1 <1>   0.2800 
 22 C       -9.8160     4.0450    -0.2240 C.3   1 <1>  -0.1600 
 23 O      -11.0550     3.2100     1.5870 O.3   1 <1>  -0.6800 
 24 C      -12.2780     3.4960    -0.3570 C.3   1 <1>  -0.2400 
 25 H       -1.2940     3.4360    -0.6210 H     1 <1>   0.1500 
 26 H       -3.1620     4.6430     0.4570 H     1 <1>   0.1500 
 27 H       -2.8530    -2.4240    -0.3570 H     1 <1>   0.0800 
 28 H       -1.7320    -1.2060     0.2380 H     1 <1>   0.0800 
 29 H       -2.1230    -1.2940    -1.4870 H     1 <1>   0.0800 
 30 H       -5.1700     3.4220     1.1450 H     1 <1>   0.1500 
 31 H       -6.3970     1.4710     1.3770 H     1 <1>   0.0800 
 32 H       -5.4510     0.0250     1.6180 H     1 <1>   0.0800 
 33 H       -5.5750    -0.4000    -0.6900 H     1 <1>   0.4500 
 34 H       -6.3310     2.1320    -1.0490 H     1 <1>   0.0800 
 35 H       -6.3410     0.9010    -2.2760 H     1 <1>   0.0800 
 36 H       -7.7570    -1.3260    -0.7540 H     1 <1>   0.0800 
 37 H       -7.1120    -1.4570     0.8580 H     1 <1>   0.0800 
 38 H       -8.6500     0.5100    -2.0320 H     1 <1>   0.0800 
 39 H       -8.4890     2.2190    -2.0080 H     1 <1>   0.0800 
 40 H       -8.5940     0.1620     1.6960 H     1 <1>   0.0800 
 41 H       -9.5140    -0.6500     0.4870 H     1 <1>   0.0800 
 42 H      -10.9730     1.0020     0.6650 H     1 <1>   0.0800 
 43 H       -8.3170     4.2390     1.3020 H     1 <1>   0.0800 
 44 H       -7.6570     3.9780    -0.2910 H     1 <1>   0.0800 
 45 H      -12.0060     1.2740    -1.3030 H     1 <1>   0.4000 
 46 H       -9.7400     4.0110    -1.2950 H     1 <1>   0.0800 
 47 H      -10.0720     5.0580     0.0290 H     1 <1>   0.0800 
 48 H      -11.3580     4.1100     1.8100 H     1 <1>   0.4000 
 49 H      -12.2510     3.4850    -1.4320 H     1 <1>   0.0800 
 50 H      -12.5360     4.4940    -0.0500 H     1 <1>   0.0800 
 51 H      -13.0460     2.8200    -0.0260 H     1 <1>   0.0800 
@<TRIPOS>BOND
  1   1   2  1   
  2   2   3  ar  
  3   2   4  ar  
  4   3   5  1   
  5   3   6  ar  
  6   4   7  ar  
  7   4  25  1   
  8   5   8  1   
  9   6   9  ar  
 10   6  10  1   
 11   7   9  ar  
 12   7  26  1   
 13   8  27  1   
 14   8  28  1   
 15   8  29  1   
 16   9  30  1   
 17  10  11  1   
 18  10  31  1   
 19  10  32  1   
 20  11  12  1   
 21  11  13  1   
 22  11  33  1   
 23  12  14  1   
 24  12  34  1   
 25  12  35  1   
 26  13  15  1   
 27  13  36  1   
 28  13  37  1   
 29  14  16  1   
 30  14  38  1   
 31  14  39  1   
 32  15  16  1   
 33  15  40  1   
 34  15  41  1   
 35  16  17  1   
 36  16  18  1   
 37  17  19  1   
 38  18  20  1   
 39  18  21  1   
 40  18  42  1   
 41  19  22  1   
 42  19  43  1   
 43  19  44  1   
 44  20  45  1   
 45  21  22  1   
 46  21  23  1   
 47  21  24  1   
 48  22  46  1   
 49  22  47  1   
 50  23  48  1   
 51  24  49  1   
 52  24  50  1   
 53  24  51  1   
@<TRIPOS>SUBSTRUCTURE
  1 ****  12 GROUP 4 **** **** 0

# MOE 2024.06 (io_trps.svl 2023.06)
