@<TRIPOS>MOLECULE
NONAME
50 53 1 0 0 
SMALL
USER_CHARGES


@<TRIPOS>ATOM
  1 O       -0.4060    -2.4940     2.2300 O.2   1 <1>  -0.5700 
  2 C        0.0680    -2.0040     1.2270 C.2   1 <1>   0.6900 
  3 N        0.8830    -2.7160     0.3930 N.am  1 <1>  -0.6600 
  4 N       -0.2580    -0.7400     0.9380 N.am  1 <1>  -0.8000 
  5 C        1.1570    -4.1750     0.6400 C.3   1 <1>   0.2010 
  6 C        1.5740    -2.1460    -0.7990 C.3   1 <1>   0.0600 
  7 C        0.7610    -5.0830    -0.5310 C.2   1 <1>   0.5690 
  8 O        1.6630    -5.5170    -1.2130 O.2   1 <1>  -0.5700 
  9 N       -0.5530    -5.3980    -0.7960 N.am  1 <1>  -0.6600 
 10 C       -1.7230    -4.9080    -0.0140 C.3   1 <1>   0.1400 
 11 C       -0.9340    -6.2530    -1.9550 C.3   1 <1>   0.1400 
 12 C       -2.5040    -6.1090     0.5190 C.3   1 <1>  -0.1600 
 13 C       -1.7100    -7.4690    -1.4480 C.3   1 <1>  -0.1600 
 14 C       -2.9260    -7.0550    -0.6140 C.3   1 <1>   0.4600 
 15 O       -3.7930    -6.3690    -1.4920 O.3   1 <1>  -0.5600 
 16 C       -3.6360    -8.2870    -0.0660 C.2   1 <1>  -0.3320 
 17 C       -5.1520    -6.2650    -1.1360 C.3   1 <1>   0.1200 
 18 N       -3.0770    -9.2730     0.6990 N.pl3 1 <1>   0.0330 
 19 C       -4.9370    -8.5690    -0.2730 C.2   1 <1>  -0.1810 
 20 C       -5.8190    -7.6500    -1.0800 C.3   1 <1>   0.0210 
 21 C       -4.0530   -10.2010     0.9740 C.ar  1 <1>  -0.1520 
 22 C       -5.2380    -9.7860     0.3720 C.ar  1 <1>   0.0000 
 23 C       -4.0010   -11.3880     1.7090 C.ar  1 <1>  -0.1500 
 24 C       -6.3910   -10.5670     0.5020 C.ar  1 <1>  -0.1500 
 25 C       -5.1430   -12.1460     1.8300 C.ar  1 <1>  -0.1500 
 26 C       -6.3380   -11.7360     1.2260 C.ar  1 <1>  -0.1500 
 27 H       -0.9270    -0.2660     1.5410 H     1 <1>   0.3700 
 28 H       -0.0670    -0.3330     0.0290 H     1 <1>   0.3700 
 29 H        0.6510    -4.5160     1.5240 H     1 <1>   0.0800 
 30 H        2.2100    -4.2970     0.8170 H     1 <1>   0.0800 
 31 H        1.7370    -1.0900    -0.6780 H     1 <1>   0.0800 
 32 H        0.9780    -2.3190    -1.6780 H     1 <1>   0.0800 
 33 H        2.5310    -2.6220    -0.9300 H     1 <1>   0.0800 
 34 H       -2.3530    -4.3170    -0.6580 H     1 <1>   0.0800 
 35 H       -1.4210    -4.2910     0.8090 H     1 <1>   0.0800 
 36 H       -0.0620    -6.5790    -2.4950 H     1 <1>   0.0800 
 37 H       -1.5480    -5.6800    -2.6290 H     1 <1>   0.0800 
 38 H       -3.3670    -5.7770     1.0640 H     1 <1>   0.0800 
 39 H       -1.8790    -6.6410     1.2110 H     1 <1>   0.0800 
 40 H       -1.0470    -8.0710    -0.8570 H     1 <1>   0.0800 
 41 H       -2.0400    -8.0650    -2.2790 H     1 <1>   0.0800 
 42 H       -5.6370    -5.6490    -1.8720 H     1 <1>   0.0800 
 43 H       -5.2190    -5.7800    -0.1790 H     1 <1>   0.0800 
 44 H       -2.1040    -9.3300     1.0120 H     1 <1>   0.2700 
 45 H       -5.9380    -8.0410    -2.0740 H     1 <1>   0.0800 
 46 H       -6.7870    -7.5670    -0.6220 H     1 <1>   0.0800 
 47 H       -3.0800   -11.6980     2.1690 H     1 <1>   0.1500 
 48 H       -7.3000   -10.2400     0.0320 H     1 <1>   0.1500 
 49 H       -5.1290   -13.0650     2.3900 H     1 <1>   0.1500 
 50 H       -7.2170   -12.3470     1.3350 H     1 <1>   0.1500 
@<TRIPOS>BOND
  1   1   2  2   
  2   2   3  am  
  3   2   4  am  
  4   3   5  1   
  5   3   6  1   
  6   4  27  1   
  7   4  28  1   
  8   5   7  1   
  9   5  29  1   
 10   5  30  1   
 11   6  31  1   
 12   6  32  1   
 13   6  33  1   
 14   7   8  2   
 15   7   9  am  
 16   9  10  1   
 17   9  11  1   
 18  10  12  1   
 19  10  34  1   
 20  10  35  1   
 21  11  13  1   
 22  11  36  1   
 23  11  37  1   
 24  12  14  1   
 25  12  38  1   
 26  12  39  1   
 27  13  14  1   
 28  13  40  1   
 29  13  41  1   
 30  14  15  1   
 31  14  16  1   
 32  15  17  1   
 33  16  18  1   
 34  16  19  2   
 35  17  20  1   
 36  17  42  1   
 37  17  43  1   
 38  18  21  1   
 39  18  44  1   
 40  19  20  1   
 41  19  22  1   
 42  20  45  1   
 43  20  46  1   
 44  21  22  ar  
 45  21  23  ar  
 46  22  24  ar  
 47  23  25  ar  
 48  23  47  1   
 49  24  26  ar  
 50  24  48  1   
 51  25  26  ar  
 52  25  49  1   
 53  26  50  1   
@<TRIPOS>SUBSTRUCTURE
  1 ****  12 GROUP 4 **** **** 0

# MOE 2024.06 (io_trps.svl 2023.06)
