@<TRIPOS>MOLECULE
NONAME
50 52 1 0 0 
SMALL
USER_CHARGES


@<TRIPOS>ATOM
  1 S        0.6110    -0.0400    -0.8460 S.o2  1 <1>   1.2040 
  2 O        1.3800     0.6160     0.1880 O.2   1 <1>  -0.6500 
  3 O        1.0710    -0.0220    -2.2160 O.2   1 <1>  -0.6500 
  4 C        0.2580    -1.7460    -0.3490 C.ar  1 <1>  -0.0090 
  5 C       -1.0130     0.6940    -0.8320 C.3   1 <1>  -0.1350 
  6 C        0.1810    -2.1040     0.9910 C.ar  1 <1>  -0.1500 
  7 C        0.0330    -2.7420    -1.2920 C.ar  1 <1>  -0.1500 
  8 C       -0.1140    -3.4020     1.3720 C.ar  1 <1>  -0.1500 
  9 C       -0.2600    -4.0410    -0.9120 C.ar  1 <1>  -0.1500 
 10 C       -0.3480    -4.4010     0.4310 C.ar  1 <1>   0.0860 
 11 C       -0.6460    -5.7590     0.8500 C.2   1 <1>   0.5440 
 12 O        0.1550    -6.3450     1.5520 O.2   1 <1>  -0.5700 
 13 N       -1.8030    -6.4170     0.4800 N.am  1 <1>  -0.6600 
 14 C       -2.0380    -7.8300     0.9400 C.3   1 <1>   0.1400 
 15 C       -2.9050    -5.7700    -0.3040 C.3   1 <1>   0.1400 
 16 C       -2.9870    -8.5330    -0.0460 C.3   1 <1>   0.4230 
 17 C       -4.2790    -6.3400     0.0790 C.3   1 <1>  -0.1600 
 18 N       -3.0780   -10.0280     0.0370 N.4   1 <1>  -0.9590 
 19 C       -4.3890    -7.8980     0.0440 C.3   1 <1>  -0.1060 
 20 C       -3.8450   -10.5860    -1.1100 C.3   1 <1>   0.3430 
 21 C       -1.7960   -10.7400     0.2810 C.3   1 <1>   0.2630 
 22 C       -5.1170    -8.3640     1.3190 C.2   1 <1>   0.9060 
 23 C       -5.1680    -8.3780    -1.2030 C.3   1 <1>  -0.1600 
 24 C       -5.2210    -9.9180    -1.2460 C.3   1 <1>  -0.1600 
 25 O       -6.2180    -7.8840     1.5780 O.co2 1 <1>  -0.9000 
 26 O       -4.6150    -9.2580     2.0200 O.co2 1 <1>  -0.9000 
 27 H       -1.4430     0.6340     0.1480 H     1 <1>   0.0800 
 28 H       -1.6570     0.1920    -1.5280 H     1 <1>   0.0800 
 29 H       -0.9480     1.7270    -1.1130 H     1 <1>   0.0800 
 30 H        0.3640    -1.3590     1.7490 H     1 <1>   0.1500 
 31 H        0.1000    -2.4980    -2.3410 H     1 <1>   0.1500 
 32 H       -0.1580    -3.6580     2.4180 H     1 <1>   0.1500 
 33 H       -0.4120    -4.7930    -1.6660 H     1 <1>   0.1500 
 34 H       -1.0940    -8.3410     0.9770 H     1 <1>   0.0800 
 35 H       -2.4630    -7.8170     1.9300 H     1 <1>   0.0800 
 36 H       -2.9100    -4.7080    -0.1230 H     1 <1>   0.0800 
 37 H       -2.7300    -5.9300    -1.3540 H     1 <1>   0.0800 
 38 H       -2.5950    -8.3050    -1.0210 H     1 <1>   0.0800 
 39 H       -4.4850    -5.9940     1.0790 H     1 <1>   0.0800 
 40 H       -5.0400    -5.9010    -0.5420 H     1 <1>   0.0800 
 41 H       -3.6800   -10.1350     0.8990 H     1 <1>   0.4500 
 42 H       -3.2870   -10.4290    -2.0180 H     1 <1>   0.0800 
 43 H       -3.9810   -11.6460    -0.9750 H     1 <1>   0.0800 
 44 H       -1.1050   -10.5540    -0.5230 H     1 <1>   0.0800 
 45 H       -1.9720   -11.8000     0.3590 H     1 <1>   0.0800 
 46 H       -1.3570   -10.4030     1.2070 H     1 <1>   0.0800 
 47 H       -6.1750    -7.9930    -1.1670 H     1 <1>   0.0800 
 48 H       -4.7010    -8.0040    -2.0980 H     1 <1>   0.0800 
 49 H       -5.6760   -10.2340    -2.1680 H     1 <1>   0.0800 
 50 H       -5.8550   -10.2750    -0.4500 H     1 <1>   0.0800 
@<TRIPOS>BOND
  1   1   2  2   
  2   1   3  2   
  3   1   4  1   
  4   1   5  1   
  5   4   6  ar  
  6   4   7  ar  
  7   5  27  1   
  8   5  28  1   
  9   5  29  1   
 10   6   8  ar  
 11   6  30  1   
 12   7   9  ar  
 13   7  31  1   
 14   8  10  ar  
 15   8  32  1   
 16   9  10  ar  
 17   9  33  1   
 18  10  11  1   
 19  11  12  2   
 20  11  13  am  
 21  13  14  1   
 22  13  15  1   
 23  14  16  1   
 24  14  34  1   
 25  14  35  1   
 26  15  17  1   
 27  15  36  1   
 28  15  37  1   
 29  16  18  1   
 30  16  19  1   
 31  16  38  1   
 32  17  19  1   
 33  17  39  1   
 34  17  40  1   
 35  18  20  1   
 36  18  21  1   
 37  18  41  1   
 38  19  22  1   
 39  19  23  1   
 40  20  24  1   
 41  20  42  1   
 42  20  43  1   
 43  21  44  1   
 44  21  45  1   
 45  21  46  1   
 46  22  25  ar  
 47  22  26  ar  
 48  23  24  1   
 49  23  47  1   
 50  23  48  1   
 51  24  49  1   
 52  24  50  1   
@<TRIPOS>SUBSTRUCTURE
  1 ****  13 GROUP 4 **** **** 0

# MOE 2024.06 (io_trps.svl 2023.06)
