@<TRIPOS>MOLECULE
NONAME
58 60 1 0 0 
SMALL
USER_CHARGES


@<TRIPOS>ATOM
  1 O        0.4690     1.4440     0.9010 O.2   1 <1>  -0.5700 
  2 C        0.2900     2.5370     0.4320 C.2   1 <1>   0.5690 
  3 N       -0.8570     3.2120     0.6690 N.am  1 <1>  -0.7300 
  4 C        1.3600     3.1830    -0.4510 C.3   1 <1>   0.1810 
  5 C       -1.1310     4.5790     0.1640 C.3   1 <1>   0.3640 
  6 O        1.2670     4.5930    -0.4550 O.3   1 <1>  -0.5600 
  7 C       -2.4970     4.6120    -0.5070 C.ar  1 <1>  -0.1440 
  8 C       -0.0260     5.0790    -0.8040 C.3   1 <1>   0.2610 
  9 C       -2.9210     3.5810    -1.3360 C.ar  1 <1>   0.1600 
 10 C       -3.3410     5.6890    -0.3110 C.ar  1 <1>  -0.1500 
 11 C       -0.0440     6.6130    -0.8650 C.2   1 <1>   0.5690 
 12 N       -4.0830     3.5410    -1.9640 N.ar  1 <1>  -0.6200 
 13 C       -4.5560     5.6630    -0.9600 C.ar  1 <1>  -0.1500 
 14 O       -0.4370     7.1150    -1.8900 O.2   1 <1>  -0.5700 
 15 N        0.4000     7.4170     0.1680 N.am  1 <1>  -0.6600 
 16 C       -4.8730     4.5820    -1.7640 C.ar  1 <1>   0.1600 
 17 C        1.2360     6.9510     1.3130 C.3   1 <1>   0.1400 
 18 C        0.5490     8.8850    -0.0540 C.3   1 <1>   0.1400 
 19 C        2.7190     7.2130     0.9790 C.3   1 <1>   0.3430 
 20 C        2.0190     9.1860    -0.4070 C.3   1 <1>   0.3430 
 21 N        2.9930     8.6700     0.6420 N.4   1 <1>  -0.9590 
 22 C        4.4190     8.8290     0.2270 C.3   1 <1>   0.3430 
 23 C        4.8450    10.3050     0.2180 C.3   1 <1>  -0.1600 
 24 C        6.3360    10.4330    -0.1310 C.3   1 <1>   0.3430 
 25 N        6.7530    11.8660    -0.2270 N.4   1 <1>  -0.9590 
 26 C        8.0990    11.9730    -0.8800 C.3   1 <1>   0.2630 
 27 C        6.7990    12.5620     1.1020 C.3   1 <1>   0.2630 
 28 H       -1.5780     2.7590     1.2360 H     1 <1>   0.3700 
 29 H        1.2590     2.8270    -1.4600 H     1 <1>   0.0800 
 30 H        2.3340     2.9130    -0.0840 H     1 <1>   0.0800 
 31 H       -1.1620     5.2350     1.0170 H     1 <1>   0.0800 
 32 H       -0.2430     4.7140    -1.7930 H     1 <1>   0.0800 
 33 H       -2.2720     2.7360    -1.4970 H     1 <1>   0.1500 
 34 H       -3.0750     6.5250     0.3140 H     1 <1>   0.1500 
 35 H       -5.2550     6.4730    -0.8500 H     1 <1>   0.1500 
 36 H       -5.8250     4.5730    -2.2670 H     1 <1>   0.1500 
 37 H        0.9590     7.4880     2.2040 H     1 <1>   0.0800 
 38 H        1.0830     5.9070     1.5160 H     1 <1>   0.0800 
 39 H       -0.0900     9.2190    -0.8550 H     1 <1>   0.0800 
 40 H        0.2570     9.4210     0.8320 H     1 <1>   0.0800 
 41 H        2.9820     6.5890     0.1400 H     1 <1>   0.0800 
 42 H        3.3240     6.9090     1.8170 H     1 <1>   0.0800 
 43 H        2.1340    10.2500    -0.5280 H     1 <1>   0.0800 
 44 H        2.2290     8.7210    -1.3570 H     1 <1>   0.0800 
 45 H        2.8250     9.2050     1.5050 H     1 <1>   0.4500 
 46 H        5.0480     8.2890     0.9180 H     1 <1>   0.0800 
 47 H        4.5590     8.3970    -0.7530 H     1 <1>   0.0800 
 48 H        4.2730    10.8410    -0.5170 H     1 <1>   0.0800 
 49 H        4.6680    10.7240     1.1920 H     1 <1>   0.0800 
 50 H        6.5160     9.9520    -1.0800 H     1 <1>   0.0800 
 51 H        6.9360     9.9320     0.6130 H     1 <1>   0.0800 
 52 H        6.0870    12.3730    -0.8320 H     1 <1>   0.4500 
 53 H        8.8480    11.4720    -0.2880 H     1 <1>   0.0800 
 54 H        8.3840    13.0080    -0.9850 H     1 <1>   0.0800 
 55 H        8.0800    11.5260    -1.8620 H     1 <1>   0.0800 
 56 H        7.4900    12.0650     1.7650 H     1 <1>   0.0800 
 57 H        5.8240    12.5720     1.5620 H     1 <1>   0.0800 
 58 H        7.1230    13.5840     0.9770 H     1 <1>   0.0800 
@<TRIPOS>BOND
  1   1   2  2   
  2   2   3  am  
  3   2   4  1   
  4   3   5  1   
  5   3  28  1   
  6   4   6  1   
  7   4  29  1   
  8   4  30  1   
  9   5   7  1   
 10   5   8  1   
 11   5  31  1   
 12   6   8  1   
 13   7   9  ar  
 14   7  10  ar  
 15   8  11  1   
 16   8  32  1   
 17   9  12  ar  
 18   9  33  1   
 19  10  13  ar  
 20  10  34  1   
 21  11  14  2   
 22  11  15  am  
 23  12  16  ar  
 24  13  16  ar  
 25  13  35  1   
 26  15  17  1   
 27  15  18  1   
 28  16  36  1   
 29  17  19  1   
 30  17  37  1   
 31  17  38  1   
 32  18  20  1   
 33  18  39  1   
 34  18  40  1   
 35  19  21  1   
 36  19  41  1   
 37  19  42  1   
 38  20  21  1   
 39  20  43  1   
 40  20  44  1   
 41  21  22  1   
 42  21  45  1   
 43  22  23  1   
 44  22  46  1   
 45  22  47  1   
 46  23  24  1   
 47  23  48  1   
 48  23  49  1   
 49  24  25  1   
 50  24  50  1   
 51  24  51  1   
 52  25  26  1   
 53  25  27  1   
 54  25  52  1   
 55  26  53  1   
 56  26  54  1   
 57  26  55  1   
 58  27  56  1   
 59  27  57  1   
 60  27  58  1   
@<TRIPOS>SUBSTRUCTURE
  1 ****  15 GROUP 4 **** **** 0

# MOE 2024.06 (io_trps.svl 2023.06)
