@<TRIPOS>MOLECULE
NONAME
58 60 1 0 0 
SMALL
USER_CHARGES


@<TRIPOS>ATOM
  1 O        3.8060    -2.6240    -1.8170 O.2   1 <1>  -0.5700 
  2 C        3.5560    -2.3850    -0.6490 C.2   1 <1>   0.5440 
  3 N        4.6050    -2.0000     0.1660 N.am  1 <1>  -0.6600 
  4 C        2.2010    -2.5070    -0.1560 C.ar  1 <1>   0.0860 
  5 C        6.0000    -2.0380    -0.3530 C.3   1 <1>   0.1400 
  6 C        4.4110    -1.3000     1.4610 C.3   1 <1>   0.1400 
  7 C        1.3470    -1.3950    -0.1410 C.ar  1 <1>   0.0820 
  8 C        1.7170    -3.7310     0.3230 C.ar  1 <1>  -0.1440 
  9 C        6.2280    -0.8930    -1.3550 C.3   1 <1>   0.3430 
 10 C        4.8900     0.1560     1.3770 C.3   1 <1>  -0.1600 
 11 O        1.8240    -0.2120    -0.6060 O.3   1 <1>  -0.3630 
 12 C        0.0490    -1.5160     0.3490 C.ar  1 <1>  -0.1500 
 13 C        0.4250    -3.8340     0.8050 C.ar  1 <1>  -0.1500 
 14 C        2.6050    -4.9700     0.3130 C.3   1 <1>  -0.0970 
 15 N        6.1510     0.4820    -0.7460 N.4   1 <1>  -0.9590 
 16 C        4.8620     0.7540    -0.0350 C.3   1 <1>   0.3430 
 17 C        0.9480     0.8180    -1.0190 C.3   1 <1>   0.0400 
 18 C       -0.4080    -2.7300     0.8190 C.ar  1 <1>  -0.1500 
 19 C        6.4660     1.5120    -1.7750 C.3   1 <1>   0.3430 
 20 C        6.9350     2.8340    -1.1490 C.3   1 <1>  -0.0990 
 21 C        8.2000     2.6780    -0.3250 C.2   1 <1>   0.5690 
 22 O        8.3130     1.6900     0.3600 O.2   1 <1>  -0.5700 
 23 N        9.1370     3.6720    -0.3800 N.am  1 <1>  -0.5470 
 24 C       10.3900     3.7710     0.2610 C.ar  1 <1>   0.1170 
 25 C       10.9510     5.0240     0.5150 C.ar  1 <1>   0.1600 
 26 C       11.1240     2.6590     0.6470 C.ar  1 <1>  -0.1500 
 27 N       12.1190     5.2500     1.0930 N.ar  1 <1>  -0.6200 
 28 C       12.3420     2.8710     1.2540 C.ar  1 <1>  -0.1500 
 29 C       12.7890     4.1670     1.4520 C.ar  1 <1>   0.1600 
 30 H        6.1520    -2.9760    -0.8590 H     1 <1>   0.0800 
 31 H        6.7080    -1.9820     0.4540 H     1 <1>   0.0800 
 32 H        4.9460    -1.8230     2.2350 H     1 <1>   0.0800 
 33 H        3.3690    -1.3100     1.7320 H     1 <1>   0.0800 
 34 H        5.4940    -0.9860    -2.1400 H     1 <1>   0.0800 
 35 H        7.1990    -1.0280    -1.8000 H     1 <1>   0.0800 
 36 H        5.8740     0.2470     1.8010 H     1 <1>   0.0800 
 37 H        4.2350     0.7380     2.0010 H     1 <1>   0.0800 
 38 H       -0.6210    -0.6780     0.3770 H     1 <1>   0.1500 
 39 H        0.0520    -4.7750     1.1720 H     1 <1>   0.1500 
 40 H        3.4700    -4.8120     0.9320 H     1 <1>   0.0800 
 41 H        2.9300    -5.1810    -0.6900 H     1 <1>   0.0800 
 42 H        2.0760    -5.8300     0.6830 H     1 <1>   0.0800 
 43 H        6.9140     0.5550    -0.0410 H     1 <1>   0.4500 
 44 H        4.7220     1.8180     0.0570 H     1 <1>   0.0800 
 45 H        4.0340     0.3560    -0.5970 H     1 <1>   0.0800 
 46 H        1.5260     1.5740    -1.5190 H     1 <1>   0.0800 
 47 H        0.4660     1.2380    -0.1540 H     1 <1>   0.0800 
 48 H        0.2230     0.4070    -1.7000 H     1 <1>   0.0800 
 49 H       -1.4120    -2.8220     1.1970 H     1 <1>   0.1500 
 50 H        5.5980     1.6830    -2.3920 H     1 <1>   0.0800 
 51 H        7.2550     1.1440    -2.4120 H     1 <1>   0.0800 
 52 H        6.1630     3.2530    -0.5320 H     1 <1>   0.0800 
 53 H        7.1220     3.5290    -1.9470 H     1 <1>   0.0800 
 54 H        8.8790     4.5010    -0.9160 H     1 <1>   0.3700 
 55 H       10.3960     5.8970     0.2240 H     1 <1>   0.1500 
 56 H       10.7680     1.6600     0.4810 H     1 <1>   0.1500 
 57 H       12.9460     2.0420     1.5740 H     1 <1>   0.1500 
 58 H       13.7430     4.3190     1.9280 H     1 <1>   0.1500 
@<TRIPOS>BOND
  1   1   2  2   
  2   2   3  am  
  3   2   4  1   
  4   3   5  1   
  5   3   6  1   
  6   4   7  ar  
  7   4   8  ar  
  8   5   9  1   
  9   5  30  1   
 10   5  31  1   
 11   6  10  1   
 12   6  32  1   
 13   6  33  1   
 14   7  11  1   
 15   7  12  ar  
 16   8  13  ar  
 17   8  14  1   
 18   9  15  1   
 19   9  34  1   
 20   9  35  1   
 21  10  16  1   
 22  10  36  1   
 23  10  37  1   
 24  11  17  1   
 25  12  18  ar  
 26  12  38  1   
 27  13  18  ar  
 28  13  39  1   
 29  14  40  1   
 30  14  41  1   
 31  14  42  1   
 32  15  16  1   
 33  15  19  1   
 34  15  43  1   
 35  16  44  1   
 36  16  45  1   
 37  17  46  1   
 38  17  47  1   
 39  17  48  1   
 40  18  49  1   
 41  19  20  1   
 42  19  50  1   
 43  19  51  1   
 44  20  21  1   
 45  20  52  1   
 46  20  53  1   
 47  21  22  2   
 48  21  23  am  
 49  23  24  1   
 50  23  54  1   
 51  24  25  ar  
 52  24  26  ar  
 53  25  27  ar  
 54  25  55  1   
 55  26  28  ar  
 56  26  56  1   
 57  27  29  ar  
 58  28  29  ar  
 59  28  57  1   
 60  29  58  1   
@<TRIPOS>SUBSTRUCTURE
  1 ****  15 GROUP 4 **** **** 0

# MOE 2024.06 (io_trps.svl 2023.06)
