@<TRIPOS>MOLECULE
NONAME
48 50 1 0 0 
SMALL
USER_CHARGES


@<TRIPOS>ATOM
  1 F       -1.5860     1.1510     0.3860 F     1 <1>  -0.1900 
  2 C       -0.8890     2.2480     0.5290 C.ar  1 <1>   0.1900 
  3 C        0.3800     2.3270    -0.0240 C.ar  1 <1>  -0.1440 
  4 C       -1.4780     3.2910     1.2300 C.ar  1 <1>  -0.1440 
  5 C        1.0760     3.5210     0.1430 C.ar  1 <1>  -0.1500 
  6 C        0.9630     1.1330    -0.7850 C.3   1 <1>   1.1640 
  7 C       -0.7600     4.4670     1.3810 C.ar  1 <1>  -0.1500 
  8 C       -2.8680     3.1410     1.8200 C.3   1 <1>   0.4860 
  9 C        0.5090     4.5770     0.8380 C.ar  1 <1>  -0.1500 
 10 F        2.1860     1.3610    -1.2470 F     1 <1>  -0.3400 
 11 F        1.0500     0.0460    -0.0290 F     1 <1>  -0.3400 
 12 F        0.2250     0.8070    -1.8380 F     1 <1>  -0.3400 
 13 N       -3.8650     3.0230     0.7240 N.4   1 <1>  -0.9590 
 14 C       -5.2160     2.6550     1.2520 C.3   1 <1>   0.3430 
 15 C       -3.9260     4.2510    -0.1200 C.3   1 <1>   0.3430 
 16 C       -6.1940     2.3450     0.1090 C.3   1 <1>   0.0000 
 17 C       -4.8520     4.0100    -1.3130 C.3   1 <1>  -0.1600 
 18 C       -7.5640     1.9930     0.7070 C.3   1 <1>   0.2000 
 19 C       -6.2510     3.5540    -0.8670 C.3   1 <1>  -0.1600 
 20 C       -5.8600     1.0500    -0.6540 C.3   1 <1>  -0.1600 
 21 O       -8.2200     3.1430     1.1380 O.3   1 <1>  -0.5600 
 22 C       -8.3020     1.2530    -0.4090 C.3   1 <1>  -0.1600 
 23 C       -7.2000     0.5550    -1.2210 C.3   1 <1>  -0.1600 
 24 C       -9.4250     2.9280     1.8080 C.3   1 <1>   0.0400 
 25 H        2.0680     3.6430    -0.2650 H     1 <1>   0.1500 
 26 H       -1.1690     5.3050     1.9230 H     1 <1>   0.1500 
 27 H       -3.0990     3.9920     2.4400 H     1 <1>   0.0800 
 28 H       -2.8930     2.2560     2.4350 H     1 <1>   0.0800 
 29 H        1.0670     5.4930     0.9590 H     1 <1>   0.1500 
 30 H       -3.5490     2.2520     0.1190 H     1 <1>   0.4500 
 31 H       -5.1400     1.7920     1.8930 H     1 <1>   0.0800 
 32 H       -5.6160     3.4720     1.8320 H     1 <1>   0.0800 
 33 H       -4.3020     5.0770     0.4630 H     1 <1>   0.0800 
 34 H       -2.9420     4.5080    -0.4790 H     1 <1>   0.0800 
 35 H       -4.9450     4.9260    -1.8700 H     1 <1>   0.0800 
 36 H       -4.4080     3.2860    -1.9720 H     1 <1>   0.0800 
 37 H       -7.4380     1.3330     1.5500 H     1 <1>   0.0800 
 38 H       -6.8460     3.3190    -1.7330 H     1 <1>   0.0800 
 39 H       -6.7290     4.3870    -0.3790 H     1 <1>   0.0800 
 40 H       -5.1330     1.1810    -1.4350 H     1 <1>   0.0800 
 41 H       -5.4890     0.3070     0.0320 H     1 <1>   0.0800 
 42 H       -8.9990     0.5380    -0.0080 H     1 <1>   0.0800 
 43 H       -8.8240     1.9550    -1.0360 H     1 <1>   0.0800 
 44 H       -7.2750    -0.5160    -1.1390 H     1 <1>   0.0800 
 45 H       -7.2920     0.8250    -2.2600 H     1 <1>   0.0800 
 46 H       -9.7950     3.8810     2.1450 H     1 <1>   0.0800 
 47 H       -9.2580     2.2850     2.6540 H     1 <1>   0.0800 
 48 H      -10.1400     2.4890     1.1330 H     1 <1>   0.0800 
@<TRIPOS>BOND
  1   1   2  1   
  2   2   3  ar  
  3   2   4  ar  
  4   3   5  ar  
  5   3   6  1   
  6   4   7  ar  
  7   4   8  1   
  8   5   9  ar  
  9   5  25  1   
 10   6  10  1   
 11   6  11  1   
 12   6  12  1   
 13   7   9  ar  
 14   7  26  1   
 15   8  13  1   
 16   8  27  1   
 17   8  28  1   
 18   9  29  1   
 19  13  14  1   
 20  13  15  1   
 21  13  30  1   
 22  14  16  1   
 23  14  31  1   
 24  14  32  1   
 25  15  17  1   
 26  15  33  1   
 27  15  34  1   
 28  16  18  1   
 29  16  19  1   
 30  16  20  1   
 31  17  19  1   
 32  17  35  1   
 33  17  36  1   
 34  18  21  1   
 35  18  22  1   
 36  18  37  1   
 37  19  38  1   
 38  19  39  1   
 39  20  23  1   
 40  20  40  1   
 41  20  41  1   
 42  21  24  1   
 43  22  23  1   
 44  22  42  1   
 45  22  43  1   
 46  23  44  1   
 47  23  45  1   
 48  24  46  1   
 49  24  47  1   
 50  24  48  1   
@<TRIPOS>SUBSTRUCTURE
  1 ****  13 GROUP 4 **** **** 0

# MOE 2024.06 (io_trps.svl 2023.06)
