@<TRIPOS>MOLECULE
NONAME
47 50 1 0 0 
SMALL
USER_CHARGES


@<TRIPOS>ATOM
  1 O       -0.4260     0.3500    -0.0460 O.2   1 <1>  -0.5700 
  2 C       -1.4810     0.9470     0.0340 C.2   1 <1>   0.7030 
  3 N       -2.6570     0.2310    -0.0330 N.am  1 <1>  -0.6600 
  4 C       -1.4380     2.3910     0.2060 C.2   1 <1>   0.2770 
  5 C       -3.9720     0.7380    -0.5150 C.3   1 <1>   0.1400 
  6 C       -2.6720    -1.2620    -0.0570 C.3   1 <1>   0.1400 
  7 N       -2.3780     3.2180     0.8070 N.pl3 1 <1>  -0.7000 
  8 C       -0.4220     3.2020    -0.1700 C.2   1 <1>   0.2000 
  9 C       -4.9370    -0.4190    -0.2750 C.3   1 <1>   0.2000 
 10 C       -4.0750    -1.6540    -0.5380 C.3   1 <1>  -0.0800 
 11 C       -1.9290     4.4800     0.7800 C.cat 1 <1>   0.7910 
 12 N       -0.7200     4.5040     0.1710 N.pl3 1 <1>  -0.6290 
 13 O       -5.3150    -0.3800     1.0600 O.3   1 <1>  -0.6800 
 14 C       -4.5930    -2.9780     0.0560 C.3   1 <1>   0.0210 
 15 C       -2.5110     5.6600     1.2710 C.2   1 <1>  -0.1410 
 16 C       -0.0360     5.6930     0.0200 C.2   1 <1>   0.2410 
 17 C       -3.6180    -4.1120    -0.2020 C.2   1 <1>   0.1080 
 18 C       -1.8470     6.8480     1.1280 C.2   1 <1>  -0.1500 
 19 C       -0.5900     6.8500     0.4890 C.2   1 <1>  -0.1500 
 20 C        1.3150     5.6580    -0.6680 C.3   1 <1>  -0.1020 
 21 N       -3.0920    -4.3430    -1.3650 N.2   1 <1>  -0.7070 
 22 C       -3.1740    -5.0110     0.7630 C.2   1 <1>  -0.1500 
 23 N       -2.2930    -5.4090    -1.1720 N.pl3 1 <1>   0.3000 
 24 C       -2.3240    -5.8290     0.1100 C.2   1 <1>  -0.3320 
 25 C       -1.5270    -7.0070     0.6390 C.3   1 <1>  -0.0600 
 26 H       -4.3000     1.6200     0.0010 H     1 <1>   0.0800 
 27 H       -3.9070     0.9370    -1.5720 H     1 <1>   0.0800 
 28 H       -1.9190    -1.6510    -0.7240 H     1 <1>   0.0800 
 29 H       -2.4860    -1.6360     0.9350 H     1 <1>   0.0800 
 30 H       -3.2390     2.9070     1.2630 H     1 <1>   0.4500 
 31 H        0.4970     2.9130    -0.6580 H     1 <1>   0.1500 
 32 H       -5.8220    -0.3700    -0.8870 H     1 <1>   0.0800 
 33 H       -4.0130    -1.7820    -1.6060 H     1 <1>   0.0800 
 34 H       -4.5290    -0.5270     1.6220 H     1 <1>   0.4000 
 35 H       -5.5370    -3.2290    -0.3940 H     1 <1>   0.0800 
 36 H       -4.7450    -2.8880     1.1160 H     1 <1>   0.0800 
 37 H       -3.4700     5.6060     1.7510 H     1 <1>   0.1500 
 38 H       -2.2580     7.7780     1.4890 H     1 <1>   0.1500 
 39 H       -0.0770     7.7920     0.3830 H     1 <1>   0.1500 
 40 H        1.9940     5.0290    -0.1200 H     1 <1>   0.0800 
 41 H        1.7380     6.6450    -0.7230 H     1 <1>   0.0800 
 42 H        1.2120     5.2780    -1.6690 H     1 <1>   0.0800 
 43 H       -3.4640    -5.0270     1.7980 H     1 <1>   0.1500 
 44 H       -1.7410    -5.8240    -1.9320 H     1 <1>   0.2700 
 45 H       -1.7220    -7.1450     1.6880 H     1 <1>   0.0800 
 46 H       -0.4730    -6.8340     0.5070 H     1 <1>   0.0800 
 47 H       -1.8030    -7.9070     0.1190 H     1 <1>   0.0800 
@<TRIPOS>BOND
  1   1   2  2   
  2   2   3  am  
  3   2   4  1   
  4   3   5  1   
  5   3   6  1   
  6   4   7  1   
  7   4   8  2   
  8   5   9  1   
  9   5  26  1   
 10   5  27  1   
 11   6  10  1   
 12   6  28  1   
 13   6  29  1   
 14   7  11  ar  
 15   7  30  1   
 16   8  12  1   
 17   8  31  1   
 18   9  10  1   
 19   9  13  1   
 20   9  32  1   
 21  10  14  1   
 22  10  33  1   
 23  11  12  ar  
 24  11  15  1   
 25  12  16  1   
 26  13  34  1   
 27  14  17  1   
 28  14  35  1   
 29  14  36  1   
 30  15  18  2   
 31  15  37  1   
 32  16  19  2   
 33  16  20  1   
 34  17  21  2   
 35  17  22  1   
 36  18  19  1   
 37  18  38  1   
 38  19  39  1   
 39  20  40  1   
 40  20  41  1   
 41  20  42  1   
 42  21  23  1   
 43  22  24  2   
 44  22  43  1   
 45  23  24  1   
 46  23  44  1   
 47  24  25  1   
 48  25  45  1   
 49  25  46  1   
 50  25  47  1   
@<TRIPOS>SUBSTRUCTURE
  1 ****   3 GROUP 4 **** **** 0

# MOE 2024.06 (io_trps.svl 2023.06)
