@<TRIPOS>MOLECULE
NONAME
52 55 1 0 0 
SMALL
USER_CHARGES


@<TRIPOS>ATOM
  1 O       -0.4490    -2.6850     1.9630 O.3   1 <1>  -0.6800 
  2 C       -1.5530    -3.1370     1.2570 C.3   1 <1>   0.2000 
  3 C       -1.2500    -4.5220     0.6540 C.3   1 <1>   0.2090 
  4 C       -1.8700    -2.1020     0.1750 C.3   1 <1>  -0.1600 
  5 N       -2.3670    -4.9620    -0.2490 N.pl3 1 <1>  -0.8380 
  6 C       -2.9910    -2.6140    -0.7430 C.3   1 <1>  -0.1600 
  7 C       -3.1280    -6.0700    -0.0490 C.ar  1 <1>   0.4100 
  8 C       -2.6500    -3.9810    -1.3430 C.3   1 <1>   0.2090 
  9 N       -4.3900    -6.0290    -0.4340 N.ar  1 <1>  -0.6200 
 10 C       -2.5840    -7.2260     0.5430 C.ar  1 <1>  -0.1500 
 11 C       -5.1600    -7.0860    -0.2170 C.ar  1 <1>   0.7710 
 12 C       -3.3780    -8.3040     0.7340 C.ar  1 <1>   0.2110 
 13 N       -4.6680    -8.2040     0.3460 N.ar  1 <1>  -0.1790 
 14 N       -6.4760    -7.0280    -0.5760 N.pl3 1 <1>  -0.8380 
 15 C       -7.5910    -7.8190     0.0480 C.3   1 <1>   0.2090 
 16 C       -6.9680    -5.9370    -1.4810 C.3   1 <1>   0.1290 
 17 C       -7.9890    -9.0570    -0.7740 C.3   1 <1>   0.0960 
 18 N       -6.8670   -10.0130    -0.8550 N.pl3 1 <1>   0.0480 
 19 C       -6.2910   -10.6770     0.2050 C.ar  1 <1>  -0.1520 
 20 C       -6.0490   -10.1770    -1.9360 C.2   1 <1>  -0.3020 
 21 C       -5.1040   -11.2590    -0.2330 C.ar  1 <1>   0.0000 
 22 C       -6.6850   -10.7950     1.5420 C.ar  1 <1>  -0.1500 
 23 C       -4.9820   -10.9380    -1.5990 C.2   1 <1>  -0.1500 
 24 C       -4.2940   -11.9590     0.6650 C.ar  1 <1>  -0.1500 
 25 C       -5.8730   -11.4750     2.4190 C.ar  1 <1>  -0.1500 
 26 C       -4.6770   -12.0570     1.9820 C.ar  1 <1>  -0.1500 
 27 H       -0.3850    -3.1230     2.8330 H     1 <1>   0.4000 
 28 H       -2.3790    -3.2120     1.9430 H     1 <1>   0.0800 
 29 H       -1.1140    -5.2200     1.4580 H     1 <1>   0.0800 
 30 H       -0.3420    -4.4680     0.0790 H     1 <1>   0.0800 
 31 H       -0.9870    -1.9190    -0.4140 H     1 <1>   0.0800 
 32 H       -2.1730    -1.1780     0.6360 H     1 <1>   0.0800 
 33 H       -3.1530    -1.9090    -1.5400 H     1 <1>   0.0800 
 34 H       -3.9100    -2.7000    -0.1890 H     1 <1>   0.0800 
 35 H       -3.4610    -4.3180    -1.9660 H     1 <1>   0.0800 
 36 H       -1.7770    -3.8940    -1.9680 H     1 <1>   0.0800 
 37 H       -1.5450    -7.2430     0.8110 H     1 <1>   0.1500 
 38 H       -3.0320    -9.2310     1.1640 H     1 <1>   0.1500 
 39 H       -5.2850    -9.0170     0.3570 H     1 <1>   0.4570 
 40 H       -8.4560    -7.1830     0.1430 H     1 <1>   0.0800 
 41 H       -7.3210    -8.1130     1.0470 H     1 <1>   0.0800 
 42 H       -6.1860    -5.6020    -2.1430 H     1 <1>   0.0800 
 43 H       -7.3030    -5.0970    -0.8940 H     1 <1>   0.0800 
 44 H       -7.7850    -6.2890    -2.0870 H     1 <1>   0.0800 
 45 H       -8.2800    -8.7640    -1.7660 H     1 <1>   0.0800 
 46 H       -8.8230    -9.5510    -0.3100 H     1 <1>   0.0800 
 47 H       -6.2760    -9.7430    -2.8960 H     1 <1>   0.1500 
 48 H       -7.6160   -10.3750     1.8820 H     1 <1>   0.1500 
 49 H       -4.1700   -11.2610    -2.2290 H     1 <1>   0.1500 
 50 H       -3.3860   -12.4180     0.3120 H     1 <1>   0.1500 
 51 H       -6.1560   -11.5830     3.4540 H     1 <1>   0.1500 
 52 H       -4.0680   -12.5960     2.6880 H     1 <1>   0.1500 
@<TRIPOS>BOND
  1   1   2  1   
  2   1  27  1   
  3   2   3  1   
  4   2   4  1   
  5   2  28  1   
  6   3   5  1   
  7   3  29  1   
  8   3  30  1   
  9   4   6  1   
 10   4  31  1   
 11   4  32  1   
 12   5   7  1   
 13   5   8  1   
 14   6   8  1   
 15   6  33  1   
 16   6  34  1   
 17   7   9  ar  
 18   7  10  ar  
 19   8  35  1   
 20   8  36  1   
 21   9  11  ar  
 22  10  12  ar  
 23  10  37  1   
 24  11  13  ar  
 25  11  14  1   
 26  12  13  ar  
 27  12  38  1   
 28  13  39  1   
 29  14  15  1   
 30  14  16  1   
 31  15  17  1   
 32  15  40  1   
 33  15  41  1   
 34  16  42  1   
 35  16  43  1   
 36  16  44  1   
 37  17  18  1   
 38  17  45  1   
 39  17  46  1   
 40  18  19  1   
 41  18  20  1   
 42  19  21  ar  
 43  19  22  ar  
 44  20  23  2   
 45  20  47  1   
 46  21  23  1   
 47  21  24  ar  
 48  22  25  ar  
 49  22  48  1   
 50  23  49  1   
 51  24  26  ar  
 52  24  50  1   
 53  25  26  ar  
 54  25  51  1   
 55  26  52  1   
@<TRIPOS>SUBSTRUCTURE
  1 ****  13 GROUP 4 **** **** 0

# MOE 2024.06 (io_trps.svl 2023.06)
