@<TRIPOS>MOLECULE
NONAME
46 47 1 0 0 
SMALL
USER_CHARGES


@<TRIPOS>ATOM
  1 O       -0.2870    -0.1410     0.2970 O.2   1 <1>  -0.5700 
  2 C       -0.2670    -1.3280     0.0440 C.2   1 <1>   0.7800 
  3 O        0.8570    -2.0410     0.1130 O.3   1 <1>  -0.4300 
  4 N       -1.4030    -1.9980    -0.3170 N.am  1 <1>  -0.6600 
  5 C        2.1460    -1.5730     0.4520 C.3   1 <1>   0.2800 
  6 C       -2.7070    -1.2540    -0.3430 C.3   1 <1>   0.3640 
  7 C       -1.3930    -3.5020    -0.4540 C.3   1 <1>   0.1400 
  8 C        2.6140    -0.5260    -0.5650 C.3   1 <1>  -0.2400 
  9 C        3.0530    -2.8020     0.3650 C.3   1 <1>  -0.2400 
 10 C        2.1550    -1.0390     1.8890 C.3   1 <1>  -0.2400 
 11 C       -3.9100    -2.1820    -0.0630 C.cat 1 <1>   0.6560 
 12 C       -2.8440    -0.5800    -1.7140 C.3   1 <1>  -0.2400 
 13 C       -2.7070    -4.1400    -0.9620 C.3   1 <1>   0.3540 
 14 N       -5.0840    -1.8620     0.4680 N.pl3 1 <1>  -0.7000 
 15 N       -3.8990    -3.4730    -0.3580 N.pl3 1 <1>  -0.7640 
 16 C       -5.8520    -2.9940     0.5060 C.2   1 <1>   0.2000 
 17 C       -5.1360    -4.0270    -0.0130 C.2   1 <1>   0.2770 
 18 C       -5.5900    -5.3990    -0.1680 C.2   1 <1>   0.7930 
 19 O       -4.9060    -6.2780    -0.6500 O.2   1 <1>  -0.5700 
 20 O       -6.8280    -5.6800     0.2450 O.3   1 <1>  -0.4300 
 21 C       -7.3700    -6.9810     0.1360 C.3   1 <1>   0.1200 
 22 C       -8.7880    -6.9490     0.6950 C.3   1 <1>  -0.2400 
 23 H       -2.6950    -0.4940     0.4190 H     1 <1>   0.0800 
 24 H       -1.1680    -3.9230     0.5120 H     1 <1>   0.0800 
 25 H       -0.5930    -3.7910    -1.1140 H     1 <1>   0.0800 
 26 H        2.5300    -0.9100    -1.5650 H     1 <1>   0.0800 
 27 H        3.6440    -0.2760    -0.3830 H     1 <1>   0.0800 
 28 H        2.0440     0.3800    -0.4830 H     1 <1>   0.0800 
 29 H        3.0400    -3.2070    -0.6310 H     1 <1>   0.0800 
 30 H        2.7280    -3.5570     1.0570 H     1 <1>   0.0800 
 31 H        4.0650    -2.5350     0.6080 H     1 <1>   0.0800 
 32 H        1.5840    -0.1330     1.9720 H     1 <1>   0.0800 
 33 H        3.1620    -0.8130     2.1880 H     1 <1>   0.0800 
 34 H        1.7580    -1.7740     2.5660 H     1 <1>   0.0800 
 35 H       -2.8470    -1.3120    -2.5010 H     1 <1>   0.0800 
 36 H       -2.0270     0.1030    -1.8720 H     1 <1>   0.0800 
 37 H       -3.7590    -0.0190    -1.7630 H     1 <1>   0.0800 
 38 H       -2.6960    -5.1890    -0.7190 H     1 <1>   0.0800 
 39 H       -2.7570    -4.0520    -2.0340 H     1 <1>   0.0800 
 40 H       -5.3670    -0.9310     0.7920 H     1 <1>   0.4500 
 41 H       -6.8610    -3.0170     0.8910 H     1 <1>   0.1500 
 42 H       -6.7510    -7.6620     0.6970 H     1 <1>   0.0800 
 43 H       -7.3720    -7.2690    -0.9030 H     1 <1>   0.0800 
 44 H       -8.7780    -6.6570     1.7300 H     1 <1>   0.0800 
 45 H       -9.2250    -7.9290     0.6240 H     1 <1>   0.0800 
 46 H       -9.3980    -6.2650     0.1320 H     1 <1>   0.0800 
@<TRIPOS>BOND
  1   1   2  2   
  2   2   3  1   
  3   2   4  am  
  4   3   5  1   
  5   4   6  1   
  6   4   7  1   
  7   5   8  1   
  8   5   9  1   
  9   5  10  1   
 10   6  11  1   
 11   6  12  1   
 12   6  23  1   
 13   7  13  1   
 14   7  24  1   
 15   7  25  1   
 16   8  26  1   
 17   8  27  1   
 18   8  28  1   
 19   9  29  1   
 20   9  30  1   
 21   9  31  1   
 22  10  32  1   
 23  10  33  1   
 24  10  34  1   
 25  11  14  ar  
 26  11  15  ar  
 27  12  35  1   
 28  12  36  1   
 29  12  37  1   
 30  13  15  1   
 31  13  38  1   
 32  13  39  1   
 33  14  16  1   
 34  14  40  1   
 35  15  17  1   
 36  16  17  2   
 37  16  41  1   
 38  17  18  1   
 39  18  19  2   
 40  18  20  1   
 41  20  21  1   
 42  21  22  1   
 43  21  42  1   
 44  21  43  1   
 45  22  44  1   
 46  22  45  1   
 47  22  46  1   
@<TRIPOS>SUBSTRUCTURE
  1 ****  15 GROUP 4 **** **** 0

# MOE 2024.06 (io_trps.svl 2023.06)
