@<TRIPOS>MOLECULE
NONAME
47 48 1 0 0 
SMALL
USER_CHARGES


@<TRIPOS>ATOM
  1 O        2.8640    -0.9600    -2.3940 O.2   1 <1>  -0.5700 
  2 C        2.7270    -1.1610    -1.2020 C.2   1 <1>   0.5440 
  3 N        3.1820    -0.2060    -0.3140 N.am  1 <1>  -0.6600 
  4 C        2.1100    -2.3990    -0.7580 C.ar  1 <1>   0.0860 
  5 C        3.5790    -0.5180     1.0940 C.3   1 <1>   0.1400 
  6 C        3.5570     1.1600    -0.7660 C.3   1 <1>   0.1400 
  7 C        2.5140    -3.6260    -1.2820 C.ar  1 <1>  -0.1500 
  8 C        1.0910    -2.4090     0.1960 C.ar  1 <1>  -0.1500 
  9 C        5.0900    -0.3210     1.2800 C.3   1 <1>   0.2000 
 10 C        5.0740     1.3200    -0.6700 C.3   1 <1>  -0.1600 
 11 C        1.9420    -4.8130    -0.8610 C.ar  1 <1>  -0.1500 
 12 C        0.5150    -3.5920     0.6220 C.ar  1 <1>  -0.1500 
 13 O        5.3700    -0.4340     2.6360 O.3   1 <1>  -0.6800 
 14 C        5.5690     1.0520     0.7550 C.3   1 <1>   0.2200 
 15 C        0.9420    -4.7980     0.0940 C.ar  1 <1>  -0.1500 
 16 N        7.0500     1.1480     0.7470 N.am  1 <1>  -0.7300 
 17 C        7.8520     1.3370     1.8220 C.2   1 <1>   0.5690 
 18 O        7.4050     1.3610     2.9430 O.2   1 <1>  -0.5700 
 19 C        9.3490     1.4900     1.6070 C.3   1 <1>   0.0390 
 20 C        9.7000     2.0670     0.2370 C.2   1 <1>  -0.2880 
 21 C       10.3550     1.4120    -0.7260 C.2   1 <1>  -0.2880 
 22 C       10.7000     1.9930    -2.0840 C.3   1 <1>  -0.0220 
 23 C       12.2170     2.0370    -2.2680 C.3   1 <1>  -0.2400 
 24 H        3.0470     0.1410     1.7580 H     1 <1>   0.0800 
 25 H        3.3350    -1.5330     1.3480 H     1 <1>   0.0800 
 26 H        3.2340     1.3260    -1.7800 H     1 <1>   0.0800 
 27 H        3.0650     1.8860    -0.1400 H     1 <1>   0.0800 
 28 H        3.2870    -3.6390    -2.0310 H     1 <1>   0.1500 
 29 H        0.7500    -1.4740     0.6030 H     1 <1>   0.1500 
 30 H        5.6140    -1.1080     0.7680 H     1 <1>   0.0800 
 31 H        5.3370     2.3210    -0.9610 H     1 <1>   0.0800 
 32 H        5.5290     0.6300    -1.3590 H     1 <1>   0.0800 
 33 H        2.2730    -5.7490    -1.2790 H     1 <1>   0.1500 
 34 H       -0.2670    -3.5770     1.3620 H     1 <1>   0.1500 
 35 H        6.1590     0.1300     2.8540 H     1 <1>   0.4000 
 36 H        5.1720     1.8170     1.4020 H     1 <1>   0.0800 
 37 H        0.4950    -5.7210     0.4230 H     1 <1>   0.1500 
 38 H        7.4950     1.1110    -0.1740 H     1 <1>   0.3700 
 39 H        9.7450     2.1310     2.3730 H     1 <1>   0.0800 
 40 H        9.8010     0.5220     1.7240 H     1 <1>   0.0800 
 41 H        9.3550     3.0820     0.1200 H     1 <1>   0.1500 
 42 H       10.7030     0.3980    -0.6110 H     1 <1>   0.1500 
 43 H       10.2590     1.3860    -2.8570 H     1 <1>   0.0800 
 44 H       10.3010     2.9890    -2.1730 H     1 <1>   0.0800 
 45 H       12.6300     1.0460    -2.2120 H     1 <1>   0.0800 
 46 H       12.6640     2.6430    -1.5000 H     1 <1>   0.0800 
 47 H       12.4610     2.4590    -3.2270 H     1 <1>   0.0800 
@<TRIPOS>BOND
  1   1   2  2   
  2   2   3  am  
  3   2   4  1   
  4   3   5  1   
  5   3   6  1   
  6   4   7  ar  
  7   4   8  ar  
  8   5   9  1   
  9   5  24  1   
 10   5  25  1   
 11   6  10  1   
 12   6  26  1   
 13   6  27  1   
 14   7  11  ar  
 15   7  28  1   
 16   8  12  ar  
 17   8  29  1   
 18   9  13  1   
 19   9  14  1   
 20   9  30  1   
 21  10  14  1   
 22  10  31  1   
 23  10  32  1   
 24  11  15  ar  
 25  11  33  1   
 26  12  15  ar  
 27  12  34  1   
 28  13  35  1   
 29  14  16  1   
 30  14  36  1   
 31  15  37  1   
 32  16  17  am  
 33  16  38  1   
 34  17  18  2   
 35  17  19  1   
 36  19  20  1   
 37  19  39  1   
 38  19  40  1   
 39  20  21  2   
 40  20  41  1   
 41  21  22  1   
 42  21  42  1   
 43  22  23  1   
 44  22  43  1   
 45  22  44  1   
 46  23  45  1   
 47  23  46  1   
 48  23  47  1   
@<TRIPOS>SUBSTRUCTURE
  1 ****   9 GROUP 4 **** **** 0

# MOE 2024.06 (io_trps.svl 2023.06)
