@<TRIPOS>MOLECULE
Untitled Document
53 56 1 0 0 
SMALL
USER_CHARGES


@<TRIPOS>ATOM
  1 O        3.2550     5.2370    -0.8630 O.2   1 <1>  -0.5700 
  2 C        2.8360     4.3470    -0.1480 C.2   1 <1>   0.5440 
  3 N        3.7190     3.8110     0.7580 N.am  1 <1>  -0.6600 
  4 C        1.4790     3.8460    -0.2930 C.ar  1 <1>   0.0860 
  5 C        4.1980     2.4170     0.5400 C.3   1 <1>   0.1400 
  6 C        4.7570     4.7090     1.3480 C.3   1 <1>   0.1400 
  7 C        0.8240     3.1780     0.7430 C.ar  1 <1>  -0.1500 
  8 C        0.7710     4.0240    -1.4810 C.ar  1 <1>  -0.1500 
  9 C        5.4700     2.4260    -0.3360 C.3   1 <1>   0.3430 
 10 C        6.0110     4.7250     0.4540 C.3   1 <1>   0.3430 
 11 C       -0.4730     2.7170     0.6030 C.ar  1 <1>  -0.1500 
 12 C       -0.5250     3.5660    -1.6300 C.ar  1 <1>  -0.1500 
 13 N        6.5370     3.3350     0.2120 N.4   1 <1>  -0.8520 
 14 C       -1.1620     2.9170    -0.5840 C.ar  1 <1>  -0.1430 
 15 C        7.6920     3.3790    -0.6950 C.3   1 <1>   0.2960 
 16 C       -2.5990     2.4510    -0.7340 C.3   1 <1>   0.4860 
 17 C        8.7020     2.2880    -0.5930 C.3   1 <1>  -0.2000 
 18 C        9.0300     3.6700    -0.1070 C.3   1 <1>  -0.2000 
 19 N       -3.4800     3.3920     0.0090 N.4   1 <1>  -0.9590 
 20 C       -4.9070     2.9190     0.0410 C.3   1 <1>   0.3430 
 21 C       -3.3950     4.7930    -0.5410 C.3   1 <1>   0.3430 
 22 C       -5.8290     3.9540     0.7150 C.3   1 <1>   0.1200 
 23 C       -4.3880     5.7370     0.1610 C.3   1 <1>   0.1200 
 24 O       -5.6790     5.2040     0.1070 O.3   1 <1>  -0.5600 
 25 H        3.4340     1.8390     0.0490 H     1 <1>   0.0800 
 26 H        4.4040     1.9530     1.4890 H     1 <1>   0.0800 
 27 H        5.0070     4.3770     2.3400 H     1 <1>   0.0800 
 28 H        4.3660     5.7100     1.4260 H     1 <1>   0.0800 
 29 H        1.3380     3.0250     1.6770 H     1 <1>   0.1500 
 30 H        1.2490     4.5360    -2.3000 H     1 <1>   0.1500 
 31 H        5.1950     2.7570    -1.3240 H     1 <1>   0.0800 
 32 H        5.8530     1.4230    -0.4200 H     1 <1>   0.0800 
 33 H        6.7730     5.3320     0.9150 H     1 <1>   0.0800 
 34 H        5.7470     5.1820    -0.4860 H     1 <1>   0.0800 
 35 H       -0.9330     2.2040     1.4320 H     1 <1>   0.1500 
 36 H       -1.0260     3.7260    -2.5710 H     1 <1>   0.1500 
 37 H        6.8590     2.9540     1.1080 H     1 <1>   0.4500 
 38 H        7.4640     3.7790    -1.6730 H     1 <1>   0.1000 
 39 H       -2.6950     1.4550    -0.3330 H     1 <1>   0.0800 
 40 H       -2.8720     2.4270    -1.7770 H     1 <1>   0.0800 
 41 H        9.1950     1.9460    -1.4880 H     1 <1>   0.1000 
 42 H        8.5880     1.5060     0.1360 H     1 <1>   0.1000 
 43 H        9.1370     3.8270     0.9520 H     1 <1>   0.1000 
 44 H        9.7390     4.2440    -0.6800 H     1 <1>   0.1000 
 45 H       -3.1310     3.4340     0.9730 H     1 <1>   0.4500 
 46 H       -4.9760     1.9830     0.5700 H     1 <1>   0.0800 
 47 H       -5.2610     2.7590    -0.9650 H     1 <1>   0.0800 
 48 H       -3.6220     4.7870    -1.5950 H     1 <1>   0.0800 
 49 H       -2.3950     5.1780    -0.4210 H     1 <1>   0.0800 
 50 H       -5.6120     4.0490     1.7650 H     1 <1>   0.0800 
 51 H       -6.8590     3.6590     0.6050 H     1 <1>   0.0800 
 52 H       -4.4070     6.6920    -0.3350 H     1 <1>   0.0800 
 53 H       -4.1180     5.8930     1.1920 H     1 <1>   0.0800 
@<TRIPOS>BOND
  1   1   2  2   
  2   2   3  am  
  3   2   4  1   
  4   3   5  1   
  5   3   6  1   
  6   4   7  ar  
  7   4   8  ar  
  8   5   9  1   
  9   5  25  1   
 10   5  26  1   
 11   6  10  1   
 12   6  27  1   
 13   6  28  1   
 14   7  11  ar  
 15   7  29  1   
 16   8  12  ar  
 17   8  30  1   
 18   9  13  1   
 19   9  31  1   
 20   9  32  1   
 21  10  13  1   
 22  10  33  1   
 23  10  34  1   
 24  11  14  ar  
 25  11  35  1   
 26  12  14  ar  
 27  12  36  1   
 28  13  15  1   
 29  13  37  1   
 30  14  16  1   
 31  15  17  1   
 32  15  18  1   
 33  15  38  1   
 34  16  19  1   
 35  16  39  1   
 36  16  40  1   
 37  17  18  1   
 38  17  41  1   
 39  17  42  1   
 40  18  43  1   
 41  18  44  1   
 42  19  20  1   
 43  19  21  1   
 44  19  45  1   
 45  20  22  1   
 46  20  46  1   
 47  20  47  1   
 48  21  23  1   
 49  21  48  1   
 50  21  49  1   
 51  22  24  1   
 52  22  50  1   
 53  22  51  1   
 54  23  24  1   
 55  23  52  1   
 56  23  53  1   
@<TRIPOS>SUBSTRUCTURE
  1 ****   4 GROUP 4 **** **** 0

# MOE 2024.06 (io_trps.svl 2023.06)
