@<TRIPOS>MOLECULE
NONAME
44 46 1 0 0 
SMALL
USER_CHARGES


@<TRIPOS>ATOM
  1 F       -0.2670     0.6080     0.5680 F     1 <1>  -0.1900 
  2 C       -1.5520     0.8430     0.4890 C.ar  1 <1>   0.1900 
  3 C       -2.0780     1.8110    -0.3750 C.ar  1 <1>   0.0830 
  4 C       -2.3670     0.0870     1.3090 C.ar  1 <1>  -0.1500 
  5 O       -1.3820     2.6160    -1.2270 O.3   1 <1>  -0.3630 
  6 C       -3.4520     1.9860    -0.3820 C.ar  1 <1>  -0.1500 
  7 C       -3.7340     0.2890     1.2770 C.ar  1 <1>  -0.1500 
  8 C        0.0180     2.5420    -1.3850 C.3   1 <1>   0.0400 
  9 C       -4.3080     1.2380     0.4290 C.ar  1 <1>   0.0530 
 10 C       -5.7310     1.4630     0.3920 C.2   1 <1>   0.0870 
 11 O       -6.1810     2.6890     0.3020 O.3   1 <1>  -0.0190 
 12 C       -6.8190     0.6440     0.4420 C.2   1 <1>  -0.0860 
 13 N       -7.4850     2.7570     0.2970 N.2   1 <1>  -0.4100 
 14 C       -7.8950     1.5410     0.3800 C.2   1 <1>   0.3720 
 15 C       -6.9170    -0.7840     0.5180 C.2   1 <1>   0.7160 
 16 N       -9.2560     1.1930     0.3810 N.pl3 1 <1>  -0.8210 
 17 O       -5.9620    -1.5030     0.2950 O.2   1 <1>  -0.5700 
 18 N       -8.1010    -1.3660     0.8390 N.am  1 <1>  -0.7300 
 19 C       -9.7870     0.9590    -0.9900 C.3   1 <1>   0.1290 
 20 C      -10.1280     2.1260     1.1510 C.3   1 <1>   0.1290 
 21 C       -8.4360    -2.7920     0.7260 C.3   1 <1>   0.2350 
 22 C       -9.7900    -2.9050     0.0260 C.3   1 <1>  -0.1950 
 23 C      -10.1110    -4.0920    -0.8270 C.3   1 <1>  -0.2000 
 24 C       -9.9120    -2.7420    -1.4560 C.3   1 <1>  -0.2000 
 25 H       -1.9350    -0.6510     1.9620 H     1 <1>   0.1500 
 26 H       -3.8690     2.7270    -1.0410 H     1 <1>   0.1500 
 27 H       -4.3670    -0.3000     1.9180 H     1 <1>   0.1500 
 28 H        0.3090     3.2610    -2.1300 H     1 <1>   0.0800 
 29 H        0.2820     1.5520    -1.7130 H     1 <1>   0.0800 
 30 H        0.4900     2.7780    -0.4480 H     1 <1>   0.0800 
 31 H       -8.8980    -0.7150     0.8900 H     1 <1>   0.3700 
 32 H       -9.1460     0.2760    -1.5220 H     1 <1>   0.0800 
 33 H       -9.8290     1.8880    -1.5340 H     1 <1>   0.0800 
 34 H      -10.7740     0.5330    -0.9360 H     1 <1>   0.0800 
 35 H       -9.6850     2.3290     2.1120 H     1 <1>   0.0800 
 36 H      -11.0970     1.6840     1.3040 H     1 <1>   0.0800 
 37 H      -10.2400     3.0560     0.6200 H     1 <1>   0.0800 
 38 H       -8.4850    -3.2310     1.7070 H     1 <1>   0.0800 
 39 H       -7.6770    -3.3040     0.1570 H     1 <1>   0.0800 
 40 H      -10.5910    -2.5270     0.6380 H     1 <1>   0.1000 
 41 H      -11.1050    -4.5030    -0.7900 H     1 <1>   0.1000 
 42 H       -9.3600    -4.8460    -0.9910 H     1 <1>   0.1000 
 43 H       -9.0210    -2.5700    -2.0360 H     1 <1>   0.1000 
 44 H      -10.7700    -2.2290    -1.8550 H     1 <1>   0.1000 
@<TRIPOS>BOND
  1   1   2  1   
  2   2   3  ar  
  3   2   4  ar  
  4   3   5  1   
  5   3   6  ar  
  6   4   7  ar  
  7   4  25  1   
  8   5   8  1   
  9   6   9  ar  
 10   6  26  1   
 11   7   9  ar  
 12   7  27  1   
 13   8  28  1   
 14   8  29  1   
 15   8  30  1   
 16   9  10  1   
 17  10  11  1   
 18  10  12  2   
 19  11  13  1   
 20  12  14  1   
 21  12  15  1   
 22  13  14  2   
 23  14  16  1   
 24  15  17  2   
 25  15  18  am  
 26  16  19  1   
 27  16  20  1   
 28  18  21  1   
 29  18  31  1   
 30  19  32  1   
 31  19  33  1   
 32  19  34  1   
 33  20  35  1   
 34  20  36  1   
 35  20  37  1   
 36  21  22  1   
 37  21  38  1   
 38  21  39  1   
 39  22  23  1   
 40  22  24  1   
 41  22  40  1   
 42  23  24  1   
 43  23  41  1   
 44  23  42  1   
 45  24  43  1   
 46  24  44  1   
@<TRIPOS>SUBSTRUCTURE
  1 ****  12 GROUP 4 **** **** 0

# MOE 2024.06 (io_trps.svl 2023.06)
