@<TRIPOS>MOLECULE
NONAME
49 51 1 0 0 
SMALL
USER_CHARGES


@<TRIPOS>ATOM
  1 S       -0.6020     0.0600     0.7150 S.3   1 <1>  -0.0800 
  2 C       -1.9470    -0.6660    -0.1010 C.2   1 <1>   0.4420 
  3 C       -0.7820     1.4140    -0.3490 C.2   1 <1>   0.1980 
  4 N       -2.4150     0.0860    -1.0290 N.2   1 <1>  -0.3380 
  5 N       -2.3200    -1.9210     0.3330 N.am  1 <1>  -0.4940 
  6 N       -1.7450     1.2710    -1.1660 N.2   1 <1>  -0.3380 
  7 C        0.1830     2.5750    -0.2080 C.3   1 <1>   0.1640 
  8 C       -3.3570    -2.7050    -0.0820 C.2   1 <1>   0.5690 
  9 C        1.6250     2.1140    -0.3760 C.ar  1 <1>  -0.1440 
 10 O       -4.1790    -2.3620    -0.8900 O.2   1 <1>  -0.5700 
 11 C       -3.4720    -4.0910     0.5130 C.3   1 <1>  -0.0990 
 12 C        2.5080     2.1390     0.6930 C.ar  1 <1>  -0.1500 
 13 C        2.0630     1.6570    -1.6090 C.ar  1 <1>  -0.1500 
 14 C       -3.1460    -5.1640    -0.5290 C.3   1 <1>   0.0210 
 15 C        3.8170     1.7110     0.5380 C.ar  1 <1>  -0.1430 
 16 C        3.3680     1.2300    -1.7700 C.ar  1 <1>  -0.1500 
 17 C       -3.1810    -6.5340     0.1210 C.2   1 <1>  -0.1810 
 18 C        4.2430     1.2580    -0.6990 C.ar  1 <1>  -0.1500 
 19 C        4.7820     1.7400     1.7100 C.3   1 <1>  -0.0970 
 20 C       -2.1000    -7.2410     0.6430 C.2   1 <1>   0.1080 
 21 C       -4.2480    -7.3360     0.3340 C.2   1 <1>  -0.3320 
 22 N       -2.4550    -8.3800     1.1410 N.2   1 <1>  -0.7070 
 23 C       -0.6590    -6.7840     0.6500 C.3   1 <1>  -0.0590 
 24 N       -3.7810    -8.4450     0.9500 N.pl3 1 <1>   0.3140 
 25 C       -5.7120    -7.1100    -0.0150 C.3   1 <1>  -0.0600 
 26 C       -4.5520    -9.6150     1.3860 C.3   1 <1>   0.0160 
 27 H       -1.7280    -2.3100     1.0600 H     1 <1>   0.3700 
 28 H        0.0430     3.0300     0.7550 H     1 <1>   0.0800 
 29 H       -0.0430     3.3120    -0.9570 H     1 <1>   0.0800 
 30 H       -4.4790    -4.2320     0.8620 H     1 <1>   0.0800 
 31 H       -2.8140    -4.1940     1.3560 H     1 <1>   0.0800 
 32 H        2.1800     2.4930     1.6550 H     1 <1>   0.1500 
 33 H        1.3880     1.6280    -2.4490 H     1 <1>   0.1500 
 34 H       -2.1750    -4.9880    -0.9560 H     1 <1>   0.0800 
 35 H       -3.8640    -5.1240    -1.3290 H     1 <1>   0.0800 
 36 H        3.7040     0.8770    -2.7300 H     1 <1>   0.1500 
 37 H        5.2570     0.9250    -0.8330 H     1 <1>   0.1500 
 38 H        4.2480     1.7090     2.6430 H     1 <1>   0.0800 
 39 H        5.3680     2.6410     1.6750 H     1 <1>   0.0800 
 40 H        5.4430     0.8930     1.6690 H     1 <1>   0.0800 
 41 H       -0.5850    -5.8020     1.0760 H     1 <1>   0.0800 
 42 H       -0.2800    -6.7720    -0.3550 H     1 <1>   0.0800 
 43 H       -0.0670    -7.4630     1.2360 H     1 <1>   0.0800 
 44 H       -5.8490    -6.1510    -0.4820 H     1 <1>   0.0800 
 45 H       -6.3140    -7.1420     0.8750 H     1 <1>   0.0800 
 46 H       -6.0500    -7.8700    -0.6960 H     1 <1>   0.0800 
 47 H       -5.2820    -9.3050     2.1090 H     1 <1>   0.0800 
 48 H       -3.8840   -10.3290     1.8310 H     1 <1>   0.0800 
 49 H       -5.0360   -10.0540     0.5350 H     1 <1>   0.0800 
@<TRIPOS>BOND
  1   1   2  1   
  2   1   3  1   
  3   2   4  2   
  4   2   5  1   
  5   3   6  2   
  6   3   7  1   
  7   4   6  1   
  8   5   8  am  
  9   5  27  1   
 10   7   9  1   
 11   7  28  1   
 12   7  29  1   
 13   8  10  2   
 14   8  11  1   
 15   9  12  ar  
 16   9  13  ar  
 17  11  14  1   
 18  11  30  1   
 19  11  31  1   
 20  12  15  ar  
 21  12  32  1   
 22  13  16  ar  
 23  13  33  1   
 24  14  17  1   
 25  14  34  1   
 26  14  35  1   
 27  15  18  ar  
 28  15  19  1   
 29  16  18  ar  
 30  16  36  1   
 31  17  20  1   
 32  17  21  2   
 33  18  37  1   
 34  19  38  1   
 35  19  39  1   
 36  19  40  1   
 37  20  22  2   
 38  20  23  1   
 39  21  24  1   
 40  21  25  1   
 41  22  24  1   
 42  23  41  1   
 43  23  42  1   
 44  23  43  1   
 45  24  26  1   
 46  25  44  1   
 47  25  45  1   
 48  25  46  1   
 49  26  47  1   
 50  26  48  1   
 51  26  49  1   
@<TRIPOS>SUBSTRUCTURE
  1 ****   5 GROUP 4 **** **** 0

# MOE 2024.06 (io_trps.svl 2023.06)
