@<TRIPOS>MOLECULE
NONAME
45 47 1 0 0 
SMALL
USER_CHARGES


@<TRIPOS>ATOM
  1 S        0.0390     0.1240     1.3120 S.3   1 <1>  -0.0800 
  2 C       -0.7150    -1.2830     0.5920 C.ar  1 <1>   0.0400 
  3 C       -0.8640     1.1520     0.2020 C.2   1 <1>   0.1980 
  4 C       -1.5660    -0.8480    -0.4060 C.ar  1 <1>   0.2270 
  5 C       -0.5360    -2.6160     0.9160 C.ar  1 <1>  -0.1500 
  6 N       -1.6260     0.5310    -0.6010 N.2   1 <1>  -0.5650 
  7 C       -0.6450     2.6460     0.3090 C.3   1 <1>   0.0200 
  8 C       -2.2790    -1.7990    -1.1220 C.ar  1 <1>  -0.1500 
  9 C       -1.2560    -3.5520     0.1920 C.ar  1 <1>  -0.1500 
 10 C        0.6730     3.0350    -0.3560 C.3   1 <1>   0.1400 
 11 C       -2.1220    -3.1440    -0.8210 C.ar  1 <1>  -0.1500 
 12 N        0.8390     4.5090    -0.3370 N.am  1 <1>  -0.7300 
 13 C        1.4140     5.2050     0.6780 C.2   1 <1>   0.5690 
 14 O        1.8030     4.6560     1.6800 O.2   1 <1>  -0.5700 
 15 C        1.5550     6.7200     0.5610 C.3   1 <1>  -0.0190 
 16 C        0.1880     7.4150     0.4020 C.3   1 <1>  -0.1600 
 17 C        2.5320     7.1280    -0.5690 C.3   1 <1>  -0.1600 
 18 C        0.3090     8.9520     0.4440 C.3   1 <1>   0.2000 
 19 C        2.3150     8.5630    -1.0890 C.3   1 <1>  -0.1600 
 20 O       -0.6820     9.4850    -0.4000 O.3   1 <1>  -0.5600 
 21 C        1.7010     9.4640    -0.0150 C.3   1 <1>   0.2000 
 22 C       -1.9470     9.6010     0.1740 C.3   1 <1>   0.0400 
 23 O        1.5660    10.7300    -0.5470 O.3   1 <1>  -0.6800 
 24 H        0.1380    -2.9050     1.7020 H     1 <1>   0.1500 
 25 H       -1.4590     3.1460    -0.1820 H     1 <1>   0.0800 
 26 H       -0.6330     2.9310     1.3460 H     1 <1>   0.0800 
 27 H       -2.9440    -1.4740    -1.9000 H     1 <1>   0.1500 
 28 H       -1.1470    -4.6010     0.4100 H     1 <1>   0.1500 
 29 H        0.6880     2.6870    -1.3750 H     1 <1>   0.0800 
 30 H        1.4930     2.5750     0.1700 H     1 <1>   0.0800 
 31 H       -2.6750    -3.8830    -1.3760 H     1 <1>   0.1500 
 32 H        0.5020     5.0110    -1.1600 H     1 <1>   0.3700 
 33 H        1.9750     7.0600     1.4930 H     1 <1>   0.0800 
 34 H       -0.4700     7.0920     1.1900 H     1 <1>   0.0800 
 35 H       -0.2410     7.1200    -0.5400 H     1 <1>   0.0800 
 36 H        3.5370     7.0330    -0.1920 H     1 <1>   0.0800 
 37 H        2.4450     6.4540    -1.4030 H     1 <1>   0.0800 
 38 H        0.1450     9.3110     1.4460 H     1 <1>   0.0800 
 39 H        1.6460     8.5340    -1.9310 H     1 <1>   0.0800 
 40 H        3.2540     8.9740    -1.4170 H     1 <1>   0.0800 
 41 H        2.3720     9.5280     0.8240 H     1 <1>   0.0800 
 42 H       -2.6120    10.0170    -0.5630 H     1 <1>   0.0800 
 43 H       -1.8930    10.2610     1.0230 H     1 <1>   0.0800 
 44 H       -2.3000     8.6290     0.4710 H     1 <1>   0.0800 
 45 H        0.6620    10.7630    -0.9350 H     1 <1>   0.4000 
@<TRIPOS>BOND
  1   1   2  1   
  2   1   3  1   
  3   2   4  ar  
  4   2   5  ar  
  5   3   6  2   
  6   3   7  1   
  7   4   6  1   
  8   4   8  ar  
  9   5   9  ar  
 10   5  24  1   
 11   7  10  1   
 12   7  25  1   
 13   7  26  1   
 14   8  11  ar  
 15   8  27  1   
 16   9  11  ar  
 17   9  28  1   
 18  10  12  1   
 19  10  29  1   
 20  10  30  1   
 21  11  31  1   
 22  12  13  am  
 23  12  32  1   
 24  13  14  2   
 25  13  15  1   
 26  15  16  1   
 27  15  17  1   
 28  15  33  1   
 29  16  18  1   
 30  16  34  1   
 31  16  35  1   
 32  17  19  1   
 33  17  36  1   
 34  17  37  1   
 35  18  20  1   
 36  18  21  1   
 37  18  38  1   
 38  19  21  1   
 39  19  39  1   
 40  19  40  1   
 41  20  22  1   
 42  21  23  1   
 43  21  41  1   
 44  22  42  1   
 45  22  43  1   
 46  22  44  1   
 47  23  45  1   
@<TRIPOS>SUBSTRUCTURE
  1 ****  10 GROUP 4 **** **** 0

# MOE 2024.06 (io_trps.svl 2023.06)
