@<TRIPOS>MOLECULE
NONAME
49 52 1 0 0 
SMALL
USER_CHARGES


@<TRIPOS>ATOM
  1 O        0.0100     1.6300     1.0530 O.2   1 <1>  -0.5700 
  2 C        0.9800     0.9650     0.7330 C.2   1 <1>   0.5440 
  3 N        1.2230     0.7620    -0.6090 N.am  1 <1>  -0.6600 
  4 C        1.8530     0.4570     1.7590 C.ar  1 <1>   0.0860 
  5 C        2.2850    -0.1090    -1.1580 C.3   1 <1>   0.1400 
  6 C        0.2010     1.0540    -1.6370 C.3   1 <1>   0.1400 
  7 C        1.8260    -0.8980     2.1310 C.ar  1 <1>   0.4100 
  8 C        2.7310     1.2950     2.4290 C.ar  1 <1>  -0.1500 
  9 C        1.6780    -0.6890    -2.4280 C.3   1 <1>  -0.1600 
 10 C        0.7130     0.3900    -2.9120 C.3   1 <1>  -0.1600 
 11 N        2.5820    -1.4260     3.0940 N.ar  1 <1>  -0.6200 
 12 N        0.9600    -1.7780     1.5230 N.pl3 1 <1>  -0.8380 
 13 C        3.5200     0.7520     3.4170 C.ar  1 <1>  -0.1500 
 14 C        3.4050    -0.5970     3.7070 C.ar  1 <1>   0.1600 
 15 C       -0.3580    -1.9600     2.1790 C.3   1 <1>   0.2090 
 16 C        1.4460    -3.1040     1.0370 C.3   1 <1>   0.2090 
 17 C       -0.3600    -3.4290     2.5920 C.3   1 <1>   0.2000 
 18 C        0.3790    -4.1280     1.4510 C.3   1 <1>  -0.0800 
 19 O        0.4200    -3.5480     3.7320 O.3   1 <1>  -0.6800 
 20 C       -0.5760    -4.4660     0.2890 C.3   1 <1>  -0.0160 
 21 C        0.1230    -5.2400    -0.8190 C.ar  1 <1>   0.1670 
 22 N        0.5500    -4.5410    -1.8600 N.ar  1 <1>  -0.6200 
 23 C        0.2840    -6.6190    -0.7020 C.ar  1 <1>   0.1600 
 24 C        1.1390    -5.3050    -2.7650 C.ar  1 <1>   0.1600 
 25 N        0.8760    -7.3840    -1.6050 N.ar  1 <1>  -0.6200 
 26 C        1.2970    -6.6800    -2.6410 C.ar  1 <1>   0.1600 
 27 H        3.1430     0.4960    -1.3950 H     1 <1>   0.0800 
 28 H        2.5690    -0.8860    -0.4720 H     1 <1>   0.0800 
 29 H       -0.7360     0.6180    -1.3320 H     1 <1>   0.0800 
 30 H        0.0800     2.1170    -1.7590 H     1 <1>   0.0800 
 31 H        2.7780     2.3400     2.1770 H     1 <1>   0.1500 
 32 H        2.4290    -0.9310    -3.1590 H     1 <1>   0.0800 
 33 H        1.1310    -1.5820    -2.1750 H     1 <1>   0.0800 
 34 H       -0.0910    -0.0140    -3.5000 H     1 <1>   0.0800 
 35 H        1.2440     1.1210    -3.4960 H     1 <1>   0.0800 
 36 H        4.2150     1.3640     3.9640 H     1 <1>   0.1500 
 37 H        4.0240    -1.0100     4.4850 H     1 <1>   0.1500 
 38 H       -0.4840    -1.3090     3.0280 H     1 <1>   0.0800 
 39 H       -1.1370    -1.7620     1.4640 H     1 <1>   0.0800 
 40 H        1.5890    -3.0710    -0.0280 H     1 <1>   0.0800 
 41 H        2.3870    -3.3520     1.4980 H     1 <1>   0.0800 
 42 H       -1.3400    -3.8240     2.7990 H     1 <1>   0.0800 
 43 H        0.8400    -5.0360     1.7990 H     1 <1>   0.0800 
 44 H        1.2030    -2.9520     3.6130 H     1 <1>   0.4000 
 45 H       -0.9950    -3.5650    -0.1250 H     1 <1>   0.0800 
 46 H       -1.3920    -5.0610     0.6600 H     1 <1>   0.0800 
 47 H       -0.0910    -7.1120     0.1770 H     1 <1>   0.1500 
 48 H        1.5150    -4.8200    -3.6480 H     1 <1>   0.1500 
 49 H        1.7910    -7.2170    -3.4310 H     1 <1>   0.1500 
@<TRIPOS>BOND
  1   1   2  2   
  2   2   3  am  
  3   2   4  1   
  4   3   5  1   
  5   3   6  1   
  6   4   7  ar  
  7   4   8  ar  
  8   5   9  1   
  9   5  27  1   
 10   5  28  1   
 11   6  10  1   
 12   6  29  1   
 13   6  30  1   
 14   7  11  ar  
 15   7  12  1   
 16   8  13  ar  
 17   8  31  1   
 18   9  10  1   
 19   9  32  1   
 20   9  33  1   
 21  10  34  1   
 22  10  35  1   
 23  11  14  ar  
 24  12  15  1   
 25  12  16  1   
 26  13  14  ar  
 27  13  36  1   
 28  14  37  1   
 29  15  17  1   
 30  15  38  1   
 31  15  39  1   
 32  16  18  1   
 33  16  40  1   
 34  16  41  1   
 35  17  18  1   
 36  17  19  1   
 37  17  42  1   
 38  18  20  1   
 39  18  43  1   
 40  19  44  1   
 41  20  21  1   
 42  20  45  1   
 43  20  46  1   
 44  21  22  ar  
 45  21  23  ar  
 46  22  24  ar  
 47  23  25  ar  
 48  23  47  1   
 49  24  26  ar  
 50  24  48  1   
 51  25  26  ar  
 52  26  49  1   
@<TRIPOS>SUBSTRUCTURE
  1 ****  12 GROUP 4 **** **** 0

# MOE 2024.06 (io_trps.svl 2023.06)
