@<TRIPOS>MOLECULE
NONAME
45 46 1 0 0 
SMALL
USER_CHARGES


@<TRIPOS>ATOM
  1 F       -0.1590     1.0530     0.9540 F     1 <1>  -0.1900 
  2 C        0.0750     2.3120     0.6910 C.ar  1 <1>   0.1900 
  3 C        0.4060     2.6710    -0.6020 C.ar  1 <1>  -0.1500 
  4 C       -0.0200     3.2350     1.7140 C.ar  1 <1>  -0.1500 
  5 C        0.6550     4.0050    -0.8800 C.ar  1 <1>  -0.1500 
  6 C        0.2310     4.5660     1.4270 C.ar  1 <1>  -0.1500 
  7 C        0.5720     4.9570     0.1380 C.ar  1 <1>   0.0830 
  8 O        0.8110     6.2790    -0.0470 O.3   1 <1>  -0.3630 
  9 C        1.2110     6.7860    -1.3120 C.3   1 <1>   0.1810 
 10 C        1.4630     8.2930    -1.2620 C.2   1 <1>   0.5690 
 11 O        1.0080     8.9530    -2.1660 O.2   1 <1>  -0.5700 
 12 N        2.2140     8.9020    -0.2770 N.am  1 <1>  -0.6600 
 13 C        3.0930     8.1980     0.7090 C.3   1 <1>   0.1400 
 14 C        2.1050    10.3730    -0.0820 C.3   1 <1>   0.1400 
 15 C        4.5990     8.4190     0.4350 C.3   1 <1>   0.3430 
 16 C        3.1560    11.1030    -0.9220 C.3   1 <1>  -0.1600 
 17 N        4.9960     9.8560     0.2000 N.4   1 <1>  -0.9590 
 18 C        4.4620    10.3340    -1.1150 C.3   1 <1>   0.3430 
 19 C        6.4800     9.9980     0.2860 C.3   1 <1>   0.3430 
 20 C        6.8800    11.4610     0.4520 C.3   1 <1>  -0.1600 
 21 C        8.3920    11.5380     0.5750 C.3   1 <1>   1.0200 
 22 F        8.8270    10.8360     1.6090 F     1 <1>  -0.3400 
 23 F        8.8230    12.7770     0.7280 F     1 <1>  -0.3400 
 24 F        8.9870    11.0400    -0.4970 F     1 <1>  -0.3400 
 25 H        0.4630     1.9190    -1.3680 H     1 <1>   0.1500 
 26 H       -0.2840     2.9160     2.7070 H     1 <1>   0.1500 
 27 H        0.9060     4.2760    -1.8890 H     1 <1>   0.1500 
 28 H        0.1600     5.3080     2.2030 H     1 <1>   0.1500 
 29 H        0.4210     6.5850    -2.0140 H     1 <1>   0.0800 
 30 H        2.1070     6.2800    -1.6180 H     1 <1>   0.0800 
 31 H        2.9100     7.1400     0.6960 H     1 <1>   0.0800 
 32 H        2.8530     8.5380     1.7020 H     1 <1>   0.0800 
 33 H        2.2280    10.6090     0.9610 H     1 <1>   0.0800 
 34 H        1.1190    10.7090    -0.3680 H     1 <1>   0.0800 
 35 H        4.8770     7.8290    -0.4230 H     1 <1>   0.0800 
 36 H        5.1460     8.0290     1.2780 H     1 <1>   0.0800 
 37 H        3.3510    12.0710    -0.4960 H     1 <1>   0.0800 
 38 H        2.7340    11.2770    -1.8970 H     1 <1>   0.0800 
 39 H        4.5590    10.4250     0.9370 H     1 <1>   0.4500 
 40 H        5.1740    10.9760    -1.6060 H     1 <1>   0.0800 
 41 H        4.2800     9.4900    -1.7640 H     1 <1>   0.0800 
 42 H        6.9400     9.5870    -0.6010 H     1 <1>   0.0800 
 43 H        6.8450     9.4410     1.1350 H     1 <1>   0.0800 
 44 H        6.4480    11.8730     1.3450 H     1 <1>   0.0800 
 45 H        6.5850    12.0480    -0.3960 H     1 <1>   0.0800 
@<TRIPOS>BOND
  1   1   2  1   
  2   2   3  ar  
  3   2   4  ar  
  4   3   5  ar  
  5   3  25  1   
  6   4   6  ar  
  7   4  26  1   
  8   5   7  ar  
  9   5  27  1   
 10   6   7  ar  
 11   6  28  1   
 12   7   8  1   
 13   8   9  1   
 14   9  10  1   
 15   9  29  1   
 16   9  30  1   
 17  10  11  2   
 18  10  12  am  
 19  12  13  1   
 20  12  14  1   
 21  13  15  1   
 22  13  31  1   
 23  13  32  1   
 24  14  16  1   
 25  14  33  1   
 26  14  34  1   
 27  15  17  1   
 28  15  35  1   
 29  15  36  1   
 30  16  18  1   
 31  16  37  1   
 32  16  38  1   
 33  17  18  1   
 34  17  19  1   
 35  17  39  1   
 36  18  40  1   
 37  18  41  1   
 38  19  20  1   
 39  19  42  1   
 40  19  43  1   
 41  20  21  1   
 42  20  44  1   
 43  20  45  1   
 44  21  22  1   
 45  21  23  1   
 46  21  24  1   
@<TRIPOS>SUBSTRUCTURE
  1 ****  13 GROUP 4 **** **** 0

# MOE 2024.06 (io_trps.svl 2023.06)
