@<TRIPOS>MOLECULE
NONAME
52 54 1 0 0 
SMALL
USER_CHARGES


@<TRIPOS>ATOM
  1 S        0.5110     0.4870    -0.3840 S.o2  1 <1>   1.3330 
  2 O       -0.6100     1.3860    -0.5420 O.2   1 <1>  -0.6500 
  3 O        0.5290    -0.7710    -1.0960 O.2   1 <1>  -0.6500 
  4 N        0.6540     0.1490     1.2750 N.am  1 <1>  -0.8490 
  5 C        2.0240     1.3660    -0.7790 C.3   1 <1>  -0.0550 
  6 C        0.2850     1.2800     2.1330 C.3   1 <1>   0.1160 
  7 C       -0.1150    -1.0370     1.6640 C.3   1 <1>   0.1160 
  8 C        3.3070     0.5120    -0.6710 C.3   1 <1>  -0.0800 
  9 C        4.5630     1.1850    -1.2020 C.3   1 <1>   0.2200 
 10 C        3.7090     0.1170     0.7570 C.3   1 <1>   0.1200 
 11 N        4.6110     2.6070    -0.7870 N.am  1 <1>  -0.7300 
 12 C        5.6350     0.4170    -0.4440 C.3   1 <1>   0.1200 
 13 O        5.1020     0.2280     0.8300 O.3   1 <1>  -0.5600 
 14 C        4.3220     3.6780    -1.5810 C.2   1 <1>   0.5440 
 15 O        3.9570     3.4640    -2.7190 O.2   1 <1>  -0.5700 
 16 C        4.3660     5.0260    -1.0580 C.ar  1 <1>   0.0860 
 17 C        5.4450     5.5280    -0.2850 C.ar  1 <1>   0.0000 
 18 C        3.3160     5.8800    -1.2740 C.ar  1 <1>  -0.1500 
 19 C        5.3060     6.8150     0.2810 C.ar  1 <1>   0.3100 
 20 C        6.6560     4.8360    -0.0560 C.ar  1 <1>  -0.1500 
 21 C        3.2890     7.1520    -0.7000 C.ar  1 <1>   0.1670 
 22 N        4.2290     7.6070     0.0630 N.ar  1 <1>  -0.6200 
 23 C        6.3320     7.3130     1.0990 C.ar  1 <1>  -0.1500 
 24 C        7.6420     5.3550     0.7380 C.ar  1 <1>  -0.1500 
 25 C        2.1090     8.0650    -0.9560 C.3   1 <1>  -0.0970 
 26 C        7.4810     6.6070     1.3360 C.ar  1 <1>  -0.1440 
 27 C        8.5860     7.1540     2.2220 C.3   1 <1>  -0.0970 
 28 H        1.9490     1.7200    -1.7890 H     1 <1>   0.0800 
 29 H        2.1070     2.2270    -0.1470 H     1 <1>   0.0800 
 30 H        0.4800     1.0410     3.1650 H     1 <1>   0.0800 
 31 H       -0.7620     1.5140     2.0200 H     1 <1>   0.0800 
 32 H        0.8620     2.1500     1.8710 H     1 <1>   0.0800 
 33 H        0.0040    -1.2330     2.7160 H     1 <1>   0.0800 
 34 H        0.2350    -1.8990     1.1210 H     1 <1>   0.0800 
 35 H       -1.1610    -0.8930     1.4450 H     1 <1>   0.0800 
 36 H        3.1590    -0.3960    -1.2300 H     1 <1>   0.0800 
 37 H        4.6690     1.0930    -2.2710 H     1 <1>   0.0800 
 38 H        3.4250    -0.8960     0.9860 H     1 <1>   0.0800 
 39 H        3.2940     0.7850     1.4910 H     1 <1>   0.0800 
 40 H        4.8550     2.7440     0.1990 H     1 <1>   0.3700 
 41 H        6.5660     0.9510    -0.3750 H     1 <1>   0.0800 
 42 H        5.7970    -0.5520    -0.8830 H     1 <1>   0.0800 
 43 H        2.4910     5.5630    -1.8870 H     1 <1>   0.1500 
 44 H        6.8200     3.8810    -0.5220 H     1 <1>   0.1500 
 45 H        6.1800     8.2850     1.5320 H     1 <1>   0.1500 
 46 H        8.5540     4.8060     0.9060 H     1 <1>   0.1500 
 47 H        1.4040     7.6160    -1.6310 H     1 <1>   0.0800 
 48 H        2.4570     8.9890    -1.3810 H     1 <1>   0.0800 
 49 H        1.6140     8.2790    -0.0260 H     1 <1>   0.0800 
 50 H        8.7580     6.4880     3.0480 H     1 <1>   0.0800 
 51 H        8.3210     8.1210     2.6110 H     1 <1>   0.0800 
 52 H        9.4950     7.2510     1.6560 H     1 <1>   0.0800 
@<TRIPOS>BOND
  1   1   2  2   
  2   1   3  2   
  3   1   4  am  
  4   1   5  1   
  5   4   6  1   
  6   4   7  1   
  7   5   8  1   
  8   5  28  1   
  9   5  29  1   
 10   6  30  1   
 11   6  31  1   
 12   6  32  1   
 13   7  33  1   
 14   7  34  1   
 15   7  35  1   
 16   8   9  1   
 17   8  10  1   
 18   8  36  1   
 19   9  11  1   
 20   9  12  1   
 21   9  37  1   
 22  10  13  1   
 23  10  38  1   
 24  10  39  1   
 25  11  14  am  
 26  11  40  1   
 27  12  13  1   
 28  12  41  1   
 29  12  42  1   
 30  14  15  2   
 31  14  16  1   
 32  16  17  ar  
 33  16  18  ar  
 34  17  19  ar  
 35  17  20  ar  
 36  18  21  ar  
 37  18  43  1   
 38  19  22  ar  
 39  19  23  ar  
 40  20  24  ar  
 41  20  44  1   
 42  21  22  ar  
 43  21  25  1   
 44  23  26  ar  
 45  23  45  1   
 46  24  26  ar  
 47  24  46  1   
 48  25  47  1   
 49  25  48  1   
 50  25  49  1   
 51  26  27  1   
 52  27  50  1   
 53  27  51  1   
 54  27  52  1   
@<TRIPOS>SUBSTRUCTURE
  1 ****  11 GROUP 4 **** **** 0

# MOE 2024.06 (io_trps.svl 2023.06)
