@<TRIPOS>MOLECULE
NONAME
54 57 1 0 0 
SMALL
USER_CHARGES


@<TRIPOS>ATOM
  1 S        2.8190    -5.0650     3.0850 S.3   1 <1>  -0.0800 
  2 C        1.2420    -5.1370     2.3340 C.ar  1 <1>   0.0400 
  3 C        3.5050    -4.5450     1.5500 C.2   1 <1>   0.1980 
  4 C        1.3790    -4.7700     1.0090 C.ar  1 <1>   0.2270 
  5 C        0.0310    -5.4840     2.9030 C.ar  1 <1>  -0.1500 
  6 N        2.6710    -4.4420     0.5980 N.2   1 <1>  -0.5650 
  7 C        4.9920    -4.2800     1.5220 C.3   1 <1>  -0.0600 
  8 C        0.2480    -4.7570     0.2110 C.ar  1 <1>  -0.1500 
  9 C       -1.0850    -5.4670     2.0860 C.ar  1 <1>  -0.1500 
 10 C       -0.9960    -5.1190     0.7290 C.ar  1 <1>   0.0860 
 11 C       -2.1640    -5.1500    -0.1300 C.2   1 <1>   0.5440 
 12 O       -2.5770    -4.0990    -0.5820 O.2   1 <1>  -0.5700 
 13 N       -2.8280    -6.3190    -0.4580 N.am  1 <1>  -0.6600 
 14 C       -2.3350    -7.6890    -0.0470 C.3   1 <1>   0.3640 
 15 C       -4.1520    -6.2370    -1.1480 C.3   1 <1>   0.1400 
 16 C       -0.8630    -7.8300    -0.4470 C.ar  1 <1>  -0.1430 
 17 C       -3.1230    -8.9080    -0.6280 C.3   1 <1>   0.2000 
 18 C       -4.4800    -7.5070    -1.9290 C.3   1 <1>   0.1200 
 19 C        0.0790    -8.2270     0.4900 C.ar  1 <1>  -0.1500 
 20 C       -0.4410    -7.5360    -1.7360 C.ar  1 <1>  -0.1500 
 21 O       -4.4170    -8.5940    -1.0660 O.3   1 <1>  -0.5600 
 22 C       -3.2940   -10.0470     0.3910 C.3   1 <1>   0.1200 
 23 C        1.4260    -8.3070     0.1800 C.ar  1 <1>   0.0830 
 24 C        0.8980    -7.6190    -2.0700 C.ar  1 <1>  -0.1500 
 25 O       -2.0890   -10.3950     0.9950 O.3   1 <1>  -0.6800 
 26 O        2.2240    -8.6900     1.2160 O.3   1 <1>  -0.3630 
 27 C        1.8440    -7.9870    -1.1220 C.ar  1 <1>   0.0830 
 28 C        3.5950    -8.3690     1.2540 C.3   1 <1>   0.0400 
 29 O        3.1500    -8.0390    -1.4930 O.3   1 <1>  -0.3630 
 30 C        3.7090    -6.8740    -2.0610 C.3   1 <1>   0.0400 
 31 H       -0.0280    -5.7570     3.9420 H     1 <1>   0.1500 
 32 H        5.2860    -3.9700     0.5360 H     1 <1>   0.0800 
 33 H        5.5270    -5.1740     1.7840 H     1 <1>   0.0800 
 34 H        5.2350    -3.5010     2.2210 H     1 <1>   0.0800 
 35 H        0.3400    -4.4740    -0.8200 H     1 <1>   0.1500 
 36 H       -2.0470    -5.7260     2.4920 H     1 <1>   0.1500 
 37 H       -2.4040    -7.7420     1.0250 H     1 <1>   0.0800 
 38 H       -4.9190    -6.0660    -0.4140 H     1 <1>   0.0800 
 39 H       -4.1590    -5.4050    -1.8310 H     1 <1>   0.0800 
 40 H       -2.5970    -9.2950    -1.4820 H     1 <1>   0.0800 
 41 H       -3.7930    -7.6540    -2.7450 H     1 <1>   0.0800 
 42 H       -5.4810    -7.4530    -2.3190 H     1 <1>   0.0800 
 43 H       -0.2220    -8.4690     1.4950 H     1 <1>   0.1500 
 44 H       -1.1540    -7.2270    -2.4810 H     1 <1>   0.1500 
 45 H       -3.6910   -10.9230    -0.0910 H     1 <1>   0.0800 
 46 H       -3.9650    -9.7380     1.1740 H     1 <1>   0.0800 
 47 H        1.2030    -7.3960    -3.0750 H     1 <1>   0.1500 
 48 H       -1.4390   -10.7220     0.3390 H     1 <1>   0.4000 
 49 H        3.9480    -8.5290     2.2560 H     1 <1>   0.0800 
 50 H        3.7190    -7.3370     0.9790 H     1 <1>   0.0800 
 51 H        4.1200    -9.0130     0.5730 H     1 <1>   0.0800 
 52 H        4.7790    -6.9760    -2.0520 H     1 <1>   0.0800 
 53 H        3.4160    -6.0220    -1.4720 H     1 <1>   0.0800 
 54 H        3.3620    -6.7710    -3.0730 H     1 <1>   0.0800 
@<TRIPOS>BOND
  1   1   2  1   
  2   1   3  1   
  3   2   4  ar  
  4   2   5  ar  
  5   3   6  2   
  6   3   7  1   
  7   4   6  1   
  8   4   8  ar  
  9   5   9  ar  
 10   5  31  1   
 11   7  32  1   
 12   7  33  1   
 13   7  34  1   
 14   8  10  ar  
 15   8  35  1   
 16   9  10  ar  
 17   9  36  1   
 18  10  11  1   
 19  11  12  2   
 20  11  13  am  
 21  13  14  1   
 22  13  15  1   
 23  14  16  1   
 24  14  17  1   
 25  14  37  1   
 26  15  18  1   
 27  15  38  1   
 28  15  39  1   
 29  16  19  ar  
 30  16  20  ar  
 31  17  21  1   
 32  17  22  1   
 33  17  40  1   
 34  18  21  1   
 35  18  41  1   
 36  18  42  1   
 37  19  23  ar  
 38  19  43  1   
 39  20  24  ar  
 40  20  44  1   
 41  22  25  1   
 42  22  45  1   
 43  22  46  1   
 44  23  26  1   
 45  23  27  ar  
 46  24  27  ar  
 47  24  47  1   
 48  25  48  1   
 49  26  28  1   
 50  27  29  1   
 51  28  49  1   
 52  28  50  1   
 53  28  51  1   
 54  29  30  1   
 55  30  52  1   
 56  30  53  1   
 57  30  54  1   
@<TRIPOS>SUBSTRUCTURE
  1 ****  16 GROUP 4 **** **** 0

# MOE 2024.06 (io_trps.svl 2023.06)
