@<TRIPOS>MOLECULE
NONAME
46 48 1 0 0 
SMALL
USER_CHARGES


@<TRIPOS>ATOM
  1 S       -1.2290    -0.7000     0.4370 S.3   1 <1>  -0.0800 
  2 C       -1.6760    -1.2330    -1.1490 C.2   1 <1>   0.4420 
  3 C       -0.8450     0.8340    -0.2670 C.2   1 <1>   0.1980 
  4 N       -1.5330    -0.3120    -2.0310 N.2   1 <1>  -0.3380 
  5 N       -2.1160    -2.5320    -1.2630 N.am  1 <1>  -0.4940 
  6 N       -1.0580     0.8650    -1.5210 N.2   1 <1>  -0.3380 
  7 C       -0.3360     1.9450     0.6360 C.3   1 <1>   0.3000 
  8 C       -2.5840    -3.2250    -2.3380 C.2   1 <1>   0.5690 
  9 O        0.7400     1.4940     1.4090 O.3   1 <1>  -0.5600 
 10 O       -2.7230    -2.7620    -3.4410 O.2   1 <1>  -0.5700 
 11 C       -2.9530    -4.6870    -2.0870 C.3   1 <1>   0.1710 
 12 C        1.3110     2.4730     2.2170 C.3   1 <1>   0.0400 
 13 N       -3.2910    -4.9850    -0.6620 N.3   1 <1>  -0.8100 
 14 C       -4.6070    -4.4490    -0.2780 C.3   1 <1>   0.1100 
 15 C       -3.3830    -6.4360    -0.4240 C.3   1 <1>   0.1100 
 16 C       -4.9870    -5.2490     0.9610 C.3   1 <1>   0.2000 
 17 C       -4.4770    -6.6540     0.6400 C.3   1 <1>  -0.0800 
 18 O       -4.2460    -4.7630     2.0220 O.3   1 <1>  -0.6800 
 19 C       -5.6190    -7.5540     0.1300 C.3   1 <1>  -0.0170 
 20 C       -5.1340    -8.9590    -0.1870 C.ar  1 <1>   0.1670 
 21 N       -4.8150    -9.2030    -1.4490 N.ar  1 <1>  -0.6200 
 22 C       -5.0480    -9.8980     0.8300 C.ar  1 <1>  -0.1500 
 23 C       -4.3940   -10.4320    -1.7070 C.ar  1 <1>   0.1600 
 24 C       -4.6060   -11.1720     0.5480 C.ar  1 <1>  -0.1500 
 25 C       -4.2720   -11.4360    -0.7630 C.ar  1 <1>  -0.1500 
 26 H       -2.1390    -3.0880    -0.4070 H     1 <1>   0.3700 
 27 H       -1.1220     2.2660     1.2950 H     1 <1>   0.0800 
 28 H       -0.0050     2.7720     0.0330 H     1 <1>   0.0800 
 29 H       -2.1060    -5.2810    -2.3790 H     1 <1>   0.0800 
 30 H       -3.7760    -4.9530    -2.7280 H     1 <1>   0.0800 
 31 H        2.1180     2.0220     2.7680 H     1 <1>   0.0800 
 32 H        0.5710     2.8480     2.9040 H     1 <1>   0.0800 
 33 H        1.6950     3.2670     1.6000 H     1 <1>   0.0800 
 34 H       -4.5740    -3.3920    -0.0750 H     1 <1>   0.0800 
 35 H       -5.3270    -4.6400    -1.0560 H     1 <1>   0.0800 
 36 H       -3.6410    -6.9420    -1.3390 H     1 <1>   0.0800 
 37 H       -2.4350    -6.8130    -0.0820 H     1 <1>   0.0800 
 38 H       -6.0320    -5.1940     1.2130 H     1 <1>   0.0800 
 39 H       -4.0550    -7.1130     1.5170 H     1 <1>   0.0800 
 40 H       -3.3130    -4.7380     1.7280 H     1 <1>   0.4000 
 41 H       -6.0640    -7.1270    -0.7520 H     1 <1>   0.0800 
 42 H       -6.3860    -7.6160     0.8810 H     1 <1>   0.0800 
 43 H       -5.3230    -9.6360     1.8360 H     1 <1>   0.1500 
 44 H       -4.1320   -10.6500    -2.7280 H     1 <1>   0.1500 
 45 H       -4.5260   -11.9250     1.3130 H     1 <1>   0.1500 
 46 H       -3.9210   -12.4100    -1.0530 H     1 <1>   0.1500 
@<TRIPOS>BOND
  1   1   2  1   
  2   1   3  1   
  3   2   4  2   
  4   2   5  1   
  5   3   6  2   
  6   3   7  1   
  7   4   6  1   
  8   5   8  am  
  9   5  26  1   
 10   7   9  1   
 11   7  27  1   
 12   7  28  1   
 13   8  10  2   
 14   8  11  1   
 15   9  12  1   
 16  11  13  1   
 17  11  29  1   
 18  11  30  1   
 19  12  31  1   
 20  12  32  1   
 21  12  33  1   
 22  13  14  1   
 23  13  15  1   
 24  14  16  1   
 25  14  34  1   
 26  14  35  1   
 27  15  17  1   
 28  15  36  1   
 29  15  37  1   
 30  16  17  1   
 31  16  18  1   
 32  16  38  1   
 33  17  19  1   
 34  17  39  1   
 35  18  40  1   
 36  19  20  1   
 37  19  41  1   
 38  19  42  1   
 39  20  21  ar  
 40  20  22  ar  
 41  21  23  ar  
 42  22  24  ar  
 43  22  43  1   
 44  23  25  ar  
 45  23  44  1   
 46  24  25  ar  
 47  24  45  1   
 48  25  46  1   
@<TRIPOS>SUBSTRUCTURE
  1 ****  13 GROUP 4 **** **** 0

# MOE 2024.06 (io_trps.svl 2023.06)
