@<TRIPOS>MOLECULE
NONAME
57 59 1 0 0 
SMALL
USER_CHARGES


@<TRIPOS>ATOM
  1 S        0.0830     2.6080     2.3380 S.o2  1 <1>   1.3330 
  2 O       -1.0460     3.3520     2.8430 O.2   1 <1>  -0.6500 
  3 O        1.3930     2.8320     2.8970 O.2   1 <1>  -0.6500 
  4 N        0.1620     2.9010     0.6330 N.am  1 <1>  -0.6930 
  5 C       -0.2790     0.8670     2.4150 C.3   1 <1>  -0.1350 
  6 C        1.2580     2.5110    -0.1340 C.ar  1 <1>   0.1990 
  7 C       -1.0960     3.3460    -0.0480 C.3   1 <1>   0.2570 
  8 C        2.5070     3.0860     0.0760 C.ar  1 <1>  -0.1500 
  9 C        1.1340     1.5470    -1.1290 C.ar  1 <1>  -0.1500 
 10 C       -2.2840     2.3770     0.0970 C.2   1 <1>   0.5690 
 11 C        3.6060     2.7150    -0.6800 C.ar  1 <1>  -0.1440 
 12 C        2.2240     1.1720    -1.8920 C.ar  1 <1>  -0.1500 
 13 O       -2.1530     1.2870    -0.4160 O.2   1 <1>  -0.5700 
 14 N       -3.4480     2.7030     0.7570 N.am  1 <1>  -0.6600 
 15 C        3.4590     1.7560    -1.6690 C.ar  1 <1>  -0.1500 
 16 C        4.9610     3.3520    -0.4310 C.3   1 <1>  -0.0970 
 17 C       -4.6150     1.7670     0.7670 C.3   1 <1>   0.1400 
 18 C       -3.7100     3.9480     1.5360 C.3   1 <1>   0.1400 
 19 C       -5.8740     2.4290     0.1570 C.3   1 <1>   0.0000 
 20 C       -4.9250     4.6720     0.9500 C.3   1 <1>  -0.1600 
 21 C       -7.0420     1.4240     0.2270 C.3   1 <1>   0.2000 
 22 C       -6.1600     3.7560     0.9010 C.3   1 <1>  -0.1600 
 23 C       -5.6980     2.6350    -1.3580 C.3   1 <1>  -0.1600 
 24 O       -8.2560     2.1030     0.0750 O.3   1 <1>  -0.5600 
 25 C       -6.8480     0.5000    -0.9830 C.3   1 <1>  -0.1600 
 26 C       -6.0170     1.2850    -2.0080 C.3   1 <1>  -0.1600 
 27 C       -9.3670     1.4540     0.6070 C.3   1 <1>   0.0400 
 28 H       -1.2240     0.6560     1.9570 H     1 <1>   0.0800 
 29 H       -0.3150     0.5460     3.4370 H     1 <1>   0.0800 
 30 H        0.4830     0.3100     1.9060 H     1 <1>   0.0800 
 31 H       -1.3460     4.3230     0.3090 H     1 <1>   0.0800 
 32 H       -0.8980     3.4480    -1.1000 H     1 <1>   0.0800 
 33 H        2.6080     3.8310     0.8440 H     1 <1>   0.1500 
 34 H        0.1820     1.0820    -1.3060 H     1 <1>   0.1500 
 35 H        2.1130     0.4250    -2.6590 H     1 <1>   0.1500 
 36 H        4.3040     1.4600    -2.2660 H     1 <1>   0.1500 
 37 H        5.7390     2.6160    -0.5140 H     1 <1>   0.0800 
 38 H        5.0020     3.7790     0.5550 H     1 <1>   0.0800 
 39 H        5.1360     4.1290    -1.1530 H     1 <1>   0.0800 
 40 H       -4.3800     0.8650     0.2310 H     1 <1>   0.0800 
 41 H       -4.8170     1.4900     1.7870 H     1 <1>   0.0800 
 42 H       -3.9090     3.6780     2.5600 H     1 <1>   0.0800 
 43 H       -2.8670     4.6100     1.5430 H     1 <1>   0.0800 
 44 H       -5.1460     5.5350     1.5520 H     1 <1>   0.0800 
 45 H       -4.6860     5.0180    -0.0400 H     1 <1>   0.0800 
 46 H       -7.0520     0.8900     1.1620 H     1 <1>   0.0800 
 47 H       -6.9710     4.2810     0.4270 H     1 <1>   0.0800 
 48 H       -6.4680     3.5310     1.9070 H     1 <1>   0.0800 
 49 H       -6.4210     3.3560    -1.7020 H     1 <1>   0.0800 
 50 H       -4.7160     2.9830    -1.6240 H     1 <1>   0.0800 
 51 H       -6.2940    -0.3700    -0.6780 H     1 <1>   0.0800 
 52 H       -7.7850     0.1800    -1.4000 H     1 <1>   0.0800 
 53 H       -5.1050     0.7560    -2.2230 H     1 <1>   0.0800 
 54 H       -6.5640     1.4280    -2.9240 H     1 <1>   0.0800 
 55 H      -10.2350     2.0560     0.4000 H     1 <1>   0.0800 
 56 H       -9.2430     1.3530     1.6710 H     1 <1>   0.0800 
 57 H       -9.4780     0.4890     0.1450 H     1 <1>   0.0800 
@<TRIPOS>BOND
  1   1   2  2   
  2   1   3  2   
  3   1   4  am  
  4   1   5  1   
  5   4   6  1   
  6   4   7  1   
  7   5  28  1   
  8   5  29  1   
  9   5  30  1   
 10   6   8  ar  
 11   6   9  ar  
 12   7  10  1   
 13   7  31  1   
 14   7  32  1   
 15   8  11  ar  
 16   8  33  1   
 17   9  12  ar  
 18   9  34  1   
 19  10  13  2   
 20  10  14  am  
 21  11  15  ar  
 22  11  16  1   
 23  12  15  ar  
 24  12  35  1   
 25  14  17  1   
 26  14  18  1   
 27  15  36  1   
 28  16  37  1   
 29  16  38  1   
 30  16  39  1   
 31  17  19  1   
 32  17  40  1   
 33  17  41  1   
 34  18  20  1   
 35  18  42  1   
 36  18  43  1   
 37  19  21  1   
 38  19  22  1   
 39  19  23  1   
 40  20  22  1   
 41  20  44  1   
 42  20  45  1   
 43  21  24  1   
 44  21  25  1   
 45  21  46  1   
 46  22  47  1   
 47  22  48  1   
 48  23  26  1   
 49  23  49  1   
 50  23  50  1   
 51  24  27  1   
 52  25  26  1   
 53  25  51  1   
 54  25  52  1   
 55  26  53  1   
 56  26  54  1   
 57  27  55  1   
 58  27  56  1   
 59  27  57  1   
@<TRIPOS>SUBSTRUCTURE
  1 ****  10 GROUP 4 **** **** 0

# MOE 2024.06 (io_trps.svl 2023.06)
