@<TRIPOS>MOLECULE
NONAME
51 53 1 0 0 
SMALL
USER_CHARGES


@<TRIPOS>ATOM
  1 S       -0.0220    -0.2780    -1.6960 S.o2  1 <1>   1.4470 
  2 O       -1.0170    -1.2590    -2.0750 O.2   1 <1>  -0.6500 
  3 O        0.6030     0.5350    -2.7180 O.2   1 <1>  -0.6500 
  4 N       -0.7110     0.7820    -0.5630 N.am  1 <1>  -0.8490 
  5 C        1.2880    -1.0750    -0.7280 C.ar  1 <1>  -0.0090 
  6 C       -1.5140     0.1240     0.4960 C.3   1 <1>   0.1960 
  7 C       -1.3490     1.9620    -1.1390 C.3   1 <1>   0.1960 
  8 C        2.2930    -0.3160    -0.1430 C.ar  1 <1>  -0.1500 
  9 C        1.3180    -2.4520    -0.5410 C.ar  1 <1>  -0.1500 
 10 C       -3.0480     0.3940     0.4500 C.3   1 <1>   0.0000 
 11 C       -2.7020     1.6210    -1.7820 C.3   1 <1>  -0.1600 
 12 C        3.3090    -0.8870     0.6130 C.ar  1 <1>   0.1170 
 13 C        2.3210    -3.0450     0.2060 C.ar  1 <1>  -0.1500 
 14 C       -3.5140     1.6100     1.2870 C.3   1 <1>   0.2000 
 15 C       -3.5020     0.5440    -1.0230 C.3   1 <1>  -0.1600 
 16 C       -3.8210    -0.7630     1.1070 C.3   1 <1>  -0.1600 
 17 N        4.2890    -0.0430     1.1580 N.am  1 <1>  -0.5470 
 18 C        3.3090    -2.2670     0.7770 C.ar  1 <1>  -0.1500 
 19 O       -2.8100     1.6490     2.4950 O.3   1 <1>  -0.5600 
 20 C       -4.9890     1.3340     1.6060 C.3   1 <1>  -0.1600 
 21 C       -5.1700    -0.1880     1.5490 C.3   1 <1>  -0.1600 
 22 C        5.1910    -0.2420     2.1650 C.2   1 <1>   0.5690 
 23 C       -2.7230     2.9060     3.0880 C.3   1 <1>   0.0400 
 24 O        5.2820    -1.2540     2.8100 O.2   1 <1>  -0.5700 
 25 C        6.1250     0.8990     2.4850 C.3   1 <1>  -0.1790 
 26 H       -1.3650    -0.9410     0.4310 H     1 <1>   0.0800 
 27 H       -1.1140     0.4150     1.4510 H     1 <1>   0.0800 
 28 H       -1.4960     2.6800    -0.3520 H     1 <1>   0.0800 
 29 H       -0.7010     2.4240    -1.8660 H     1 <1>   0.0800 
 30 H        2.2720     0.7500    -0.2830 H     1 <1>   0.1500 
 31 H        0.5520    -3.0660    -0.9840 H     1 <1>   0.1500 
 32 H       -3.2810     2.5250    -1.8400 H     1 <1>   0.0800 
 33 H       -2.5380     1.2880    -2.7920 H     1 <1>   0.0800 
 34 H        2.3330    -4.1130     0.3430 H     1 <1>   0.1500 
 35 H       -3.3790     2.5410     0.7660 H     1 <1>   0.0800 
 36 H       -3.3480    -0.3980    -1.5200 H     1 <1>   0.0800 
 37 H       -4.5530     0.7580    -1.0950 H     1 <1>   0.0800 
 38 H       -3.9370    -1.6090     0.4520 H     1 <1>   0.0800 
 39 H       -3.2900    -1.0840     1.9880 H     1 <1>   0.0800 
 40 H        4.3120     0.8890     0.7520 H     1 <1>   0.3700 
 41 H        4.0830    -2.7450     1.3490 H     1 <1>   0.1500 
 42 H       -5.2770     1.7300     2.5640 H     1 <1>   0.0800 
 43 H       -5.6030     1.7890     0.8500 H     1 <1>   0.0800 
 44 H       -5.4480    -0.5810     2.5120 H     1 <1>   0.0800 
 45 H       -5.9360    -0.4400     0.8350 H     1 <1>   0.0800 
 46 H       -2.1930     2.7990     4.0190 H     1 <1>   0.0800 
 47 H       -3.7110     3.2870     3.2760 H     1 <1>   0.0800 
 48 H       -2.1780     3.5670     2.4370 H     1 <1>   0.0800 
 49 H        6.7180     1.1390     1.6230 H     1 <1>   0.0800 
 50 H        6.7810     0.6150     3.2880 H     1 <1>   0.0800 
 51 H        5.5590     1.7590     2.7880 H     1 <1>   0.0800 
@<TRIPOS>BOND
  1   1   2  2   
  2   1   3  2   
  3   1   4  am  
  4   1   5  1   
  5   4   6  1   
  6   4   7  1   
  7   5   8  ar  
  8   5   9  ar  
  9   6  10  1   
 10   6  26  1   
 11   6  27  1   
 12   7  11  1   
 13   7  28  1   
 14   7  29  1   
 15   8  12  ar  
 16   8  30  1   
 17   9  13  ar  
 18   9  31  1   
 19  10  14  1   
 20  10  15  1   
 21  10  16  1   
 22  11  15  1   
 23  11  32  1   
 24  11  33  1   
 25  12  17  1   
 26  12  18  ar  
 27  13  18  ar  
 28  13  34  1   
 29  14  19  1   
 30  14  20  1   
 31  14  35  1   
 32  15  36  1   
 33  15  37  1   
 34  16  21  1   
 35  16  38  1   
 36  16  39  1   
 37  17  22  am  
 38  17  40  1   
 39  18  41  1   
 40  19  23  1   
 41  20  21  1   
 42  20  42  1   
 43  20  43  1   
 44  21  44  1   
 45  21  45  1   
 46  22  24  2   
 47  22  25  1   
 48  23  46  1   
 49  23  47  1   
 50  23  48  1   
 51  25  49  1   
 52  25  50  1   
 53  25  51  1   
@<TRIPOS>SUBSTRUCTURE
  1 ****   4 GROUP 4 **** **** 0

# MOE 2024.06 (io_trps.svl 2023.06)
