@<TRIPOS>MOLECULE
NONAME
49 51 1 0 0 
SMALL
USER_CHARGES


@<TRIPOS>ATOM
  1 S        0.4040     0.3390     1.3450 S.3   1 <1>  -0.0800 
  2 C        0.3150     2.0850     1.3530 C.2   1 <1>  -0.1100 
  3 C        1.1160     0.3460    -0.2550 C.2   1 <1>  -0.1100 
  4 C        0.8180     2.6270     0.2150 C.2   1 <1>  -0.0860 
  5 C        1.2620     1.6060    -0.7010 C.2   1 <1>  -0.1500 
  6 C        0.9160     4.0370    -0.1040 C.2   1 <1>   0.7160 
  7 O        1.0200     4.4090    -1.2560 O.2   1 <1>  -0.5700 
  8 N        0.9870     4.9910     0.8870 N.am  1 <1>  -0.6600 
  9 C        2.0050     4.8700     1.9680 C.3   1 <1>   0.1400 
 10 C        0.4320     6.3520     0.6520 C.3   1 <1>   0.1400 
 11 C        3.4300     4.9930     1.3900 C.3   1 <1>   0.3430 
 12 C        1.5310     7.4060     0.4720 C.3   1 <1>  -0.1600 
 13 N        3.7450     6.3320     0.7940 N.4   1 <1>  -0.9590 
 14 C        2.7920     6.8800    -0.2160 C.3   1 <1>   0.3430 
 15 C        5.1320     6.3780     0.2660 C.3   1 <1>   0.5230 
 16 C        5.6690     7.7730     0.5500 C.2   1 <1>   0.0070 
 17 N        5.1410     8.5600     1.4410 N.2   1 <1>  -0.5650 
 18 N        6.7410     8.3090    -0.0890 N.pl3 1 <1>   0.0480 
 19 C        5.9050     9.6650     1.3840 C.2   1 <1>   0.0770 
 20 C        6.8790     9.5300     0.4600 C.2   1 <1>  -0.3020 
 21 C        7.5880     7.7670    -1.1800 C.3   1 <1>   0.0960 
 22 C        8.5230     6.6580    -0.6910 C.3   1 <1>   0.1200 
 23 O        7.7720     5.5470    -0.3050 O.3   1 <1>  -0.5600 
 24 C        8.5560     4.4730     0.1170 C.3   1 <1>   0.0400 
 25 H       -0.1180     2.5470     2.2230 H     1 <1>   0.1500 
 26 H        1.3460    -0.6070    -0.6980 H     1 <1>   0.1500 
 27 H        1.6660     1.8760    -1.6620 H     1 <1>   0.1500 
 28 H        1.9080     3.9110     2.4450 H     1 <1>   0.0800 
 29 H        1.8440     5.6220     2.7210 H     1 <1>   0.0800 
 30 H       -0.2070     6.6250     1.4750 H     1 <1>   0.0800 
 31 H       -0.1830     6.3310    -0.2340 H     1 <1>   0.0800 
 32 H        3.5560     4.2290     0.6400 H     1 <1>   0.0800 
 33 H        4.1330     4.7900     2.1810 H     1 <1>   0.0800 
 34 H        1.7800     7.8560     1.4160 H     1 <1>   0.0800 
 35 H        1.1190     8.1900    -0.1390 H     1 <1>   0.0800 
 36 H        3.8040     7.0520     1.5390 H     1 <1>   0.4500 
 37 H        3.2620     7.7090    -0.7220 H     1 <1>   0.0800 
 38 H        2.5400     6.1350    -0.9550 H     1 <1>   0.0800 
 39 H        5.1530     6.1610    -0.7890 H     1 <1>   0.0800 
 40 H        5.7510     5.6630     0.7810 H     1 <1>   0.0800 
 41 H        5.7150    10.5170     2.0200 H     1 <1>   0.1500 
 42 H        7.6440    10.2300     0.1760 H     1 <1>   0.1500 
 43 H        8.1800     8.5720    -1.5770 H     1 <1>   0.0800 
 44 H        6.9630     7.3970    -1.9720 H     1 <1>   0.0800 
 45 H        9.1080     7.0000     0.1480 H     1 <1>   0.0800 
 46 H        9.1840     6.3620    -1.4890 H     1 <1>   0.0800 
 47 H        7.9050     3.6620     0.3920 H     1 <1>   0.0800 
 48 H        9.1420     4.7710     0.9700 H     1 <1>   0.0800 
 49 H        9.1980     4.1600    -0.6890 H     1 <1>   0.0800 
@<TRIPOS>BOND
  1   1   2  1   
  2   1   3  1   
  3   2   4  2   
  4   2  25  1   
  5   3   5  2   
  6   3  26  1   
  7   4   5  1   
  8   4   6  1   
  9   5  27  1   
 10   6   7  2   
 11   6   8  am  
 12   8   9  1   
 13   8  10  1   
 14   9  11  1   
 15   9  28  1   
 16   9  29  1   
 17  10  12  1   
 18  10  30  1   
 19  10  31  1   
 20  11  13  1   
 21  11  32  1   
 22  11  33  1   
 23  12  14  1   
 24  12  34  1   
 25  12  35  1   
 26  13  14  1   
 27  13  15  1   
 28  13  36  1   
 29  14  37  1   
 30  14  38  1   
 31  15  16  1   
 32  15  39  1   
 33  15  40  1   
 34  16  17  2   
 35  16  18  1   
 36  17  19  1   
 37  18  20  1   
 38  18  21  1   
 39  19  20  2   
 40  19  41  1   
 41  20  42  1   
 42  21  22  1   
 43  21  43  1   
 44  21  44  1   
 45  22  23  1   
 46  22  45  1   
 47  22  46  1   
 48  23  24  1   
 49  24  47  1   
 50  24  48  1   
 51  24  49  1   
@<TRIPOS>SUBSTRUCTURE
  1 ****  13 GROUP 4 **** **** 0

# MOE 2024.06 (io_trps.svl 2023.06)
