@<TRIPOS>MOLECULE
NONAME
51 53 1 0 0 
SMALL
USER_CHARGES


@<TRIPOS>ATOM
  1 F       -1.5570    -0.2710    -0.8210 F     1 <1>  -0.2320 
  2 C       -1.0170    -1.1730    -0.0170 C.3   1 <1>   0.4630 
  3 F       -0.1010    -0.5790     0.7290 F     1 <1>  -0.2320 
  4 C       -1.8640    -2.2540     0.5760 C.3   1 <1>  -0.1950 
  5 C       -0.8530    -2.5920    -0.4720 C.3   1 <1>  -0.2000 
  6 C       -3.3710    -2.3250     0.2940 C.3   1 <1>  -0.0650 
  7 C       -3.8880    -3.7530     0.4900 C.3   1 <1>   0.3430 
  8 N       -5.3640    -3.8290     0.2740 N.4   1 <1>  -0.9590 
  9 C       -5.9110    -5.1070     0.8610 C.3   1 <1>   0.3430 
 10 C       -5.7140    -3.7190    -1.1790 C.3   1 <1>   0.3430 
 11 C       -7.4510    -5.1460     0.9910 C.3   1 <1>   0.1400 
 12 C       -6.9710    -2.8710    -1.3790 C.3   1 <1>  -0.1600 
 13 N       -8.1380    -4.7640    -0.2810 N.am  1 <1>  -0.6600 
 14 C       -8.1820    -3.3000    -0.5430 C.3   1 <1>   0.1400 
 15 C       -8.6920    -5.6350    -1.1910 C.2   1 <1>   0.5690 
 16 O       -9.0650    -5.2490    -2.2700 O.2   1 <1>  -0.5700 
 17 C       -8.8410    -7.1150    -0.9010 C.3   1 <1>  -0.0990 
 18 C      -10.1110    -7.3910    -0.0890 C.3   1 <1>   0.0200 
 19 C      -10.2080    -8.8660     0.2630 C.2   1 <1>  -0.3320 
 20 N      -10.5570    -9.8570    -0.5930 N.pl3 1 <1>   0.3140 
 21 C       -9.9780    -9.4500     1.4590 C.2   1 <1>  -0.1500 
 22 N      -10.5440   -11.0530     0.0170 N.2   1 <1>  -0.7070 
 23 C      -10.9310    -9.7470    -2.0100 C.3   1 <1>   0.0160 
 24 C      -10.2010   -10.8030     1.2420 C.2   1 <1>   0.1390 
 25 H       -1.6160    -2.5290     1.5880 H     1 <1>   0.1000 
 26 H        0.0480    -3.1040    -0.1840 H     1 <1>   0.1000 
 27 H       -1.1650    -2.8230    -1.4740 H     1 <1>   0.1000 
 28 H       -3.5570    -1.9950    -0.7130 H     1 <1>   0.0800 
 29 H       -3.8750    -1.6570     0.9710 H     1 <1>   0.0800 
 30 H       -3.6540    -4.0620     1.4970 H     1 <1>   0.0800 
 31 H       -3.3800    -4.4200    -0.1880 H     1 <1>   0.0800 
 32 H       -5.8040    -3.0360     0.7580 H     1 <1>   0.4500 
 33 H       -5.4930    -5.2570     1.8430 H     1 <1>   0.0800 
 34 H       -5.6000    -5.9400     0.2520 H     1 <1>   0.0800 
 35 H       -5.8840    -4.7020    -1.5890 H     1 <1>   0.0800 
 36 H       -4.9050    -3.2700    -1.7300 H     1 <1>   0.0800 
 37 H       -7.7590    -4.4750     1.7750 H     1 <1>   0.0800 
 38 H       -7.7510    -6.1310     1.3010 H     1 <1>   0.0800 
 39 H       -7.2490    -2.9460    -2.4160 H     1 <1>   0.0800 
 40 H       -6.7550    -1.8340    -1.1960 H     1 <1>   0.0800 
 41 H       -9.0900    -3.0490    -1.0690 H     1 <1>   0.0800 
 42 H       -8.1990    -2.7650     0.3910 H     1 <1>   0.0800 
 43 H       -7.9790    -7.4940    -0.3890 H     1 <1>   0.0800 
 44 H       -8.9040    -7.6360    -1.8390 H     1 <1>   0.0800 
 45 H      -10.9810    -7.0840    -0.6460 H     1 <1>   0.0800 
 46 H      -10.0910    -6.8160     0.8200 H     1 <1>   0.0800 
 47 H       -9.6890    -9.0070     2.3940 H     1 <1>   0.1500 
 48 H      -11.5130    -8.8590    -2.1630 H     1 <1>   0.0800 
 49 H      -11.5120   -10.6070    -2.2850 H     1 <1>   0.0800 
 50 H      -10.0400    -9.7130    -2.6070 H     1 <1>   0.0800 
 51 H      -10.1050   -11.5660     1.9960 H     1 <1>   0.1500 
@<TRIPOS>BOND
  1   1   2  1   
  2   2   3  1   
  3   2   4  1   
  4   2   5  1   
  5   4   5  1   
  6   4   6  1   
  7   4  25  1   
  8   5  26  1   
  9   5  27  1   
 10   6   7  1   
 11   6  28  1   
 12   6  29  1   
 13   7   8  1   
 14   7  30  1   
 15   7  31  1   
 16   8   9  1   
 17   8  10  1   
 18   8  32  1   
 19   9  11  1   
 20   9  33  1   
 21   9  34  1   
 22  10  12  1   
 23  10  35  1   
 24  10  36  1   
 25  11  13  1   
 26  11  37  1   
 27  11  38  1   
 28  12  14  1   
 29  12  39  1   
 30  12  40  1   
 31  13  14  1   
 32  13  15  am  
 33  14  41  1   
 34  14  42  1   
 35  15  16  2   
 36  15  17  1   
 37  17  18  1   
 38  17  43  1   
 39  17  44  1   
 40  18  19  1   
 41  18  45  1   
 42  18  46  1   
 43  19  20  1   
 44  19  21  2   
 45  20  22  1   
 46  20  23  1   
 47  21  24  1   
 48  21  47  1   
 49  22  24  2   
 50  23  48  1   
 51  23  49  1   
 52  23  50  1   
 53  24  51  1   
@<TRIPOS>SUBSTRUCTURE
  1 ****   9 GROUP 4 **** **** 0

# MOE 2024.06 (io_trps.svl 2023.06)
