@<TRIPOS>MOLECULE
NONAME
55 56 1 0 0 
SMALL
USER_CHARGES


@<TRIPOS>ATOM
  1 O       -0.2740     0.7970    -0.2020 O.2   1 <1>  -0.5700 
  2 C       -0.2810     2.0050    -0.1550 C.2   1 <1>   0.5690 
  3 N       -1.0770     2.7030     0.7130 N.am  1 <1>  -0.6600 
  4 C        0.6200     2.7690    -1.1240 C.3   1 <1>   0.1810 
  5 C       -1.0920     4.2020     0.7240 C.3   1 <1>   0.3640 
  6 C       -1.9340     2.0270     1.7300 C.3   1 <1>   0.0600 
  7 O        0.9570     4.0500    -0.6490 O.3   1 <1>  -0.5600 
  8 C       -2.5280     4.7410     0.6190 C.ar  1 <1>  -0.1430 
  9 C       -0.1640     4.8640    -0.3300 C.3   1 <1>   0.2610 
 10 C       -3.4460     4.3800    -0.3740 C.ar  1 <1>  -0.1430 
 11 C       -2.9210     5.6570     1.5890 C.ar  1 <1>  -0.1500 
 12 C        0.3270     6.2210     0.1870 C.2   1 <1>   0.5690 
 13 C       -4.7160     4.9390    -0.3650 C.ar  1 <1>  -0.1500 
 14 C       -3.1440     3.3800    -1.4860 C.3   1 <1>  -0.0960 
 15 C       -4.1880     6.2080     1.5870 C.ar  1 <1>  -0.1500 
 16 O       -0.4330     7.1530     0.2940 O.2   1 <1>  -0.5700 
 17 N        1.6420     6.3730     0.5080 N.am  1 <1>  -0.7300 
 18 C       -5.0890     5.8480     0.6070 C.ar  1 <1>  -0.1500 
 19 C        2.2460     7.6330     1.0260 C.3   1 <1>   0.1400 
 20 C        2.8970     8.5300    -0.0740 C.3   1 <1>   0.5030 
 21 N        3.2950     9.8780     0.4630 N.4   1 <1>  -0.9590 
 22 C        1.9460     8.7710    -1.2570 C.3   1 <1>  -0.2400 
 23 C        4.1560     7.8490    -0.6280 C.3   1 <1>  -0.2400 
 24 C        4.3250     9.8390     1.5540 C.3   1 <1>   0.2630 
 25 C        2.1330    10.7190     0.9140 C.3   1 <1>   0.2630 
 26 H        0.1300     2.8690    -2.0740 H     1 <1>   0.0800 
 27 H        1.5340     2.2200    -1.2620 H     1 <1>   0.0800 
 28 H       -0.7070     4.4890     1.6870 H     1 <1>   0.0800 
 29 H       -1.7090     2.4080     2.7100 H     1 <1>   0.0800 
 30 H       -1.7640     0.9640     1.7270 H     1 <1>   0.0800 
 31 H       -2.9730     2.2070     1.5130 H     1 <1>   0.0800 
 32 H       -0.7100     5.0410    -1.2370 H     1 <1>   0.0800 
 33 H       -2.2370     5.9620     2.3610 H     1 <1>   0.1500 
 34 H       -5.4340     4.6700    -1.1190 H     1 <1>   0.1500 
 35 H       -3.9090     3.4020    -2.2410 H     1 <1>   0.0800 
 36 H       -3.1080     2.3830    -1.0840 H     1 <1>   0.0800 
 37 H       -2.2120     3.6010    -1.9650 H     1 <1>   0.0800 
 38 H       -4.4700     6.9180     2.3450 H     1 <1>   0.1500 
 39 H        2.2490     5.5580     0.3450 H     1 <1>   0.3700 
 40 H       -6.0770     6.2740     0.5980 H     1 <1>   0.1500 
 41 H        1.4690     8.1880     1.5200 H     1 <1>   0.0800 
 42 H        2.9810     7.3720     1.7660 H     1 <1>   0.0800 
 43 H        3.7190    10.3620    -0.3410 H     1 <1>   0.4500 
 44 H        1.7790     7.8520    -1.7910 H     1 <1>   0.0800 
 45 H        2.3570     9.4780    -1.9540 H     1 <1>   0.0800 
 46 H        0.9820     9.1110    -0.9260 H     1 <1>   0.0800 
 47 H        3.8840     6.9450    -1.1440 H     1 <1>   0.0800 
 48 H        4.8360     7.5680     0.1550 H     1 <1>   0.0800 
 49 H        4.6630     8.4840    -1.3320 H     1 <1>   0.0800 
 50 H        3.9450     9.3130     2.4140 H     1 <1>   0.0800 
 51 H        4.5860    10.8410     1.8550 H     1 <1>   0.0800 
 52 H        5.2220     9.3480     1.2140 H     1 <1>   0.0800 
 53 H        1.6200    10.2490     1.7370 H     1 <1>   0.0800 
 54 H        1.4300    10.8640     0.1100 H     1 <1>   0.0800 
 55 H        2.4770    11.6890     1.2360 H     1 <1>   0.0800 
@<TRIPOS>BOND
  1   1   2  2   
  2   2   3  am  
  3   2   4  1   
  4   3   5  1   
  5   3   6  1   
  6   4   7  1   
  7   4  26  1   
  8   4  27  1   
  9   5   8  1   
 10   5   9  1   
 11   5  28  1   
 12   6  29  1   
 13   6  30  1   
 14   6  31  1   
 15   7   9  1   
 16   8  10  ar  
 17   8  11  ar  
 18   9  12  1   
 19   9  32  1   
 20  10  13  ar  
 21  10  14  1   
 22  11  15  ar  
 23  11  33  1   
 24  12  16  2   
 25  12  17  am  
 26  13  18  ar  
 27  13  34  1   
 28  14  35  1   
 29  14  36  1   
 30  14  37  1   
 31  15  18  ar  
 32  15  38  1   
 33  17  19  1   
 34  17  39  1   
 35  18  40  1   
 36  19  20  1   
 37  19  41  1   
 38  19  42  1   
 39  20  21  1   
 40  20  22  1   
 41  20  23  1   
 42  21  24  1   
 43  21  25  1   
 44  21  43  1   
 45  22  44  1   
 46  22  45  1   
 47  22  46  1   
 48  23  47  1   
 49  23  48  1   
 50  23  49  1   
 51  24  50  1   
 52  24  51  1   
 53  24  52  1   
 54  25  53  1   
 55  25  54  1   
 56  25  55  1   
@<TRIPOS>SUBSTRUCTURE
  1 ****  12 GROUP 4 **** **** 0

# MOE 2024.06 (io_trps.svl 2023.06)
