@<TRIPOS>MOLECULE
NONAME
48 50 1 0 0 
SMALL
USER_CHARGES


@<TRIPOS>ATOM
  1 F       -0.4450     0.7010    -0.0510 F     1 <1>  -0.3400 
  2 C        0.7920     1.1770    -0.1330 C.3   1 <1>   1.1640 
  3 F        1.1230     1.5740     1.0900 F     1 <1>  -0.3400 
  4 F        0.7060     2.2840    -0.8620 F     1 <1>  -0.3400 
  5 C        1.7710     0.1280    -0.7040 C.ar  1 <1>  -0.1440 
  6 C        2.1100    -1.0490    -0.0190 C.ar  1 <1>  -0.1440 
  7 C        2.3450     0.3570    -1.9550 C.ar  1 <1>  -0.1500 
  8 C        3.0190    -1.9310    -0.5890 C.ar  1 <1>  -0.1500 
  9 C        1.5400    -1.4340     1.3570 C.3   1 <1>   0.0450 
 10 C        3.2370    -0.5380    -2.5130 C.ar  1 <1>  -0.1500 
 11 C        3.5780    -1.6840    -1.8270 C.ar  1 <1>  -0.1500 
 12 C        1.1400    -2.9010     1.4670 C.2   1 <1>   0.5690 
 13 O        1.7890    -3.6130     2.1960 O.2   1 <1>  -0.5700 
 14 N        0.0770    -3.3890     0.7580 N.am  1 <1>  -0.6600 
 15 C       -0.7080    -2.6660    -0.2760 C.3   1 <1>   0.1400 
 16 C       -0.3730    -4.7950     0.8410 C.3   1 <1>   0.1400 
 17 C       -1.7430    -3.6740    -0.7950 C.3   1 <1>   0.2000 
 18 C       -1.1260    -5.0390    -0.4670 C.3   1 <1>  -0.0800 
 19 O       -2.9400    -3.5370    -0.0810 O.3   1 <1>  -0.5600 
 20 C       -2.1380    -6.1970    -0.3890 C.3   1 <1>   0.0200 
 21 C       -3.8100    -2.5610    -0.5610 C.3   1 <1>   0.0400 
 22 C       -1.4820    -7.5600    -0.2360 C.2   1 <1>  -0.0400 
 23 O       -2.2450    -8.6080    -0.0750 O.3   1 <1>  -0.0190 
 24 C       -0.2060    -7.9810    -0.2290 C.2   1 <1>  -0.1500 
 25 N       -1.5520    -9.7040     0.0410 N.2   1 <1>  -0.4100 
 26 C       -0.3200    -9.3560    -0.0470 C.2   1 <1>   0.1080 
 27 C        0.8440   -10.3180     0.0380 C.3   1 <1>  -0.0590 
 28 H        2.1090     1.2440    -2.5200 H     1 <1>   0.1500 
 29 H        3.3060    -2.8310    -0.0680 H     1 <1>   0.1500 
 30 H        0.6740    -0.8610     1.6190 H     1 <1>   0.0800 
 31 H        2.2880    -1.2330     2.1020 H     1 <1>   0.0800 
 32 H        3.6700    -0.3400    -3.4790 H     1 <1>   0.1500 
 33 H        4.2790    -2.3820    -2.2520 H     1 <1>   0.1500 
 34 H       -1.1810    -1.7950     0.1400 H     1 <1>   0.0800 
 35 H       -0.0500    -2.3810    -1.0780 H     1 <1>   0.0800 
 36 H        0.4630    -5.4610     0.9610 H     1 <1>   0.0800 
 37 H       -1.0360    -4.8950     1.6840 H     1 <1>   0.0800 
 38 H       -1.9420    -3.5640    -1.8470 H     1 <1>   0.0800 
 39 H       -0.4000    -5.2610    -1.2290 H     1 <1>   0.0800 
 40 H       -2.7340    -6.2090    -1.2830 H     1 <1>   0.0800 
 41 H       -2.8040    -6.0430     0.4430 H     1 <1>   0.0800 
 42 H       -4.6780    -2.5480     0.0740 H     1 <1>   0.0800 
 43 H       -4.1040    -2.8090    -1.5670 H     1 <1>   0.0800 
 44 H       -3.3290    -1.5990    -0.5320 H     1 <1>   0.0800 
 45 H        0.7110    -7.4340    -0.3360 H     1 <1>   0.1500 
 46 H        1.4200   -10.2750    -0.8670 H     1 <1>   0.0800 
 47 H        0.4810   -11.3210     0.1740 H     1 <1>   0.0800 
 48 H        1.4700   -10.0590     0.8720 H     1 <1>   0.0800 
@<TRIPOS>BOND
  1   1   2  1   
  2   2   3  1   
  3   2   4  1   
  4   2   5  1   
  5   5   6  ar  
  6   5   7  ar  
  7   6   8  ar  
  8   6   9  1   
  9   7  10  ar  
 10   7  28  1   
 11   8  11  ar  
 12   8  29  1   
 13   9  12  1   
 14   9  30  1   
 15   9  31  1   
 16  10  11  ar  
 17  10  32  1   
 18  11  33  1   
 19  12  13  2   
 20  12  14  am  
 21  14  15  1   
 22  14  16  1   
 23  15  17  1   
 24  15  34  1   
 25  15  35  1   
 26  16  18  1   
 27  16  36  1   
 28  16  37  1   
 29  17  18  1   
 30  17  19  1   
 31  17  38  1   
 32  18  20  1   
 33  18  39  1   
 34  19  21  1   
 35  20  22  1   
 36  20  40  1   
 37  20  41  1   
 38  21  42  1   
 39  21  43  1   
 40  21  44  1   
 41  22  23  1   
 42  22  24  2   
 43  23  25  1   
 44  24  26  1   
 45  24  45  1   
 46  25  26  2   
 47  26  27  1   
 48  27  46  1   
 49  27  47  1   
 50  27  48  1   
@<TRIPOS>SUBSTRUCTURE
  1 ****  14 GROUP 4 **** **** 0

# MOE 2024.06 (io_trps.svl 2023.06)
