@<TRIPOS>MOLECULE
NONAME
47 50 1 0 0 
SMALL
USER_CHARGES


@<TRIPOS>ATOM
  1 O        1.6800     0.7040    -1.3790 O.3   1 <1>  -0.6800 
  2 C        1.5350     0.2010    -0.1000 C.3   1 <1>   0.2800 
  3 C        2.9060     0.2250     0.6460 C.3   1 <1>  -0.0800 
  4 C        1.0350    -1.2470    -0.2540 C.3   1 <1>  -0.1600 
  5 C        0.4610     1.0590     0.6010 C.3   1 <1>  -0.1600 
  6 C        3.6770    -1.1040     0.6330 C.3   1 <1>  -0.0800 
  7 C        3.9260     1.2570     0.1440 C.3   1 <1>   0.2090 
  8 C        2.0310    -2.1710    -0.9880 C.3   1 <1>  -0.1600 
  9 C        0.7890     2.5570     0.7400 C.3   1 <1>  -0.2400 
 10 C        3.5060    -1.8230    -0.7160 C.3   1 <1>  -0.1600 
 11 C        5.1260    -0.7100     0.9150 C.3   1 <1>   0.2090 
 12 N        5.2800     0.6940     0.4370 N.pl3 1 <1>  -0.8380 
 13 C        6.4630     1.3030     0.2370 C.ar  1 <1>   0.4610 
 14 N        6.4930     2.5080    -0.3410 N.ar  1 <1>  -0.1790 
 15 C        7.7110     0.7340     0.6020 C.ar  1 <1>  -0.1500 
 16 C        7.6460     3.2270    -0.6020 C.ar  1 <1>   0.3610 
 17 C        8.8840     1.3850     0.3750 C.ar  1 <1>  -0.1500 
 18 C        8.8830     2.6650    -0.2410 C.ar  1 <1>   0.0000 
 19 C        7.6080     4.4850    -1.2120 C.ar  1 <1>  -0.1500 
 20 C       10.0540     3.3890    -0.5030 C.ar  1 <1>  -0.1500 
 21 C        8.7700     5.1770    -1.4600 C.ar  1 <1>  -0.1500 
 22 C        9.9980     4.6250    -1.1020 C.ar  1 <1>  -0.1500 
 23 H        0.8480     0.5660    -1.8700 H     1 <1>   0.4000 
 24 H        2.7160     0.4440     1.6810 H     1 <1>   0.0800 
 25 H        0.8710    -1.6470     0.7320 H     1 <1>   0.0800 
 26 H        0.0840    -1.2690    -0.7560 H     1 <1>   0.0800 
 27 H       -0.4670     0.9630     0.0650 H     1 <1>   0.0800 
 28 H        0.2880     0.6600     1.5860 H     1 <1>   0.0800 
 29 H        3.3260    -1.7570     1.4140 H     1 <1>   0.0800 
 30 H        3.7800     2.1980     0.6430 H     1 <1>   0.0800 
 31 H        3.8520     1.3980    -0.9190 H     1 <1>   0.0800 
 32 H        1.8390    -3.1880    -0.6890 H     1 <1>   0.0800 
 33 H        1.8580    -2.1130    -2.0500 H     1 <1>   0.0800 
 34 H        1.0010     2.9920    -0.2200 H     1 <1>   0.0800 
 35 H        1.6300     2.7090     1.3910 H     1 <1>   0.0800 
 36 H       -0.0550     3.0730     1.1640 H     1 <1>   0.0800 
 37 H        3.8610    -1.1800    -1.5030 H     1 <1>   0.0800 
 38 H        4.0960    -2.7230    -0.7410 H     1 <1>   0.0800 
 39 H        5.8110    -1.3740     0.4140 H     1 <1>   0.0800 
 40 H        5.3090    -0.7420     1.9770 H     1 <1>   0.0800 
 41 H        5.6000     2.8950    -0.6210 H     1 <1>   0.4570 
 42 H        7.7160    -0.2320     1.0730 H     1 <1>   0.1500 
 43 H        9.8310     0.9520     0.6530 H     1 <1>   0.1500 
 44 H        6.6660     4.9220    -1.4930 H     1 <1>   0.1500 
 45 H       11.0070     2.9680    -0.2290 H     1 <1>   0.1500 
 46 H        8.7480     6.1480    -1.9290 H     1 <1>   0.1500 
 47 H       10.9030     5.1770    -1.3010 H     1 <1>   0.1500 
@<TRIPOS>BOND
  1   1   2  1   
  2   1  23  1   
  3   2   3  1   
  4   2   4  1   
  5   2   5  1   
  6   3   6  1   
  7   3   7  1   
  8   3  24  1   
  9   4   8  1   
 10   4  25  1   
 11   4  26  1   
 12   5   9  1   
 13   5  27  1   
 14   5  28  1   
 15   6  10  1   
 16   6  11  1   
 17   6  29  1   
 18   7  12  1   
 19   7  30  1   
 20   7  31  1   
 21   8  10  1   
 22   8  32  1   
 23   8  33  1   
 24   9  34  1   
 25   9  35  1   
 26   9  36  1   
 27  10  37  1   
 28  10  38  1   
 29  11  12  1   
 30  11  39  1   
 31  11  40  1   
 32  12  13  1   
 33  13  14  ar  
 34  13  15  ar  
 35  14  16  ar  
 36  14  41  1   
 37  15  17  ar  
 38  15  42  1   
 39  16  18  ar  
 40  16  19  ar  
 41  17  18  ar  
 42  17  43  1   
 43  18  20  ar  
 44  19  21  ar  
 45  19  44  1   
 46  20  22  ar  
 47  20  45  1   
 48  21  22  ar  
 49  21  46  1   
 50  22  47  1   
@<TRIPOS>SUBSTRUCTURE
  1 ****  12 GROUP 4 **** **** 0

# MOE 2024.06 (io_trps.svl 2023.06)
