@<TRIPOS>MOLECULE
NONAME
46 48 1 0 0 
SMALL
USER_CHARGES


@<TRIPOS>ATOM
  1 O       -4.0510     1.9210    -2.8270 O.2   1 <1>  -0.5700 
  2 C       -2.9430     1.7440    -2.3820 C.2   1 <1>   0.5690 
  3 N       -2.4620     0.4990    -2.1400 N.am  1 <1>  -0.7300 
  4 C       -2.0690     2.9470    -2.0670 C.3   1 <1>   0.0440 
  5 C       -3.2250    -0.7610    -2.2470 C.3   1 <1>   0.2200 
  6 C       -0.8960     2.5920    -1.1560 C.ar  1 <1>  -0.1440 
  7 C       -3.5500    -1.2530    -0.8470 C.3   1 <1>  -0.0800 
  8 C       -2.3160    -1.8710    -2.7730 C.3   1 <1>   0.1200 
  9 C       -1.1250     2.2920     0.1780 C.ar  1 <1>  -0.1500 
 10 C        0.3980     2.5370    -1.6500 C.ar  1 <1>  -0.1500 
 11 C       -2.2550    -1.9760    -0.4680 C.3   1 <1>   0.1200 
 12 C       -4.7680    -2.1970    -0.8470 C.3   1 <1>  -0.0160 
 13 O       -1.7040    -2.4570    -1.6590 O.3   1 <1>  -0.5600 
 14 C       -0.0840     1.9280     1.0140 C.ar  1 <1>   0.0820 
 15 C        1.4470     2.1810    -0.8200 C.ar  1 <1>  -0.1500 
 16 C       -5.0920    -2.6870     0.5560 C.ar  1 <1>  -0.1440 
 17 O       -0.4080     1.6340     2.2980 O.3   1 <1>  -0.3630 
 18 C        1.2120     1.8740     0.5090 C.ar  1 <1>  -0.1500 
 19 C       -4.7970    -3.9710     0.9700 C.ar  1 <1>  -0.1500 
 20 C       -5.7000    -1.8710     1.4890 C.ar  1 <1>  -0.1500 
 21 C        0.5760     1.2560     3.2340 C.3   1 <1>   0.0400 
 22 C       -5.1120    -4.3630     2.2610 C.ar  1 <1>   0.1600 
 23 C       -5.9720    -2.3630     2.7550 C.ar  1 <1>   0.1600 
 24 N       -5.6920    -3.5900     3.1640 N.ar  1 <1>  -0.6200 
 25 H       -1.5340     0.4100    -1.7130 H     1 <1>   0.3700 
 26 H       -1.7140     3.3580    -2.9940 H     1 <1>   0.0800 
 27 H       -2.6770     3.6940    -1.5910 H     1 <1>   0.0800 
 28 H       -4.0960    -0.6180    -2.8640 H     1 <1>   0.0800 
 29 H       -3.7450    -0.4330    -0.1780 H     1 <1>   0.0800 
 30 H       -1.5620    -1.5010    -3.4450 H     1 <1>   0.0800 
 31 H       -2.8950    -2.6340    -3.2610 H     1 <1>   0.0800 
 32 H       -2.1200     2.3310     0.5850 H     1 <1>   0.1500 
 33 H        0.5980     2.7670    -2.6830 H     1 <1>   0.1500 
 34 H       -2.4050    -2.7960     0.2110 H     1 <1>   0.0800 
 35 H       -1.5490    -1.2840    -0.0390 H     1 <1>   0.0800 
 36 H       -4.5860    -3.0400    -1.4890 H     1 <1>   0.0800 
 37 H       -5.6240    -1.6720    -1.2340 H     1 <1>   0.0800 
 38 H        2.4490     2.1410    -1.2110 H     1 <1>   0.1500 
 39 H        2.0430     1.5990     1.1290 H     1 <1>   0.1500 
 40 H       -4.3230    -4.6680     0.3030 H     1 <1>   0.1500 
 41 H       -5.9640    -0.8590     1.2430 H     1 <1>   0.1500 
 42 H        0.0900     1.0780     4.1760 H     1 <1>   0.0800 
 43 H        1.2880     2.0560     3.3350 H     1 <1>   0.0800 
 44 H        1.0540     0.3540     2.8930 H     1 <1>   0.0800 
 45 H       -4.8730    -5.3680     2.5660 H     1 <1>   0.1500 
 46 H       -6.4460    -1.7110     3.4690 H     1 <1>   0.1500 
@<TRIPOS>BOND
  1   1   2  2   
  2   2   3  am  
  3   2   4  1   
  4   3   5  1   
  5   3  25  1   
  6   4   6  1   
  7   4  26  1   
  8   4  27  1   
  9   5   7  1   
 10   5   8  1   
 11   5  28  1   
 12   6   9  ar  
 13   6  10  ar  
 14   7  11  1   
 15   7  12  1   
 16   7  29  1   
 17   8  13  1   
 18   8  30  1   
 19   8  31  1   
 20   9  14  ar  
 21   9  32  1   
 22  10  15  ar  
 23  10  33  1   
 24  11  13  1   
 25  11  34  1   
 26  11  35  1   
 27  12  16  1   
 28  12  36  1   
 29  12  37  1   
 30  14  17  1   
 31  14  18  ar  
 32  15  18  ar  
 33  15  38  1   
 34  16  19  ar  
 35  16  20  ar  
 36  17  21  1   
 37  18  39  1   
 38  19  22  ar  
 39  19  40  1   
 40  20  23  ar  
 41  20  41  1   
 42  21  42  1   
 43  21  43  1   
 44  21  44  1   
 45  22  24  ar  
 46  22  45  1   
 47  23  24  ar  
 48  23  46  1   
@<TRIPOS>SUBSTRUCTURE
  1 ****   7 GROUP 4 **** **** 0

# MOE 2024.06 (io_trps.svl 2023.06)
