@<TRIPOS>MOLECULE
NONAME
43 45 1 0 0 
SMALL
USER_CHARGES


@<TRIPOS>ATOM
  1 O       -2.0070     0.3510    -2.3230 O.2   1 <1>  -0.5700 
  2 C       -1.8610     0.5610    -1.1370 C.2   1 <1>   0.5440 
  3 N       -1.8200    -0.5120    -0.2930 N.am  1 <1>  -0.7300 
  4 C       -1.7480     1.9130    -0.6430 C.ar  1 <1>   0.0860 
  5 C       -1.9680    -1.9300    -0.7010 C.3   1 <1>   0.2200 
  6 C       -1.9880     2.2620     0.6730 C.ar  1 <1>   0.1600 
  7 C       -1.3990     2.9640    -1.4690 C.ar  1 <1>   0.1600 
  8 C       -3.3410    -2.4680    -0.3160 C.3   1 <1>  -0.0800 
  9 C       -1.0790    -2.7830     0.1910 C.3   1 <1>   0.1200 
 10 N       -1.8870     3.4910     1.1280 N.ar  1 <1>  -0.6200 
 11 N       -1.2860     4.2080    -1.0500 N.ar  1 <1>  -0.6200 
 12 C       -3.1530    -2.8800     1.1500 C.3   1 <1>   0.1200 
 13 C       -4.5300    -1.5210    -0.5630 C.3   1 <1>  -0.0170 
 14 O       -1.7750    -2.8780     1.3950 O.3   1 <1>  -0.5600 
 15 C       -1.5390     4.4050     0.2340 C.ar  1 <1>   0.4770 
 16 C       -5.8450    -2.1900    -0.1940 C.ar  1 <1>  -0.1430 
 17 C       -1.4230     5.8350     0.7360 C.3   1 <1>  -0.0170 
 18 C       -6.4650    -3.0880    -1.0380 C.ar  1 <1>  -0.1500 
 19 C       -6.4860    -1.9350     1.0020 C.ar  1 <1>  -0.1500 
 20 C       -2.7580     6.5890     0.6500 C.3   1 <1>  -0.2400 
 21 C       -7.6590    -3.6760    -0.6550 C.ar  1 <1>   0.1600 
 22 C       -7.6790    -2.5770     1.2890 C.ar  1 <1>   0.1600 
 23 N       -8.2790    -3.4440     0.4910 N.ar  1 <1>  -0.6200 
 24 H       -1.6270    -0.4090     0.7060 H     1 <1>   0.3700 
 25 H       -1.7460    -2.0580    -1.7480 H     1 <1>   0.0800 
 26 H       -2.2800     1.5050     1.3790 H     1 <1>   0.1500 
 27 H       -1.2060     2.7670    -2.5110 H     1 <1>   0.1500 
 28 H       -3.5090    -3.3690    -0.8810 H     1 <1>   0.0800 
 29 H       -0.1110    -2.3450     0.3610 H     1 <1>   0.0800 
 30 H       -0.9690    -3.7760    -0.2100 H     1 <1>   0.0800 
 31 H       -3.5410    -3.8670     1.3380 H     1 <1>   0.0800 
 32 H       -3.6060    -2.1770     1.8260 H     1 <1>   0.0800 
 33 H       -4.5520    -1.2400    -1.6020 H     1 <1>   0.0800 
 34 H       -4.4210    -0.6190     0.0120 H     1 <1>   0.0800 
 35 H       -1.0840     5.8200     1.7560 H     1 <1>   0.0800 
 36 H       -0.6810     6.3510     0.1520 H     1 <1>   0.0800 
 37 H       -6.0320    -3.3350    -1.9900 H     1 <1>   0.1500 
 38 H       -6.0730    -1.2430     1.7130 H     1 <1>   0.1500 
 39 H       -3.5030     6.0880     1.2430 H     1 <1>   0.0800 
 40 H       -3.0950     6.6240    -0.3720 H     1 <1>   0.0800 
 41 H       -2.6410     7.5940     1.0120 H     1 <1>   0.0800 
 42 H       -8.1290    -4.3740    -1.3260 H     1 <1>   0.1500 
 43 H       -8.1650    -2.3660     2.2270 H     1 <1>   0.1500 
@<TRIPOS>BOND
  1   1   2  2   
  2   2   3  am  
  3   2   4  1   
  4   3   5  1   
  5   3  24  1   
  6   4   6  ar  
  7   4   7  ar  
  8   5   8  1   
  9   5   9  1   
 10   5  25  1   
 11   6  10  ar  
 12   6  26  1   
 13   7  11  ar  
 14   7  27  1   
 15   8  12  1   
 16   8  13  1   
 17   8  28  1   
 18   9  14  1   
 19   9  29  1   
 20   9  30  1   
 21  10  15  ar  
 22  11  15  ar  
 23  12  14  1   
 24  12  31  1   
 25  12  32  1   
 26  13  16  1   
 27  13  33  1   
 28  13  34  1   
 29  15  17  1   
 30  16  18  ar  
 31  16  19  ar  
 32  17  20  1   
 33  17  35  1   
 34  17  36  1   
 35  18  21  ar  
 36  18  37  1   
 37  19  22  ar  
 38  19  38  1   
 39  20  39  1   
 40  20  40  1   
 41  20  41  1   
 42  21  23  ar  
 43  21  42  1   
 44  22  23  ar  
 45  22  43  1   
@<TRIPOS>SUBSTRUCTURE
  1 ****   3 GROUP 4 **** **** 0

# MOE 2024.06 (io_trps.svl 2023.06)
