@<TRIPOS>MOLECULE
NONAME
43 45 1 0 0 
SMALL
USER_CHARGES


@<TRIPOS>ATOM
  1 O        0.5670     0.8500     1.4400 O.co2 1 <1>  -0.9000 
  2 C       -0.0300     1.4380     0.5350 C.2   1 <1>   0.9060 
  3 O        0.2630     1.2760    -0.6600 O.co2 1 <1>  -0.9000 
  4 C       -1.3550     2.1600     0.9060 C.3   1 <1>   0.4600 
  5 N       -2.5930     1.5330     0.2870 N.4   1 <1>  -0.9590 
  6 C       -1.4300     3.6720     0.6630 C.ar  1 <1>  -0.1430 
  7 C       -2.6140     0.0910     0.6270 C.3   1 <1>   0.5230 
  8 C       -2.5760     1.6850    -1.2100 C.3   1 <1>   0.3430 
  9 C       -2.1990     4.4810     1.4990 C.ar  1 <1>  -0.1440 
 10 C       -0.7490     4.2550    -0.4010 C.ar  1 <1>  -0.1500 
 11 C       -3.8820    -0.4680     0.0360 C.2   1 <1>  -0.3320 
 12 C       -3.8620     1.1650    -1.8640 C.3   1 <1>   0.0960 
 13 C       -2.2880     5.8400     1.2400 C.ar  1 <1>  -0.1500 
 14 C       -2.9430     3.9280     2.7090 C.3   1 <1>  -0.0970 
 15 C       -0.8370     5.6120    -0.6520 C.ar  1 <1>  -0.1430 
 16 N       -4.3850     0.0140    -1.1160 N.pl3 1 <1>   0.3140 
 17 C       -4.7150    -1.4490     0.4480 C.2   1 <1>  -0.1500 
 18 C       -1.6160     6.4030     0.1720 C.ar  1 <1>  -0.1500 
 19 C       -0.0820     6.2260    -1.8170 C.3   1 <1>  -0.0970 
 20 N       -5.5190    -0.6120    -1.4560 N.2   1 <1>  -0.7070 
 21 C       -5.7090    -1.4900    -0.5230 C.2   1 <1>   0.1080 
 22 C       -6.8910    -2.4320    -0.5280 C.3   1 <1>  -0.0590 
 23 H       -1.4190     2.0220     1.9700 H     1 <1>   0.0800 
 24 H       -3.4150     1.9960     0.6780 H     1 <1>   0.4500 
 25 H       -2.5960    -0.0550     1.6950 H     1 <1>   0.0800 
 26 H       -1.7560    -0.4040     0.1960 H     1 <1>   0.0800 
 27 H       -1.7410     1.1340    -1.6150 H     1 <1>   0.0800 
 28 H       -2.4360     2.7180    -1.4800 H     1 <1>   0.0800 
 29 H       -0.1330     3.6550    -1.0520 H     1 <1>   0.1500 
 30 H       -3.6740     0.8700    -2.8790 H     1 <1>   0.0800 
 31 H       -4.6110     1.9340    -1.8640 H     1 <1>   0.0800 
 32 H       -2.8790     6.4790     1.8730 H     1 <1>   0.1500 
 33 H       -3.7130     3.2440     2.4040 H     1 <1>   0.0800 
 34 H       -3.4070     4.7220     3.2670 H     1 <1>   0.0800 
 35 H       -2.2580     3.4260     3.3690 H     1 <1>   0.0800 
 36 H       -4.6570    -2.0780     1.3190 H     1 <1>   0.1500 
 37 H       -1.6970     7.4600    -0.0110 H     1 <1>   0.1500 
 38 H        0.8110     5.6640    -2.0230 H     1 <1>   0.0800 
 39 H        0.2020     7.2380    -1.5890 H     1 <1>   0.0800 
 40 H       -0.7020     6.2280    -2.6940 H     1 <1>   0.0800 
 41 H       -6.8650    -3.0760     0.3300 H     1 <1>   0.0800 
 42 H       -6.8670    -3.0310    -1.4200 H     1 <1>   0.0800 
 43 H       -7.8030    -1.8630    -0.5170 H     1 <1>   0.0800 
@<TRIPOS>BOND
  1   1   2  ar  
  2   2   3  ar  
  3   2   4  1   
  4   4   5  1   
  5   4   6  1   
  6   4  23  1   
  7   5   7  1   
  8   5   8  1   
  9   5  24  1   
 10   6   9  ar  
 11   6  10  ar  
 12   7  11  1   
 13   7  25  1   
 14   7  26  1   
 15   8  12  1   
 16   8  27  1   
 17   8  28  1   
 18   9  13  ar  
 19   9  14  1   
 20  10  15  ar  
 21  10  29  1   
 22  11  16  1   
 23  11  17  2   
 24  12  16  1   
 25  12  30  1   
 26  12  31  1   
 27  13  18  ar  
 28  13  32  1   
 29  14  33  1   
 30  14  34  1   
 31  14  35  1   
 32  15  18  ar  
 33  15  19  1   
 34  16  20  1   
 35  17  21  1   
 36  17  36  1   
 37  18  37  1   
 38  19  38  1   
 39  19  39  1   
 40  19  40  1   
 41  20  21  2   
 42  21  22  1   
 43  22  41  1   
 44  22  42  1   
 45  22  43  1   
@<TRIPOS>SUBSTRUCTURE
  1 ****   5 GROUP 4 **** **** 0

# MOE 2024.06 (io_trps.svl 2023.06)
