@<TRIPOS>MOLECULE
NONAME
39 41 1 0 0 
SMALL
USER_CHARGES


@<TRIPOS>ATOM
  1 F        0.6710     1.5790    -0.4180 F     1 <1>  -0.1900 
  2 C        1.9460     1.7110    -0.1130 C.ar  1 <1>   0.1900 
  3 C        2.8780     0.7150    -0.3900 C.ar  1 <1>   0.4100 
  4 C        2.3710     2.8580     0.4930 C.ar  1 <1>   0.1600 
  5 N        4.1400     0.8870    -0.0790 N.ar  1 <1>  -0.6200 
  6 N        2.6190    -0.4980    -0.9820 N.pl3 1 <1>  -0.8690 
  7 N        3.6360     3.0380     0.8160 N.ar  1 <1>  -0.6200 
  8 C        4.4680     2.0410     0.4990 C.ar  1 <1>   0.7200 
  9 C        1.3720    -1.2660    -0.7510 C.3   1 <1>   0.1290 
 10 N        5.8050     2.2170     0.8120 N.pl3 1 <1>  -0.8380 
 11 C        6.2500     3.2850     1.7680 C.3   1 <1>   0.2090 
 12 C        6.8890     1.5860    -0.0090 C.3   1 <1>   0.2090 
 13 C        6.8740     4.5390     1.1000 C.3   1 <1>   0.2200 
 14 C        7.6440     2.5720    -0.9220 C.3   1 <1>  -0.0190 
 15 N        6.4860     4.7180    -0.3360 N.am  1 <1>  -0.6600 
 16 C        8.4090     4.5630     1.2510 C.3   1 <1>   0.1200 
 17 C        6.8330     3.8010    -1.2940 C.2   1 <1>   0.5690 
 18 C        9.0290     2.9720    -0.3940 C.3   1 <1>   0.1200 
 19 C        5.5020     5.7990    -0.6130 C.3   1 <1>   0.0600 
 20 O        9.0030     3.3320     0.9540 O.3   1 <1>  -0.5600 
 21 O        6.5500     3.9520    -2.4610 O.2   1 <1>  -0.5700 
 22 H        1.6680     3.6390     0.7170 H     1 <1>   0.1500 
 23 H        3.4690    -1.0690    -1.0350 H     1 <1>   0.4000 
 24 H        1.0320    -1.1270     0.2610 H     1 <1>   0.0800 
 25 H        1.5520    -2.3140    -0.9190 H     1 <1>   0.0800 
 26 H        0.6080    -0.9290    -1.4310 H     1 <1>   0.0800 
 27 H        5.4200     3.6040     2.3720 H     1 <1>   0.0800 
 28 H        6.9590     2.8540     2.4540 H     1 <1>   0.0800 
 29 H        7.5830     1.0980     0.6530 H     1 <1>   0.0800 
 30 H        6.4740     0.8180    -0.6370 H     1 <1>   0.0800 
 31 H        6.5140     5.3940     1.6430 H     1 <1>   0.0800 
 32 H        7.8310     2.0480    -1.8410 H     1 <1>   0.0800 
 33 H        8.6540     4.7770     2.2750 H     1 <1>   0.0800 
 34 H        8.8450     5.3290     0.6340 H     1 <1>   0.0800 
 35 H        9.4440     3.7830    -0.9680 H     1 <1>   0.0800 
 36 H        9.6940     2.1290    -0.4730 H     1 <1>   0.0800 
 37 H        5.9150     6.7510    -0.3340 H     1 <1>   0.0800 
 38 H        4.6030     5.6170    -0.0500 H     1 <1>   0.0800 
 39 H        5.2480     5.8260    -1.6590 H     1 <1>   0.0800 
@<TRIPOS>BOND
  1   1   2  1   
  2   2   3  ar  
  3   2   4  ar  
  4   3   5  ar  
  5   3   6  1   
  6   4   7  ar  
  7   4  22  1   
  8   5   8  ar  
  9   6   9  1   
 10   6  23  1   
 11   7   8  ar  
 12   8  10  1   
 13   9  24  1   
 14   9  25  1   
 15   9  26  1   
 16  10  11  1   
 17  10  12  1   
 18  11  13  1   
 19  11  27  1   
 20  11  28  1   
 21  12  14  1   
 22  12  29  1   
 23  12  30  1   
 24  13  15  1   
 25  13  16  1   
 26  13  31  1   
 27  14  17  1   
 28  14  18  1   
 29  14  32  1   
 30  15  17  am  
 31  15  19  1   
 32  16  20  1   
 33  16  33  1   
 34  16  34  1   
 35  17  21  2   
 36  18  20  1   
 37  18  35  1   
 38  18  36  1   
 39  19  37  1   
 40  19  38  1   
 41  19  39  1   
@<TRIPOS>SUBSTRUCTURE
  1 ****   8 GROUP 4 **** **** 0

# MOE 2024.06 (io_trps.svl 2023.06)
