@<TRIPOS>MOLECULE
NONAME
43 45 1 0 0 
SMALL
USER_CHARGES


@<TRIPOS>ATOM
  1 S       -0.5990    -1.1670     0.9970 S.3   1 <1>  -0.0800 
  2 C       -1.4330    -0.4920    -0.3760 C.2   1 <1>  -0.1400 
  3 C       -1.4020     0.0000     2.0220 C.2   1 <1>   0.1980 
  4 C       -2.2180     0.5120     0.0470 C.2   1 <1>   0.0460 
  5 C       -1.1590    -1.1060    -1.7310 C.3   1 <1>   0.3200 
  6 N       -2.1930     0.7810     1.4080 N.2   1 <1>  -0.5650 
  7 C       -1.0850    -0.0350     3.4980 C.3   1 <1>  -0.0600 
  8 C       -3.1350     1.3700    -0.8090 C.3   1 <1>   0.0210 
  9 N       -1.8400    -2.4080    -1.7830 N.am  1 <1>  -0.7300 
 10 C       -2.5840     2.7900    -0.9650 C.3   1 <1>  -0.2400 
 11 C       -2.6280    -2.8420    -2.7980 C.2   1 <1>   0.5690 
 12 O       -2.7270    -2.2250    -3.8300 O.2   1 <1>  -0.5700 
 13 C       -3.4120    -4.1390    -2.6390 C.3   1 <1>   0.1810 
 14 O       -3.5780    -4.4710    -1.2660 O.3   1 <1>  -0.3630 
 15 C       -4.3470    -5.5190    -0.8850 C.ar  1 <1>   0.0830 
 16 C       -4.6030    -5.6360     0.4700 C.ar  1 <1>  -0.1500 
 17 C       -4.8770    -6.4520    -1.7710 C.ar  1 <1>  -0.1500 
 18 C       -5.3900    -6.6710     0.9660 C.ar  1 <1>  -0.0230 
 19 C       -5.6550    -7.4890    -1.2900 C.ar  1 <1>  -0.1500 
 20 N       -5.6640    -6.7790     2.3610 N.pl3 1 <1>   0.5930 
 21 C       -5.9100    -7.5980     0.0660 C.ar  1 <1>  -0.1500 
 22 N       -5.8220    -7.9160     3.0210 N.2   1 <1>  -0.4180 
 23 C       -5.8240    -5.8120     3.2540 C.2   1 <1>   0.0360 
 24 N       -6.0580    -7.6130     4.2460 N.2   1 <1>   0.0000 
 25 N       -6.0630    -6.2950     4.4110 N.2   1 <1>  -0.3380 
 26 H       -0.1000    -1.2430    -1.8690 H     1 <1>   0.0800 
 27 H       -1.5260    -0.4650    -2.5140 H     1 <1>   0.0800 
 28 H       -0.0350     0.1340     3.6490 H     1 <1>   0.0800 
 29 H       -1.3560    -0.9910     3.9070 H     1 <1>   0.0800 
 30 H       -1.6400     0.7330     4.0050 H     1 <1>   0.0800 
 31 H       -4.1060     1.4060    -0.3470 H     1 <1>   0.0800 
 32 H       -3.2510     0.9240    -1.7810 H     1 <1>   0.0800 
 33 H       -1.8610    -2.9170    -0.8960 H     1 <1>   0.3700 
 34 H       -2.4940     3.2570     0.0000 H     1 <1>   0.0800 
 35 H       -3.2440     3.3800    -1.5750 H     1 <1>   0.0800 
 36 H       -1.6130     2.7630    -1.4260 H     1 <1>   0.0800 
 37 H       -2.8820    -4.9370    -3.1230 H     1 <1>   0.0800 
 38 H       -4.3840    -4.0180    -3.0800 H     1 <1>   0.0800 
 39 H       -4.1730    -4.9050     1.1310 H     1 <1>   0.1500 
 40 H       -4.6950    -6.3940    -2.8280 H     1 <1>   0.1500 
 41 H       -6.0650    -8.2160    -1.9720 H     1 <1>   0.1500 
 42 H       -6.5170    -8.4130     0.4250 H     1 <1>   0.1500 
 43 H       -5.7600    -4.7700     3.0100 H     1 <1>   0.1500 
@<TRIPOS>BOND
  1   1   2  1   
  2   1   3  1   
  3   2   4  2   
  4   2   5  1   
  5   3   6  2   
  6   3   7  1   
  7   4   6  1   
  8   4   8  1   
  9   5   9  1   
 10   5  26  1   
 11   5  27  1   
 12   7  28  1   
 13   7  29  1   
 14   7  30  1   
 15   8  10  1   
 16   8  31  1   
 17   8  32  1   
 18   9  11  am  
 19   9  33  1   
 20  10  34  1   
 21  10  35  1   
 22  10  36  1   
 23  11  12  2   
 24  11  13  1   
 25  13  14  1   
 26  13  37  1   
 27  13  38  1   
 28  14  15  1   
 29  15  16  ar  
 30  15  17  ar  
 31  16  18  ar  
 32  16  39  1   
 33  17  19  ar  
 34  17  40  1   
 35  18  20  1   
 36  18  21  ar  
 37  19  21  ar  
 38  19  41  1   
 39  20  22  1   
 40  20  23  1   
 41  21  42  1   
 42  22  24  2   
 43  23  25  2   
 44  23  43  1   
 45  24  25  1   
@<TRIPOS>SUBSTRUCTURE
  1 ****  14 GROUP 4 **** **** 0

# MOE 2024.06 (io_trps.svl 2023.06)
