@<TRIPOS>MOLECULE
NONAME
48 51 1 0 0 
SMALL
USER_CHARGES


@<TRIPOS>ATOM
  1 F       -2.3120    -0.8850     0.9050 F     1 <1>  -0.3400 
  2 C       -1.9610     0.1290     0.1200 C.3   1 <1>   0.3210 
  3 C       -2.2530     1.4580     0.8070 C.2   1 <1>   0.4480 
  4 C       -2.8420     0.1000    -1.1410 C.3   1 <1>  -0.1600 
  5 O       -1.8320     1.8060     1.8740 O.2   1 <1>  -0.5700 
  6 C       -3.1010     2.3150    -0.1310 C.3   1 <1>   0.0610 
  7 C       -3.8510     1.2640    -0.9900 C.3   1 <1>  -0.0800 
  8 C       -4.0230     3.3430     0.5660 C.3   1 <1>  -0.1600 
  9 C       -2.1250     3.1240    -1.0210 C.3   1 <1>  -0.2400 
 10 C       -5.2380     0.8120    -0.4370 C.3   1 <1>  -0.0800 
 11 C       -5.3670     2.8090     1.0700 C.3   1 <1>  -0.1600 
 12 C       -6.1130     2.0270    -0.0420 C.3   1 <1>  -0.0800 
 13 C       -5.2120    -0.2220     0.7150 C.3   1 <1>  -0.0220 
 14 C       -7.6010     1.6200     0.2790 C.3   1 <1>   0.1380 
 15 C       -6.6170    -0.5380     1.1770 C.2   1 <1>  -0.2880 
 16 C       -7.6770     0.2450     0.9570 C.2   1 <1>  -0.2760 
 17 C       -8.4080     1.4890    -1.0380 C.3   1 <1>  -0.1600 
 18 C       -8.2720     2.6950     1.1670 C.3   1 <1>  -0.2400 
 19 C       -9.0870    -0.2260     1.2860 C.3   1 <1>  -0.0220 
 20 C       -9.8430     0.9480    -0.8550 C.3   1 <1>  -0.1600 
 21 C       -9.8760    -0.3470    -0.0250 C.3   1 <1>  -0.1600 
 22 H       -0.9150     0.0060    -0.0930 H     1 <1>   0.0800 
 23 H       -3.3060    -0.8560    -1.3060 H     1 <1>   0.0800 
 24 H       -2.2140     0.3050    -1.9890 H     1 <1>   0.0800 
 25 H       -4.0420     1.6870    -1.9620 H     1 <1>   0.0800 
 26 H       -4.2520     4.1300    -0.1320 H     1 <1>   0.0800 
 27 H       -3.4960     3.8020     1.3860 H     1 <1>   0.0800 
 28 H       -1.4110     2.4910    -1.5150 H     1 <1>   0.0800 
 29 H       -1.5770     3.8260    -0.4160 H     1 <1>   0.0800 
 30 H       -2.6620     3.6750    -1.7730 H     1 <1>   0.0800 
 31 H       -5.7310     0.3150    -1.2540 H     1 <1>   0.0800 
 32 H       -5.9280     3.6710     1.3780 H     1 <1>   0.0800 
 33 H       -5.2240     2.2000     1.9440 H     1 <1>   0.0800 
 34 H       -6.1560     2.6880    -0.8910 H     1 <1>   0.0800 
 35 H       -4.6300     0.1110     1.5540 H     1 <1>   0.0800 
 36 H       -4.7880    -1.1430     0.3600 H     1 <1>   0.0800 
 37 H       -6.6840    -1.4900     1.6760 H     1 <1>   0.1500 
 38 H       -7.8910     0.8120    -1.6940 H     1 <1>   0.0800 
 39 H       -8.4530     2.4420    -1.5330 H     1 <1>   0.0800 
 40 H       -7.8400     2.6850     2.1510 H     1 <1>   0.0800 
 41 H       -9.3240     2.5360     1.2880 H     1 <1>   0.0800 
 42 H       -8.1450     3.6700     0.7330 H     1 <1>   0.0800 
 43 H       -9.5750     0.4460     1.9670 H     1 <1>   0.0800 
 44 H       -9.0510    -1.1900     1.7620 H     1 <1>   0.0800 
 45 H      -10.2730     0.7560    -1.8230 H     1 <1>   0.0800 
 46 H      -10.4590     1.6900    -0.3810 H     1 <1>   0.0800 
 47 H      -10.8950    -0.6190     0.1880 H     1 <1>   0.0800 
 48 H       -9.4390    -1.1400    -0.6080 H     1 <1>   0.0800 
@<TRIPOS>BOND
  1   1   2  1   
  2   2   3  1   
  3   2   4  1   
  4   2  22  1   
  5   3   5  2   
  6   3   6  1   
  7   4   7  1   
  8   4  23  1   
  9   4  24  1   
 10   6   7  1   
 11   6   8  1   
 12   6   9  1   
 13   7  10  1   
 14   7  25  1   
 15   8  11  1   
 16   8  26  1   
 17   8  27  1   
 18   9  28  1   
 19   9  29  1   
 20   9  30  1   
 21  10  12  1   
 22  10  13  1   
 23  10  31  1   
 24  11  12  1   
 25  11  32  1   
 26  11  33  1   
 27  12  14  1   
 28  12  34  1   
 29  13  15  1   
 30  13  35  1   
 31  13  36  1   
 32  14  16  1   
 33  14  17  1   
 34  14  18  1   
 35  15  16  2   
 36  15  37  1   
 37  16  19  1   
 38  17  20  1   
 39  17  38  1   
 40  17  39  1   
 41  18  40  1   
 42  18  41  1   
 43  18  42  1   
 44  19  21  1   
 45  19  43  1   
 46  19  44  1   
 47  20  21  1   
 48  20  45  1   
 49  20  46  1   
 50  21  47  1   
 51  21  48  1   
@<TRIPOS>SUBSTRUCTURE
  1 ****  10 GROUP 4 **** **** 0

# MOE 2024.06 (io_trps.svl 2023.06)
