@<TRIPOS>MOLECULE
NONAME
47 50 1 0 0 
SMALL
USER_CHARGES


@<TRIPOS>ATOM
  1 O        4.1170    -1.5400    -2.0760 O.2   1 <1>  -0.5700 
  2 C        3.1750    -1.5440    -1.3020 C.2   1 <1>   0.5440 
  3 N        2.9480    -0.3670    -0.6340 N.am  1 <1>  -0.6600 
  4 C        2.3980    -2.7420    -1.0350 C.ar  1 <1>   0.0860 
  5 C        3.5170    -0.2580     0.7540 C.3   1 <1>   0.2200 
  6 C        2.7550     0.8780    -1.4420 C.3   1 <1>   0.1400 
  7 C        1.1790    -2.6970    -0.3710 C.ar  1 <1>  -0.1500 
  8 C        2.8740    -4.0070    -1.4470 C.ar  1 <1>  -0.1500 
  9 C        2.8430     0.8350     1.5980 C.3   1 <1>   0.1200 
 10 C        5.0560    -0.0540     0.7140 C.3   1 <1>   0.3430 
 11 C        3.6220     2.0790    -1.0150 C.3   1 <1>  -0.0800 
 12 C        0.4650    -3.8680    -0.1100 C.ar  1 <1>  -0.1520 
 13 C        2.1800    -5.1650    -1.1950 C.ar  1 <1>  -0.1500 
 14 O        3.4670     2.0680     1.3980 O.3   1 <1>  -0.5600 
 15 N        5.5500     0.4290    -0.6230 N.4   1 <1>  -0.9590 
 16 C        3.0880     2.7590     0.2560 C.3   1 <1>   0.1200 
 17 C        5.1450     1.8300    -0.9540 C.3   1 <1>   0.3430 
 18 N       -0.7420    -4.0760     0.5180 N.pl3 1 <1>   0.0480 
 19 C        0.9620    -5.1030    -0.5160 C.ar  1 <1>   0.0000 
 20 C        7.0160     0.2240    -0.7780 C.3   1 <1>   0.2630 
 21 C       -0.9920    -5.4170     0.5100 C.2   1 <1>  -0.3020 
 22 C       -1.6260    -3.0400     1.0770 C.3   1 <1>   0.0160 
 23 C        0.0210    -6.0690    -0.1090 C.2   1 <1>  -0.1500 
 24 H        3.3250    -1.1900     1.2590 H     1 <1>   0.0800 
 25 H        2.9620     0.6590    -2.4780 H     1 <1>   0.0800 
 26 H        1.7160     1.1560    -1.3890 H     1 <1>   0.0800 
 27 H        0.7670    -1.7580    -0.0530 H     1 <1>   0.1500 
 28 H        3.8100    -4.0570    -1.9760 H     1 <1>   0.1500 
 29 H        2.9650     0.6000     2.6410 H     1 <1>   0.0800 
 30 H        1.7890     0.9110     1.3920 H     1 <1>   0.0800 
 31 H        5.5160    -1.0020     0.9330 H     1 <1>   0.0800 
 32 H        5.3500     0.6340     1.4900 H     1 <1>   0.0800 
 33 H        3.4810     2.8160    -1.7840 H     1 <1>   0.0800 
 34 H        2.5510    -6.1240    -1.5120 H     1 <1>   0.1500 
 35 H        5.0600    -0.1910    -1.3100 H     1 <1>   0.4500 
 36 H        2.0140     2.8520     0.2400 H     1 <1>   0.0800 
 37 H        3.5040     3.7490     0.3410 H     1 <1>   0.0800 
 38 H        5.5800     2.5090    -0.2380 H     1 <1>   0.0800 
 39 H        5.5540     2.0760    -1.9210 H     1 <1>   0.0800 
 40 H        7.5570     0.8280    -0.0680 H     1 <1>   0.0800 
 41 H        7.3260     0.4950    -1.7740 H     1 <1>   0.0800 
 42 H        7.2650    -0.8130    -0.6150 H     1 <1>   0.0800 
 43 H       -1.8820    -5.8360     0.9450 H     1 <1>   0.1500 
 44 H       -2.5200    -3.4980     1.4590 H     1 <1>   0.0800 
 45 H       -1.8850    -2.3410     0.3030 H     1 <1>   0.0800 
 46 H       -1.1160    -2.5310     1.8730 H     1 <1>   0.0800 
 47 H        0.1260    -7.1260    -0.2800 H     1 <1>   0.1500 
@<TRIPOS>BOND
  1   1   2  2   
  2   2   3  am  
  3   2   4  1   
  4   3   5  1   
  5   3   6  1   
  6   4   7  ar  
  7   4   8  ar  
  8   5   9  1   
  9   5  10  1   
 10   5  24  1   
 11   6  11  1   
 12   6  25  1   
 13   6  26  1   
 14   7  12  ar  
 15   7  27  1   
 16   8  13  ar  
 17   8  28  1   
 18   9  14  1   
 19   9  29  1   
 20   9  30  1   
 21  10  15  1   
 22  10  31  1   
 23  10  32  1   
 24  11  16  1   
 25  11  17  1   
 26  11  33  1   
 27  12  18  1   
 28  12  19  ar  
 29  13  19  ar  
 30  13  34  1   
 31  14  16  1   
 32  15  17  1   
 33  15  20  1   
 34  15  35  1   
 35  16  36  1   
 36  16  37  1   
 37  17  38  1   
 38  17  39  1   
 39  18  21  1   
 40  18  22  1   
 41  19  23  1   
 42  20  40  1   
 43  20  41  1   
 44  20  42  1   
 45  21  23  2   
 46  21  43  1   
 47  22  44  1   
 48  22  45  1   
 49  22  46  1   
 50  23  47  1   
@<TRIPOS>SUBSTRUCTURE
  1 ****   2 GROUP 4 **** **** 0

# MOE 2024.06 (io_trps.svl 2023.06)
