@<TRIPOS>MOLECULE
NONAME
41 43 1 0 0 
SMALL
USER_CHARGES


@<TRIPOS>ATOM
  1 S        0.4590    -0.1020    -1.0810 S.o2  1 <1>   1.3330 
  2 O        0.3120    -1.3540    -0.3740 O.2   1 <1>  -0.6500 
  3 O       -0.1830     0.0720    -2.3640 O.2   1 <1>  -0.6500 
  4 N       -0.1000     1.1360    -0.0620 N.am  1 <1>  -0.8490 
  5 C        2.2120     0.2310    -1.2600 C.3   1 <1>  -0.0550 
  6 C       -1.4240     0.8310     0.4840 C.3   1 <1>   0.1160 
  7 C       -0.1110     2.4590    -0.6970 C.3   1 <1>   0.1160 
  8 C        2.9630     0.3880     0.0740 C.3   1 <1>  -0.0800 
  9 C        4.3980     0.8650    -0.1340 C.3   1 <1>   0.2890 
 10 C        3.1130    -0.9100     0.8660 C.3   1 <1>   0.1200 
 11 N        4.5490     2.2210     0.4380 N.pl3 1 <1>  -0.8690 
 12 C        5.2350    -0.1610     0.6300 C.3   1 <1>   0.1200 
 13 O        4.3550    -0.8210     1.4830 O.3   1 <1>  -0.5600 
 14 C        4.1760     3.3750    -0.2020 C.ar  1 <1>   0.4100 
 15 N        3.8370     3.3100    -1.4690 N.ar  1 <1>  -0.6200 
 16 C        4.1460     4.5930     0.4900 C.ar  1 <1>   0.0000 
 17 C        3.4810     4.4690    -2.0450 C.ar  1 <1>   0.4700 
 18 C        3.7510     5.7030    -0.2220 C.ar  1 <1>   0.1050 
 19 C        4.4270     5.0430     1.8020 C.2   1 <1>  -0.1500 
 20 N        3.4060     5.6620    -1.5110 N.ar  1 <1>  -0.5670 
 21 N        3.7830     6.7930     0.5940 N.pl3 1 <1>   0.0330 
 22 C        4.1970     6.3790     1.8320 C.2   1 <1>  -0.3020 
 23 H        2.6620    -0.5540    -1.8350 H     1 <1>   0.0800 
 24 H        2.3250     1.1390    -1.8190 H     1 <1>   0.0800 
 25 H       -1.7400     1.6120     1.1540 H     1 <1>   0.0800 
 26 H       -1.3900    -0.0940     1.0360 H     1 <1>   0.0800 
 27 H       -2.1430     0.7320    -0.3130 H     1 <1>   0.0800 
 28 H       -0.4380     3.2040     0.0090 H     1 <1>   0.0800 
 29 H       -0.7750     2.4650    -1.5460 H     1 <1>   0.0800 
 30 H        0.8790     2.7250    -1.0250 H     1 <1>   0.0800 
 31 H        2.4370     1.0910     0.6960 H     1 <1>   0.0800 
 32 H        4.6900     0.8710    -1.1710 H     1 <1>   0.0800 
 33 H        3.1210    -1.7740     0.2240 H     1 <1>   0.0800 
 34 H        2.3500    -1.0220     1.6180 H     1 <1>   0.0800 
 35 H        4.5790     2.2370     1.4600 H     1 <1>   0.4000 
 36 H        6.0230     0.2920     1.2050 H     1 <1>   0.0800 
 37 H        5.6450    -0.8910    -0.0450 H     1 <1>   0.0800 
 38 H        3.2210     4.3970    -3.0880 H     1 <1>   0.1500 
 39 H        4.7640     4.4070     2.6020 H     1 <1>   0.1500 
 40 H        3.5440     7.7420     0.2940 H     1 <1>   0.2700 
 41 H        4.3040     7.0640     2.6570 H     1 <1>   0.1500 
@<TRIPOS>BOND
  1   1   2  2   
  2   1   3  2   
  3   1   4  am  
  4   1   5  1   
  5   4   6  1   
  6   4   7  1   
  7   5   8  1   
  8   5  23  1   
  9   5  24  1   
 10   6  25  1   
 11   6  26  1   
 12   6  27  1   
 13   7  28  1   
 14   7  29  1   
 15   7  30  1   
 16   8   9  1   
 17   8  10  1   
 18   8  31  1   
 19   9  11  1   
 20   9  12  1   
 21   9  32  1   
 22  10  13  1   
 23  10  33  1   
 24  10  34  1   
 25  11  14  1   
 26  11  35  1   
 27  12  13  1   
 28  12  36  1   
 29  12  37  1   
 30  14  15  ar  
 31  14  16  ar  
 32  15  17  ar  
 33  16  18  ar  
 34  16  19  1   
 35  17  20  ar  
 36  17  38  1   
 37  18  20  ar  
 38  18  21  1   
 39  19  22  2   
 40  19  39  1   
 41  21  22  1   
 42  21  40  1   
 43  22  41  1   
@<TRIPOS>SUBSTRUCTURE
  1 ****  14 GROUP 4 **** **** 0

# MOE 2024.06 (io_trps.svl 2023.06)
