@<TRIPOS>MOLECULE
NONAME
50 52 1 0 0 
SMALL
USER_CHARGES


@<TRIPOS>ATOM
  1 O        4.5770    -1.6960    -1.7660 O.2   1 <1>  -0.5700 
  2 C        3.5630    -1.6710    -1.0910 C.2   1 <1>   0.5440 
  3 N        3.2290    -0.4510    -0.5630 N.am  1 <1>  -0.6600 
  4 C        2.7960    -2.8710    -0.8020 C.ar  1 <1>   0.0860 
  5 C        3.6810    -0.1670     0.8450 C.3   1 <1>   0.2200 
  6 C        3.0100     0.6900    -1.5040 C.3   1 <1>   0.1400 
  7 C        1.5800    -2.8200    -0.1220 C.ar  1 <1>  -0.1500 
  8 C        3.2450    -4.1330    -1.1910 C.ar  1 <1>  -0.1500 
  9 C        2.8690     0.9480     1.5230 C.3   1 <1>   0.1200 
 10 C        5.1990     0.1500     0.8900 C.3   1 <1>   0.3430 
 11 C        3.7570     1.9880    -1.1430 C.3   1 <1>  -0.0800 
 12 C        0.8460    -3.9520     0.1780 C.ar  1 <1>   0.0830 
 13 C        2.5310    -5.2810    -0.9010 C.ar  1 <1>  -0.1500 
 14 O        3.4210     2.1990     1.2420 O.3   1 <1>  -0.5600 
 15 N        5.7590     0.5330    -0.4530 N.4   1 <1>  -0.9590 
 16 C        3.0830     2.7450     0.0120 C.3   1 <1>   0.1200 
 17 C        5.2850     1.8610    -0.9540 C.3   1 <1>   0.3430 
 18 O       -0.3140    -3.7080     0.8490 O.3   1 <1>  -0.3630 
 19 C        1.3260    -5.2150    -0.2050 C.ar  1 <1>   0.0830 
 20 C        7.2430     0.4230    -0.4860 C.3   1 <1>   0.2630 
 21 C       -1.4230    -4.5740     0.7540 C.3   1 <1>   0.3200 
 22 O        0.6290    -6.3390     0.1150 O.3   1 <1>  -0.3630 
 23 C       -2.6410    -3.8280     1.1830 C.1   1 <1>  -0.2000 
 24 C        1.0980    -7.6380    -0.1800 C.3   1 <1>   0.0400 
 25 C       -3.6160    -3.2370     1.5240 C.1   1 <1>  -0.1770 
 26 H        3.5150    -1.0580     1.4260 H     1 <1>   0.0800 
 27 H        3.3080     0.3870    -2.4950 H     1 <1>   0.0800 
 28 H        1.9530     0.8910    -1.5490 H     1 <1>   0.0800 
 29 H        1.1770    -1.8710     0.1840 H     1 <1>   0.1500 
 30 H        4.1730    -4.2150    -1.7310 H     1 <1>   0.1500 
 31 H        2.9250     0.8250     2.5910 H     1 <1>   0.0800 
 32 H        1.8310     0.9220     1.2370 H     1 <1>   0.0800 
 33 H        5.7060    -0.7330     1.2390 H     1 <1>   0.0800 
 34 H        5.3840     0.9330     1.6080 H     1 <1>   0.0800 
 35 H        3.6250     2.6350    -1.9920 H     1 <1>   0.0800 
 36 H        2.9360    -6.2200    -1.2270 H     1 <1>   0.1500 
 37 H        5.3640    -0.1870    -1.1020 H     1 <1>   0.4500 
 38 H        2.0090     2.7530    -0.0870 H     1 <1>   0.0800 
 39 H        3.4210     3.7680     0.0240 H     1 <1>   0.0800 
 40 H        5.6170     2.6370    -0.2830 H     1 <1>   0.0800 
 41 H        5.7480     2.0410    -1.9100 H     1 <1>   0.0800 
 42 H        7.6870     1.1330     0.1930 H     1 <1>   0.0800 
 43 H        7.6080     0.6180    -1.4820 H     1 <1>   0.0800 
 44 H        7.5480    -0.5700    -0.2010 H     1 <1>   0.0800 
 45 H       -1.5230    -4.8990    -0.2670 H     1 <1>   0.0800 
 46 H       -1.2550    -5.4160     1.4020 H     1 <1>   0.0800 
 47 H        0.3830    -8.3450     0.2010 H     1 <1>   0.0800 
 48 H        2.0480    -7.7860     0.3020 H     1 <1>   0.0800 
 49 H        1.1830    -7.7470    -1.2470 H     1 <1>   0.0800 
 50 H       -4.4950    -2.7000     1.8340 H     1 <1>   0.1770 
@<TRIPOS>BOND
  1   1   2  2   
  2   2   3  am  
  3   2   4  1   
  4   3   5  1   
  5   3   6  1   
  6   4   7  ar  
  7   4   8  ar  
  8   5   9  1   
  9   5  10  1   
 10   5  26  1   
 11   6  11  1   
 12   6  27  1   
 13   6  28  1   
 14   7  12  ar  
 15   7  29  1   
 16   8  13  ar  
 17   8  30  1   
 18   9  14  1   
 19   9  31  1   
 20   9  32  1   
 21  10  15  1   
 22  10  33  1   
 23  10  34  1   
 24  11  16  1   
 25  11  17  1   
 26  11  35  1   
 27  12  18  1   
 28  12  19  ar  
 29  13  19  ar  
 30  13  36  1   
 31  14  16  1   
 32  15  17  1   
 33  15  20  1   
 34  15  37  1   
 35  16  38  1   
 36  16  39  1   
 37  17  40  1   
 38  17  41  1   
 39  18  21  1   
 40  19  22  1   
 41  20  42  1   
 42  20  43  1   
 43  20  44  1   
 44  21  23  1   
 45  21  45  1   
 46  21  46  1   
 47  22  24  1   
 48  23  25  3   
 49  24  47  1   
 50  24  48  1   
 51  24  49  1   
 52  25  50  1   
@<TRIPOS>SUBSTRUCTURE
  1 ****   7 GROUP 4 **** **** 0

# MOE 2024.06 (io_trps.svl 2023.06)
