@<TRIPOS>MOLECULE
NONAME
45 46 1 0 0 
SMALL
USER_CHARGES


@<TRIPOS>ATOM
  1 S        0.2290    -0.3600     0.7570 S.o2  1 <1>   1.3330 
  2 O        0.0450     1.0400     0.4700 O.2   1 <1>  -0.6500 
  3 O        0.5040    -0.7940     2.1040 O.2   1 <1>  -0.6500 
  4 N       -1.2000    -1.0890     0.2770 N.am  1 <1>  -0.9140 
  5 C        1.4320    -1.0360    -0.3670 C.3   1 <1>  -0.1350 
  6 C       -1.4210    -2.4150     0.8400 C.3   1 <1>   0.1960 
  7 C       -2.7040    -2.9990     0.2490 C.3   1 <1>  -0.0990 
  8 C       -2.9060    -4.4470     0.6610 C.2   1 <1>   0.5690 
  9 O       -2.2840    -4.8580     1.6110 O.2   1 <1>  -0.5700 
 10 N       -3.7740    -5.2430    -0.0360 N.am  1 <1>  -0.6600 
 11 C       -3.8150    -6.7130     0.2810 C.3   1 <1>   0.3640 
 12 C       -4.7600    -4.7000    -1.0250 C.3   1 <1>   0.1400 
 13 C       -2.6560    -7.4140    -0.4330 C.ar  1 <1>  -0.1430 
 14 C       -5.1600    -7.4320    -0.0430 C.3   1 <1>   0.2000 
 15 C       -5.7660    -5.7410    -1.5360 C.3   1 <1>   0.1200 
 16 C       -2.4300    -7.2670    -1.7960 C.ar  1 <1>  -0.1500 
 17 C       -1.8010    -8.2240     0.3010 C.ar  1 <1>  -0.1500 
 18 O       -6.1670    -6.5610    -0.4900 O.3   1 <1>  -0.5600 
 19 C       -5.7240    -8.1810     1.1720 C.3   1 <1>   0.1200 
 20 C       -1.3760    -7.9200    -2.4120 C.ar  1 <1>  -0.1500 
 21 C       -0.7440    -8.8750    -0.3110 C.ar  1 <1>  -0.1500 
 22 O       -4.8350    -9.1610     1.6070 O.3   1 <1>  -0.6800 
 23 C       -0.5320    -8.7240    -1.6690 C.ar  1 <1>  -0.1500 
 24 H       -1.9140    -0.4620     0.6480 H     1 <1>   0.4200 
 25 H        1.1520    -0.8190    -1.3790 H     1 <1>   0.0800 
 26 H        1.5000    -2.0990    -0.2450 H     1 <1>   0.0800 
 27 H        2.3940    -0.6050    -0.1760 H     1 <1>   0.0800 
 28 H       -0.5910    -3.0580     0.5950 H     1 <1>   0.0800 
 29 H       -1.5000    -2.3600     1.9150 H     1 <1>   0.0800 
 30 H       -2.6340    -2.9500    -0.8210 H     1 <1>   0.0800 
 31 H       -3.5480    -2.4260     0.5820 H     1 <1>   0.0800 
 32 H       -3.6510    -6.8210     1.3390 H     1 <1>   0.0800 
 33 H       -5.3130    -3.9050    -0.5570 H     1 <1>   0.0800 
 34 H       -4.2340    -4.2850    -1.8670 H     1 <1>   0.0800 
 35 H       -5.0010    -8.1480    -0.8300 H     1 <1>   0.0800 
 36 H       -5.3420    -6.3490    -2.3160 H     1 <1>   0.0800 
 37 H       -6.6400    -5.2490    -1.9260 H     1 <1>   0.0800 
 38 H       -3.0680    -6.6390    -2.3880 H     1 <1>   0.1500 
 39 H       -1.9530    -8.3490     1.3610 H     1 <1>   0.1500 
 40 H       -6.6540    -8.6610     0.9210 H     1 <1>   0.0800 
 41 H       -5.8830    -7.4960     1.9880 H     1 <1>   0.0800 
 42 H       -1.2110    -7.8010    -3.4690 H     1 <1>   0.1500 
 43 H       -0.0870    -9.4960     0.2720 H     1 <1>   0.1500 
 44 H       -4.7390    -9.8710     0.9410 H     1 <1>   0.4000 
 45 H        0.2900    -9.2300    -2.1450 H     1 <1>   0.1500 
@<TRIPOS>BOND
  1   1   2  2   
  2   1   3  2   
  3   1   4  am  
  4   1   5  1   
  5   4   6  1   
  6   4  24  1   
  7   5  25  1   
  8   5  26  1   
  9   5  27  1   
 10   6   7  1   
 11   6  28  1   
 12   6  29  1   
 13   7   8  1   
 14   7  30  1   
 15   7  31  1   
 16   8   9  2   
 17   8  10  am  
 18  10  11  1   
 19  10  12  1   
 20  11  13  1   
 21  11  14  1   
 22  11  32  1   
 23  12  15  1   
 24  12  33  1   
 25  12  34  1   
 26  13  16  ar  
 27  13  17  ar  
 28  14  18  1   
 29  14  19  1   
 30  14  35  1   
 31  15  18  1   
 32  15  36  1   
 33  15  37  1   
 34  16  20  ar  
 35  16  38  1   
 36  17  21  ar  
 37  17  39  1   
 38  19  22  1   
 39  19  40  1   
 40  19  41  1   
 41  20  23  ar  
 42  20  42  1   
 43  21  23  ar  
 44  21  43  1   
 45  22  44  1   
 46  23  45  1   
@<TRIPOS>SUBSTRUCTURE
  1 ****   8 GROUP 4 **** **** 0

# MOE 2024.06 (io_trps.svl 2023.06)
