@<TRIPOS>MOLECULE
NONAME
46 48 1 0 0 
SMALL
USER_CHARGES


@<TRIPOS>ATOM
  1 O       -1.0890     1.0720     2.0630 O.3   1 <1>  -0.5600 
  2 C       -0.0470     1.5110     1.2340 C.3   1 <1>   0.1200 
  3 C       -2.3060     1.6290     1.6730 C.3   1 <1>   0.1200 
  4 C       -0.6520     2.4900     0.2250 C.3   1 <1>   0.2890 
  5 C       -2.1190     2.1010     0.2310 C.3   1 <1>  -0.0800 
  6 N       -0.5220     3.8840     0.7220 N.pl3 1 <1>  -0.8690 
  7 C       -2.4090     0.9830    -0.7880 C.3   1 <1>  -0.0170 
  8 C        0.5520     4.7090     0.4320 C.ar  1 <1>   0.4100 
  9 C       -3.8820     0.6030    -0.7930 C.ar  1 <1>  -0.1430 
 10 N        1.4150     4.2310    -0.4500 N.ar  1 <1>  -0.6200 
 11 C        0.6970     5.9580     1.0500 C.ar  1 <1>   0.0730 
 12 C       -4.8370     1.4080    -1.3780 C.ar  1 <1>  -0.1500 
 13 C       -4.3390    -0.5630    -0.2120 C.ar  1 <1>  -0.1500 
 14 C        2.4460     4.9900    -0.7580 C.ar  1 <1>   0.1670 
 15 C       -0.3030     6.3640     1.9910 C.1   1 <1>   0.4840 
 16 C        1.7930     6.7510     0.7280 C.ar  1 <1>  -0.1440 
 17 C       -6.1670     1.0210    -1.3520 C.ar  1 <1>   0.1600 
 18 C       -5.6920    -0.8570    -0.2410 C.ar  1 <1>   0.1600 
 19 C        2.6800     6.2550    -0.2200 C.ar  1 <1>  -0.1430 
 20 C        3.3900     4.3610    -1.7700 C.3   1 <1>  -0.0970 
 21 N       -1.1000     6.6660     2.7500 N.1   1 <1>  -0.5570 
 22 C        2.0170     8.1180     1.3870 C.3   1 <1>  -0.0970 
 23 N       -6.6180    -0.0910    -0.7960 N.ar  1 <1>  -0.6200 
 24 C        3.8890     7.0880    -0.6580 C.3   1 <1>  -0.0970 
 25 H        0.7210     1.9690     1.8300 H     1 <1>   0.0800 
 26 H        0.3500     0.6490     0.7290 H     1 <1>   0.0800 
 27 H       -3.0850     0.8960     1.7870 H     1 <1>   0.0800 
 28 H       -2.5050     2.4640     2.3230 H     1 <1>   0.0800 
 29 H       -0.2060     2.3910    -0.7500 H     1 <1>   0.0800 
 30 H       -2.7480     2.9470     0.0130 H     1 <1>   0.0800 
 31 H       -0.9880     4.0270     1.6230 H     1 <1>   0.4000 
 32 H       -1.8120     0.1150    -0.5670 H     1 <1>   0.0800 
 33 H       -2.1390     1.3200    -1.7740 H     1 <1>   0.0800 
 34 H       -4.5610     2.3310    -1.8540 H     1 <1>   0.1500 
 35 H       -3.6580    -1.2450     0.2650 H     1 <1>   0.1500 
 36 H       -6.8990     1.6620    -1.8140 H     1 <1>   0.1500 
 37 H       -6.0310    -1.7700     0.2180 H     1 <1>   0.1500 
 38 H        4.4080     4.4510    -1.4420 H     1 <1>   0.0800 
 39 H        3.2720     4.8410    -2.7240 H     1 <1>   0.0800 
 40 H        3.1710     3.3150    -1.8880 H     1 <1>   0.0800 
 41 H        3.0530     8.2460     1.6440 H     1 <1>   0.0800 
 42 H        1.4560     8.2380     2.2960 H     1 <1>   0.0800 
 43 H        1.7280     8.9000     0.7080 H     1 <1>   0.0800 
 44 H        3.6420     8.1330    -0.7030 H     1 <1>   0.0800 
 45 H        4.2310     6.8180    -1.6390 H     1 <1>   0.0800 
 46 H        4.6960     6.9510     0.0380 H     1 <1>   0.0800 
@<TRIPOS>BOND
  1   1   2  1   
  2   1   3  1   
  3   2   4  1   
  4   2  25  1   
  5   2  26  1   
  6   3   5  1   
  7   3  27  1   
  8   3  28  1   
  9   4   5  1   
 10   4   6  1   
 11   4  29  1   
 12   5   7  1   
 13   5  30  1   
 14   6   8  1   
 15   6  31  1   
 16   7   9  1   
 17   7  32  1   
 18   7  33  1   
 19   8  10  ar  
 20   8  11  ar  
 21   9  12  ar  
 22   9  13  ar  
 23  10  14  ar  
 24  11  15  1   
 25  11  16  ar  
 26  12  17  ar  
 27  12  34  1   
 28  13  18  ar  
 29  13  35  1   
 30  14  19  ar  
 31  14  20  1   
 32  15  21  3   
 33  16  19  ar  
 34  16  22  1   
 35  17  23  ar  
 36  17  36  1   
 37  18  23  ar  
 38  18  37  1   
 39  19  24  1   
 40  20  38  1   
 41  20  39  1   
 42  20  40  1   
 43  22  41  1   
 44  22  42  1   
 45  22  43  1   
 46  24  44  1   
 47  24  45  1   
 48  24  46  1   
@<TRIPOS>SUBSTRUCTURE
  1 ****   6 GROUP 4 **** **** 0

# MOE 2024.06 (io_trps.svl 2023.06)
