@<TRIPOS>MOLECULE
NONAME
51 53 1 0 0 
SMALL
USER_CHARGES


@<TRIPOS>ATOM
  1 O        0.6670    -1.7690     0.8900 O.3   1 <1>  -0.5600 
  2 C       -0.1420    -2.7180     0.2300 C.3   1 <1>   0.2800 
  3 C        0.5430    -0.4070     0.5660 C.3   1 <1>   0.1200 
  4 C       -1.6670    -2.3790     0.3890 C.3   1 <1>   0.2000 
  5 C        0.1480    -4.0650     0.9250 C.3   1 <1>  -0.1600 
  6 C        0.3750    -2.8330    -1.2250 C.3   1 <1>  -0.1600 
  7 C       -0.8910     0.0130     0.2110 C.3   1 <1>  -0.1600 
  8 O       -2.3460    -2.7000    -0.7960 O.3   1 <1>  -0.6800 
  9 C       -1.9450    -0.9120     0.8180 C.3   1 <1>   0.2800 
 10 C        1.4920    -4.7020     0.5520 C.3   1 <1>   0.3430 
 11 C        1.8750    -3.1440    -1.3110 C.3   1 <1>   0.3430 
 12 O       -1.8340    -0.8400     2.1930 O.3   1 <1>  -0.6800 
 13 C       -3.3650    -0.4200     0.5070 C.3   1 <1>  -0.2400 
 14 N        2.3920    -3.6660    -0.0100 N.4   1 <1>  -0.9590 
 15 C        3.8170    -4.1020    -0.0370 C.3   1 <1>   0.3430 
 16 C        4.7670    -2.9270    -0.2730 C.3   1 <1>  -0.0170 
 17 C        6.1920    -3.4310    -0.1620 C.ar  1 <1>  -0.1440 
 18 C        6.8180    -3.4740     1.0760 C.ar  1 <1>  -0.1500 
 19 C        6.8740    -3.8650    -1.2910 C.ar  1 <1>  -0.1500 
 20 C        8.1100    -3.9540     1.1860 C.ar  1 <1>  -0.1500 
 21 C        8.1680    -4.3450    -1.1840 C.ar  1 <1>  -0.1500 
 22 C        8.7800    -4.3900     0.0580 C.ar  1 <1>   0.0820 
 23 O       10.0310    -4.8560     0.1810 O.3   1 <1>  -0.5330 
 24 H        0.8710     0.1430     1.4320 H     1 <1>   0.0800 
 25 H        1.2110    -0.1840    -0.2480 H     1 <1>   0.0800 
 26 H       -2.0950    -3.0150     1.1440 H     1 <1>   0.0800 
 27 H        0.0940    -3.9290     1.9910 H     1 <1>   0.0800 
 28 H       -0.6200    -4.7720     0.6650 H     1 <1>   0.0800 
 29 H       -0.1510    -3.6300    -1.7200 H     1 <1>   0.0800 
 30 H        0.1550    -1.9420    -1.7820 H     1 <1>   0.0800 
 31 H       -0.9980    -0.0050    -0.8590 H     1 <1>   0.0800 
 32 H       -1.0560     1.0300     0.5170 H     1 <1>   0.0800 
 33 H       -3.3060    -2.5510    -0.6790 H     1 <1>   0.4000 
 34 H        1.3360    -5.4770    -0.1810 H     1 <1>   0.0800 
 35 H        1.9310    -5.1470     1.4310 H     1 <1>   0.0800 
 36 H        2.4020    -2.2370    -1.5600 H     1 <1>   0.0800 
 37 H        2.0490    -3.8600    -2.0980 H     1 <1>   0.0800 
 38 H       -2.0370     0.0640     2.4970 H     1 <1>   0.4000 
 39 H       -3.5260    -0.3770    -0.5560 H     1 <1>   0.0800 
 40 H       -3.5190     0.5700     0.8970 H     1 <1>   0.0800 
 41 H       -4.0940    -1.0830     0.9380 H     1 <1>   0.0800 
 42 H        2.2770    -2.8680     0.6470 H     1 <1>   0.4500 
 43 H        4.0710    -4.5530     0.9090 H     1 <1>   0.0800 
 44 H        3.9640    -4.8420    -0.8060 H     1 <1>   0.0800 
 45 H        4.6150    -2.5030    -1.2490 H     1 <1>   0.0800 
 46 H        4.6020    -2.1620     0.4650 H     1 <1>   0.0800 
 47 H        6.3130    -3.1350     1.9640 H     1 <1>   0.1500 
 48 H        6.4100    -3.8330    -2.2610 H     1 <1>   0.1500 
 49 H        8.6060    -3.9930     2.1400 H     1 <1>   0.1500 
 50 H        8.6920    -4.6800    -2.0610 H     1 <1>   0.1500 
 51 H       10.4310    -5.1210    -0.6660 H     1 <1>   0.4500 
@<TRIPOS>BOND
  1   1   2  1   
  2   1   3  1   
  3   2   4  1   
  4   2   5  1   
  5   2   6  1   
  6   3   7  1   
  7   3  24  1   
  8   3  25  1   
  9   4   8  1   
 10   4   9  1   
 11   4  26  1   
 12   5  10  1   
 13   5  27  1   
 14   5  28  1   
 15   6  11  1   
 16   6  29  1   
 17   6  30  1   
 18   7   9  1   
 19   7  31  1   
 20   7  32  1   
 21   8  33  1   
 22   9  12  1   
 23   9  13  1   
 24  10  14  1   
 25  10  34  1   
 26  10  35  1   
 27  11  14  1   
 28  11  36  1   
 29  11  37  1   
 30  12  38  1   
 31  13  39  1   
 32  13  40  1   
 33  13  41  1   
 34  14  15  1   
 35  14  42  1   
 36  15  16  1   
 37  15  43  1   
 38  15  44  1   
 39  16  17  1   
 40  16  45  1   
 41  16  46  1   
 42  17  18  ar  
 43  17  19  ar  
 44  18  20  ar  
 45  18  47  1   
 46  19  21  ar  
 47  19  48  1   
 48  20  22  ar  
 49  20  49  1   
 50  21  22  ar  
 51  21  50  1   
 52  22  23  1   
 53  23  51  1   
@<TRIPOS>SUBSTRUCTURE
  1 ****  14 GROUP 4 **** **** 0

# MOE 2024.06 (io_trps.svl 2023.06)
