@<TRIPOS>MOLECULE
NONAME
48 49 1 0 0 
SMALL
USER_CHARGES


@<TRIPOS>ATOM
  1 O        1.8670    -1.4100    -1.9870 O.2   1 <1>  -0.5700 
  2 C        2.1070    -1.4080    -0.8010 C.2   1 <1>   0.5690 
  3 N        2.3450    -0.2740    -0.0810 N.am  1 <1>  -0.4930 
  4 C        2.1490    -2.7530    -0.0630 C.3   1 <1>   0.1710 
  5 C        2.3370     1.0820    -0.4940 C.2   1 <1>   0.0630 
  6 N        0.8620    -3.2050     0.5350 N.3   1 <1>  -0.8100 
  7 C        1.4530     1.7540    -1.3450 C.2   1 <1>   0.1080 
  8 C        3.2100     2.0300    -0.0880 C.2   1 <1>  -0.3320 
  9 C       -0.1560    -3.4180    -0.5140 C.3   1 <1>   0.2530 
 10 C        0.3770    -2.3050     1.5940 C.3   1 <1>   0.0300 
 11 N        1.7470     3.0110    -1.4620 N.2   1 <1>  -0.7070 
 12 C        0.2630     1.1580    -2.0640 C.3   1 <1>  -0.0590 
 13 N        2.8340     3.1870    -0.6920 N.pl3 1 <1>   0.3140 
 14 C        4.4070     1.9040     0.8450 C.3   1 <1>  -0.0600 
 15 C       -1.3870    -4.1180     0.0460 C.ar  1 <1>  -0.1430 
 16 C        3.4750     4.5140    -0.5830 C.3   1 <1>   0.0960 
 17 C       -2.6620    -3.6250    -0.1480 C.ar  1 <1>  -0.1500 
 18 C       -1.2910    -5.2840     0.7770 C.ar  1 <1>  -0.1500 
 19 C        2.9070     5.3030     0.6070 C.3   1 <1>  -0.1600 
 20 C       -3.7470    -4.3040     0.3830 C.ar  1 <1>   0.1600 
 21 C       -2.4390    -5.8850     1.2660 C.ar  1 <1>   0.1600 
 22 C        3.5740     6.6770     0.7360 C.3   1 <1>  -0.2400 
 23 N       -3.6660    -5.4220     1.0860 N.ar  1 <1>  -0.6200 
 24 H        2.5930    -0.4000     0.8960 H     1 <1>   0.3700 
 25 H        2.8910    -2.7000     0.7120 H     1 <1>   0.0800 
 26 H        2.4820    -3.5000    -0.7620 H     1 <1>   0.0800 
 27 H        0.2580    -4.0350    -1.2940 H     1 <1>   0.0800 
 28 H       -0.4360    -2.4750    -0.9530 H     1 <1>   0.0800 
 29 H        1.1470    -2.1540     2.3310 H     1 <1>   0.0800 
 30 H       -0.4730    -2.7430     2.0890 H     1 <1>   0.0800 
 31 H        0.0830    -1.3530     1.1840 H     1 <1>   0.0800 
 32 H       -0.1870     0.3900    -1.4660 H     1 <1>   0.0800 
 33 H        0.5860     0.7380    -2.9990 H     1 <1>   0.0800 
 34 H       -0.4660     1.9230    -2.2580 H     1 <1>   0.0800 
 35 H        4.5240     0.8900     1.1800 H     1 <1>   0.0800 
 36 H        4.2770     2.5360     1.7050 H     1 <1>   0.0800 
 37 H        5.3070     2.1920     0.3310 H     1 <1>   0.0800 
 38 H        3.2880     5.0470    -1.4970 H     1 <1>   0.0800 
 39 H        4.5340     4.3800    -0.4770 H     1 <1>   0.0800 
 40 H       -2.8230    -2.7210    -0.7060 H     1 <1>   0.1500 
 41 H       -0.3280    -5.7210     0.9710 H     1 <1>   0.1500 
 42 H        3.0600     4.7480     1.5150 H     1 <1>   0.0800 
 43 H        1.8470     5.4350     0.4640 H     1 <1>   0.0800 
 44 H       -4.7340    -3.9060     0.2210 H     1 <1>   0.1500 
 45 H       -2.3410    -6.7930     1.8350 H     1 <1>   0.1500 
 46 H        4.6330     6.5710     0.8960 H     1 <1>   0.0800 
 47 H        3.1550     7.2110     1.5710 H     1 <1>   0.0800 
 48 H        3.4130     7.2590    -0.1550 H     1 <1>   0.0800 
@<TRIPOS>BOND
  1   1   2  2   
  2   2   3  am  
  3   2   4  1   
  4   3   5  1   
  5   3  24  1   
  6   4   6  1   
  7   4  25  1   
  8   4  26  1   
  9   5   7  1   
 10   5   8  2   
 11   6   9  1   
 12   6  10  1   
 13   7  11  2   
 14   7  12  1   
 15   8  13  1   
 16   8  14  1   
 17   9  15  1   
 18   9  27  1   
 19   9  28  1   
 20  10  29  1   
 21  10  30  1   
 22  10  31  1   
 23  11  13  1   
 24  12  32  1   
 25  12  33  1   
 26  12  34  1   
 27  13  16  1   
 28  14  35  1   
 29  14  36  1   
 30  14  37  1   
 31  15  17  ar  
 32  15  18  ar  
 33  16  19  1   
 34  16  38  1   
 35  16  39  1   
 36  17  20  ar  
 37  17  40  1   
 38  18  21  ar  
 39  18  41  1   
 40  19  22  1   
 41  19  42  1   
 42  19  43  1   
 43  20  23  ar  
 44  20  44  1   
 45  21  23  ar  
 46  21  45  1   
 47  22  46  1   
 48  22  47  1   
 49  22  48  1   
@<TRIPOS>SUBSTRUCTURE
  1 ****   3 GROUP 4 **** **** 0

# MOE 2024.06 (io_trps.svl 2023.06)
