@<TRIPOS>MOLECULE
NONAME
51 53 1 0 0 
SMALL
USER_CHARGES


@<TRIPOS>ATOM
  1 O        1.1140     0.1290     1.7720 O.2   1 <1>  -0.5700 
  2 C        2.0010    -0.6240     1.4180 C.2   1 <1>   0.5440 
  3 N        3.2570    -0.1020     1.1850 N.am  1 <1>  -0.6600 
  4 C        1.7070    -2.0300     1.2320 C.ar  1 <1>   0.0860 
  5 C        3.6010     1.2960     1.5910 C.3   1 <1>   0.3200 
  6 C        4.3600    -0.8470     0.5090 C.3   1 <1>   0.0600 
  7 C        0.7160    -2.4390     0.3450 C.ar  1 <1>  -0.1500 
  8 C        2.3950    -3.0200     1.9290 C.ar  1 <1>  -0.1500 
  9 C        3.9390     2.1610     0.3860 C.2   1 <1>   0.0070 
 10 C        0.4130    -3.7710     0.1260 C.ar  1 <1>   0.1000 
 11 C        2.1130    -4.3610     1.7370 C.ar  1 <1>  -0.1500 
 12 N        5.1230     2.6150     0.1450 N.2   1 <1>  -0.3380 
 13 N        3.0650     2.5480    -0.5520 N.pl3 1 <1>   0.0480 
 14 N       -0.6050    -4.0420    -0.7990 N.pl3 1 <1>  -0.8380 
 15 C        1.1250    -4.7530     0.8390 C.ar  1 <1>   0.0830 
 16 N        5.0510     3.3230    -0.9820 N.2   1 <1>  -0.3380 
 17 C        3.8260     3.2700    -1.3750 C.2   1 <1>   0.0360 
 18 C        1.6210     2.2660    -0.7060 C.3   1 <1>   0.0960 
 19 C       -1.8580    -4.6080    -0.2210 C.3   1 <1>   0.2090 
 20 C       -0.2040    -4.8010    -2.0200 C.3   1 <1>   0.2090 
 21 O        0.8200    -6.0660     0.6290 O.3   1 <1>  -0.3630 
 22 C        0.7830     3.1790     0.1950 C.3   1 <1>  -0.2400 
 23 C       -2.9590    -4.6980    -1.2950 C.3   1 <1>   0.1200 
 24 C       -1.3750    -4.8800    -3.0170 C.3   1 <1>   0.1200 
 25 C        1.4210    -7.1050     1.3690 C.3   1 <1>   0.0400 
 26 O       -2.5200    -5.4230    -2.4130 O.3   1 <1>  -0.5600 
 27 H        4.4560     1.2630     2.2430 H     1 <1>   0.0800 
 28 H        2.7980     1.7500     2.1420 H     1 <1>   0.0800 
 29 H        4.0000    -1.7600     0.0680 H     1 <1>   0.0800 
 30 H        5.1310    -1.0810     1.2220 H     1 <1>   0.0800 
 31 H        4.7870    -0.2450    -0.2760 H     1 <1>   0.0800 
 32 H        0.1590    -1.6950    -0.1940 H     1 <1>   0.1500 
 33 H        3.1560    -2.7290     2.6310 H     1 <1>   0.1500 
 34 H        2.6740    -5.0820     2.2990 H     1 <1>   0.1500 
 35 H        3.4470     3.7460    -2.2600 H     1 <1>   0.1500 
 36 H        1.4350     1.2360    -0.4700 H     1 <1>   0.0800 
 37 H        1.3470     2.4240    -1.7340 H     1 <1>   0.0800 
 38 H       -2.1930    -3.9800     0.5860 H     1 <1>   0.0800 
 39 H       -1.6690    -5.5910     0.1740 H     1 <1>   0.0800 
 40 H        0.0960    -5.7990    -1.7530 H     1 <1>   0.0800 
 41 H        0.6340    -4.3110    -2.4840 H     1 <1>   0.0800 
 42 H        1.0090     2.9970     1.2300 H     1 <1>   0.0800 
 43 H       -0.2620     2.9730     0.0430 H     1 <1>   0.0800 
 44 H        0.9670     4.2130    -0.0370 H     1 <1>   0.0800 
 45 H       -3.2450    -3.7120    -1.6160 H     1 <1>   0.0800 
 46 H       -3.8230    -5.1990    -0.8980 H     1 <1>   0.0800 
 47 H       -1.1120    -5.5100    -3.8470 H     1 <1>   0.0800 
 48 H       -1.6150    -3.8990    -3.3860 H     1 <1>   0.0800 
 49 H        0.9890    -8.0360     1.0470 H     1 <1>   0.0800 
 50 H        1.2190    -6.9520     2.4140 H     1 <1>   0.0800 
 51 H        2.4780    -7.1080     1.1730 H     1 <1>   0.0800 
@<TRIPOS>BOND
  1   1   2  2   
  2   2   3  am  
  3   2   4  1   
  4   3   5  1   
  5   3   6  1   
  6   4   7  ar  
  7   4   8  ar  
  8   5   9  1   
  9   5  27  1   
 10   5  28  1   
 11   6  29  1   
 12   6  30  1   
 13   6  31  1   
 14   7  10  ar  
 15   7  32  1   
 16   8  11  ar  
 17   8  33  1   
 18   9  12  2   
 19   9  13  1   
 20  10  14  1   
 21  10  15  ar  
 22  11  15  ar  
 23  11  34  1   
 24  12  16  1   
 25  13  17  1   
 26  13  18  1   
 27  14  19  1   
 28  14  20  1   
 29  15  21  1   
 30  16  17  2   
 31  17  35  1   
 32  18  22  1   
 33  18  36  1   
 34  18  37  1   
 35  19  23  1   
 36  19  38  1   
 37  19  39  1   
 38  20  24  1   
 39  20  40  1   
 40  20  41  1   
 41  21  25  1   
 42  22  42  1   
 43  22  43  1   
 44  22  44  1   
 45  23  26  1   
 46  23  45  1   
 47  23  46  1   
 48  24  26  1   
 49  24  47  1   
 50  24  48  1   
 51  25  49  1   
 52  25  50  1   
 53  25  51  1   
@<TRIPOS>SUBSTRUCTURE
  1 ****   7 GROUP 4 **** **** 0

# MOE 2024.06 (io_trps.svl 2023.06)
