@<TRIPOS>MOLECULE
NONAME
51 54 1 0 0 
SMALL
USER_CHARGES


@<TRIPOS>ATOM
  1 O        0.8830    -0.0240    -0.9280 O.2   1 <1>  -0.5700 
  2 C        1.4560    -1.0180    -0.5700 C.2   1 <1>   0.5690 
  3 N        0.8780    -1.9060     0.2650 N.am  1 <1>  -0.7300 
  4 C        2.8630    -1.3120    -1.0380 C.3   1 <1>  -0.0990 
  5 C        1.5650    -3.0930     0.8080 C.3   1 <1>   0.1400 
  6 C        3.0110    -2.8090    -1.3720 C.3   1 <1>  -0.0800 
  7 C        2.4580    -3.7490    -0.2720 C.3   1 <1>  -0.0800 
  8 C        4.4730    -3.2150    -1.6160 C.3   1 <1>  -0.1600 
  9 C        3.6840    -4.4580     0.3160 C.3   1 <1>  -0.1600 
 10 C        4.6680    -4.5200    -0.8500 C.3   1 <1>   0.4230 
 11 N        6.0970    -4.7900    -0.4920 N.4   1 <1>  -0.9590 
 12 C        6.6450    -4.1910     0.7720 C.3   1 <1>   0.4860 
 13 C        6.3590    -6.2600    -0.5160 C.3   1 <1>   0.2630 
 14 C        6.8360    -2.6990     0.5960 C.ar  1 <1>  -0.1440 
 15 C        7.7820    -2.2040    -0.3380 C.ar  1 <1>   0.0000 
 16 C        6.0610    -1.8400     1.3270 C.ar  1 <1>  -0.1500 
 17 C        7.8230    -0.8090    -0.5850 C.ar  1 <1>   0.0000 
 18 C        8.6910    -3.0340    -1.0400 C.ar  1 <1>  -0.1500 
 19 C        6.1430    -0.4630     1.1190 C.ar  1 <1>  -0.1500 
 20 C        6.9890     0.0490     0.1770 C.ar  1 <1>  -0.1440 
 21 C        8.7060    -0.3340    -1.5820 C.ar  1 <1>  -0.1500 
 22 C        9.5400    -2.5350    -1.9860 C.ar  1 <1>  -0.1500 
 23 C        7.0250     1.5590    -0.0300 C.3   1 <1>  -0.0970 
 24 C        9.5390    -1.1690    -2.2690 C.ar  1 <1>  -0.1500 
 25 H       -0.0600    -1.6790     0.6050 H     1 <1>   0.3700 
 26 H        3.0810    -0.7130    -1.9050 H     1 <1>   0.0800 
 27 H        3.5370    -1.0250    -0.2520 H     1 <1>   0.0800 
 28 H        2.1580    -2.7740     1.6480 H     1 <1>   0.0800 
 29 H        0.8360    -3.8020     1.1620 H     1 <1>   0.0800 
 30 H        2.4420    -2.9910    -2.2700 H     1 <1>   0.0800 
 31 H        1.8570    -4.4930    -0.7680 H     1 <1>   0.0800 
 32 H        5.1240    -2.4390    -1.2650 H     1 <1>   0.0800 
 33 H        4.6510    -3.3600    -2.6670 H     1 <1>   0.0800 
 34 H        3.4300    -5.4380     0.6780 H     1 <1>   0.0800 
 35 H        4.0660    -3.8590     1.1180 H     1 <1>   0.0800 
 36 H        4.3260    -5.3030    -1.5070 H     1 <1>   0.0800 
 37 H        6.6450    -4.3440    -1.2430 H     1 <1>   0.4500 
 38 H        5.9870    -4.3900     1.6010 H     1 <1>   0.0800 
 39 H        7.6030    -4.6290     1.0010 H     1 <1>   0.0800 
 40 H        5.7950    -6.7530     0.2590 H     1 <1>   0.0800 
 41 H        7.4070    -6.4590    -0.3600 H     1 <1>   0.0800 
 42 H        6.0720    -6.6750    -1.4680 H     1 <1>   0.0800 
 43 H        5.3630    -2.1870     2.0700 H     1 <1>   0.1500 
 44 H        8.7430    -4.0830    -0.8270 H     1 <1>   0.1500 
 45 H        5.5170     0.1830     1.7130 H     1 <1>   0.1500 
 46 H        8.7300     0.7160    -1.8070 H     1 <1>   0.1500 
 47 H       10.2260    -3.1720    -2.5190 H     1 <1>   0.1500 
 48 H        6.3500     2.0600     0.6390 H     1 <1>   0.0800 
 49 H        6.7380     1.8010    -1.0380 H     1 <1>   0.0800 
 50 H        8.0170     1.9330     0.1540 H     1 <1>   0.0800 
 51 H       10.2080    -0.7870    -3.0220 H     1 <1>   0.1500 
@<TRIPOS>BOND
  1   1   2  2   
  2   2   3  am  
  3   2   4  1   
  4   3   5  1   
  5   3  25  1   
  6   4   6  1   
  7   4  26  1   
  8   4  27  1   
  9   5   7  1   
 10   5  28  1   
 11   5  29  1   
 12   6   7  1   
 13   6   8  1   
 14   6  30  1   
 15   7   9  1   
 16   7  31  1   
 17   8  10  1   
 18   8  32  1   
 19   8  33  1   
 20   9  10  1   
 21   9  34  1   
 22   9  35  1   
 23  10  11  1   
 24  10  36  1   
 25  11  12  1   
 26  11  13  1   
 27  11  37  1   
 28  12  14  1   
 29  12  38  1   
 30  12  39  1   
 31  13  40  1   
 32  13  41  1   
 33  13  42  1   
 34  14  15  ar  
 35  14  16  ar  
 36  15  17  ar  
 37  15  18  ar  
 38  16  19  ar  
 39  16  43  1   
 40  17  20  ar  
 41  17  21  ar  
 42  18  22  ar  
 43  18  44  1   
 44  19  20  ar  
 45  19  45  1   
 46  20  23  1   
 47  21  24  ar  
 48  21  46  1   
 49  22  24  ar  
 50  22  47  1   
 51  23  48  1   
 52  23  49  1   
 53  23  50  1   
 54  24  51  1   
@<TRIPOS>SUBSTRUCTURE
  1 ****   8 GROUP 4 **** **** 0

# MOE 2024.06 (io_trps.svl 2023.06)
