@<TRIPOS>MOLECULE
NONAME
47 50 1 0 0 
SMALL
USER_CHARGES


@<TRIPOS>ATOM
  1 O       -0.6290     1.2450    -1.4710 O.2   1 <1>  -0.5700 
  2 C       -0.5970     2.4390    -1.2810 C.2   1 <1>   0.5690 
  3 N       -1.4850     3.0980    -0.4720 N.am  1 <1>  -0.5090 
  4 C        0.4680     3.2520    -2.0090 C.3   1 <1>   0.1810 
  5 C       -1.5600     4.5940    -0.4590 C.3   1 <1>   0.3640 
  6 C       -2.5200     2.3980     0.3260 C.3   1 <1>   0.0490 
  7 O        0.7620     4.4480    -1.3350 O.3   1 <1>  -0.5600 
  8 C       -2.8710     5.0360    -1.1120 C.ar  1 <1>  -0.1440 
  9 C       -0.3580     5.3030    -1.1450 C.3   1 <1>   0.2610 
 10 C       -2.5360     2.6010     1.8090 C.3   1 <1>  -0.2000 
 11 C       -2.1200     1.2830     1.2390 C.3   1 <1>  -0.2000 
 12 C       -3.6310     6.0390    -0.5240 C.ar  1 <1>   0.1600 
 13 C       -3.3330     4.4640    -2.2850 C.ar  1 <1>  -0.1500 
 14 C        0.0450     6.5310    -0.3220 C.2   1 <1>   0.5690 
 15 N       -4.7820     6.4950    -0.9930 N.ar  1 <1>  -0.6200 
 16 C       -4.5280     4.9310    -2.7880 C.ar  1 <1>  -0.1500 
 17 O       -0.8170     7.3000     0.0320 O.2   1 <1>  -0.5700 
 18 N        1.3600     6.7050    -0.0080 N.am  1 <1>  -0.7300 
 19 C       -5.2030     5.9320    -2.1120 C.ar  1 <1>   0.1600 
 20 C        2.0040     7.7800     0.7790 C.3   1 <1>   0.2200 
 21 C        1.3950     7.9170     2.1800 C.3   1 <1>  -0.1600 
 22 C        1.8520     9.1450     0.0970 C.3   1 <1>  -0.1600 
 23 C        0.7260     9.2920     2.2230 C.3   1 <1>  -0.1600 
 24 C        1.5050    10.1280     1.2140 C.3   1 <1>  -0.1600 
 25 H        0.1370     3.4840    -3.0050 H     1 <1>   0.0800 
 26 H        1.3750     2.6760    -2.0670 H     1 <1>   0.0800 
 27 H       -1.5770     4.8980     0.5730 H     1 <1>   0.0800 
 28 H       -3.4600     2.3150    -0.1950 H     1 <1>   0.1000 
 29 H       -0.6580     5.6520    -2.1160 H     1 <1>   0.0800 
 30 H       -1.7780     3.2010     2.2810 H     1 <1>   0.1000 
 31 H       -3.4850     2.6570     2.3140 H     1 <1>   0.1000 
 32 H       -2.7840     0.4440     1.3410 H     1 <1>   0.1000 
 33 H       -1.0840     0.9960     1.2720 H     1 <1>   0.1000 
 34 H       -3.2750     6.5000     0.3830 H     1 <1>   0.1500 
 35 H       -2.7980     3.6800    -2.7920 H     1 <1>   0.1500 
 36 H       -4.9380     4.5230    -3.6940 H     1 <1>   0.1500 
 37 H        1.9950     5.9760    -0.3470 H     1 <1>   0.3700 
 38 H       -6.1370     6.2890    -2.5130 H     1 <1>   0.1500 
 39 H        3.0510     7.5520     0.8820 H     1 <1>   0.0800 
 40 H        0.6960     7.1320     2.4090 H     1 <1>   0.0800 
 41 H        2.1900     7.8960     2.9050 H     1 <1>   0.0800 
 42 H        2.7540     9.4340    -0.4100 H     1 <1>   0.0800 
 43 H        1.0400     9.1260    -0.6080 H     1 <1>   0.0800 
 44 H       -0.2950     9.2000     1.8920 H     1 <1>   0.0800 
 45 H        0.7400     9.7230     3.2080 H     1 <1>   0.0800 
 46 H        2.4090    10.4920     1.6710 H     1 <1>   0.0800 
 47 H        0.9280    10.9620     0.8530 H     1 <1>   0.0800 
@<TRIPOS>BOND
  1   1   2  2   
  2   2   3  am  
  3   2   4  1   
  4   3   5  1   
  5   3   6  1   
  6   4   7  1   
  7   4  25  1   
  8   4  26  1   
  9   5   8  1   
 10   5   9  1   
 11   5  27  1   
 12   6  10  1   
 13   6  11  1   
 14   6  28  1   
 15   7   9  1   
 16   8  12  ar  
 17   8  13  ar  
 18   9  14  1   
 19   9  29  1   
 20  10  11  1   
 21  10  30  1   
 22  10  31  1   
 23  11  32  1   
 24  11  33  1   
 25  12  15  ar  
 26  12  34  1   
 27  13  16  ar  
 28  13  35  1   
 29  14  17  2   
 30  14  18  am  
 31  15  19  ar  
 32  16  19  ar  
 33  16  36  1   
 34  18  20  1   
 35  18  37  1   
 36  19  38  1   
 37  20  21  1   
 38  20  22  1   
 39  20  39  1   
 40  21  23  1   
 41  21  40  1   
 42  21  41  1   
 43  22  24  1   
 44  22  42  1   
 45  22  43  1   
 46  23  24  1   
 47  23  44  1   
 48  23  45  1   
 49  24  46  1   
 50  24  47  1   
@<TRIPOS>SUBSTRUCTURE
  1 ****   5 GROUP 4 **** **** 0

# MOE 2024.06 (io_trps.svl 2023.06)
