@<TRIPOS>MOLECULE
NONAME
53 54 1 0 0 
SMALL
USER_CHARGES


@<TRIPOS>ATOM
  1 O       -0.7570     0.7220    -1.3100 O.2   1 <1>  -0.5700 
  2 C       -1.7440     0.9780    -0.6500 C.2   1 <1>   0.7160 
  3 N       -2.6100    -0.0390    -0.3120 N.am  1 <1>  -0.6600 
  4 C       -2.0280     2.3370    -0.2610 C.2   1 <1>  -0.0860 
  5 C       -2.4680    -1.3620    -1.0110 C.3   1 <1>   0.3210 
  6 C       -3.7300     0.1480     0.6590 C.3   1 <1>   0.1400 
  7 C       -1.8770     2.9180     1.0030 C.2   1 <1>   0.1080 
  8 C       -2.5280     3.3560    -1.0120 C.2   1 <1>  -0.3020 
  9 C       -3.7340    -2.2270    -1.0040 C.2   1 <1>   0.0460 
 10 C       -4.9070     0.8880    -0.0030 C.3   1 <1>   0.3430 
 11 N       -2.3130     4.1350     1.0450 N.2   1 <1>  -0.7070 
 12 C       -1.2550     2.2610     2.2190 C.3   1 <1>  -0.0590 
 13 N       -2.6690     4.4260    -0.2190 N.pl3 1 <1>   0.3140 
 14 N       -4.8860    -1.7980    -1.5680 N.2   1 <1>  -0.5650 
 15 C       -3.8890    -3.4730    -0.4930 C.2   1 <1>  -0.3320 
 16 N       -5.8110     1.5610     0.9910 N.4   1 <1>  -0.9590 
 17 C       -3.1030     5.7800    -0.6200 C.3   1 <1>   0.0960 
 18 C       -5.6990    -2.7910    -1.4120 C.2   1 <1>   0.0360 
 19 N       -5.1560    -3.8390    -0.7620 N.pl3 1 <1>   0.0330 
 20 C       -2.9210    -4.3960     0.2320 C.3   1 <1>  -0.0600 
 21 C       -7.0840     1.9560     0.3180 C.3   1 <1>   0.2630 
 22 C       -5.1570     2.7600     1.6130 C.3   1 <1>   0.2630 
 23 C       -1.9220     6.5860    -1.1780 C.3   1 <1>  -0.1600 
 24 C       -2.3580     7.9920    -1.6040 C.3   1 <1>  -0.2400 
 25 H       -1.6590    -1.9020    -0.5550 H     1 <1>   0.0800 
 26 H       -2.1980    -1.1900    -2.0390 H     1 <1>   0.0800 
 27 H       -3.3640     0.7110     1.4950 H     1 <1>   0.0800 
 28 H       -4.0610    -0.8040     1.0370 H     1 <1>   0.0800 
 29 H       -2.7620     3.3610    -2.0620 H     1 <1>   0.1500 
 30 H       -5.4760     0.1810    -0.5820 H     1 <1>   0.0800 
 31 H       -4.5160     1.6290    -0.6800 H     1 <1>   0.0800 
 32 H       -0.9150     1.2670     1.9930 H     1 <1>   0.0800 
 33 H       -1.9660     2.2220     3.0230 H     1 <1>   0.0800 
 34 H       -0.4110     2.8450     2.5380 H     1 <1>   0.0800 
 35 H       -6.0380     0.8790     1.7300 H     1 <1>   0.4500 
 36 H       -3.5070     6.2760     0.2440 H     1 <1>   0.0800 
 37 H       -3.8730     5.6900    -1.3630 H     1 <1>   0.0800 
 38 H       -6.7170    -2.8070    -1.7640 H     1 <1>   0.1500 
 39 H       -5.6090    -4.7330    -0.5440 H     1 <1>   0.2700 
 40 H       -1.9630    -3.9280     0.3620 H     1 <1>   0.0800 
 41 H       -2.7810    -5.3000    -0.3340 H     1 <1>   0.0800 
 42 H       -3.3070    -4.6520     1.2030 H     1 <1>   0.0800 
 43 H       -6.8860     2.6650    -0.4700 H     1 <1>   0.0800 
 44 H       -7.7590     2.4070     1.0270 H     1 <1>   0.0800 
 45 H       -7.5640     1.0910    -0.1110 H     1 <1>   0.0800 
 46 H       -4.8860     3.4760     0.8550 H     1 <1>   0.0800 
 47 H       -4.2600     2.4790     2.1400 H     1 <1>   0.0800 
 48 H       -5.8260     3.2360     2.3120 H     1 <1>   0.0800 
 49 H       -1.5030     6.0740    -2.0280 H     1 <1>   0.0800 
 50 H       -1.1590     6.6680    -0.4210 H     1 <1>   0.0800 
 51 H       -3.1060     7.9420    -2.3770 H     1 <1>   0.0800 
 52 H       -1.5120     8.5370    -1.9860 H     1 <1>   0.0800 
 53 H       -2.7580     8.5350    -0.7650 H     1 <1>   0.0800 
@<TRIPOS>BOND
  1   1   2  2   
  2   2   3  am  
  3   2   4  1   
  4   3   5  1   
  5   3   6  1   
  6   4   7  1   
  7   4   8  2   
  8   5   9  1   
  9   5  25  1   
 10   5  26  1   
 11   6  10  1   
 12   6  27  1   
 13   6  28  1   
 14   7  11  2   
 15   7  12  1   
 16   8  13  1   
 17   8  29  1   
 18   9  14  1   
 19   9  15  2   
 20  10  16  1   
 21  10  30  1   
 22  10  31  1   
 23  11  13  1   
 24  12  32  1   
 25  12  33  1   
 26  12  34  1   
 27  13  17  1   
 28  14  18  2   
 29  15  19  1   
 30  15  20  1   
 31  16  21  1   
 32  16  22  1   
 33  16  35  1   
 34  17  23  1   
 35  17  36  1   
 36  17  37  1   
 37  18  19  1   
 38  18  38  1   
 39  19  39  1   
 40  20  40  1   
 41  20  41  1   
 42  20  42  1   
 43  21  43  1   
 44  21  44  1   
 45  21  45  1   
 46  22  46  1   
 47  22  47  1   
 48  22  48  1   
 49  23  24  1   
 50  23  49  1   
 51  23  50  1   
 52  24  51  1   
 53  24  52  1   
 54  24  53  1   
@<TRIPOS>SUBSTRUCTURE
  1 ****   6 GROUP 4 **** **** 0

# MOE 2024.06 (io_trps.svl 2023.06)
