@<TRIPOS>MOLECULE
NONAME
49 51 1 0 0 
SMALL
USER_CHARGES


@<TRIPOS>ATOM
  1 S        0.0050    -1.0800    -0.4500 S.3   1 <1>  -0.0800 
  2 C       -1.6960    -1.4060    -0.1070 C.2   1 <1>  -0.0450 
  3 C        0.3970    -0.9470     1.2510 C.2   1 <1>  -0.1400 
  4 C       -2.5780    -1.6720    -1.2160 C.2   1 <1>   0.7150 
  5 C       -1.8830    -1.3710     1.2380 C.2   1 <1>  -0.1500 
  6 C       -0.7060    -1.1180     2.0010 C.2   1 <1>  -0.1500 
  7 C        1.8430    -0.6820     1.6110 C.3   1 <1>  -0.0600 
  8 O       -2.6570    -0.8690    -2.1290 O.2   1 <1>  -0.5700 
  9 N       -3.3650    -2.8050    -1.2690 N.am  1 <1>  -0.6600 
 10 C       -3.1010    -3.9940    -0.3790 C.3   1 <1>   0.3640 
 11 C       -4.5290    -2.8550    -2.2060 C.3   1 <1>   0.1400 
 12 C       -1.6330    -4.4070    -0.5260 C.ar  1 <1>  -0.1430 
 13 C       -3.9990    -5.2470    -0.6270 C.3   1 <1>   0.2000 
 14 C       -4.9660    -4.2830    -2.5270 C.3   1 <1>   0.1200 
 15 C       -0.8350    -4.5540     0.6010 C.ar  1 <1>  -0.1500 
 16 C       -1.0730    -4.6240    -1.7790 C.ar  1 <1>  -0.1500 
 17 O       -5.1750    -4.9700    -1.3380 O.3   1 <1>  -0.5600 
 18 C       -4.4420    -5.9230     0.6810 C.3   1 <1>   0.1200 
 19 C        0.5000    -4.9010     0.4880 C.ar  1 <1>   0.0830 
 20 C        0.2630    -4.9610    -1.9050 C.ar  1 <1>  -0.1500 
 21 O       -3.3550    -6.2210     1.4970 O.3   1 <1>  -0.6800 
 22 O        1.2080    -5.0450     1.6350 O.3   1 <1>  -0.3630 
 23 C        1.0610    -5.0820    -0.7810 C.ar  1 <1>   0.0830 
 24 C        1.6970    -6.3370     1.9160 C.3   1 <1>   0.0400 
 25 O        2.3740    -5.3580    -0.9690 O.3   1 <1>  -0.3630 
 26 C        3.2670    -4.3150    -0.6490 C.3   1 <1>   0.0400 
 27 H       -2.8290    -1.5230     1.7260 H     1 <1>   0.1500 
 28 H       -0.7380    -1.0820     3.0750 H     1 <1>   0.1500 
 29 H        1.9520    -0.6140     2.6780 H     1 <1>   0.0800 
 30 H        2.1680     0.2400     1.1660 H     1 <1>   0.0800 
 31 H        2.4590    -1.4850     1.2490 H     1 <1>   0.0800 
 32 H       -3.2660    -3.6760     0.6350 H     1 <1>   0.0800 
 33 H       -5.3550    -2.3290    -1.7610 H     1 <1>   0.0800 
 34 H       -4.2820    -2.3560    -3.1280 H     1 <1>   0.0800 
 35 H       -3.4530    -5.9680    -1.2090 H     1 <1>   0.0800 
 36 H       -4.2240    -4.7970    -3.1150 H     1 <1>   0.0800 
 37 H       -5.8940    -4.2720    -3.0700 H     1 <1>   0.0800 
 38 H       -1.2400    -4.3950     1.5850 H     1 <1>   0.1500 
 39 H       -1.6720    -4.5130    -2.6670 H     1 <1>   0.1500 
 40 H       -4.9640    -6.8400     0.4710 H     1 <1>   0.0800 
 41 H       -5.0890    -5.2640     1.2340 H     1 <1>   0.0800 
 42 H        0.6970    -5.1170    -2.8760 H     1 <1>   0.1500 
 43 H       -2.7590    -6.8710     1.0710 H     1 <1>   0.4000 
 44 H        2.1260    -6.3270     2.9010 H     1 <1>   0.0800 
 45 H        2.4480    -6.6000     1.1930 H     1 <1>   0.0800 
 46 H        0.8790    -7.0340     1.8760 H     1 <1>   0.0800 
 47 H        4.2570    -4.6190    -0.9350 H     1 <1>   0.0800 
 48 H        3.2310    -4.1290     0.4100 H     1 <1>   0.0800 
 49 H        2.9790    -3.4320    -1.1920 H     1 <1>   0.0800 
@<TRIPOS>BOND
  1   1   2  1   
  2   1   3  1   
  3   2   4  1   
  4   2   5  2   
  5   3   6  2   
  6   3   7  1   
  7   4   8  2   
  8   4   9  am  
  9   5   6  1   
 10   5  27  1   
 11   6  28  1   
 12   7  29  1   
 13   7  30  1   
 14   7  31  1   
 15   9  10  1   
 16   9  11  1   
 17  10  12  1   
 18  10  13  1   
 19  10  32  1   
 20  11  14  1   
 21  11  33  1   
 22  11  34  1   
 23  12  15  ar  
 24  12  16  ar  
 25  13  17  1   
 26  13  18  1   
 27  13  35  1   
 28  14  17  1   
 29  14  36  1   
 30  14  37  1   
 31  15  19  ar  
 32  15  38  1   
 33  16  20  ar  
 34  16  39  1   
 35  18  21  1   
 36  18  40  1   
 37  18  41  1   
 38  19  22  1   
 39  19  23  ar  
 40  20  23  ar  
 41  20  42  1   
 42  21  43  1   
 43  22  24  1   
 44  23  25  1   
 45  24  44  1   
 46  24  45  1   
 47  24  46  1   
 48  25  26  1   
 49  26  47  1   
 50  26  48  1   
 51  26  49  1   
@<TRIPOS>SUBSTRUCTURE
  1 ****  12 GROUP 4 **** **** 0

# MOE 2024.06 (io_trps.svl 2023.06)
