@<TRIPOS>MOLECULE
NONAME
43 45 1 0 0 
SMALL
USER_CHARGES


@<TRIPOS>ATOM
  1 O       -0.7110     0.2990     0.8970 O.2   1 <1>  -0.5700 
  2 C       -1.6470     0.8400     0.3350 C.2   1 <1>   0.6160 
  3 N       -2.7990     0.1130     0.1360 N.am  1 <1>  -0.6600 
  4 C       -1.5280     2.2160    -0.0930 C.2   1 <1>   0.0140 
  5 C       -4.1470     0.7000    -0.0480 C.3   1 <1>   0.1400 
  6 C       -2.9010    -1.3220     0.4800 C.3   1 <1>   0.1400 
  7 C       -2.0330     2.6790    -1.2850 C.2   1 <1>  -0.0410 
  8 C       -0.8490     3.1620     0.7370 C.2   1 <1>  -0.1500 
  9 C       -5.1190    -0.3180     0.5630 C.3   1 <1>  -0.0800 
 10 C       -4.3920    -1.6680     0.4190 C.3   1 <1>  -0.0800 
 11 N       -1.9200     3.9950    -1.6540 N.am  1 <1>  -0.5390 
 12 C       -0.7380     4.4650     0.3590 C.2   1 <1>  -0.1360 
 13 C       -6.5780    -0.2900     0.0090 C.3   1 <1>   0.2800 
 14 C       -4.7830    -2.3630    -0.8940 C.3   1 <1>  -0.1600 
 15 C       -1.2900     4.9190    -0.8690 C.2   1 <1>   0.6160 
 16 O       -6.5950     0.2140    -1.2780 O.3   1 <1>  -0.6800 
 17 C       -7.1410    -1.7210    -0.0750 C.3   1 <1>  -0.1600 
 18 C       -7.5190     0.5980     0.8520 C.3   1 <1>  -0.1600 
 19 C       -6.2910    -2.6700    -0.9480 C.3   1 <1>  -0.1600 
 20 O       -1.2320     6.0740    -1.2530 O.2   1 <1>  -0.5700 
 21 C       -7.1240     2.0830     0.9490 C.3   1 <1>  -0.2400 
 22 H       -4.2250     1.6580     0.4360 H     1 <1>   0.0800 
 23 H       -4.3140     0.8180    -1.1030 H     1 <1>   0.0800 
 24 H       -2.3200    -1.9150    -0.2060 H     1 <1>   0.0800 
 25 H       -2.5250    -1.4710     1.4790 H     1 <1>   0.0800 
 26 H       -2.5300     2.0120    -1.9710 H     1 <1>   0.1500 
 27 H       -0.4290     2.8050     1.6630 H     1 <1>   0.1500 
 28 H       -5.1620    -0.1170     1.6190 H     1 <1>   0.0800 
 29 H       -4.6380    -2.3220     1.2380 H     1 <1>   0.0800 
 30 H       -2.2870     4.3650    -2.5330 H     1 <1>   0.3700 
 31 H       -0.2370     5.2000     0.9580 H     1 <1>   0.1500 
 32 H       -4.5300    -1.7150    -1.7170 H     1 <1>   0.0800 
 33 H       -4.2240    -3.2750    -1.0170 H     1 <1>   0.0800 
 34 H       -7.4990     0.1530    -1.6340 H     1 <1>   0.4000 
 35 H       -7.1730    -2.1220     0.9230 H     1 <1>   0.0800 
 36 H       -8.1540    -1.7090    -0.4370 H     1 <1>   0.0800 
 37 H       -8.5140     0.5360     0.4450 H     1 <1>   0.0800 
 38 H       -7.5690     0.1980     1.8490 H     1 <1>   0.0800 
 39 H       -6.4640    -3.6820    -0.6240 H     1 <1>   0.0800 
 40 H       -6.6140    -2.6000    -1.9720 H     1 <1>   0.0800 
 41 H       -7.0150     2.5150    -0.0310 H     1 <1>   0.0800 
 42 H       -6.2000     2.2000     1.4860 H     1 <1>   0.0800 
 43 H       -7.8860     2.6290     1.4760 H     1 <1>   0.0800 
@<TRIPOS>BOND
  1   1   2  2   
  2   2   3  am  
  3   2   4  1   
  4   3   5  1   
  5   3   6  1   
  6   4   7  2   
  7   4   8  1   
  8   5   9  1   
  9   5  22  1   
 10   5  23  1   
 11   6  10  1   
 12   6  24  1   
 13   6  25  1   
 14   7  11  1   
 15   7  26  1   
 16   8  12  2   
 17   8  27  1   
 18   9  10  1   
 19   9  13  1   
 20   9  28  1   
 21  10  14  1   
 22  10  29  1   
 23  11  15  am  
 24  11  30  1   
 25  12  15  1   
 26  12  31  1   
 27  13  16  1   
 28  13  17  1   
 29  13  18  1   
 30  14  19  1   
 31  14  32  1   
 32  14  33  1   
 33  15  20  2   
 34  16  34  1   
 35  17  19  1   
 36  17  35  1   
 37  17  36  1   
 38  18  21  1   
 39  18  37  1   
 40  18  38  1   
 41  19  39  1   
 42  19  40  1   
 43  21  41  1   
 44  21  42  1   
 45  21  43  1   
@<TRIPOS>SUBSTRUCTURE
  1 ****   5 GROUP 4 **** **** 0

# MOE 2024.06 (io_trps.svl 2023.06)
