@<TRIPOS>MOLECULE
NONAME
52 54 1 0 0 
SMALL
USER_CHARGES


@<TRIPOS>ATOM
  1 O       -0.5710     0.7550     1.2220 O.2   1 <1>  -0.5700 
  2 C       -0.4470     1.9460     1.0910 C.2   1 <1>   0.5690 
  3 N       -1.5010     2.7720     1.2700 N.am  1 <1>  -0.7300 
  4 C        0.9050     2.5360     0.6790 C.3   1 <1>   0.1810 
  5 C       -1.4200     4.2470     1.1370 C.3   1 <1>   0.3640 
  6 O        1.0020     3.9250     0.9120 O.3   1 <1>  -0.5600 
  7 C       -2.6310     4.7300     0.3430 C.ar  1 <1>  -0.1440 
  8 C       -0.1020     4.6890     0.4480 C.3   1 <1>   0.2610 
  9 C       -3.3410     5.8390     0.7820 C.ar  1 <1>  -0.1500 
 10 C       -3.0330     4.0930    -0.8260 C.ar  1 <1>  -0.1500 
 11 C        0.1550     6.1970     0.6250 C.2   1 <1>   0.5690 
 12 C       -4.4310     6.3120     0.0720 C.ar  1 <1>   0.0830 
 13 C       -4.1300     4.5520    -1.5360 C.ar  1 <1>  -0.1500 
 14 O       -0.3610     6.7600     1.5680 O.2   1 <1>  -0.5700 
 15 N        0.9320     6.8970    -0.2750 N.am  1 <1>  -0.6600 
 16 O       -5.0520     7.4200     0.5400 O.3   1 <1>  -0.3620 
 17 C       -4.8440     5.6510    -1.0900 C.ar  1 <1>   0.0830 
 18 C        1.7080     6.2430    -1.3720 C.3   1 <1>   0.1400 
 19 C        1.0490     8.3780    -0.1520 C.3   1 <1>   0.1400 
 20 C       -4.8550     8.5950    -0.2130 C.3   1 <1>   0.0400 
 21 O       -5.9220     6.0330    -1.8190 O.3   1 <1>  -0.3630 
 22 C        3.0790     6.8790    -1.6440 C.3   1 <1>  -0.1600 
 23 C        2.1990     8.7410     0.7930 C.3   1 <1>  -0.1600 
 24 C       -7.1750     5.9870    -1.1730 C.3   1 <1>   0.0400 
 25 C        3.8980     7.1870    -0.3790 C.3   1 <1>  -0.1600 
 26 C        3.6020     8.5830     0.1880 C.3   1 <1>  -0.1600 
 27 H       -2.3990     2.3780     1.5520 H     1 <1>   0.3700 
 28 H        1.0690     2.3560    -0.3670 H     1 <1>   0.0800 
 29 H        1.6860     2.0560     1.2400 H     1 <1>   0.0800 
 30 H       -1.4550     4.6640     2.1290 H     1 <1>   0.0800 
 31 H       -0.2030     4.4970    -0.6040 H     1 <1>   0.0800 
 32 H       -3.0470     6.3600     1.6770 H     1 <1>   0.1500 
 33 H       -2.5000     3.2320    -1.1910 H     1 <1>   0.1500 
 34 H       -4.4420     4.0570    -2.4380 H     1 <1>   0.1500 
 35 H        1.8840     5.2140    -1.1170 H     1 <1>   0.0800 
 36 H        1.1220     6.2650    -2.2740 H     1 <1>   0.0800 
 37 H        1.1910     8.8270    -1.1200 H     1 <1>   0.0800 
 38 H        0.1300     8.7700     0.2510 H     1 <1>   0.0800 
 39 H       -5.3530     9.4050     0.2890 H     1 <1>   0.0800 
 40 H       -5.2690     8.4600    -1.1960 H     1 <1>   0.0800 
 41 H       -3.7990     8.7930    -0.2750 H     1 <1>   0.0800 
 42 H        3.6370     6.1840    -2.2470 H     1 <1>   0.0800 
 43 H        2.9600     7.7670    -2.2390 H     1 <1>   0.0800 
 44 H        2.0770     9.7690     1.0860 H     1 <1>   0.0800 
 45 H        2.1170     8.1480     1.6880 H     1 <1>   0.0800 
 46 H       -7.9410     6.1250    -1.9150 H     1 <1>   0.0800 
 47 H       -7.2300     6.7730    -0.4430 H     1 <1>   0.0800 
 48 H       -7.2880     5.0270    -0.7000 H     1 <1>   0.0800 
 49 H        3.7270     6.4350     0.3730 H     1 <1>   0.0800 
 50 H        4.9420     7.1540    -0.6370 H     1 <1>   0.0800 
 51 H        3.7390     9.3180    -0.5870 H     1 <1>   0.0800 
 52 H        4.3230     8.7980     0.9570 H     1 <1>   0.0800 
@<TRIPOS>BOND
  1   1   2  2   
  2   2   3  am  
  3   2   4  1   
  4   3   5  1   
  5   3  27  1   
  6   4   6  1   
  7   4  28  1   
  8   4  29  1   
  9   5   7  1   
 10   5   8  1   
 11   5  30  1   
 12   6   8  1   
 13   7   9  ar  
 14   7  10  ar  
 15   8  11  1   
 16   8  31  1   
 17   9  12  ar  
 18   9  32  1   
 19  10  13  ar  
 20  10  33  1   
 21  11  14  2   
 22  11  15  am  
 23  12  16  1   
 24  12  17  ar  
 25  13  17  ar  
 26  13  34  1   
 27  15  18  1   
 28  15  19  1   
 29  16  20  1   
 30  17  21  1   
 31  18  22  1   
 32  18  35  1   
 33  18  36  1   
 34  19  23  1   
 35  19  37  1   
 36  19  38  1   
 37  20  39  1   
 38  20  40  1   
 39  20  41  1   
 40  21  24  1   
 41  22  25  1   
 42  22  42  1   
 43  22  43  1   
 44  23  26  1   
 45  23  44  1   
 46  23  45  1   
 47  24  46  1   
 48  24  47  1   
 49  24  48  1   
 50  25  26  1   
 51  25  49  1   
 52  25  50  1   
 53  26  51  1   
 54  26  52  1   
@<TRIPOS>SUBSTRUCTURE
  1 ****   8 GROUP 4 **** **** 0

# MOE 2024.06 (io_trps.svl 2023.06)
