@<TRIPOS>MOLECULE
NONAME
60 63 1 0 0 
SMALL
USER_CHARGES


@<TRIPOS>ATOM
  1 O        4.3760     0.1670     0.9970 O.2   1 <1>  -0.5700 
  2 C        3.3430    -0.3160     0.5970 C.2   1 <1>   0.5690 
  3 N        2.4820     0.4530    -0.1360 N.am  1 <1>  -0.6600 
  4 C        3.0910    -1.8050     0.8380 C.3   1 <1>  -0.0190 
  5 C        2.3880     0.2550    -1.6110 C.3   1 <1>   0.1400 
  6 C        2.0930     1.8120     0.3330 C.3   1 <1>   0.1400 
  7 C        3.8780    -2.6820    -0.1530 C.3   1 <1>  -0.1600 
  8 C        1.5990    -2.2000     0.8350 C.3   1 <1>  -0.1600 
  9 C        3.7220     0.6000    -2.3100 C.3   1 <1>   0.3430 
 10 C        3.1860     2.8650     0.0940 C.3   1 <1>  -0.1600 
 11 C        3.5490    -4.1630     0.0480 C.3   1 <1>   0.1200 
 12 C        1.4340    -3.7170     0.9570 C.3   1 <1>   0.1200 
 13 N        4.5330     1.6110    -1.5550 N.4   1 <1>  -0.9590 
 14 C        3.8110     2.8880    -1.3040 C.3   1 <1>   0.3430 
 15 O        2.1700    -4.3320    -0.0540 O.3   1 <1>  -0.5600 
 16 C        5.8680     1.8150    -2.1640 C.3   1 <1>   0.4810 
 17 C        6.7350     2.6050    -1.2100 C.2   1 <1>  -0.2540 
 18 C        7.1450     3.8710    -1.3690 C.2   1 <1>  -0.2880 
 19 C        7.1950     1.8610     0.0490 C.3   1 <1>   0.1160 
 20 C        8.0610     4.5010    -0.3140 C.3   1 <1>  -0.0220 
 21 C        8.7360     2.0320     0.3150 C.3   1 <1>   0.0000 
 22 C        6.9950     2.8160     1.2710 C.3   1 <1>   0.0000 
 23 C        8.3400     3.4720     0.8160 C.3   1 <1>   0.0000 
 24 C        9.3170     1.1030     1.4070 C.3   1 <1>  -0.2400 
 25 C        9.6660     1.9540    -0.9160 C.3   1 <1>  -0.2400 
 26 H        3.4690    -2.0200     1.8230 H     1 <1>   0.0800 
 27 H        2.1220    -0.7640    -1.8320 H     1 <1>   0.0800 
 28 H        1.6050     0.8770    -2.0100 H     1 <1>   0.0800 
 29 H        1.1830     2.1100    -0.1610 H     1 <1>   0.0800 
 30 H        1.8810     1.7660     1.3890 H     1 <1>   0.0800 
 31 H        4.9340    -2.5310    -0.0120 H     1 <1>   0.0800 
 32 H        3.6360    -2.4200    -1.1650 H     1 <1>   0.0800 
 33 H        1.1200    -1.8900    -0.0750 H     1 <1>   0.0800 
 34 H        1.0920    -1.7180     1.6520 H     1 <1>   0.0800 
 35 H        3.5210     0.9510    -3.3080 H     1 <1>   0.0800 
 36 H        4.2950    -0.3090    -2.3950 H     1 <1>   0.0800 
 37 H        3.9620     2.7380     0.8270 H     1 <1>   0.0800 
 38 H        2.7560     3.8320     0.2810 H     1 <1>   0.0800 
 39 H        3.8720    -4.5160     1.0130 H     1 <1>   0.0800 
 40 H        4.0110    -4.7640    -0.7170 H     1 <1>   0.0800 
 41 H        0.4030    -3.9990     0.8310 H     1 <1>   0.0800 
 42 H        1.7820    -4.0800     1.9100 H     1 <1>   0.0800 
 43 H        4.6890     1.2060    -0.6060 H     1 <1>   0.4500 
 44 H        4.5050     3.7120    -1.3490 H     1 <1>   0.0800 
 45 H        3.0530     3.0460    -2.0530 H     1 <1>   0.0800 
 46 H        6.3390     0.8660    -2.3640 H     1 <1>   0.0800 
 47 H        5.7690     2.3520    -3.0920 H     1 <1>   0.0800 
 48 H        6.9070     4.5180    -2.1980 H     1 <1>   0.1500 
 49 H        6.8150     0.8640     0.1820 H     1 <1>   0.0000 
 50 H        7.5890     5.3720     0.1050 H     1 <1>   0.0800 
 51 H        8.9900     4.8060    -0.7630 H     1 <1>   0.0800 
 52 H        6.1450     3.4710     1.1920 H     1 <1>   0.0000 
 53 H        7.0290     2.3330     2.2300 H     1 <1>   0.0000 
 54 H        8.9410     3.8490     1.6250 H     1 <1>   0.0000 
 55 H       10.3110     1.4220     1.6640 H     1 <1>   0.0800 
 56 H        9.3740     0.0940     1.0370 H     1 <1>   0.0800 
 57 H        8.7410     1.0830     2.3120 H     1 <1>   0.0800 
 58 H       10.6540     2.2810    -0.6430 H     1 <1>   0.0800 
 59 H        9.3430     2.5560    -1.7420 H     1 <1>   0.0800 
 60 H        9.7330     0.9370    -1.2590 H     1 <1>   0.0800 
@<TRIPOS>BOND
  1   1   2  2   
  2   2   3  am  
  3   2   4  1   
  4   3   5  1   
  5   3   6  1   
  6   4   7  1   
  7   4   8  1   
  8   4  26  1   
  9   5   9  1   
 10   5  27  1   
 11   5  28  1   
 12   6  10  1   
 13   6  29  1   
 14   6  30  1   
 15   7  11  1   
 16   7  31  1   
 17   7  32  1   
 18   8  12  1   
 19   8  33  1   
 20   8  34  1   
 21   9  13  1   
 22   9  35  1   
 23   9  36  1   
 24  10  14  1   
 25  10  37  1   
 26  10  38  1   
 27  11  15  1   
 28  11  39  1   
 29  11  40  1   
 30  12  15  1   
 31  12  41  1   
 32  12  42  1   
 33  13  14  1   
 34  13  16  1   
 35  13  43  1   
 36  14  44  1   
 37  14  45  1   
 38  16  17  1   
 39  16  46  1   
 40  16  47  1   
 41  17  18  2   
 42  17  19  1   
 43  18  20  1   
 44  18  48  1   
 45  19  21  1   
 46  19  22  1   
 47  19  49  1   
 48  20  23  1   
 49  20  50  1   
 50  20  51  1   
 51  21  23  1   
 52  21  24  1   
 53  21  25  1   
 54  22  23  1   
 55  22  52  1   
 56  22  53  1   
 57  23  54  1   
 58  24  55  1   
 59  24  56  1   
 60  24  57  1   
 61  25  58  1   
 62  25  59  1   
 63  25  60  1   
@<TRIPOS>SUBSTRUCTURE
  1 ****   1 GROUP 4 **** **** 0

# MOE 2024.06 (io_trps.svl 2023.06)
