@<TRIPOS>MOLECULE
NONAME
47 49 1 0 0 
SMALL
USER_CHARGES


@<TRIPOS>ATOM
  1 CL      -4.1390    -2.3780     1.7740 Cl    1 <1>  -0.1770 
  2 C       -3.7310    -0.7750     1.2080 C.ar  1 <1>   0.1770 
  3 C       -3.1300    -0.5910    -0.0300 C.ar  1 <1>  -0.1440 
  4 C       -4.0310     0.2920     2.0380 C.ar  1 <1>  -0.1500 
  5 C       -2.8380     0.7130    -0.4090 C.ar  1 <1>   0.1770 
  6 C       -2.8060    -1.7820    -0.9270 C.3   1 <1>   0.2840 
  7 C       -3.7290     1.5830     1.6380 C.ar  1 <1>  -0.1500 
  8 CL      -2.0910     1.0500    -1.9530 Cl    1 <1>  -0.1770 
  9 C       -3.1300     1.7920     0.4080 C.ar  1 <1>  -0.1500 
 10 N       -4.0470    -2.3310    -1.5480 N.am  1 <1>  -0.4690 
 11 C       -4.3210    -3.6930    -1.4590 C.2   1 <1>   0.6160 
 12 C       -4.9100    -1.4890    -2.2140 C.2   1 <1>  -0.0410 
 13 O       -3.4700    -4.4390    -0.9870 O.2   1 <1>  -0.5700 
 14 C       -5.5820    -4.1760    -1.9360 C.2   1 <1>   0.0290 
 15 C       -6.0800    -1.9510    -2.7310 C.2   1 <1>  -0.1500 
 16 C       -5.9330    -5.5560    -1.7430 C.2   1 <1>   0.6160 
 17 C       -6.4260    -3.3070    -2.5820 C.2   1 <1>  -0.1500 
 18 O       -6.2780    -6.2060    -2.7150 O.2   1 <1>  -0.5700 
 19 N       -5.9860    -6.1550    -0.4970 N.am  1 <1>  -0.6600 
 20 C       -6.2480    -7.6150    -0.3390 C.3   1 <1>   0.1400 
 21 C       -5.8580    -5.3900     0.7800 C.3   1 <1>   0.1400 
 22 C       -7.6140    -7.8360     0.3400 C.3   1 <1>  -0.0800 
 23 C       -6.6250    -6.0680     1.9230 C.3   1 <1>  -0.1600 
 24 C       -7.8990    -6.7350     1.3970 C.3   1 <1>   0.2000 
 25 C       -7.7160    -9.2700     0.8900 C.3   1 <1>   0.1200 
 26 O       -8.5970    -7.2300     2.4840 O.3   1 <1>  -0.6800 
 27 O       -7.4140   -10.1870    -0.1040 O.3   1 <1>  -0.6800 
 28 H       -4.4970     0.1090     2.9900 H     1 <1>   0.1500 
 29 H       -2.3120    -2.5290    -0.3310 H     1 <1>   0.0800 
 30 H       -2.1240    -1.5110    -1.7120 H     1 <1>   0.0800 
 31 H       -3.9590     2.4180     2.2800 H     1 <1>   0.1500 
 32 H       -2.8880     2.7880     0.0810 H     1 <1>   0.1500 
 33 H       -4.6320    -0.4520    -2.3150 H     1 <1>   0.1500 
 34 H       -6.7570    -1.2970    -3.2540 H     1 <1>   0.1500 
 35 H       -7.3640    -3.6520    -2.9830 H     1 <1>   0.1500 
 36 H       -6.2230    -8.1170    -1.2910 H     1 <1>   0.0800 
 37 H       -5.4630    -8.0380     0.2640 H     1 <1>   0.0800 
 38 H       -4.8180    -5.3020     1.0450 H     1 <1>   0.0800 
 39 H       -6.2540    -4.3980     0.6380 H     1 <1>   0.0800 
 40 H       -8.3670    -7.7280    -0.4200 H     1 <1>   0.0800 
 41 H       -6.8710    -5.3260     2.6620 H     1 <1>   0.0800 
 42 H       -5.9870    -6.8030     2.3800 H     1 <1>   0.0800 
 43 H       -8.5210    -5.9790     0.9440 H     1 <1>   0.0800 
 44 H       -8.7130    -9.4790     1.2420 H     1 <1>   0.0800 
 45 H       -7.0180    -9.4210     1.6950 H     1 <1>   0.0800 
 46 H       -8.0030    -7.7470     3.0590 H     1 <1>   0.4000 
 47 H       -8.0330   -10.0960    -0.8560 H     1 <1>   0.4000 
@<TRIPOS>BOND
  1   1   2  1   
  2   2   3  ar  
  3   2   4  ar  
  4   3   5  ar  
  5   3   6  1   
  6   4   7  ar  
  7   4  28  1   
  8   5   8  1   
  9   5   9  ar  
 10   6  10  1   
 11   6  29  1   
 12   6  30  1   
 13   7   9  ar  
 14   7  31  1   
 15   9  32  1   
 16  10  11  am  
 17  10  12  1   
 18  11  13  2   
 19  11  14  1   
 20  12  15  2   
 21  12  33  1   
 22  14  16  1   
 23  14  17  2   
 24  15  17  1   
 25  15  34  1   
 26  16  18  2   
 27  16  19  am  
 28  17  35  1   
 29  19  20  1   
 30  19  21  1   
 31  20  22  1   
 32  20  36  1   
 33  20  37  1   
 34  21  23  1   
 35  21  38  1   
 36  21  39  1   
 37  22  24  1   
 38  22  25  1   
 39  22  40  1   
 40  23  24  1   
 41  23  41  1   
 42  23  42  1   
 43  24  26  1   
 44  24  43  1   
 45  25  27  1   
 46  25  44  1   
 47  25  45  1   
 48  26  46  1   
 49  27  47  1   
@<TRIPOS>SUBSTRUCTURE
  1 ****  11 GROUP 4 **** **** 0

# MOE 2024.06 (io_trps.svl 2023.06)
