@<TRIPOS>MOLECULE
NONAME
34 34 1 0 0 
SMALL
USER_CHARGES


@<TRIPOS>ATOM
  1 O        1.5050    -0.5580    -2.7990 O.2   1 <1>  -0.5700 
  2 C        1.9480    -0.9790    -1.7560 C.2   1 <1>   0.5690 
  3 N        2.4810    -0.1730    -0.7910 N.am  1 <1>  -0.4940 
  4 C        1.9320    -2.4980    -1.4640 C.3   1 <1>   0.2810 
  5 C        2.6700     1.2100    -0.7560 C.2   1 <1>   0.2040 
  6 N        1.1740    -2.8420    -0.2270 N.am  1 <1>  -0.7300 
  7 C        1.3510    -3.3510    -2.5980 C.3   1 <1>  -0.2400 
  8 O        2.4210     1.9880    -1.7830 O.3   1 <1>  -0.0190 
  9 C        3.1230     1.9870     0.2470 C.2   1 <1>  -0.1810 
 10 C        1.6160    -2.6410     1.0340 C.2   1 <1>   0.5690 
 11 N        2.6870     3.2430    -1.5170 N.2   1 <1>  -0.4100 
 12 C        3.1100     3.2670    -0.3040 C.2   1 <1>   0.1080 
 13 C        3.5490     1.5770     1.6470 C.3   1 <1>   0.0210 
 14 O        2.6670    -2.0920     1.2580 O.2   1 <1>  -0.5700 
 15 C        0.7510    -3.0920     2.1800 C.3   1 <1>  -0.1790 
 16 C        3.5290     4.5380     0.4030 C.3   1 <1>  -0.0590 
 17 C        5.0630     1.3690     1.7100 C.3   1 <1>  -0.2400 
 18 H        2.7480    -0.6720     0.0680 H     1 <1>   0.3700 
 19 H        2.9560    -2.7960    -1.3190 H     1 <1>   0.0800 
 20 H        0.2400    -3.2220    -0.3880 H     1 <1>   0.3700 
 21 H        0.3290    -3.0770    -2.7890 H     1 <1>   0.0800 
 22 H        1.4120    -4.3960    -2.3560 H     1 <1>   0.0800 
 23 H        1.9140    -3.1790    -3.4990 H     1 <1>   0.0800 
 24 H        3.2510     2.3320     2.3530 H     1 <1>   0.0800 
 25 H        3.0540     0.6610     1.9200 H     1 <1>   0.0800 
 26 H        0.4900    -4.1260     2.0570 H     1 <1>   0.0800 
 27 H       -0.1420    -2.4970     2.2160 H     1 <1>   0.0800 
 28 H        1.2850    -2.9760     3.1060 H     1 <1>   0.0800 
 29 H        4.5610     4.4720     0.6930 H     1 <1>   0.0800 
 30 H        2.9210     4.6890     1.2750 H     1 <1>   0.0800 
 31 H        3.4070     5.3800    -0.2550 H     1 <1>   0.0800 
 32 H        5.5780     2.2770     1.4540 H     1 <1>   0.0800 
 33 H        5.3580     0.5990     1.0190 H     1 <1>   0.0800 
 34 H        5.3540     1.0720     2.7010 H     1 <1>   0.0800 
@<TRIPOS>BOND
  1   1   2  2   
  2   2   3  am  
  3   2   4  1   
  4   3   5  1   
  5   3  18  1   
  6   4   6  1   
  7   4   7  1   
  8   4  19  1   
  9   5   8  1   
 10   5   9  2   
 11   6  10  am  
 12   6  20  1   
 13   7  21  1   
 14   7  22  1   
 15   7  23  1   
 16   8  11  1   
 17   9  12  1   
 18   9  13  1   
 19  10  14  2   
 20  10  15  1   
 21  11  12  2   
 22  12  16  1   
 23  13  17  1   
 24  13  24  1   
 25  13  25  1   
 26  15  26  1   
 27  15  27  1   
 28  15  28  1   
 29  16  29  1   
 30  16  30  1   
 31  16  31  1   
 32  17  32  1   
 33  17  33  1   
 34  17  34  1   
@<TRIPOS>SUBSTRUCTURE
  1 ****   3 GROUP 4 **** **** 0

# MOE 2024.06 (io_trps.svl 2023.06)
