@<TRIPOS>MOLECULE
STOCK7S-74041
46 48 1 0 0 
SMALL
USER_CHARGES


@<TRIPOS>ATOM
  1 O        1.0610     0.5460     1.3160 O.2   1 <1>  -0.5700 
  2 C        1.3480    -0.2870     0.4880 C.2   1 <1>   0.5690 
  3 N        0.6520    -1.4600     0.3690 N.am  1 <1>  -0.6600 
  4 C        2.5210     0.0130    -0.4300 C.3   1 <1>  -0.0990 
  5 C        0.9220    -2.4730    -0.6820 C.3   1 <1>   0.1400 
  6 C       -0.4470    -1.7870     1.3150 C.3   1 <1>   0.1400 
  7 C        3.6880    -0.9750    -0.2620 C.3   1 <1>  -0.1600 
  8 C        2.2840    -3.1380    -0.4600 C.3   1 <1>  -0.1600 
  9 C       -1.7890    -1.4010     0.6930 C.3   1 <1>  -0.1600 
 10 C        3.4700    -2.3120    -0.9850 C.3   1 <1>  -0.1600 
 11 C       -2.9270    -1.6240     1.6890 C.3   1 <1>   0.1400 
 12 N       -4.2320    -1.3090     1.0460 N.am  1 <1>  -0.4690 
 13 C       -4.9300    -2.2970     0.3540 C.2   1 <1>   0.6160 
 14 C       -4.7240    -0.0310     1.1430 C.2   1 <1>  -0.0410 
 15 O       -4.4220    -3.4110     0.2750 O.2   1 <1>  -0.5700 
 16 C       -6.2090    -1.9790    -0.2440 C.2   1 <1>   0.0140 
 17 C       -5.9140     0.2960     0.5830 C.2   1 <1>  -0.1500 
 18 C       -6.6650    -0.6750    -0.1100 C.2   1 <1>   0.0770 
 19 C       -7.0520    -2.8950    -0.9660 C.2   1 <1>  -0.1380 
 20 O       -7.8330    -0.2710    -0.6250 O.3   1 <1>  -0.2270 
 21 C       -8.2260    -2.4380    -1.4690 C.2   1 <1>  -0.1360 
 22 C       -6.6710    -4.3560    -1.1830 C.3   1 <1>  -0.1020 
 23 C       -8.6400    -1.0900    -1.3010 C.2   1 <1>   0.7060 
 24 O       -9.6840    -0.6470    -1.7380 O.2   1 <1>  -0.5700 
 25 H        2.8750     0.9990    -0.1920 H     1 <1>   0.0800 
 26 H        2.1830     0.0340    -1.4490 H     1 <1>   0.0800 
 27 H        0.8810    -2.0110    -1.6530 H     1 <1>   0.0800 
 28 H        0.1550    -3.2290    -0.6510 H     1 <1>   0.0800 
 29 H       -0.3040    -1.2450     2.2350 H     1 <1>   0.0800 
 30 H       -0.4250    -2.8380     1.5460 H     1 <1>   0.0800 
 31 H        3.8630    -1.1480     0.7860 H     1 <1>   0.0800 
 32 H        4.5760    -0.5200    -0.6650 H     1 <1>   0.0800 
 33 H        2.2810    -4.0740    -0.9910 H     1 <1>   0.0800 
 34 H        2.4140    -3.3630     0.5840 H     1 <1>   0.0800 
 35 H       -1.9610    -2.0010    -0.1830 H     1 <1>   0.0800 
 36 H       -1.7610    -0.3630     0.4140 H     1 <1>   0.0800 
 37 H        4.3640    -2.9020    -0.8740 H     1 <1>   0.0800 
 38 H        3.3400    -2.1300    -2.0380 H     1 <1>   0.0800 
 39 H       -2.7900    -0.9900     2.5480 H     1 <1>   0.0800 
 40 H       -2.9280    -2.6450     2.0310 H     1 <1>   0.0800 
 41 H       -4.1340     0.6990     1.6750 H     1 <1>   0.1500 
 42 H       -6.3120     1.2940     0.6510 H     1 <1>   0.1500 
 43 H       -8.9050    -3.0620    -2.0180 H     1 <1>   0.1500 
 44 H       -6.5450    -4.8510    -0.2360 H     1 <1>   0.0800 
 45 H       -5.7490    -4.4210    -1.7330 H     1 <1>   0.0800 
 46 H       -7.4290    -4.8800    -1.7360 H     1 <1>   0.0800 
@<TRIPOS>BOND
  1   1   2  2   
  2   2   3  am  
  3   2   4  1   
  4   3   5  1   
  5   3   6  1   
  6   4   7  1   
  7   4  25  1   
  8   4  26  1   
  9   5   8  1   
 10   5  27  1   
 11   5  28  1   
 12   6   9  1   
 13   6  29  1   
 14   6  30  1   
 15   7  10  1   
 16   7  31  1   
 17   7  32  1   
 18   8  10  1   
 19   8  33  1   
 20   8  34  1   
 21   9  11  1   
 22   9  35  1   
 23   9  36  1   
 24  10  37  1   
 25  10  38  1   
 26  11  12  1   
 27  11  39  1   
 28  11  40  1   
 29  12  13  am  
 30  12  14  1   
 31  13  15  2   
 32  13  16  1   
 33  14  17  2   
 34  14  41  1   
 35  16  18  2   
 36  16  19  1   
 37  17  18  1   
 38  17  42  1   
 39  18  20  1   
 40  19  21  2   
 41  19  22  1   
 42  20  23  1   
 43  21  23  1   
 44  21  43  1   
 45  22  44  1   
 46  22  45  1   
 47  22  46  1   
 48  23  24  2   
@<TRIPOS>SUBSTRUCTURE
  1 ****   9 GROUP 4 **** **** 0

# MOE 2024.06 (io_trps.svl 2023.06)
