@<TRIPOS>MOLECULE
NONAME
42 46 1 0 0 
SMALL
USER_CHARGES


@<TRIPOS>ATOM
  1 S       -0.1330     0.8060    -2.3630 S.3   1 <1>  -0.0800 
  2 C       -1.1140     1.2720    -0.9820 C.2   1 <1>  -0.1400 
  3 C       -1.3370    -0.3770    -2.8590 C.2   1 <1>  -0.1100 
  4 C       -2.2540     0.5700    -0.9520 C.2   1 <1>  -0.1810 
  5 C       -0.6790     2.3390     0.0180 C.3   1 <1>   0.4600 
  6 C       -2.3870    -0.3780    -2.0150 C.2   1 <1>  -0.1500 
  7 C       -3.2580     0.8240     0.1490 C.3   1 <1>   0.0210 
  8 O       -1.6090     2.3590     1.0850 O.3   1 <1>  -0.5600 
  9 C       -0.6270     3.7310    -0.6270 C.3   1 <1>  -0.1600 
 10 C        0.6780     1.9910     0.6360 C.3   1 <1>  -0.1600 
 11 C       -2.9750     2.2020     0.7800 C.3   1 <1>   0.1200 
 12 C       -0.1540     4.7960     0.3630 C.3   1 <1>   0.1400 
 13 C        1.1430     3.0680     1.6180 C.3   1 <1>   0.1400 
 14 N        1.1620     4.3920     0.9320 N.am  1 <1>  -0.6600 
 15 C        2.3120     5.1710     0.8500 C.2   1 <1>   0.7160 
 16 O        3.3590     4.6800     1.2490 O.2   1 <1>  -0.5700 
 17 C        2.3040     6.5440     0.3180 C.2   1 <1>   0.4300 
 18 N        1.5410     7.5160     0.7910 N.2   1 <1>  -0.7070 
 19 N        3.0910     6.9090    -0.7210 N.2   1 <1>  -0.5650 
 20 N        1.8820     8.5460     0.0420 N.pl3 1 <1>   0.6010 
 21 C        2.8130     8.1580    -0.8700 C.2   1 <1>   0.3120 
 22 C        1.4350     9.8510     0.0650 C.2   1 <1>  -0.1810 
 23 N        3.3510     9.0100    -1.8070 N.2   1 <1>  -0.5760 
 24 C        1.9600    10.7070    -0.8510 C.2   1 <1>  -0.1360 
 25 C        2.9300    10.2310    -1.7790 C.2   1 <1>   0.3760 
 26 H       -1.1270    -0.9540    -3.7410 H     1 <1>   0.1500 
 27 H       -3.2550    -1.0090    -2.0960 H     1 <1>   0.1500 
 28 H       -3.1790     0.0560     0.8980 H     1 <1>   0.0800 
 29 H       -4.2560     0.8130    -0.2490 H     1 <1>   0.0800 
 30 H       -1.5900     3.9920    -1.0210 H     1 <1>   0.0800 
 31 H        0.0580     3.7080    -1.4550 H     1 <1>   0.0800 
 32 H        1.4180     1.8960    -0.1380 H     1 <1>   0.0800 
 33 H        0.6080     1.0440     1.1370 H     1 <1>   0.0800 
 34 H       -3.5300     2.3110     1.6950 H     1 <1>   0.0800 
 35 H       -3.2660     2.9880     0.1060 H     1 <1>   0.0800 
 36 H       -0.8660     4.8960     1.1660 H     1 <1>   0.0800 
 37 H       -0.0880     5.7410    -0.1450 H     1 <1>   0.0800 
 38 H        2.1170     2.8120     1.9970 H     1 <1>   0.0800 
 39 H        0.4660     3.1170     2.4550 H     1 <1>   0.0800 
 40 H        0.7020    10.0990     0.8100 H     1 <1>   0.1500 
 41 H        1.6720    11.7420    -0.9050 H     1 <1>   0.1500 
 42 H        3.3240    10.9350    -2.4910 H     1 <1>   0.0600 
@<TRIPOS>BOND
  1   1   2  1   
  2   1   3  1   
  3   2   4  2   
  4   2   5  1   
  5   3   6  2   
  6   3  26  1   
  7   4   6  1   
  8   4   7  1   
  9   5   8  1   
 10   5   9  1   
 11   5  10  1   
 12   6  27  1   
 13   7  11  1   
 14   7  28  1   
 15   7  29  1   
 16   8  11  1   
 17   9  12  1   
 18   9  30  1   
 19   9  31  1   
 20  10  13  1   
 21  10  32  1   
 22  10  33  1   
 23  11  34  1   
 24  11  35  1   
 25  12  14  1   
 26  12  36  1   
 27  12  37  1   
 28  13  14  1   
 29  13  38  1   
 30  13  39  1   
 31  14  15  am  
 32  15  16  2   
 33  15  17  1   
 34  17  18  2   
 35  17  19  1   
 36  18  20  1   
 37  19  21  2   
 38  20  21  1   
 39  20  22  1   
 40  21  23  1   
 41  22  24  2   
 42  22  40  1   
 43  23  25  2   
 44  24  25  1   
 45  24  41  1   
 46  25  42  1   
@<TRIPOS>SUBSTRUCTURE
  1 ****  12 GROUP 4 **** **** 0

# MOE 2024.06 (io_trps.svl 2023.06)
