@<TRIPOS>MOLECULE
NONAME
48 50 1 0 0 
SMALL
USER_CHARGES


@<TRIPOS>ATOM
  1 O       -3.7160     3.0740    -1.0120 O.2   1 <1>  -0.5700 
  2 C       -2.6380     2.5350    -1.0680 C.2   1 <1>   0.5690 
  3 N       -2.4480     1.3800    -1.7520 N.am  1 <1>  -0.7300 
  4 C       -1.4550     3.1330    -0.3260 C.3   1 <1>   0.0440 
  5 C       -3.5070     0.5140    -2.3120 C.3   1 <1>   0.2200 
  6 C       -0.6680     2.0450     0.3990 C.ar  1 <1>  -0.1440 
  7 C       -3.6530    -0.7540    -1.4790 C.3   1 <1>  -0.0800 
  8 C       -3.0110    -0.0750    -3.6260 C.3   1 <1>   0.1200 
  9 C       -1.0680     1.6250     1.6570 C.ar  1 <1>  -0.1500 
 10 C        0.4230     1.4410    -0.2060 C.ar  1 <1>  -0.1500 
 11 C       -2.5230    -1.6400    -2.0150 C.3   1 <1>   0.1200 
 12 C       -3.6320    -0.5650     0.0500 C.3   1 <1>  -0.0160 
 13 O       -2.1670    -1.1290    -3.2680 O.3   1 <1>  -0.5600 
 14 C       -0.4000     0.5980     2.3020 C.ar  1 <1>  -0.1440 
 15 C        1.1000     0.4150     0.4310 C.ar  1 <1>  -0.1440 
 16 C       -3.7000    -1.8950     0.7810 C.ar  1 <1>  -0.1440 
 17 C        0.6840    -0.0040     1.6840 C.ar  1 <1>  -0.1500 
 18 C       -0.8670     0.1420     3.6720 C.3   1 <1>  -0.0970 
 19 C        2.2870    -0.2470    -0.2460 C.3   1 <1>  -0.0970 
 20 C       -4.8800    -2.5930     0.9300 C.ar  1 <1>  -0.1500 
 21 C       -2.5740    -2.4710     1.3350 C.ar  1 <1>  -0.1500 
 22 C       -4.8780    -3.8030     1.6050 C.ar  1 <1>   0.1600 
 23 C       -2.6800    -3.6860     1.9900 C.ar  1 <1>   0.1600 
 24 N       -3.8050    -4.3670     2.1380 N.ar  1 <1>  -0.6200 
 25 H       -1.5330     0.9230    -1.7000 H     1 <1>   0.3700 
 26 H       -0.8280     3.6450    -1.0310 H     1 <1>   0.0800 
 27 H       -1.8150     3.8560     0.3820 H     1 <1>   0.0800 
 28 H       -4.4300     1.0580    -2.4220 H     1 <1>   0.0800 
 29 H       -4.5830    -1.2240    -1.7460 H     1 <1>   0.0800 
 30 H       -2.4710     0.6380    -4.2230 H     1 <1>   0.0800 
 31 H       -3.8290    -0.4850    -4.1920 H     1 <1>   0.0800 
 32 H       -1.9130     2.0900     2.1350 H     1 <1>   0.1500 
 33 H        0.7460     1.7630    -1.1810 H     1 <1>   0.1500 
 34 H       -2.8340    -2.6650    -2.1270 H     1 <1>   0.0800 
 35 H       -1.6510    -1.5910    -1.3860 H     1 <1>   0.0800 
 36 H       -4.4590     0.0560     0.3480 H     1 <1>   0.0800 
 37 H       -2.7310    -0.0650     0.3520 H     1 <1>   0.0800 
 38 H        1.2080    -0.8010     2.1800 H     1 <1>   0.1500 
 39 H       -0.2010    -0.5950     4.0820 H     1 <1>   0.0800 
 40 H       -1.8510    -0.2870     3.5990 H     1 <1>   0.0800 
 41 H       -0.9030     0.9800     4.3450 H     1 <1>   0.0800 
 42 H        2.9330    -0.7030     0.4820 H     1 <1>   0.0800 
 43 H        2.8570     0.4810    -0.7950 H     1 <1>   0.0800 
 44 H        1.9420    -1.0040    -0.9270 H     1 <1>   0.0800 
 45 H       -5.8000    -2.2080     0.5300 H     1 <1>   0.1500 
 46 H       -1.6180    -1.9850     1.2640 H     1 <1>   0.1500 
 47 H       -5.8070    -4.3340     1.7130 H     1 <1>   0.1500 
 48 H       -1.7920    -4.1210     2.4150 H     1 <1>   0.1500 
@<TRIPOS>BOND
  1   1   2  2   
  2   2   3  am  
  3   2   4  1   
  4   3   5  1   
  5   3  25  1   
  6   4   6  1   
  7   4  26  1   
  8   4  27  1   
  9   5   7  1   
 10   5   8  1   
 11   5  28  1   
 12   6   9  ar  
 13   6  10  ar  
 14   7  11  1   
 15   7  12  1   
 16   7  29  1   
 17   8  13  1   
 18   8  30  1   
 19   8  31  1   
 20   9  14  ar  
 21   9  32  1   
 22  10  15  ar  
 23  10  33  1   
 24  11  13  1   
 25  11  34  1   
 26  11  35  1   
 27  12  16  1   
 28  12  36  1   
 29  12  37  1   
 30  14  17  ar  
 31  14  18  1   
 32  15  17  ar  
 33  15  19  1   
 34  16  20  ar  
 35  16  21  ar  
 36  17  38  1   
 37  18  39  1   
 38  18  40  1   
 39  18  41  1   
 40  19  42  1   
 41  19  43  1   
 42  19  44  1   
 43  20  22  ar  
 44  20  45  1   
 45  21  23  ar  
 46  21  46  1   
 47  22  24  ar  
 48  22  47  1   
 49  23  24  ar  
 50  23  48  1   
@<TRIPOS>SUBSTRUCTURE
  1 ****  12 GROUP 4 **** **** 0

# MOE 2024.06 (io_trps.svl 2023.06)
