@<TRIPOS>MOLECULE
NONAME
52 55 1 0 0 
SMALL
USER_CHARGES


@<TRIPOS>ATOM
  1 O       -0.8770     0.2440    -0.4170 O.2   1 <1>  -0.5700 
  2 C       -1.7620     0.9270     0.0650 C.2   1 <1>   0.5440 
  3 N       -2.8700     0.2900     0.5820 N.am  1 <1>  -0.6600 
  4 C       -1.6400     2.3730     0.0570 C.ar  1 <1>   0.0860 
  5 C       -2.8690    -1.1780     0.8720 C.3   1 <1>   0.1400 
  6 C       -4.2510     0.8560     0.5010 C.3   1 <1>   0.1400 
  7 C       -2.0830     3.1500     1.1190 C.ar  1 <1>  -0.1500 
  8 C       -1.0530     3.0320    -1.0450 C.ar  1 <1>  -0.1500 
  9 C       -3.8140    -1.9250    -0.0840 C.3   1 <1>   0.3440 
 10 C       -5.1380     0.0050    -0.4400 C.3   1 <1>   0.2000 
 11 C       -1.9710     4.5340     1.0740 C.ar  1 <1>   0.2270 
 12 C       -0.9280     4.4010    -1.1000 C.ar  1 <1>  -0.1500 
 13 O       -5.0910    -1.3430    -0.0440 O.3   1 <1>  -0.5600 
 14 C       -3.9100    -3.3990     0.2970 C.ar  1 <1>  -0.1440 
 15 C       -6.6250     0.4640    -0.5230 C.3   1 <1>   0.0000 
 16 N       -2.3580     5.4610     1.9940 N.2   1 <1>  -0.5650 
 17 C       -1.4000     5.1510    -0.0220 C.ar  1 <1>  -0.1520 
 18 C       -3.0230    -4.3090    -0.2620 C.ar  1 <1>  -0.1500 
 19 C       -4.8570    -3.8550     1.2050 C.ar  1 <1>  -0.1500 
 20 C       -7.3470     0.3420     0.8320 C.3   1 <1>  -0.2400 
 21 C       -6.7250     1.9260    -0.9970 C.3   1 <1>  -0.2400 
 22 C       -7.3750    -0.4090    -1.5480 C.3   1 <1>  -0.2400 
 23 C       -2.0230     6.5870     1.4680 C.2   1 <1>   0.0360 
 24 N       -1.4380     6.4770     0.2490 N.pl3 1 <1>   0.0330 
 25 C       -3.0810    -5.6490     0.0790 C.ar  1 <1>  -0.1500 
 26 C       -4.9170    -5.1940     1.5470 C.ar  1 <1>  -0.1500 
 27 C       -4.0280    -6.0930     0.9850 C.ar  1 <1>  -0.1500 
 28 H       -1.8770    -1.5840     0.7800 H     1 <1>   0.0800 
 29 H       -3.1950    -1.3400     1.8840 H     1 <1>   0.0800 
 30 H       -4.6770     0.8760     1.4870 H     1 <1>   0.0800 
 31 H       -4.2150     1.8640     0.1310 H     1 <1>   0.0800 
 32 H       -2.5160     2.7020     1.9930 H     1 <1>   0.1500 
 33 H       -0.6930     2.4260    -1.8600 H     1 <1>   0.1500 
 34 H       -3.4430    -1.8420    -1.0920 H     1 <1>   0.0800 
 35 H       -4.7210     0.0610    -1.4320 H     1 <1>   0.0800 
 36 H       -0.4780     4.8870    -1.9480 H     1 <1>   0.1500 
 37 H       -2.2800    -3.9780    -0.9670 H     1 <1>   0.1500 
 38 H       -5.5550    -3.1640     1.6450 H     1 <1>   0.1500 
 39 H       -8.3860     0.6020     0.7300 H     1 <1>   0.0800 
 40 H       -6.9130     0.9930     1.5680 H     1 <1>   0.0800 
 41 H       -7.2910    -0.6690     1.1970 H     1 <1>   0.0800 
 42 H       -7.7540     2.2020    -1.1490 H     1 <1>   0.0800 
 43 H       -6.2010     2.0580    -1.9280 H     1 <1>   0.0800 
 44 H       -6.3110     2.6020    -0.2710 H     1 <1>   0.0800 
 45 H       -8.3980    -0.0920    -1.6470 H     1 <1>   0.0800 
 46 H       -7.3740    -1.4400    -1.2390 H     1 <1>   0.0800 
 47 H       -6.9040    -0.3480    -2.5130 H     1 <1>   0.0800 
 48 H       -2.1820     7.5450     1.9340 H     1 <1>   0.1500 
 49 H       -1.0890     7.2360    -0.3430 H     1 <1>   0.2700 
 50 H       -2.3900    -6.3460    -0.3600 H     1 <1>   0.1500 
 51 H       -5.6570    -5.5360     2.2500 H     1 <1>   0.1500 
 52 H       -4.0750    -7.1340     1.2500 H     1 <1>   0.1500 
@<TRIPOS>BOND
  1   1   2  2   
  2   2   3  am  
  3   2   4  1   
  4   3   5  1   
  5   3   6  1   
  6   4   7  ar  
  7   4   8  ar  
  8   5   9  1   
  9   5  28  1   
 10   5  29  1   
 11   6  10  1   
 12   6  30  1   
 13   6  31  1   
 14   7  11  ar  
 15   7  32  1   
 16   8  12  ar  
 17   8  33  1   
 18   9  13  1   
 19   9  14  1   
 20   9  34  1   
 21  10  13  1   
 22  10  15  1   
 23  10  35  1   
 24  11  16  1   
 25  11  17  ar  
 26  12  17  ar  
 27  12  36  1   
 28  14  18  ar  
 29  14  19  ar  
 30  15  20  1   
 31  15  21  1   
 32  15  22  1   
 33  16  23  2   
 34  17  24  1   
 35  18  25  ar  
 36  18  37  1   
 37  19  26  ar  
 38  19  38  1   
 39  20  39  1   
 40  20  40  1   
 41  20  41  1   
 42  21  42  1   
 43  21  43  1   
 44  21  44  1   
 45  22  45  1   
 46  22  46  1   
 47  22  47  1   
 48  23  24  1   
 49  23  48  1   
 50  24  49  1   
 51  25  27  ar  
 52  25  50  1   
 53  26  27  ar  
 54  26  51  1   
 55  27  52  1   
@<TRIPOS>SUBSTRUCTURE
  1 ****   3 GROUP 4 **** **** 0

# MOE 2024.06 (io_trps.svl 2023.06)
