@<TRIPOS>MOLECULE
NONAME
46 49 1 0 0 
SMALL
USER_CHARGES


@<TRIPOS>ATOM
  1 O       -1.9370    -0.8240    -2.8010 O.2   1 <1>  -0.5700 
  2 C       -2.0960    -1.0750    -1.6340 C.2   1 <1>   0.5690 
  3 N       -2.0120    -0.1170    -0.6630 N.am  1 <1>  -0.6600 
  4 C       -2.4410    -2.4970    -1.2740 C.3   1 <1>  -0.0190 
  5 C       -2.2750    -0.3980     0.7770 C.3   1 <1>   0.2200 
  6 C       -1.5950     1.2820    -0.9890 C.3   1 <1>   0.0600 
  7 C       -1.4000    -3.1300    -0.3260 C.3   1 <1>   0.1200 
  8 C       -3.9090    -2.5510    -0.8340 C.3   1 <1>   0.3430 
  9 C       -1.2540    -1.4200     1.3360 C.3   1 <1>   0.1200 
 10 C       -3.7610    -0.7920     1.0040 C.3   1 <1>   0.3430 
 11 O       -1.5710    -2.7490     1.0120 O.3   1 <1>  -0.5600 
 12 N       -4.1180    -2.2000     0.6090 N.4   1 <1>  -0.9590 
 13 C       -5.4480    -2.6260     1.1160 C.3   1 <1>   0.4860 
 14 C       -5.5430    -4.1330     0.9900 C.ar  1 <1>  -0.1440 
 15 C       -6.4300    -4.6970     0.0820 C.ar  1 <1>  -0.1500 
 16 C       -4.7390    -4.9590     1.7680 C.ar  1 <1>  -0.1500 
 17 C       -6.5040    -6.0720    -0.0550 C.ar  1 <1>   0.0820 
 18 C       -4.8080    -6.3360     1.6290 C.ar  1 <1>  -0.1500 
 19 O       -7.3870    -6.5920    -0.9420 O.3   1 <1>  -0.3620 
 20 C       -5.6810    -6.8960     0.7140 C.ar  1 <1>   0.0820 
 21 C       -7.6810    -7.9720    -0.8140 C.3   1 <1>   0.1200 
 22 O       -5.7170    -8.2450     0.5820 O.3   1 <1>  -0.3630 
 23 C       -6.3970    -8.7680    -0.5450 C.3   1 <1>   0.1200 
 24 H       -2.3820    -3.0510    -2.1940 H     1 <1>   0.0800 
 25 H       -2.1130     0.5220     1.3110 H     1 <1>   0.0800 
 26 H       -2.3750     1.9730    -0.7220 H     1 <1>   0.0800 
 27 H       -1.3940     1.3910    -2.0420 H     1 <1>   0.0800 
 28 H       -0.6970     1.5330    -0.4500 H     1 <1>   0.0800 
 29 H       -0.3970    -2.8800    -0.6340 H     1 <1>   0.0800 
 30 H       -1.4960    -4.2020    -0.3560 H     1 <1>   0.0800 
 31 H       -4.2560    -3.5590    -1.0000 H     1 <1>   0.0800 
 32 H       -4.4940    -1.8990    -1.4630 H     1 <1>   0.0800 
 33 H       -1.2490    -1.3610     2.4100 H     1 <1>   0.0800 
 34 H       -0.2590    -1.1990     0.9880 H     1 <1>   0.0800 
 35 H       -4.3860    -0.0930     0.4730 H     1 <1>   0.0800 
 36 H       -3.9650    -0.6750     2.0550 H     1 <1>   0.0800 
 37 H       -3.4130    -2.7920     1.0930 H     1 <1>   0.4500 
 38 H       -5.5580    -2.3520     2.1520 H     1 <1>   0.0800 
 39 H       -6.2340    -2.1550     0.5480 H     1 <1>   0.0800 
 40 H       -7.0760    -4.0920    -0.5290 H     1 <1>   0.1500 
 41 H       -4.0510    -4.5500     2.4890 H     1 <1>   0.1500 
 42 H       -4.1880    -6.9830     2.2240 H     1 <1>   0.1500 
 43 H       -8.3730    -8.0930     0.0010 H     1 <1>   0.0800 
 44 H       -8.1500    -8.2970    -1.7250 H     1 <1>   0.0800 
 45 H       -5.7360    -8.7100    -1.3920 H     1 <1>   0.0800 
 46 H       -6.6220    -9.8000    -0.3450 H     1 <1>   0.0800 
@<TRIPOS>BOND
  1   1   2  2   
  2   2   3  am  
  3   2   4  1   
  4   3   5  1   
  5   3   6  1   
  6   4   7  1   
  7   4   8  1   
  8   4  24  1   
  9   5   9  1   
 10   5  10  1   
 11   5  25  1   
 12   6  26  1   
 13   6  27  1   
 14   6  28  1   
 15   7  11  1   
 16   7  29  1   
 17   7  30  1   
 18   8  12  1   
 19   8  31  1   
 20   8  32  1   
 21   9  11  1   
 22   9  33  1   
 23   9  34  1   
 24  10  12  1   
 25  10  35  1   
 26  10  36  1   
 27  12  13  1   
 28  12  37  1   
 29  13  14  1   
 30  13  38  1   
 31  13  39  1   
 32  14  15  ar  
 33  14  16  ar  
 34  15  17  ar  
 35  15  40  1   
 36  16  18  ar  
 37  16  41  1   
 38  17  19  1   
 39  17  20  ar  
 40  18  20  ar  
 41  18  42  1   
 42  19  21  1   
 43  20  22  1   
 44  21  23  1   
 45  21  43  1   
 46  21  44  1   
 47  22  23  1   
 48  23  45  1   
 49  23  46  1   
@<TRIPOS>SUBSTRUCTURE
  1 ****   8 GROUP 4 **** **** 0

# MOE 2024.06 (io_trps.svl 2023.06)
