@<TRIPOS>MOLECULE
NONAME
46 48 1 0 0 
SMALL
USER_CHARGES


@<TRIPOS>ATOM
  1 S        0.3180     0.5530    -0.1260 S.3   1 <1>  -0.0800 
  2 C        1.8860    -0.1780     0.2220 C.ar  1 <1>   0.0400 
  3 C       -0.3050    -0.9670    -0.7420 C.2   1 <1>  -0.1100 
  4 C        1.8810    -1.5180    -0.1390 C.ar  1 <1>   0.0000 
  5 C        2.9800     0.4620     0.7720 C.ar  1 <1>  -0.1500 
  6 C        0.6130    -1.9610    -0.6780 C.2   1 <1>  -0.0860 
  7 C        3.0550    -2.2410     0.0640 C.ar  1 <1>  -0.1500 
  8 C        4.1320    -0.2780     0.9700 C.ar  1 <1>  -0.1500 
  9 C        0.3960    -3.3310    -1.0810 C.2   1 <1>   0.7160 
 10 C        4.1660    -1.6230     0.6150 C.ar  1 <1>  -0.1500 
 11 O        1.1180    -3.8370    -1.9180 O.2   1 <1>  -0.5700 
 12 N       -0.6230    -4.0840    -0.5330 N.am  1 <1>  -0.6600 
 13 C       -1.0560    -5.3720    -1.1600 C.3   1 <1>   0.1400 
 14 C       -1.2810    -3.7470     0.7600 C.3   1 <1>   0.1400 
 15 C       -2.5900    -5.4260    -1.2840 C.3   1 <1>   0.2000 
 16 C       -2.8040    -3.7690     0.5820 C.3   1 <1>  -0.1600 
 17 O       -2.9600    -6.6640    -1.8020 O.3   1 <1>  -0.6800 
 18 C       -3.3320    -5.1300     0.0520 C.3   1 <1>   0.0000 
 19 C       -3.0340    -6.2640     1.0750 C.3   1 <1>   0.1200 
 20 C       -4.8750    -5.0620    -0.1550 C.3   1 <1>  -0.1600 
 21 O       -3.5900    -5.9990     2.3190 O.3   1 <1>  -0.6800 
 22 C       -5.3920    -4.0800    -1.2240 C.3   1 <1>  -0.1600 
 23 C       -6.9220    -4.1020    -1.2810 C.3   1 <1>  -0.2400 
 24 H       -1.3200    -0.9700    -1.0980 H     1 <1>   0.1500 
 25 H        2.9290     1.5030     1.0350 H     1 <1>   0.1500 
 26 H        3.0980    -3.2800    -0.2130 H     1 <1>   0.1500 
 27 H        5.0050     0.1850     1.3960 H     1 <1>   0.1500 
 28 H        5.0700    -2.1880     0.7680 H     1 <1>   0.1500 
 29 H       -0.6340    -5.4640    -2.1460 H     1 <1>   0.0800 
 30 H       -0.6940    -6.1870    -0.5610 H     1 <1>   0.0800 
 31 H       -0.9760    -4.4610     1.5050 H     1 <1>   0.0800 
 32 H       -0.9760    -2.7760     1.1090 H     1 <1>   0.0800 
 33 H       -2.8670    -4.6930    -2.0210 H     1 <1>   0.0800 
 34 H       -3.2750    -3.5200     1.5160 H     1 <1>   0.0800 
 35 H       -3.0530    -2.9830    -0.1070 H     1 <1>   0.0800 
 36 H       -2.7700    -7.3840    -1.1730 H     1 <1>   0.4000 
 37 H       -1.9780    -6.4060     1.2200 H     1 <1>   0.0800 
 38 H       -3.4560    -7.1950     0.7370 H     1 <1>   0.0800 
 39 H       -5.2270    -6.0460    -0.4160 H     1 <1>   0.0800 
 40 H       -5.3400    -4.8100     0.7830 H     1 <1>   0.0800 
 41 H       -3.2880    -5.1380     2.6630 H     1 <1>   0.4000 
 42 H       -5.0750    -3.0770    -1.0080 H     1 <1>   0.0800 
 43 H       -5.0160    -4.3550    -2.1940 H     1 <1>   0.0800 
 44 H       -7.3400    -3.8090    -0.3340 H     1 <1>   0.0800 
 45 H       -7.2750    -5.0880    -1.5250 H     1 <1>   0.0800 
 46 H       -7.2720    -3.4190    -2.0350 H     1 <1>   0.0800 
@<TRIPOS>BOND
  1   1   2  1   
  2   1   3  1   
  3   2   4  ar  
  4   2   5  ar  
  5   3   6  2   
  6   3  24  1   
  7   4   6  1   
  8   4   7  ar  
  9   5   8  ar  
 10   5  25  1   
 11   6   9  1   
 12   7  10  ar  
 13   7  26  1   
 14   8  10  ar  
 15   8  27  1   
 16   9  11  2   
 17   9  12  am  
 18  10  28  1   
 19  12  13  1   
 20  12  14  1   
 21  13  15  1   
 22  13  29  1   
 23  13  30  1   
 24  14  16  1   
 25  14  31  1   
 26  14  32  1   
 27  15  17  1   
 28  15  18  1   
 29  15  33  1   
 30  16  18  1   
 31  16  34  1   
 32  16  35  1   
 33  17  36  1   
 34  18  19  1   
 35  18  20  1   
 36  19  21  1   
 37  19  37  1   
 38  19  38  1   
 39  20  22  1   
 40  20  39  1   
 41  20  40  1   
 42  21  41  1   
 43  22  23  1   
 44  22  42  1   
 45  22  43  1   
 46  23  44  1   
 47  23  45  1   
 48  23  46  1   
@<TRIPOS>SUBSTRUCTURE
  1 ****  12 GROUP 4 **** **** 0

# MOE 2024.06 (io_trps.svl 2023.06)
