@<TRIPOS>MOLECULE
NONAME
39 41 1 0 0 
SMALL
USER_CHARGES


@<TRIPOS>ATOM
  1 CL      -2.3930     1.1750    -1.7910 Cl    1 <1>  -0.1770 
  2 C       -1.2700     2.0990    -0.8230 C.ar  1 <1>   0.1770 
  3 C       -1.6220     2.5360     0.4430 C.ar  1 <1>   0.0860 
  4 C       -0.0240     2.3910    -1.3460 C.ar  1 <1>   0.1600 
  5 C       -2.9090     2.2740     1.0380 C.2   1 <1>   0.5440 
  6 C       -0.6360     3.2490     1.1100 C.ar  1 <1>  -0.1500 
  7 N        0.9120     3.0850    -0.7130 N.ar  1 <1>  -0.6200 
  8 O       -2.9990     1.3740     1.8510 O.2   1 <1>  -0.5700 
  9 N       -4.0180     3.0360     0.7390 N.am  1 <1>  -0.6600 
 10 C        0.5830     3.4920     0.5040 C.ar  1 <1>   0.1600 
 11 C       -5.3590     2.7440     1.3310 C.3   1 <1>   0.1400 
 12 C       -4.0300     4.1700    -0.2240 C.3   1 <1>   0.1400 
 13 C       -6.3650     2.3660     0.2280 C.3   1 <1>   0.0000 
 14 C       -5.0100     3.8710    -1.3650 C.3   1 <1>  -0.1600 
 15 C       -7.7420     2.0550     0.8460 C.3   1 <1>   0.2000 
 16 C       -6.4090     3.4960    -0.8410 C.3   1 <1>  -0.1600 
 17 C       -6.0230     1.0110    -0.4200 C.3   1 <1>  -0.1600 
 18 O       -8.5030     3.1870     1.0730 O.3   1 <1>  -0.6800 
 19 C       -8.4560     1.1250    -0.1340 C.3   1 <1>  -0.1600 
 20 C       -7.3460     0.4560    -0.9570 C.3   1 <1>  -0.1600 
 21 H        0.2120     2.0350    -2.3340 H     1 <1>   0.1500 
 22 H       -0.8270     3.6080     2.1060 H     1 <1>   0.1500 
 23 H        1.3300     4.0490     1.0470 H     1 <1>   0.1500 
 24 H       -5.2910     1.9470     2.0520 H     1 <1>   0.0800 
 25 H       -5.7090     3.6190     1.8500 H     1 <1>   0.0800 
 26 H       -4.3440     5.0600     0.2950 H     1 <1>   0.0800 
 27 H       -3.0500     4.3520    -0.6270 H     1 <1>   0.0800 
 28 H       -5.0870     4.7380    -1.9960 H     1 <1>   0.0800 
 29 H       -4.6120     3.0760    -1.9700 H     1 <1>   0.0800 
 30 H       -7.6140     1.5480     1.7880 H     1 <1>   0.0800 
 31 H       -7.0360     3.2120    -1.6670 H     1 <1>   0.0800 
 32 H       -6.8290     4.3840    -0.4020 H     1 <1>   0.0800 
 33 H       -5.2780     1.0800    -1.1900 H     1 <1>   0.0800 
 34 H       -5.6490     0.3410     0.3360 H     1 <1>   0.0800 
 35 H       -8.6920     3.6250     0.2230 H     1 <1>   0.4000 
 36 H       -9.0280     0.3900     0.4050 H     1 <1>   0.0800 
 37 H       -9.1070     1.6760    -0.7890 H     1 <1>   0.0800 
 38 H       -7.3770    -0.6160    -0.8650 H     1 <1>   0.0800 
 39 H       -7.4570     0.7180    -1.9960 H     1 <1>   0.0800 
@<TRIPOS>BOND
  1   1   2  1   
  2   2   3  ar  
  3   2   4  ar  
  4   3   5  1   
  5   3   6  ar  
  6   4   7  ar  
  7   4  21  1   
  8   5   8  2   
  9   5   9  am  
 10   6  10  ar  
 11   6  22  1   
 12   7  10  ar  
 13   9  11  1   
 14   9  12  1   
 15  10  23  1   
 16  11  13  1   
 17  11  24  1   
 18  11  25  1   
 19  12  14  1   
 20  12  26  1   
 21  12  27  1   
 22  13  15  1   
 23  13  16  1   
 24  13  17  1   
 25  14  16  1   
 26  14  28  1   
 27  14  29  1   
 28  15  18  1   
 29  15  19  1   
 30  15  30  1   
 31  16  31  1   
 32  16  32  1   
 33  17  20  1   
 34  17  33  1   
 35  17  34  1   
 36  18  35  1   
 37  19  20  1   
 38  19  36  1   
 39  19  37  1   
 40  20  38  1   
 41  20  39  1   
@<TRIPOS>SUBSTRUCTURE
  1 ****   9 GROUP 4 **** **** 0

# MOE 2024.06 (io_trps.svl 2023.06)
