@<TRIPOS>MOLECULE
NONAME
40 42 1 0 0 
SMALL
USER_CHARGES


@<TRIPOS>ATOM
  1 CL       2.5760     1.6010    -1.9660 Cl    1 <1>  -0.1770 
  2 C        2.5490     0.2010    -0.9210 C.ar  1 <1>   0.1770 
  3 C        3.1600     0.2610     0.3280 C.ar  1 <1>   0.0860 
  4 C        1.9300    -0.9470    -1.3860 C.ar  1 <1>  -0.1500 
  5 C        3.1260    -0.9080     1.0800 C.ar  1 <1>   0.1900 
  6 C        3.7890     1.4620     0.8120 C.2   1 <1>   0.5440 
  7 C        1.9120    -2.0890    -0.6020 C.ar  1 <1>  -0.1500 
  8 F        3.6980    -0.9240     2.2520 F     1 <1>  -0.1900 
  9 C        2.5180    -2.0720     0.6430 C.ar  1 <1>  -0.1500 
 10 O        3.1010     2.3630     1.2500 O.2   1 <1>  -0.5700 
 11 N        5.1530     1.6560     0.7550 N.am  1 <1>  -0.6600 
 12 C        5.8170     2.6860     1.6200 C.3   1 <1>   0.1400 
 13 C        6.0560     0.9250    -0.1800 C.3   1 <1>   0.1400 
 14 C        6.4620     3.8780     0.8600 C.3   1 <1>   0.4230 
 15 C        6.6150     1.8700    -1.2670 C.3   1 <1>  -0.0800 
 16 N        5.8500     4.2230    -0.4870 N.4   1 <1>  -0.9590 
 17 C        7.9950     3.7210     0.7540 C.3   1 <1>   0.1200 
 18 C        8.1020     2.2100    -1.0790 C.3   1 <1>   0.1200 
 19 C        5.7300     3.1090    -1.4920 C.3   1 <1>   0.3430 
 20 C        4.4960     4.8330    -0.2890 C.3   1 <1>   0.2630 
 21 O        8.3860     2.4800     0.2530 O.3   1 <1>  -0.5600 
 22 H        1.4650    -0.9480    -2.3570 H     1 <1>   0.1500 
 23 H        1.4300    -2.9860    -0.9580 H     1 <1>   0.1500 
 24 H        2.5190    -2.9470     1.2700 H     1 <1>   0.1500 
 25 H        5.1000     3.0860     2.3160 H     1 <1>   0.0800 
 26 H        6.5660     2.1980     2.2200 H     1 <1>   0.0800 
 27 H        6.8570     0.4680     0.3790 H     1 <1>   0.0800 
 28 H        5.5150     0.1280    -0.6590 H     1 <1>   0.0800 
 29 H        6.3220     4.7370     1.4950 H     1 <1>   0.0800 
 30 H        6.5670     1.3160    -2.1870 H     1 <1>   0.0800 
 31 H        6.4550     4.9390    -0.9050 H     1 <1>   0.4500 
 32 H        8.4180     3.7920     1.7400 H     1 <1>   0.0800 
 33 H        8.4330     4.4970     0.1510 H     1 <1>   0.0800 
 34 H        8.4160     3.0390    -1.6910 H     1 <1>   0.0800 
 35 H        8.6980     1.3530    -1.3470 H     1 <1>   0.0800 
 36 H        4.7080     2.7700    -1.5070 H     1 <1>   0.0800 
 37 H        5.9400     3.5070    -2.4720 H     1 <1>   0.0800 
 38 H        3.8140     4.1100     0.1230 H     1 <1>   0.0800 
 39 H        4.0970     5.1750    -1.2300 H     1 <1>   0.0800 
 40 H        4.5520     5.6710     0.3860 H     1 <1>   0.0800 
@<TRIPOS>BOND
  1   1   2  1   
  2   2   3  ar  
  3   2   4  ar  
  4   3   5  ar  
  5   3   6  1   
  6   4   7  ar  
  7   4  22  1   
  8   5   8  1   
  9   5   9  ar  
 10   6  10  2   
 11   6  11  am  
 12   7   9  ar  
 13   7  23  1   
 14   9  24  1   
 15  11  12  1   
 16  11  13  1   
 17  12  14  1   
 18  12  25  1   
 19  12  26  1   
 20  13  15  1   
 21  13  27  1   
 22  13  28  1   
 23  14  16  1   
 24  14  17  1   
 25  14  29  1   
 26  15  18  1   
 27  15  19  1   
 28  15  30  1   
 29  16  19  1   
 30  16  20  1   
 31  16  31  1   
 32  17  21  1   
 33  17  32  1   
 34  17  33  1   
 35  18  21  1   
 36  18  34  1   
 37  18  35  1   
 38  19  36  1   
 39  19  37  1   
 40  20  38  1   
 41  20  39  1   
 42  20  40  1   
@<TRIPOS>SUBSTRUCTURE
  1 ****  11 GROUP 4 **** **** 0

# MOE 2024.06 (io_trps.svl 2023.06)
