@<TRIPOS>MOLECULE
NONAME
43 45 1 0 0 
SMALL
USER_CHARGES


@<TRIPOS>ATOM
  1 O       -0.5780     0.2650    -0.2130 O.2   1 <1>  -0.5700 
  2 C       -1.5410     0.8560     0.2430 C.2   1 <1>   0.5440 
  3 N       -2.5670     0.1190     0.7870 N.am  1 <1>  -0.6600 
  4 C       -1.5520     2.3100     0.2070 C.ar  1 <1>   0.0860 
  5 C       -3.7490     0.6710     1.5050 C.3   1 <1>   0.2350 
  6 C       -2.9800    -1.1970     0.2150 C.3   1 <1>   0.2350 
  7 C       -0.4190     3.0390     0.5640 C.ar  1 <1>  -0.1500 
  8 C       -2.6760     3.0320    -0.1900 C.ar  1 <1>  -0.1500 
  9 C       -4.9360     0.2060     0.6880 C.3   1 <1>  -0.2420 
 10 C       -4.4810    -1.0510    -0.0210 C.3   1 <1>  -0.2420 
 11 C       -0.4100     4.4310     0.5560 C.ar  1 <1>   0.0820 
 12 C       -2.7160     4.4160    -0.1610 C.ar  1 <1>   0.0820 
 13 C       -6.1970     0.7810     1.3200 C.2   1 <1>   0.9470 
 14 C       -4.9740     0.1160    -0.8250 C.3   1 <1>  -0.2000 
 15 C       -5.1660    -2.4140    -0.1530 C.2   1 <1>   0.9470 
 16 O        0.6980     5.1580     0.8840 O.3   1 <1>  -0.3630 
 17 C       -1.5680     5.1240     0.1970 C.ar  1 <1>   0.0820 
 18 O       -3.8660     5.0880    -0.4580 O.3   1 <1>  -0.3630 
 19 O       -6.6630     1.8230     0.8300 O.co2 1 <1>  -0.9000 
 20 O       -6.6090     0.3350     2.3960 O.co2 1 <1>  -0.9000 
 21 O       -5.8960    -2.6400    -1.1280 O.co2 1 <1>  -0.9000 
 22 O       -4.8620    -3.3120     0.6440 O.co2 1 <1>  -0.9000 
 23 C        1.9130     4.5350     1.2350 C.3   1 <1>   0.0400 
 24 O       -1.5650     6.4820     0.2230 O.3   1 <1>  -0.3630 
 25 C       -5.1190     4.4820    -0.1730 C.3   1 <1>   0.0400 
 26 C       -1.5690     7.1310    -1.0260 C.3   1 <1>   0.0400 
 27 H       -3.8080     0.2280     2.4850 H     1 <1>   0.0800 
 28 H       -3.7330     1.7370     1.6180 H     1 <1>   0.0800 
 29 H       -2.4640    -1.4130    -0.7040 H     1 <1>   0.0800 
 30 H       -2.7830    -1.9750     0.9330 H     1 <1>   0.0800 
 31 H        0.4500     2.4760     0.8460 H     1 <1>   0.1500 
 32 H       -3.5390     2.4850    -0.5130 H     1 <1>   0.1500 
 33 H       -4.2720     0.6350    -1.4470 H     1 <1>   0.1000 
 34 H       -5.9390     0.0240    -1.2940 H     1 <1>   0.1000 
 35 H        2.6350     5.3060     1.4380 H     1 <1>   0.0800 
 36 H        2.2470     3.9300     0.4110 H     1 <1>   0.0800 
 37 H        1.7590     3.9390     2.1170 H     1 <1>   0.0800 
 38 H       -5.8830     5.2350    -0.2330 H     1 <1>   0.0800 
 39 H       -5.1020     4.0650     0.8200 H     1 <1>   0.0800 
 40 H       -5.3210     3.7080    -0.8920 H     1 <1>   0.0800 
 41 H       -1.5110     8.1900    -0.8540 H     1 <1>   0.0800 
 42 H       -2.4790     6.8910    -1.5460 H     1 <1>   0.0800 
 43 H       -0.7140     6.8000    -1.5890 H     1 <1>   0.0800 
@<TRIPOS>BOND
  1   1   2  2   
  2   2   3  am  
  3   2   4  1   
  4   3   5  1   
  5   3   6  1   
  6   4   7  ar  
  7   4   8  ar  
  8   5   9  1   
  9   5  27  1   
 10   5  28  1   
 11   6  10  1   
 12   6  29  1   
 13   6  30  1   
 14   7  11  ar  
 15   7  31  1   
 16   8  12  ar  
 17   8  32  1   
 18   9  10  1   
 19   9  13  1   
 20   9  14  1   
 21  10  14  1   
 22  10  15  1   
 23  11  16  1   
 24  11  17  ar  
 25  12  17  ar  
 26  12  18  1   
 27  13  19  ar  
 28  13  20  ar  
 29  14  33  1   
 30  14  34  1   
 31  15  21  ar  
 32  15  22  ar  
 33  16  23  1   
 34  17  24  1   
 35  18  25  1   
 36  23  35  1   
 37  23  36  1   
 38  23  37  1   
 39  24  26  1   
 40  25  38  1   
 41  25  39  1   
 42  25  40  1   
 43  26  41  1   
 44  26  42  1   
 45  26  43  1   
@<TRIPOS>SUBSTRUCTURE
  1 ****   8 GROUP 4 **** **** 0

# MOE 2024.06 (io_trps.svl 2023.06)
