@<TRIPOS>MOLECULE
NONAME
41 42 1 0 0 
SMALL
USER_CHARGES


@<TRIPOS>ATOM
  1 O        0.0340     0.5770    -0.1460 O.3   1 <1>  -0.3630 
  2 C        0.1340     1.9170     0.0410 C.ar  1 <1>   0.0830 
  3 C       -1.2220    -0.0530    -0.2690 C.3   1 <1>   0.0400 
  4 C       -0.9600     2.7740     0.1160 C.ar  1 <1>  -0.1500 
  5 C        1.4120     2.4370     0.1620 C.ar  1 <1>  -0.1500 
  6 C       -0.7660     4.1310     0.3090 C.ar  1 <1>  -0.1500 
  7 C        1.6030     3.7940     0.3550 C.ar  1 <1>  -0.1500 
  8 C        0.5140     4.6490     0.4290 C.ar  1 <1>  -0.1430 
  9 C        0.7320     6.1390     0.6330 C.3   1 <1>  -0.0170 
 10 C        1.0500     6.8170    -0.6990 C.3   1 <1>   0.2090 
 11 N        1.2060     8.2800    -0.4950 N.pl3 1 <1>  -0.8690 
 12 C        2.3870     8.9120    -0.1820 C.ar  1 <1>   0.4100 
 13 N        3.4340     8.1460     0.0400 N.ar  1 <1>  -0.6200 
 14 C        2.4680    10.2970    -0.0980 C.ar  1 <1>  -0.1430 
 15 C        4.5530     8.7670     0.3440 C.ar  1 <1>   0.4770 
 16 C        3.6980    10.8170     0.2290 C.ar  1 <1>   0.1600 
 17 C        1.2310    11.1620    -0.3610 C.3   1 <1>  -0.0170 
 18 N        4.7560    10.0640     0.4540 N.ar  1 <1>  -0.6200 
 19 C        5.7570     7.8920     0.5990 C.3   1 <1>  -0.0970 
 20 C        1.4520    12.6760    -0.2500 C.3   1 <1>  -0.2400 
 21 H       -1.0550    -1.1070    -0.4030 H     1 <1>   0.0800 
 22 H       -1.7310     0.3490    -1.1270 H     1 <1>   0.0800 
 23 H       -1.7860     0.1160     0.6310 H     1 <1>   0.0800 
 24 H       -1.9640     2.4050     0.0280 H     1 <1>   0.1500 
 25 H        2.2550     1.7730     0.1040 H     1 <1>   0.1500 
 26 H       -1.6200     4.7840     0.3650 H     1 <1>   0.1500 
 27 H        2.6030     4.1830     0.4460 H     1 <1>   0.1500 
 28 H        1.5530     6.2930     1.3110 H     1 <1>   0.0800 
 29 H       -0.1470     6.5830     1.0620 H     1 <1>   0.0800 
 30 H        0.2540     6.6370    -1.4000 H     1 <1>   0.0800 
 31 H        1.9550     6.4040    -1.1100 H     1 <1>   0.0800 
 32 H        0.3740     8.8470    -0.6500 H     1 <1>   0.4000 
 33 H        3.8460    11.8780     0.3150 H     1 <1>   0.1500 
 34 H        0.4630    10.8800     0.3380 H     1 <1>   0.0800 
 35 H        0.8700    10.9450    -1.3520 H     1 <1>   0.0800 
 36 H        5.4780     6.8550     0.5990 H     1 <1>   0.0800 
 37 H        6.1850     8.1400     1.5520 H     1 <1>   0.0800 
 38 H        6.4860     8.0610    -0.1710 H     1 <1>   0.0800 
 39 H        1.7730    12.9390     0.7430 H     1 <1>   0.0800 
 40 H        0.5320    13.1940    -0.4540 H     1 <1>   0.0800 
 41 H        2.1890    13.0040    -0.9620 H     1 <1>   0.0800 
@<TRIPOS>BOND
  1   1   2  1   
  2   1   3  1   
  3   2   4  ar  
  4   2   5  ar  
  5   3  21  1   
  6   3  22  1   
  7   3  23  1   
  8   4   6  ar  
  9   4  24  1   
 10   5   7  ar  
 11   5  25  1   
 12   6   8  ar  
 13   6  26  1   
 14   7   8  ar  
 15   7  27  1   
 16   8   9  1   
 17   9  10  1   
 18   9  28  1   
 19   9  29  1   
 20  10  11  1   
 21  10  30  1   
 22  10  31  1   
 23  11  12  1   
 24  11  32  1   
 25  12  13  ar  
 26  12  14  ar  
 27  13  15  ar  
 28  14  16  ar  
 29  14  17  1   
 30  15  18  ar  
 31  15  19  1   
 32  16  18  ar  
 33  16  33  1   
 34  17  20  1   
 35  17  34  1   
 36  17  35  1   
 37  19  36  1   
 38  19  37  1   
 39  19  38  1   
 40  20  39  1   
 41  20  40  1   
 42  20  41  1   
@<TRIPOS>SUBSTRUCTURE
  1 ****  10 GROUP 4 **** **** 0

# MOE 2024.06 (io_trps.svl 2023.06)
