@<TRIPOS>MOLECULE
NONAME
52 55 1 0 0 
SMALL
USER_CHARGES


@<TRIPOS>ATOM
  1 O        0.5740     1.6280    -0.7610 O.2   1 <1>  -0.5700 
  2 C       -0.1290     2.2960    -0.0390 C.2   1 <1>   0.5770 
  3 N        0.4510     3.1330     0.8850 N.am  1 <1>  -0.6600 
  4 C       -1.6460     2.2280    -0.2110 C.3   1 <1>   0.0530 
  5 C        1.8940     2.9550     1.2130 C.3   1 <1>   0.1400 
  6 C       -0.2170     4.3170     1.4850 C.3   1 <1>   0.1400 
  7 C       -2.4280     1.8160     1.0680 C.3   1 <1>   0.0000 
  8 C       -2.2000     0.9280    -0.8600 C.3   1 <1>   0.0000 
  9 C        2.7730     3.5510     0.1000 C.3   1 <1>   0.3430 
 10 C        0.5800     5.5980     1.2040 C.3   1 <1>  -0.1600 
 11 C       -3.3830     1.0290     0.1360 C.3   1 <1>   0.0000 
 12 N        2.6910     5.0510    -0.0230 N.4   1 <1>  -0.9590 
 13 C        1.3010     5.6010    -0.1500 C.3   1 <1>   0.3430 
 14 C        3.5380     5.5000    -1.1620 C.3   1 <1>   0.4860 
 15 C        3.7140     7.0010    -1.0660 C.ar  1 <1>  -0.1430 
 16 C        4.5440     7.5520    -0.1110 C.ar  1 <1>  -0.1500 
 17 C        3.0150     7.8330    -1.9550 C.ar  1 <1>  -0.1500 
 18 C        4.6610     8.9420    -0.0270 C.ar  1 <1>  -0.1520 
 19 C        3.1280     9.2000    -1.8730 C.ar  1 <1>  -0.1500 
 20 N        5.4010     9.7420     0.8150 N.pl3 1 <1>   0.0480 
 21 C        3.9530     9.7640    -0.8980 C.ar  1 <1>   0.0000 
 22 C        5.1510    11.0420     0.4800 C.2   1 <1>  -0.3020 
 23 C        6.3270     9.2960     1.8690 C.3   1 <1>   0.0160 
 24 C        4.2790    11.0910    -0.5530 C.2   1 <1>  -0.1500 
 25 H       -2.0590     3.1080    -0.6740 H     1 <1>   0.0000 
 26 H        2.1010     1.9000     1.2850 H     1 <1>   0.0800 
 27 H        2.1280     3.3960     2.1670 H     1 <1>   0.0800 
 28 H       -0.3260     4.1710     2.5470 H     1 <1>   0.0800 
 29 H       -1.2040     4.4300     1.0710 H     1 <1>   0.0800 
 30 H       -2.8990     2.6380     1.5770 H     1 <1>   0.0000 
 31 H       -1.8620     1.1720     1.7200 H     1 <1>   0.0000 
 32 H       -1.5900     0.0590    -0.6770 H     1 <1>   0.0000 
 33 H       -2.4880     1.0430    -1.8900 H     1 <1>   0.0000 
 34 H        2.4800     3.0930    -0.8310 H     1 <1>   0.0800 
 35 H        3.7950     3.2670     0.2910 H     1 <1>   0.0800 
 36 H        1.2750     5.7890     2.0020 H     1 <1>   0.0800 
 37 H       -0.1210     6.4140     1.2120 H     1 <1>   0.0800 
 38 H       -4.1920     1.6330    -0.2390 H     1 <1>   0.0000 
 39 H       -3.7000     0.0820     0.5350 H     1 <1>   0.0000 
 40 H        3.0990     5.4850     0.8120 H     1 <1>   0.4500 
 41 H        1.3540     6.6230    -0.4880 H     1 <1>   0.0800 
 42 H        0.7360     5.0390    -0.8770 H     1 <1>   0.0800 
 43 H        3.0780     5.2360    -2.1010 H     1 <1>   0.0800 
 44 H        4.5070     5.0300    -1.1130 H     1 <1>   0.0800 
 45 H        5.1100     6.9460     0.5740 H     1 <1>   0.1500 
 46 H        2.3820     7.4060    -2.7140 H     1 <1>   0.1500 
 47 H        2.6000     9.8530    -2.5460 H     1 <1>   0.1500 
 48 H        5.6140    11.8640     0.9980 H     1 <1>   0.1500 
 49 H        7.0580     8.6340     1.4420 H     1 <1>   0.0800 
 50 H        5.7740     8.7860     2.6350 H     1 <1>   0.0800 
 51 H        6.8250    10.1480     2.2940 H     1 <1>   0.0800 
 52 H        3.8840    11.9600    -1.0490 H     1 <1>   0.1500 
@<TRIPOS>BOND
  1   1   2  2   
  2   2   3  am  
  3   2   4  1   
  4   3   5  1   
  5   3   6  1   
  6   4   7  1   
  7   4   8  1   
  8   4  25  1   
  9   5   9  1   
 10   5  26  1   
 11   5  27  1   
 12   6  10  1   
 13   6  28  1   
 14   6  29  1   
 15   7  11  1   
 16   7  30  1   
 17   7  31  1   
 18   8  11  1   
 19   8  32  1   
 20   8  33  1   
 21   9  12  1   
 22   9  34  1   
 23   9  35  1   
 24  10  13  1   
 25  10  36  1   
 26  10  37  1   
 27  11  38  1   
 28  11  39  1   
 29  12  13  1   
 30  12  14  1   
 31  12  40  1   
 32  13  41  1   
 33  13  42  1   
 34  14  15  1   
 35  14  43  1   
 36  14  44  1   
 37  15  16  ar  
 38  15  17  ar  
 39  16  18  ar  
 40  16  45  1   
 41  17  19  ar  
 42  17  46  1   
 43  18  20  1   
 44  18  21  ar  
 45  19  21  ar  
 46  19  47  1   
 47  20  22  1   
 48  20  23  1   
 49  21  24  1   
 50  22  24  2   
 51  22  48  1   
 52  23  49  1   
 53  23  50  1   
 54  23  51  1   
 55  24  52  1   
@<TRIPOS>SUBSTRUCTURE
  1 ****  13 GROUP 4 **** **** 0

# MOE 2024.06 (io_trps.svl 2023.06)
