@<TRIPOS>MOLECULE
NONAME
45 46 1 0 0 
SMALL
USER_CHARGES


@<TRIPOS>ATOM
  1 O       -0.7460    -0.6120    -2.8920 O.2   1 <1>  -0.5700 
  2 C       -1.3910     0.3510    -2.5490 C.2   1 <1>   0.5690 
  3 N       -2.7160     0.2430    -2.2180 N.am  1 <1>  -0.6600 
  4 C       -0.6580     1.6770    -2.4160 C.3   1 <1>   0.0440 
  5 C       -3.2040    -1.0270    -1.6250 C.3   1 <1>   0.3200 
  6 C       -3.6720     1.3900    -2.1640 C.3   1 <1>   0.1400 
  7 C       -0.4250     1.9870    -0.9400 C.ar  1 <1>  -0.1440 
  8 C       -3.4800    -0.7890    -0.1530 C.2   1 <1>  -0.3320 
  9 C       -4.1480     1.7490    -3.5730 C.3   1 <1>   0.1200 
 10 C       -0.9790     3.1070    -0.3420 C.ar  1 <1>  -0.1500 
 11 C        0.3460     1.1280    -0.1760 C.ar  1 <1>  -0.1500 
 12 N       -2.6660    -0.0830     0.6590 N.pl3 1 <1>   0.0330 
 13 C       -4.5240    -1.1820     0.6090 C.2   1 <1>   0.0770 
 14 O       -4.9430     2.8840    -3.5120 O.3   1 <1>  -0.6800 
 15 C       -0.7760     3.3710     1.0040 C.ar  1 <1>  -0.1430 
 16 C        0.5550     1.3840     1.1660 C.ar  1 <1>  -0.1500 
 17 C       -3.2780    -0.0890     1.8620 C.2   1 <1>   0.0070 
 18 N       -4.3940    -0.7400     1.8730 N.2   1 <1>  -0.5650 
 19 C        0.0010     2.5040     1.7650 C.ar  1 <1>  -0.1430 
 20 C       -1.4060     4.6160     1.6140 C.3   1 <1>  -0.0970 
 21 C       -2.7010     0.6150     3.0680 C.3   1 <1>  -0.0600 
 22 C        0.2740     2.7620     3.2410 C.3   1 <1>  -0.0970 
 23 H       -1.2120     2.4590    -2.8970 H     1 <1>   0.0800 
 24 H        0.2920     1.6010    -2.9120 H     1 <1>   0.0800 
 25 H       -2.4670    -1.8060    -1.7260 H     1 <1>   0.0800 
 26 H       -4.0990    -1.3450    -2.1310 H     1 <1>   0.0800 
 27 H       -3.1970     2.2410    -1.7130 H     1 <1>   0.0800 
 28 H       -4.5240     1.1300    -1.5590 H     1 <1>   0.0800 
 29 H       -4.7250     0.9490    -4.0040 H     1 <1>   0.0800 
 30 H       -3.3100     1.9740    -4.2100 H     1 <1>   0.0800 
 31 H       -1.5730     3.7840    -0.9300 H     1 <1>   0.1500 
 32 H        0.7910     0.2540    -0.6250 H     1 <1>   0.1500 
 33 H       -1.7880     0.3940     0.4140 H     1 <1>   0.2700 
 34 H       -5.3790    -1.7670     0.3150 H     1 <1>   0.1500 
 35 H       -5.7930     2.6950    -3.0660 H     1 <1>   0.4000 
 36 H        1.1630     0.7060     1.7390 H     1 <1>   0.1500 
 37 H       -1.9050     5.2030     0.8650 H     1 <1>   0.0800 
 38 H       -0.6480     5.2280     2.0690 H     1 <1>   0.0800 
 39 H       -2.1270     4.3360     2.3600 H     1 <1>   0.0800 
 40 H       -2.6880     1.6750     2.8960 H     1 <1>   0.0800 
 41 H       -1.7010     0.2700     3.2530 H     1 <1>   0.0800 
 42 H       -3.3060     0.4110     3.9330 H     1 <1>   0.0800 
 43 H       -0.6460     2.9230     3.7730 H     1 <1>   0.0800 
 44 H        0.8950     3.6330     3.3480 H     1 <1>   0.0800 
 45 H        0.7810     1.9280     3.6910 H     1 <1>   0.0800 
@<TRIPOS>BOND
  1   1   2  2   
  2   2   3  am  
  3   2   4  1   
  4   3   5  1   
  5   3   6  1   
  6   4   7  1   
  7   4  23  1   
  8   4  24  1   
  9   5   8  1   
 10   5  25  1   
 11   5  26  1   
 12   6   9  1   
 13   6  27  1   
 14   6  28  1   
 15   7  10  ar  
 16   7  11  ar  
 17   8  12  1   
 18   8  13  2   
 19   9  14  1   
 20   9  29  1   
 21   9  30  1   
 22  10  15  ar  
 23  10  31  1   
 24  11  16  ar  
 25  11  32  1   
 26  12  17  1   
 27  12  33  1   
 28  13  18  1   
 29  13  34  1   
 30  14  35  1   
 31  15  19  ar  
 32  15  20  1   
 33  16  19  ar  
 34  16  36  1   
 35  17  18  2   
 36  17  21  1   
 37  19  22  1   
 38  20  37  1   
 39  20  38  1   
 40  20  39  1   
 41  21  40  1   
 42  21  41  1   
 43  21  42  1   
 44  22  43  1   
 45  22  44  1   
 46  22  45  1   
@<TRIPOS>SUBSTRUCTURE
  1 ****  12 GROUP 4 **** **** 0

# MOE 2024.06 (io_trps.svl 2023.06)
