@<TRIPOS>MOLECULE
NONAME
57 58 1 0 0 
SMALL
USER_CHARGES


@<TRIPOS>ATOM
  1 S        0.3160    -0.0440     0.7920 S.o2  1 <1>   1.3330 
  2 O       -0.4730     0.0500     2.0000 O.2   1 <1>  -0.6500 
  3 O        1.7580    -0.0380     0.8770 O.2   1 <1>  -0.6500 
  4 N       -0.1520    -1.4430    -0.0470 N.am  1 <1>  -0.8490 
  5 C       -0.2140     1.2720    -0.3020 C.3   1 <1>  -0.0550 
  6 C       -0.4610    -2.5550     0.8560 C.3   1 <1>   0.1160 
  7 C        0.8270    -1.8740    -1.0520 C.3   1 <1>   0.1160 
  8 C        0.0180     2.6740     0.2850 C.3   1 <1>  -0.0800 
  9 C       -0.5650     3.7760    -0.5940 C.3   1 <1>   0.2000 
 10 C        1.4930     3.0600     0.4310 C.3   1 <1>   0.1400 
 11 O       -1.9210     3.9140    -0.3480 O.3   1 <1>  -0.6800 
 12 C        0.2140     5.0350    -0.2250 C.3   1 <1>   0.1400 
 13 N        1.5280     4.5330     0.2470 N.am  1 <1>  -0.6600 
 14 C        2.7110     5.2280     0.1280 C.2   1 <1>   0.5440 
 15 O        3.7550     4.6040     0.1400 O.2   1 <1>  -0.5700 
 16 C        2.7300     6.6700    -0.0320 C.ar  1 <1>   0.0860 
 17 C        1.9850     7.5090     0.7950 C.ar  1 <1>  -0.1500 
 18 C        3.5010     7.2670    -1.0270 C.ar  1 <1>  -0.1500 
 19 C        1.9920     8.8810     0.6220 C.ar  1 <1>  -0.1500 
 20 C        3.5130     8.6390    -1.2040 C.ar  1 <1>  -0.1500 
 21 C        2.7540     9.4540    -0.3820 C.ar  1 <1>  -0.1430 
 22 C        2.7630    10.9630    -0.5650 C.3   1 <1>  -0.0170 
 23 C        3.8290    11.5990     0.3440 C.3   1 <1>  -0.1600 
 24 C        3.8920    13.1350     0.3020 C.3   1 <1>   0.2800 
 25 O        2.6540    13.6230     0.6270 O.3   1 <1>  -0.6800 
 26 C        4.8630    13.6670     1.3530 C.3   1 <1>  -0.2400 
 27 C        4.2400    13.6860    -1.0810 C.3   1 <1>  -0.2400 
 28 H        0.2980     1.1880    -1.2400 H     1 <1>   0.0800 
 29 H       -1.2640     1.1530    -0.4900 H     1 <1>   0.0800 
 30 H       -0.7690    -3.4200     0.2930 H     1 <1>   0.0800 
 31 H       -1.2680    -2.2810     1.5160 H     1 <1>   0.0800 
 32 H        0.4020    -2.8060     1.4510 H     1 <1>   0.0800 
 33 H        0.4390    -2.7080    -1.6120 H     1 <1>   0.0800 
 34 H        1.7490    -2.1690    -0.5770 H     1 <1>   0.0800 
 35 H        1.0340    -1.0710    -1.7380 H     1 <1>   0.0800 
 36 H       -0.4250     2.7300     1.2660 H     1 <1>   0.0800 
 37 H       -0.4290     3.5590    -1.6400 H     1 <1>   0.0800 
 38 H        2.0960     2.5970    -0.3330 H     1 <1>   0.0800 
 39 H        1.8830     2.7900     1.3980 H     1 <1>   0.0800 
 40 H       -2.0890     4.0340     0.6070 H     1 <1>   0.4000 
 41 H       -0.2710     5.5630     0.5770 H     1 <1>   0.0800 
 42 H        0.3320     5.6790    -1.0800 H     1 <1>   0.0800 
 43 H        1.4000     7.0770     1.5870 H     1 <1>   0.1500 
 44 H        4.1000     6.6390    -1.6650 H     1 <1>   0.1500 
 45 H        1.4070     9.5070     1.2740 H     1 <1>   0.1500 
 46 H        4.1190     9.0690    -1.9820 H     1 <1>   0.1500 
 47 H        2.9620    11.1950    -1.5950 H     1 <1>   0.0800 
 48 H        1.7910    11.3560    -0.3230 H     1 <1>   0.0800 
 49 H        4.7910    11.2040     0.0720 H     1 <1>   0.0800 
 50 H        3.6390    11.2930     1.3570 H     1 <1>   0.0800 
 51 H        2.6860    14.5970     0.6420 H     1 <1>   0.4000 
 52 H        5.8550    13.3040     1.1520 H     1 <1>   0.0800 
 53 H        4.5750    13.3300     2.3330 H     1 <1>   0.0800 
 54 H        4.8910    14.7410     1.3440 H     1 <1>   0.0800 
 55 H        5.1760    13.2750    -1.4130 H     1 <1>   0.0800 
 56 H        4.3380    14.7560    -1.0500 H     1 <1>   0.0800 
 57 H        3.4820    13.4300    -1.7990 H     1 <1>   0.0800 
@<TRIPOS>BOND
  1   1   2  2   
  2   1   3  2   
  3   1   4  am  
  4   1   5  1   
  5   4   6  1   
  6   4   7  1   
  7   5   8  1   
  8   5  28  1   
  9   5  29  1   
 10   6  30  1   
 11   6  31  1   
 12   6  32  1   
 13   7  33  1   
 14   7  34  1   
 15   7  35  1   
 16   8   9  1   
 17   8  10  1   
 18   8  36  1   
 19   9  11  1   
 20   9  12  1   
 21   9  37  1   
 22  10  13  1   
 23  10  38  1   
 24  10  39  1   
 25  11  40  1   
 26  12  13  1   
 27  12  41  1   
 28  12  42  1   
 29  13  14  am  
 30  14  15  2   
 31  14  16  1   
 32  16  17  ar  
 33  16  18  ar  
 34  17  19  ar  
 35  17  43  1   
 36  18  20  ar  
 37  18  44  1   
 38  19  21  ar  
 39  19  45  1   
 40  20  21  ar  
 41  20  46  1   
 42  21  22  1   
 43  22  23  1   
 44  22  47  1   
 45  22  48  1   
 46  23  24  1   
 47  23  49  1   
 48  23  50  1   
 49  24  25  1   
 50  24  26  1   
 51  24  27  1   
 52  25  51  1   
 53  26  52  1   
 54  26  53  1   
 55  26  54  1   
 56  27  55  1   
 57  27  56  1   
 58  27  57  1   
@<TRIPOS>SUBSTRUCTURE
  1 ****  14 GROUP 4 **** **** 0

# MOE 2024.06 (io_trps.svl 2023.06)
