@<TRIPOS>MOLECULE
NONAME
45 48 1 0 0 
SMALL
USER_CHARGES


@<TRIPOS>ATOM
  1 O       -0.4340     0.2500     1.5280 O.2   1 <1>  -0.5700 
  2 C       -1.4240     0.8650     1.1670 C.2   1 <1>   0.5440 
  3 N       -2.6480     0.2260     1.2790 N.am  1 <1>  -0.6600 
  4 C       -1.2660     2.2280     0.6510 C.ar  1 <1>   0.3960 
  5 C       -2.7610    -1.2640     1.3350 C.3   1 <1>   0.1400 
  6 C       -3.9740     0.8710     1.0360 C.3   1 <1>   0.1400 
  7 N       -1.9130     2.6010    -0.4680 N.ar  1 <1>  -0.6200 
  8 C       -0.4290     3.1050     1.3410 C.ar  1 <1>  -0.1500 
  9 C       -3.5020    -1.7930     0.0900 C.3   1 <1>   0.3440 
 10 C       -4.6310     0.2660    -0.2190 C.3   1 <1>   0.2950 
 11 C       -1.7340     3.8400    -0.8670 C.ar  1 <1>   0.4100 
 12 C       -0.2470     4.4020     0.9100 C.ar  1 <1>  -0.1500 
 13 O       -4.7290    -1.1280    -0.0750 O.3   1 <1>  -0.5600 
 14 C       -3.7500    -3.2950     0.2100 C.ar  1 <1>  -0.1440 
 15 C       -6.0340     0.8590    -0.4450 C.3   1 <1>  -0.1950 
 16 N       -2.4100     4.1630    -1.9970 N.pl3 1 <1>  -0.9000 
 17 C       -0.9260     4.7690    -0.2250 C.ar  1 <1>  -0.1500 
 18 C       -4.9000    -3.7940     0.8070 C.ar  1 <1>  -0.1500 
 19 C       -2.8020    -4.1860    -0.2740 C.ar  1 <1>  -0.1500 
 20 C       -7.2470     0.3470     0.2680 C.3   1 <1>  -0.2000 
 21 C       -7.0970     0.1360    -1.2130 C.3   1 <1>  -0.2000 
 22 C       -5.0990    -5.1590     0.9190 C.ar  1 <1>  -0.1500 
 23 C       -3.0000    -5.5520    -0.1630 C.ar  1 <1>  -0.1500 
 24 C       -4.1490    -6.0390     0.4340 C.ar  1 <1>  -0.1500 
 25 H       -1.7890    -1.7210     1.3840 H     1 <1>   0.0800 
 26 H       -3.3030    -1.5490     2.2190 H     1 <1>   0.0800 
 27 H       -4.6130     0.6930     1.8820 H     1 <1>   0.0800 
 28 H       -3.8800     1.9340     0.9240 H     1 <1>   0.0800 
 29 H        0.0800     2.7550     2.2220 H     1 <1>   0.1500 
 30 H       -2.9070    -1.6030    -0.7860 H     1 <1>   0.0800 
 31 H       -4.0210     0.4730    -1.0820 H     1 <1>   0.0800 
 32 H        0.3940     5.0880     1.4370 H     1 <1>   0.1500 
 33 H       -5.9810     1.9220    -0.6020 H     1 <1>   0.1000 
 34 H       -2.7960     3.3490    -2.4780 H     1 <1>   0.4000 
 35 H       -1.9700     4.8290    -2.6320 H     1 <1>   0.4000 
 36 H       -0.8430     5.7630    -0.6210 H     1 <1>   0.1500 
 37 H       -5.6460    -3.1160     1.1840 H     1 <1>   0.1500 
 38 H       -1.9030    -3.8220    -0.7400 H     1 <1>   0.1500 
 39 H       -7.1560    -0.5110     0.9120 H     1 <1>   0.1000 
 40 H       -7.9810     1.0510     0.6190 H     1 <1>   0.1000 
 41 H       -7.7250     0.6970    -1.8830 H     1 <1>   0.1000 
 42 H       -6.9020    -0.8620    -1.5680 H     1 <1>   0.1000 
 43 H       -5.9950    -5.5340     1.3820 H     1 <1>   0.1500 
 44 H       -2.2600    -6.2350    -0.5410 H     1 <1>   0.1500 
 45 H       -4.3030    -7.1010     0.5210 H     1 <1>   0.1500 
@<TRIPOS>BOND
  1   1   2  2   
  2   2   3  am  
  3   2   4  1   
  4   3   5  1   
  5   3   6  1   
  6   4   7  ar  
  7   4   8  ar  
  8   5   9  1   
  9   5  25  1   
 10   5  26  1   
 11   6  10  1   
 12   6  27  1   
 13   6  28  1   
 14   7  11  ar  
 15   8  12  ar  
 16   8  29  1   
 17   9  13  1   
 18   9  14  1   
 19   9  30  1   
 20  10  13  1   
 21  10  15  1   
 22  10  31  1   
 23  11  16  1   
 24  11  17  ar  
 25  12  17  ar  
 26  12  32  1   
 27  14  18  ar  
 28  14  19  ar  
 29  15  20  1   
 30  15  21  1   
 31  15  33  1   
 32  16  34  1   
 33  16  35  1   
 34  17  36  1   
 35  18  22  ar  
 36  18  37  1   
 37  19  23  ar  
 38  19  38  1   
 39  20  21  1   
 40  20  39  1   
 41  20  40  1   
 42  21  41  1   
 43  21  42  1   
 44  22  24  ar  
 45  22  43  1   
 46  23  24  ar  
 47  23  44  1   
 48  24  45  1   
@<TRIPOS>SUBSTRUCTURE
  1 ****   3 GROUP 4 **** **** 0

# MOE 2024.06 (io_trps.svl 2023.06)
