@<TRIPOS>MOLECULE
NONAME
46 49 1 0 0 
SMALL
USER_CHARGES


@<TRIPOS>ATOM
  1 O        3.7810    -1.7810     1.7970 O.2   1 <1>  -0.5700 
  2 C        2.7940    -1.9400     1.0950 C.2   1 <1>   0.5440 
  3 N        2.2990    -0.8180     0.4510 N.am  1 <1>  -0.6600 
  4 C        2.2330    -3.2890     0.9650 C.ar  1 <1>   0.3960 
  5 C        1.1740    -0.7860    -0.5120 C.3   1 <1>   0.1400 
  6 C        2.9590     0.5040     0.5290 C.3   1 <1>   0.1400 
  7 N        0.9270    -3.4840     0.7140 N.ar  1 <1>  -0.6200 
  8 C        3.1090    -4.3700     1.1190 C.ar  1 <1>   0.1600 
  9 C        1.0760     0.6660    -0.9670 C.3   1 <1>  -0.1600 
 10 C        2.4540     1.2600    -0.6940 C.3   1 <1>  -0.1600 
 11 C        0.5790    -4.7570     0.6290 C.ar  1 <1>   0.4100 
 12 N        2.7840    -5.6530     1.0270 N.ar  1 <1>  -0.6200 
 13 N       -0.7610    -5.0220     0.3970 N.pl3 1 <1>  -0.8380 
 14 C        1.5000    -5.8040     0.7760 C.ar  1 <1>   0.1600 
 15 C       -1.5500    -4.0880    -0.4480 C.3   1 <1>   0.2090 
 16 C       -1.5340    -5.6570     1.4920 C.3   1 <1>   0.2090 
 17 C       -2.7310    -4.8420    -1.0610 C.3   1 <1>  -0.1600 
 18 C       -2.7210    -6.4190     0.9000 C.3   1 <1>  -0.1600 
 19 C       -3.5920    -5.5070     0.0230 C.3   1 <1>   0.1000 
 20 C       -4.7400    -6.3030    -0.5830 C.2   1 <1>  -0.3320 
 21 N       -5.7780    -6.7660     0.1470 N.pl3 1 <1>   0.3000 
 22 C       -4.9710    -6.6950    -1.8570 C.2   1 <1>  -0.1500 
 23 N       -6.6640    -7.4400    -0.6090 N.2   1 <1>  -0.7070 
 24 C       -6.1720    -7.3920    -1.8090 C.2   1 <1>   0.1390 
 25 H        0.2580    -1.1010    -0.0410 H     1 <1>   0.0800 
 26 H        1.3990    -1.4320    -1.3440 H     1 <1>   0.0800 
 27 H        4.0310     0.4070     0.5200 H     1 <1>   0.0800 
 28 H        2.6480     0.9950     1.4350 H     1 <1>   0.0800 
 29 H        4.1420    -4.1550     1.3290 H     1 <1>   0.1500 
 30 H        0.3380     1.1690    -0.3660 H     1 <1>   0.0800 
 31 H        0.7940     0.7430    -2.0020 H     1 <1>   0.0800 
 32 H        3.1110     1.0590    -1.5220 H     1 <1>   0.0800 
 33 H        2.4200     2.3210    -0.5210 H     1 <1>   0.0800 
 34 H        1.1260    -6.8050     0.6720 H     1 <1>   0.1500 
 35 H       -0.9260    -3.6920    -1.2320 H     1 <1>   0.0800 
 36 H       -1.8990    -3.2670     0.1560 H     1 <1>   0.0800 
 37 H       -1.8830    -4.8920     2.1660 H     1 <1>   0.0800 
 38 H       -0.9070    -6.3340     2.0470 H     1 <1>   0.0800 
 39 H       -2.3440    -5.5880    -1.7320 H     1 <1>   0.0800 
 40 H       -3.3320    -4.1580    -1.6310 H     1 <1>   0.0800 
 41 H       -3.3080    -6.8300     1.7000 H     1 <1>   0.0800 
 42 H       -2.3500    -7.2380     0.3090 H     1 <1>   0.0800 
 43 H       -4.0080    -4.7270     0.6400 H     1 <1>   0.0800 
 44 H       -5.9140    -6.6410     1.1570 H     1 <1>   0.2700 
 45 H       -4.3830    -6.5290    -2.7420 H     1 <1>   0.1500 
 46 H       -6.6490    -7.8440    -2.6620 H     1 <1>   0.1500 
@<TRIPOS>BOND
  1   1   2  2   
  2   2   3  am  
  3   2   4  1   
  4   3   5  1   
  5   3   6  1   
  6   4   7  ar  
  7   4   8  ar  
  8   5   9  1   
  9   5  25  1   
 10   5  26  1   
 11   6  10  1   
 12   6  27  1   
 13   6  28  1   
 14   7  11  ar  
 15   8  12  ar  
 16   8  29  1   
 17   9  10  1   
 18   9  30  1   
 19   9  31  1   
 20  10  32  1   
 21  10  33  1   
 22  11  13  1   
 23  11  14  ar  
 24  12  14  ar  
 25  13  15  1   
 26  13  16  1   
 27  14  34  1   
 28  15  17  1   
 29  15  35  1   
 30  15  36  1   
 31  16  18  1   
 32  16  37  1   
 33  16  38  1   
 34  17  19  1   
 35  17  39  1   
 36  17  40  1   
 37  18  19  1   
 38  18  41  1   
 39  18  42  1   
 40  19  20  1   
 41  19  43  1   
 42  20  21  1   
 43  20  22  2   
 44  21  23  1   
 45  21  44  1   
 46  22  24  1   
 47  22  45  1   
 48  23  24  2   
 49  24  46  1   
@<TRIPOS>SUBSTRUCTURE
  1 ****  13 GROUP 4 **** **** 0

# MOE 2024.06 (io_trps.svl 2023.06)
