@<TRIPOS>MOLECULE
NONAME
55 58 1 0 0 
SMALL
USER_CHARGES


@<TRIPOS>ATOM
  1 O       -2.1690     0.9680    -1.7610 O.2   1 <1>  -0.5700 
  2 C       -1.9580     0.8120    -0.5840 C.2   1 <1>   0.5690 
  3 N       -1.9280    -0.4190    -0.0210 N.am  1 <1>  -0.7300 
  4 C       -1.7220     2.0430     0.2880 C.3   1 <1>  -0.0190 
  5 C       -2.0580    -1.6950    -0.7680 C.3   1 <1>   0.2200 
  6 C       -2.9060     3.0250     0.1870 C.3   1 <1>  -0.1600 
  7 C       -0.4120     2.7460    -0.1180 C.3   1 <1>  -0.1600 
  8 C       -3.4030    -2.3590    -0.5040 C.3   1 <1>  -0.0800 
  9 C       -1.1210    -2.7160    -0.1400 C.3   1 <1>   0.1200 
 10 C       -2.6390     4.3330     0.9300 C.3   1 <1>   0.3430 
 11 C       -0.2000     4.0620     0.6270 C.3   1 <1>   0.3430 
 12 C       -3.1610    -3.1340     0.7980 C.3   1 <1>   0.1200 
 13 C       -4.6230    -1.4200    -0.4690 C.3   1 <1>  -0.0170 
 14 O       -1.7800    -3.1270     1.0180 O.3   1 <1>  -0.5600 
 15 N       -1.3840     4.9470     0.4210 N.4   1 <1>  -0.9590 
 16 C       -5.9120    -2.2120    -0.3120 C.ar  1 <1>  -0.1440 
 17 C       -1.1640     6.3070     0.9970 C.3   1 <1>   0.5230 
 18 C       -6.5290    -2.3810     0.9110 C.ar  1 <1>  -0.1500 
 19 C       -6.5300    -2.8070    -1.3930 C.ar  1 <1>  -0.1500 
 20 C       -0.1980     7.0930     0.1280 C.2   1 <1>  -0.0400 
 21 C       -7.6980    -3.1200     0.9920 C.ar  1 <1>   0.1600 
 22 C       -7.6990    -3.5260    -1.2040 C.ar  1 <1>   0.1600 
 23 O        1.0750     6.7450     0.1000 O.3   1 <1>  -0.2800 
 24 C       -0.4120     8.1600    -0.6730 C.2   1 <1>  -0.1500 
 25 N       -8.2970    -3.6990    -0.0360 N.ar  1 <1>  -0.6200 
 26 C        1.6990     7.5740    -0.7130 C.2   1 <1>  -0.0100 
 27 C        0.8350     8.4740    -1.2270 C.2   1 <1>  -0.1500 
 28 H       -1.7660    -0.5620     0.9790 H     1 <1>   0.3700 
 29 H       -1.6320     1.7220     1.3110 H     1 <1>   0.0800 
 30 H       -1.8630    -1.5490    -1.8180 H     1 <1>   0.0800 
 31 H       -3.7880     2.5610     0.5940 H     1 <1>   0.0800 
 32 H       -3.1130     3.2470    -0.8460 H     1 <1>   0.0800 
 33 H       -0.4140     2.9420    -1.1780 H     1 <1>   0.0800 
 34 H        0.4200     2.0920     0.0800 H     1 <1>   0.0800 
 35 H       -3.5660    -3.0850    -1.2810 H     1 <1>   0.0800 
 36 H       -0.1580    -2.3070     0.1120 H     1 <1>   0.0800 
 37 H       -1.0020    -3.5750    -0.7780 H     1 <1>   0.0800 
 38 H       -2.5500     4.1370     1.9860 H     1 <1>   0.0800 
 39 H       -3.4700     5.0040     0.7760 H     1 <1>   0.0800 
 40 H        0.6940     4.5340     0.2520 H     1 <1>   0.0800 
 41 H       -0.0640     3.8680     1.6790 H     1 <1>   0.0800 
 42 H       -3.4970    -4.1540     0.7200 H     1 <1>   0.0800 
 43 H       -3.6290    -2.6610     1.6430 H     1 <1>   0.0800 
 44 H       -4.6630    -0.8540    -1.3840 H     1 <1>   0.0800 
 45 H       -4.5370    -0.7190     0.3420 H     1 <1>   0.0800 
 46 H       -1.4740     5.0800    -0.5960 H     1 <1>   0.4500 
 47 H       -2.0990     6.8410     1.0310 H     1 <1>   0.0800 
 48 H       -0.7760     6.2360     2.0000 H     1 <1>   0.0800 
 49 H       -6.1160    -1.9470     1.8020 H     1 <1>   0.1500 
 50 H       -6.1160    -2.7190    -2.3810 H     1 <1>   0.1500 
 51 H       -8.1650    -3.2420     1.9540 H     1 <1>   0.1500 
 52 H       -8.1670    -3.9830    -2.0590 H     1 <1>   0.1500 
 53 H       -1.3220     8.6980    -0.8790 H     1 <1>   0.1500 
 54 H        2.7580     7.4570    -0.8710 H     1 <1>   0.1500 
 55 H        1.0330     9.2780    -1.9160 H     1 <1>   0.1500 
@<TRIPOS>BOND
  1   1   2  2   
  2   2   3  am  
  3   2   4  1   
  4   3   5  1   
  5   3  28  1   
  6   4   6  1   
  7   4   7  1   
  8   4  29  1   
  9   5   8  1   
 10   5   9  1   
 11   5  30  1   
 12   6  10  1   
 13   6  31  1   
 14   6  32  1   
 15   7  11  1   
 16   7  33  1   
 17   7  34  1   
 18   8  12  1   
 19   8  13  1   
 20   8  35  1   
 21   9  14  1   
 22   9  36  1   
 23   9  37  1   
 24  10  15  1   
 25  10  38  1   
 26  10  39  1   
 27  11  15  1   
 28  11  40  1   
 29  11  41  1   
 30  12  14  1   
 31  12  42  1   
 32  12  43  1   
 33  13  16  1   
 34  13  44  1   
 35  13  45  1   
 36  15  17  1   
 37  15  46  1   
 38  16  18  ar  
 39  16  19  ar  
 40  17  20  1   
 41  17  47  1   
 42  17  48  1   
 43  18  21  ar  
 44  18  49  1   
 45  19  22  ar  
 46  19  50  1   
 47  20  23  1   
 48  20  24  2   
 49  21  25  ar  
 50  21  51  1   
 51  22  25  ar  
 52  22  52  1   
 53  23  26  1   
 54  24  27  1   
 55  24  53  1   
 56  26  27  2   
 57  26  54  1   
 58  27  55  1   
@<TRIPOS>SUBSTRUCTURE
  1 ****   2 GROUP 4 **** **** 0

# MOE 2024.06 (io_trps.svl 2023.06)
