@<TRIPOS>MOLECULE
NONAME
51 54 1 0 0 
SMALL
USER_CHARGES


@<TRIPOS>ATOM
  1 O       -0.7090     0.7780    -1.7210 O.2   1 <1>  -0.5700 
  2 C       -0.4940     1.7790    -1.0780 C.2   1 <1>   0.5690 
  3 N       -1.4860     2.5040    -0.4700 N.am  1 <1>  -0.5090 
  4 C        0.9550     2.2610    -0.9880 C.3   1 <1>   0.1810 
  5 C       -1.2090     3.8320     0.1640 C.3   1 <1>   0.3640 
  6 C       -2.8890     2.0250    -0.3890 C.3   1 <1>   0.0490 
  7 O        1.1600     3.2230     0.0170 O.3   1 <1>  -0.5600 
  8 C       -2.1540     4.8930    -0.4050 C.ar  1 <1>  -0.1440 
  9 C        0.2540     4.3070    -0.0270 C.3   1 <1>   0.2610 
 10 C       -3.5190     1.8660     0.9600 C.3   1 <1>  -0.2000 
 11 C       -3.1720     0.6580     0.1500 C.3   1 <1>  -0.2000 
 12 C       -2.7810     5.7890     0.4510 C.ar  1 <1>   0.1600 
 13 C       -2.3980     4.9970    -1.7630 C.ar  1 <1>  -0.1500 
 14 C        0.6420     5.3890     0.9980 C.2   1 <1>   0.5690 
 15 N       -3.6060     6.7510     0.0690 N.ar  1 <1>  -0.6200 
 16 C       -3.2580     5.9910    -2.1750 C.ar  1 <1>  -0.1500 
 17 O       -0.0450     5.5220     1.9880 O.2   1 <1>  -0.5700 
 18 N        1.7270     6.2090     0.7880 N.am  1 <1>  -0.6600 
 19 C       -3.8280     6.8280    -1.2320 C.ar  1 <1>   0.1600 
 20 C        2.7290     6.0630    -0.3140 C.3   1 <1>   0.1400 
 21 C        2.0300     7.3550     1.7010 C.3   1 <1>   0.1400 
 22 C        2.8430     7.3680    -1.1180 C.3   1 <1>   0.1400 
 23 C        2.1490     8.6670     0.9090 C.3   1 <1>   0.1400 
 24 N        3.1280     8.5270    -0.2160 N.am  1 <1>  -0.6600 
 25 C        4.2210     9.3270    -0.4220 C.2   1 <1>   0.5690 
 26 O        5.0050     9.1210    -1.3170 O.2   1 <1>  -0.5700 
 27 C        4.4920    10.5120     0.4760 C.3   1 <1>  -0.1790 
 28 H        1.2520     2.6810    -1.9310 H     1 <1>   0.0800 
 29 H        1.5900     1.4220    -0.7690 H     1 <1>   0.0800 
 30 H       -1.3990     3.7190     1.2170 H     1 <1>   0.0800 
 31 H       -3.4970     2.3820    -1.2040 H     1 <1>   0.1000 
 32 H        0.3330     4.7490    -1.0030 H     1 <1>   0.0800 
 33 H       -2.9470     2.0470     1.8520 H     1 <1>   0.1000 
 34 H       -4.5590     2.1170     1.0760 H     1 <1>   0.1000 
 35 H       -3.9680     0.0890    -0.2940 H     1 <1>   0.1000 
 36 H       -2.3410     0.0430     0.4490 H     1 <1>   0.1000 
 37 H       -2.5930     5.7180     1.5100 H     1 <1>   0.1500 
 38 H       -1.9470     4.3290    -2.4780 H     1 <1>   0.1500 
 39 H       -3.4920     6.1180    -3.2170 H     1 <1>   0.1500 
 40 H       -4.5010     7.6010    -1.5640 H     1 <1>   0.1500 
 41 H        3.6900     5.8350     0.1160 H     1 <1>   0.0800 
 42 H        2.4740     5.2580    -0.9760 H     1 <1>   0.0800 
 43 H        1.2600     7.4640     2.4450 H     1 <1>   0.0800 
 44 H        2.9560     7.1610     2.2140 H     1 <1>   0.0800 
 45 H        1.9210     7.5490    -1.6410 H     1 <1>   0.0800 
 46 H        3.6210     7.2590    -1.8540 H     1 <1>   0.0800 
 47 H        2.4380     9.4530     1.5820 H     1 <1>   0.0800 
 48 H        1.1840     8.9200     0.5050 H     1 <1>   0.0800 
 49 H        3.6470    11.1730     0.4730 H     1 <1>   0.0800 
 50 H        5.3500    11.0490     0.1150 H     1 <1>   0.0800 
 51 H        4.6930    10.1740     1.4740 H     1 <1>   0.0800 
@<TRIPOS>BOND
  1   1   2  2   
  2   2   3  am  
  3   2   4  1   
  4   3   5  1   
  5   3   6  1   
  6   4   7  1   
  7   4  28  1   
  8   4  29  1   
  9   5   8  1   
 10   5   9  1   
 11   5  30  1   
 12   6  10  1   
 13   6  11  1   
 14   6  31  1   
 15   7   9  1   
 16   8  12  ar  
 17   8  13  ar  
 18   9  14  1   
 19   9  32  1   
 20  10  11  1   
 21  10  33  1   
 22  10  34  1   
 23  11  35  1   
 24  11  36  1   
 25  12  15  ar  
 26  12  37  1   
 27  13  16  ar  
 28  13  38  1   
 29  14  17  2   
 30  14  18  am  
 31  15  19  ar  
 32  16  19  ar  
 33  16  39  1   
 34  18  20  1   
 35  18  21  1   
 36  19  40  1   
 37  20  22  1   
 38  20  41  1   
 39  20  42  1   
 40  21  23  1   
 41  21  43  1   
 42  21  44  1   
 43  22  24  1   
 44  22  45  1   
 45  22  46  1   
 46  23  24  1   
 47  23  47  1   
 48  23  48  1   
 49  24  25  am  
 50  25  26  2   
 51  25  27  1   
 52  27  49  1   
 53  27  50  1   
 54  27  51  1   
@<TRIPOS>SUBSTRUCTURE
  1 ****   9 GROUP 4 **** **** 0

# MOE 2024.06 (io_trps.svl 2023.06)
