@<TRIPOS>MOLECULE
NONAME
53 55 1 0 0 
SMALL
USER_CHARGES


@<TRIPOS>ATOM
  1 O        0.1120    -0.1990     0.9170 O.3   1 <1>  -0.3630 
  2 C       -0.0540    -1.4450     0.3880 C.ar  1 <1>   0.0830 
  3 C        1.1990     0.0940     1.7690 C.3   1 <1>   0.0400 
  4 C       -1.1110    -1.6280    -0.4970 C.ar  1 <1>   0.0830 
  5 C        0.7670    -2.5290     0.6820 C.ar  1 <1>  -0.1500 
  6 O       -1.9170    -0.5960    -0.7910 O.3   1 <1>  -0.5330 
  7 C       -1.3520    -2.8550    -1.0810 C.ar  1 <1>  -0.1500 
  8 C        0.5230    -3.7650     0.1040 C.ar  1 <1>  -0.1500 
  9 C       -0.5410    -3.9380    -0.7730 C.ar  1 <1>  -0.1430 
 10 C       -0.8300    -5.2930    -1.3850 C.3   1 <1>   0.4860 
 11 N       -1.5600    -6.1090    -0.3700 N.4   1 <1>  -0.9590 
 12 C       -1.6090    -7.5640    -0.7670 C.3   1 <1>   0.3430 
 13 C       -2.9260    -5.5400    -0.1450 C.3   1 <1>   0.3430 
 14 C       -2.4270    -8.4610     0.2190 C.3   1 <1>   0.4230 
 15 C       -3.6670    -6.3680     0.9100 C.3   1 <1>  -0.1600 
 16 N       -2.4640    -9.9520    -0.1230 N.4   1 <1>  -0.9590 
 17 C       -3.8290    -7.8670     0.5400 C.3   1 <1>   0.0000 
 18 C       -3.5230   -10.7180     0.6210 C.3   1 <1>   0.3430 
 19 C       -2.5820   -10.2680    -1.5880 C.3   1 <1>   0.2630 
 20 C       -4.4050    -8.6110     1.7790 C.3   1 <1>  -0.1600 
 21 C       -4.8530    -8.0020    -0.6250 C.3   1 <1>   0.1200 
 22 C       -3.8630   -10.0460     1.9520 C.3   1 <1>  -0.1600 
 23 O       -4.3120    -7.5850    -1.8340 O.3   1 <1>  -0.6800 
 24 H        1.1420     1.1340     2.0380 H     1 <1>   0.0800 
 25 H        2.1180    -0.0950     1.2420 H     1 <1>   0.0800 
 26 H        1.1270    -0.5140     2.6530 H     1 <1>   0.0800 
 27 H        1.5980    -2.4270     1.3550 H     1 <1>   0.1500 
 28 H       -1.6060     0.2070    -0.3230 H     1 <1>   0.4500 
 29 H       -2.1760    -2.9350    -1.7690 H     1 <1>   0.1500 
 30 H        1.1810    -4.5820     0.3460 H     1 <1>   0.1500 
 31 H        0.1030    -5.7640    -1.6490 H     1 <1>   0.0800 
 32 H       -1.4230    -5.1780    -2.2780 H     1 <1>   0.0800 
 33 H       -1.0340    -5.9760     0.5050 H     1 <1>   0.4500 
 34 H       -2.0510    -7.6360    -1.7450 H     1 <1>   0.0800 
 35 H       -0.6030    -7.9450    -0.8270 H     1 <1>   0.0800 
 36 H       -2.8490    -4.5190     0.1980 H     1 <1>   0.0800 
 37 H       -3.4840    -5.5380    -1.0680 H     1 <1>   0.0800 
 38 H       -1.8890    -8.3950     1.1500 H     1 <1>   0.0800 
 39 H       -3.1360    -6.2620     1.8410 H     1 <1>   0.0800 
 40 H       -4.6390    -5.9270     1.0610 H     1 <1>   0.0800 
 41 H       -1.5700   -10.3560     0.1990 H     1 <1>   0.4500 
 42 H       -4.4210   -10.7710     0.0280 H     1 <1>   0.0800 
 43 H       -3.1900   -11.7290     0.7990 H     1 <1>   0.0800 
 44 H       -3.5000    -9.8710    -1.9890 H     1 <1>   0.0800 
 45 H       -2.5810   -11.3360    -1.7400 H     1 <1>   0.0800 
 46 H       -1.7560    -9.8510    -2.1400 H     1 <1>   0.0800 
 47 H       -4.1830    -8.0780     2.6890 H     1 <1>   0.0800 
 48 H       -5.4810    -8.6450     1.7160 H     1 <1>   0.0800 
 49 H       -5.7260    -7.4010    -0.4280 H     1 <1>   0.0800 
 50 H       -5.1780    -9.0200    -0.7500 H     1 <1>   0.0800 
 51 H       -4.6000   -10.6390     2.4670 H     1 <1>   0.0800 
 52 H       -2.9840   -10.0380     2.5740 H     1 <1>   0.0800 
 53 H       -5.0210    -7.5200    -2.5170 H     1 <1>   0.4000 
@<TRIPOS>BOND
  1   1   2  1   
  2   1   3  1   
  3   2   4  ar  
  4   2   5  ar  
  5   3  24  1   
  6   3  25  1   
  7   3  26  1   
  8   4   6  1   
  9   4   7  ar  
 10   5   8  ar  
 11   5  27  1   
 12   6  28  1   
 13   7   9  ar  
 14   7  29  1   
 15   8   9  ar  
 16   8  30  1   
 17   9  10  1   
 18  10  11  1   
 19  10  31  1   
 20  10  32  1   
 21  11  12  1   
 22  11  13  1   
 23  11  33  1   
 24  12  14  1   
 25  12  34  1   
 26  12  35  1   
 27  13  15  1   
 28  13  36  1   
 29  13  37  1   
 30  14  16  1   
 31  14  17  1   
 32  14  38  1   
 33  15  17  1   
 34  15  39  1   
 35  15  40  1   
 36  16  18  1   
 37  16  19  1   
 38  16  41  1   
 39  17  20  1   
 40  17  21  1   
 41  18  22  1   
 42  18  42  1   
 43  18  43  1   
 44  19  44  1   
 45  19  45  1   
 46  19  46  1   
 47  20  22  1   
 48  20  47  1   
 49  20  48  1   
 50  21  23  1   
 51  21  49  1   
 52  21  50  1   
 53  22  51  1   
 54  22  52  1   
 55  23  53  1   
@<TRIPOS>SUBSTRUCTURE
  1 ****  11 GROUP 4 **** **** 0

# MOE 2024.06 (io_trps.svl 2023.06)
