@<TRIPOS>MOLECULE
NONAME
55 58 1 0 0 
SMALL
USER_CHARGES


@<TRIPOS>ATOM
  1 O        0.2960    -2.6730     2.3200 O.2   1 <1>  -0.5700 
  2 C        0.7240    -2.1610     1.3140 C.2   1 <1>   0.5690 
  3 N        1.3090    -2.8950     0.3160 N.am  1 <1>  -0.6600 
  4 C        0.5680    -0.6550     1.1780 C.3   1 <1>  -0.0990 
  5 C        1.9340    -2.2980    -0.8990 C.3   1 <1>   0.1400 
  6 C        1.4760    -4.3870     0.4410 C.3   1 <1>   0.2010 
  7 C        1.4960    -0.0330     0.1270 C.3   1 <1>  -0.1600 
  8 C        1.4470    -0.8690    -1.1530 C.3   1 <1>  -0.1600 
  9 C        0.8500    -5.1840    -0.7090 C.2   1 <1>   0.5690 
 10 O        1.6110    -5.6180    -1.5470 O.2   1 <1>  -0.5700 
 11 N       -0.5070    -5.3930    -0.7930 N.am  1 <1>  -0.6600 
 12 C       -1.5140    -4.8510     0.1630 C.3   1 <1>   0.1400 
 13 C       -1.1110    -6.1860    -1.9000 C.3   1 <1>   0.1400 
 14 C       -2.2980    -6.0100     0.7820 C.3   1 <1>  -0.1600 
 15 C       -1.9010    -7.3600    -1.3160 C.3   1 <1>  -0.1600 
 16 C       -2.9550    -6.8990    -0.2930 C.3   1 <1>   0.4240 
 17 O       -3.8090    -6.0640    -1.0470 O.3   1 <1>  -0.5600 
 18 C       -3.7280    -8.1040     0.3180 C.ar  1 <1>  -0.1430 
 19 C       -5.0860    -5.8270    -0.5550 C.3   1 <1>   0.1200 
 20 C       -3.0850    -9.1090     1.0550 C.ar  1 <1>   0.0820 
 21 C       -5.1090    -8.2040     0.1420 C.ar  1 <1>  -0.1430 
 22 C       -5.8630    -7.1320    -0.6180 C.3   1 <1>  -0.0170 
 23 O       -1.7450    -9.0170     1.2630 O.3   1 <1>  -0.3630 
 24 C       -3.8150   -10.1790     1.5690 C.ar  1 <1>  -0.1500 
 25 C       -5.8230    -9.2730     0.6560 C.ar  1 <1>  -0.1500 
 26 C       -1.0020   -10.0140     1.9280 C.3   1 <1>   0.0400 
 27 C       -5.1780   -10.2610     1.3690 C.ar  1 <1>  -0.1500 
 28 H        0.7490    -0.2000     2.1340 H     1 <1>   0.0800 
 29 H       -0.4550    -0.4610     0.9100 H     1 <1>   0.0800 
 30 H        1.7080    -2.9020    -1.7630 H     1 <1>   0.0800 
 31 H        3.0020    -2.2960    -0.7670 H     1 <1>   0.0800 
 32 H        1.0600    -4.7400     1.3660 H     1 <1>   0.0800 
 33 H        2.5270    -4.6090     0.4670 H     1 <1>   0.0800 
 34 H        2.5050    -0.0140     0.5050 H     1 <1>   0.0800 
 35 H        1.1930     0.9800    -0.0760 H     1 <1>   0.0800 
 36 H        0.4400    -0.9020    -1.5320 H     1 <1>   0.0800 
 37 H        2.0640    -0.4170    -1.9090 H     1 <1>   0.0800 
 38 H       -2.1820    -4.1950    -0.3680 H     1 <1>   0.0800 
 39 H       -1.0500    -4.2830     0.9450 H     1 <1>   0.0800 
 40 H       -0.3490    -6.5600    -2.5620 H     1 <1>   0.0800 
 41 H       -1.7630    -5.5490    -2.4730 H     1 <1>   0.0800 
 42 H       -3.0430    -5.6320     1.4540 H     1 <1>   0.0800 
 43 H       -1.6130    -6.5850     1.3720 H     1 <1>   0.0800 
 44 H       -1.1960    -8.0290    -0.8660 H     1 <1>   0.0800 
 45 H       -2.3920    -7.8980    -2.1050 H     1 <1>   0.0800 
 46 H       -5.5480    -5.0810    -1.1780 H     1 <1>   0.0800 
 47 H       -5.0210    -5.4580     0.4540 H     1 <1>   0.0800 
 48 H       -5.9840    -7.4290    -1.6440 H     1 <1>   0.0800 
 49 H       -6.8370    -6.9840    -0.1880 H     1 <1>   0.0800 
 50 H       -3.3450   -10.9610     2.1320 H     1 <1>   0.1500 
 51 H       -6.8860    -9.3400     0.5050 H     1 <1>   0.1500 
 52 H        0.0310    -9.7140     1.9280 H     1 <1>   0.0800 
 53 H       -1.1120   -10.9430     1.3980 H     1 <1>   0.0800 
 54 H       -1.3570   -10.0980     2.9390 H     1 <1>   0.0800 
 55 H       -5.7350   -11.0910     1.7670 H     1 <1>   0.1500 
@<TRIPOS>BOND
  1   1   2  2   
  2   2   3  am  
  3   2   4  1   
  4   3   5  1   
  5   3   6  1   
  6   4   7  1   
  7   4  28  1   
  8   4  29  1   
  9   5   8  1   
 10   5  30  1   
 11   5  31  1   
 12   6   9  1   
 13   6  32  1   
 14   6  33  1   
 15   7   8  1   
 16   7  34  1   
 17   7  35  1   
 18   8  36  1   
 19   8  37  1   
 20   9  10  2   
 21   9  11  am  
 22  11  12  1   
 23  11  13  1   
 24  12  14  1   
 25  12  38  1   
 26  12  39  1   
 27  13  15  1   
 28  13  40  1   
 29  13  41  1   
 30  14  16  1   
 31  14  42  1   
 32  14  43  1   
 33  15  16  1   
 34  15  44  1   
 35  15  45  1   
 36  16  17  1   
 37  16  18  1   
 38  17  19  1   
 39  18  20  ar  
 40  18  21  ar  
 41  19  22  1   
 42  19  46  1   
 43  19  47  1   
 44  20  23  1   
 45  20  24  ar  
 46  21  22  1   
 47  21  25  ar  
 48  22  48  1   
 49  22  49  1   
 50  23  26  1   
 51  24  27  ar  
 52  24  50  1   
 53  25  27  ar  
 54  25  51  1   
 55  26  52  1   
 56  26  53  1   
 57  26  54  1   
 58  27  55  1   
@<TRIPOS>SUBSTRUCTURE
  1 ****  12 GROUP 4 **** **** 0

# MOE 2024.06 (io_trps.svl 2023.06)
