@<TRIPOS>MOLECULE
NONAME
45 48 1 0 0 
SMALL
USER_CHARGES


@<TRIPOS>ATOM
  1 CL       0.7820    -0.3120     0.0130 Cl    1 <1>  -0.1770 
  2 C        0.5520    -2.0380    -0.0970 C.ar  1 <1>   0.1770 
  3 C        0.1280    -2.7380     1.0170 C.ar  1 <1>  -0.1500 
  4 C        0.7960    -2.6790    -1.2970 C.ar  1 <1>  -0.1500 
  5 C       -0.0530    -4.1090     0.9250 C.ar  1 <1>  -0.1500 
  6 C        0.6120    -4.0500    -1.3800 C.ar  1 <1>  -0.1500 
  7 C        0.1900    -4.7700    -0.2710 C.ar  1 <1>  -0.0320 
  8 C       -0.0190    -6.2730    -0.3660 C.3   1 <1>  -0.0630 
  9 C        0.7500    -7.1380     0.5900 C.3   1 <1>  -0.2000 
 10 C        1.1290    -7.1050    -0.8620 C.3   1 <1>  -0.2000 
 11 C       -1.4770    -6.6020    -0.7430 C.3   1 <1>   0.2350 
 12 N       -1.7130    -8.0580    -0.8230 N.am  1 <1>  -0.7300 
 13 C       -2.7900    -8.7360    -0.3340 C.2   1 <1>   0.7160 
 14 O       -3.7280    -8.1010     0.1150 O.2   1 <1>  -0.5700 
 15 C       -2.7770   -10.1910    -0.3580 C.2   1 <1>   0.2030 
 16 N       -1.7750   -10.9390    -0.7920 N.2   1 <1>  -0.7070 
 17 C       -3.8170   -11.0060     0.0770 C.2   1 <1>  -0.1500 
 18 N       -2.1780   -12.2040    -0.6330 N.pl3 1 <1>   0.3140 
 19 C       -3.4190   -12.2920    -0.1010 C.2   1 <1>  -0.2370 
 20 C       -1.2860   -13.3110    -1.0020 C.3   1 <1>   0.0960 
 21 C       -4.1480   -13.4950     0.1810 C.2   1 <1>   0.7150 
 22 C       -1.1030   -14.2340     0.2000 C.3   1 <1>   0.2000 
 23 O       -5.3370   -13.4420     0.4010 O.2   1 <1>  -0.5700 
 24 N       -3.6160   -14.7440     0.2220 N.am  1 <1>  -0.7300 
 25 O        0.0940   -14.9230     0.0490 O.3   1 <1>  -0.6800 
 26 C       -2.2290   -15.2680     0.3580 C.3   1 <1>   0.1400 
 27 H       -0.0560    -2.2170     1.9390 H     1 <1>   0.1500 
 28 H        1.1240    -2.1120    -2.1490 H     1 <1>   0.1500 
 29 H       -0.3840    -4.6640     1.7860 H     1 <1>   0.1500 
 30 H        0.7980    -4.5590    -2.3100 H     1 <1>   0.1500 
 31 H        0.2930    -8.0280     0.9870 H     1 <1>   0.1000 
 32 H        1.4130    -6.6710     1.2990 H     1 <1>   0.1000 
 33 H        2.0500    -6.6170    -1.1310 H     1 <1>   0.1000 
 34 H        0.9460    -7.9800    -1.4590 H     1 <1>   0.1000 
 35 H       -1.7050    -6.1610    -1.6970 H     1 <1>   0.0800 
 36 H       -2.1380    -6.1700    -0.0110 H     1 <1>   0.0800 
 37 H       -0.9320    -8.6350    -1.1410 H     1 <1>   0.3700 
 38 H       -4.7560   -10.6560     0.4740 H     1 <1>   0.1500 
 39 H       -0.3390   -12.8880    -1.2850 H     1 <1>   0.0800 
 40 H       -1.7110   -13.8350    -1.8370 H     1 <1>   0.0800 
 41 H       -1.0070   -13.6510     1.1010 H     1 <1>   0.0800 
 42 H       -4.3410   -15.4430     0.4050 H     1 <1>   0.3700 
 43 H        0.1170   -15.4410    -0.7790 H     1 <1>   0.4000 
 44 H       -2.1330   -15.7270     1.3280 H     1 <1>   0.0800 
 45 H       -2.1010   -16.0360    -0.3850 H     1 <1>   0.0800 
@<TRIPOS>BOND
  1   1   2  1   
  2   2   3  ar  
  3   2   4  ar  
  4   3   5  ar  
  5   3  27  1   
  6   4   6  ar  
  7   4  28  1   
  8   5   7  ar  
  9   5  29  1   
 10   6   7  ar  
 11   6  30  1   
 12   7   8  1   
 13   8   9  1   
 14   8  10  1   
 15   8  11  1   
 16   9  10  1   
 17   9  31  1   
 18   9  32  1   
 19  10  33  1   
 20  10  34  1   
 21  11  12  1   
 22  11  35  1   
 23  11  36  1   
 24  12  13  am  
 25  12  37  1   
 26  13  14  2   
 27  13  15  1   
 28  15  16  2   
 29  15  17  1   
 30  16  18  1   
 31  17  19  2   
 32  17  38  1   
 33  18  19  1   
 34  18  20  1   
 35  19  21  1   
 36  20  22  1   
 37  20  39  1   
 38  20  40  1   
 39  21  23  2   
 40  21  24  am  
 41  22  25  1   
 42  22  26  1   
 43  22  41  1   
 44  24  26  1   
 45  24  42  1   
 46  25  43  1   
 47  26  44  1   
 48  26  45  1   
@<TRIPOS>SUBSTRUCTURE
  1 ****  12 GROUP 4 **** **** 0

# MOE 2024.06 (io_trps.svl 2023.06)
