@<TRIPOS>MOLECULE
NONAME
51 53 1 0 0 
SMALL
USER_CHARGES


@<TRIPOS>ATOM
  1 O       -1.0280     0.7100    -0.2670 O.2   1 <1>  -0.5700 
  2 C       -0.7000     1.8110     0.0950 C.2   1 <1>   0.5690 
  3 N       -1.6280     2.7580     0.3490 N.am  1 <1>  -0.7300 
  4 C        0.7840     2.1630     0.2340 C.3   1 <1>   0.1810 
  5 C       -1.3000     4.1340     0.7950 C.3   1 <1>   0.3640 
  6 O        1.0130     3.3220     1.0060 O.3   1 <1>  -0.5600 
  7 C       -2.1250     5.1240    -0.0270 C.ar  1 <1>  -0.1440 
  8 C        0.2140     4.4440     0.6550 C.3   1 <1>   0.2610 
  9 C       -2.7280     6.2040     0.6020 C.ar  1 <1>  -0.1500 
 10 C       -2.2760     4.9770    -1.4010 C.ar  1 <1>  -0.1500 
 11 C        0.6210     5.6840     1.4740 C.2   1 <1>   0.5690 
 12 C       -3.4690     7.1190    -0.1240 C.ar  1 <1>  -0.1500 
 13 C       -3.0180     5.8920    -2.1290 C.ar  1 <1>  -0.1500 
 14 O       -0.0780     6.0150     2.4080 O.2   1 <1>  -0.5700 
 15 N        1.7450     6.4090     1.1450 N.am  1 <1>  -0.6600 
 16 C       -3.6140     6.9640    -1.4910 C.ar  1 <1>  -0.1500 
 17 C        2.7920     5.9710     0.1830 C.3   1 <1>   0.1400 
 18 C        2.0440     7.7140     1.7970 C.3   1 <1>   0.1400 
 19 C        2.9430     7.0270    -0.9160 C.3   1 <1>  -0.1600 
 20 C        2.2110     8.7960     0.7250 C.3   1 <1>  -0.1600 
 21 C        3.2700     8.4110    -0.3260 C.3   1 <1>  -0.0800 
 22 C        3.3660     9.4660    -1.4460 C.3   1 <1>  -0.0990 
 23 C        3.8170    10.8230    -0.9440 C.2   1 <1>   0.5690 
 24 O        3.0010    11.7010    -0.8080 O.2   1 <1>  -0.5700 
 25 N        5.1350    11.0040    -0.6640 N.am  1 <1>  -0.7300 
 26 C        5.7360    12.2690    -0.1720 C.3   1 <1>   0.0600 
 27 H       -2.6170     2.5250     0.2510 H     1 <1>   0.3700 
 28 H        1.2060     2.3170    -0.7420 H     1 <1>   0.0800 
 29 H        1.2980     1.3480     0.7090 H     1 <1>   0.0800 
 30 H       -1.5830     4.2120     1.8310 H     1 <1>   0.0800 
 31 H        0.4070     4.6630    -0.3790 H     1 <1>   0.0800 
 32 H       -2.6190     6.3440     1.6660 H     1 <1>   0.1500 
 33 H       -1.8220     4.1480    -1.9160 H     1 <1>   0.1500 
 34 H       -3.9300     7.9540     0.3750 H     1 <1>   0.1500 
 35 H       -3.1320     5.7690    -3.1920 H     1 <1>   0.1500 
 36 H       -4.1910     7.6760    -2.0560 H     1 <1>   0.1500 
 37 H        3.7230     5.8630     0.7140 H     1 <1>   0.0800 
 38 H        2.5560     5.0180    -0.2530 H     1 <1>   0.0800 
 39 H        1.2510     7.9980     2.4690 H     1 <1>   0.0800 
 40 H        2.9490     7.6210     2.3720 H     1 <1>   0.0800 
 41 H        3.7280     6.7220    -1.5860 H     1 <1>   0.0800 
 42 H        2.0270     7.0730    -1.4790 H     1 <1>   0.0800 
 43 H        1.2590     8.9550     0.2480 H     1 <1>   0.0800 
 44 H        2.4860     9.7170     1.2070 H     1 <1>   0.0800 
 45 H        4.2260     8.3480     0.1670 H     1 <1>   0.0800 
 46 H        2.4060     9.5810    -1.9180 H     1 <1>   0.0800 
 47 H        4.0590     9.1390    -2.1980 H     1 <1>   0.0800 
 48 H        5.7820    10.2250    -0.7970 H     1 <1>   0.3700 
 49 H        4.9780    13.0280    -0.0660 H     1 <1>   0.0800 
 50 H        6.4770    12.6160    -0.8700 H     1 <1>   0.0800 
 51 H        6.1970    12.1050     0.7860 H     1 <1>   0.0800 
@<TRIPOS>BOND
  1   1   2  2   
  2   2   3  am  
  3   2   4  1   
  4   3   5  1   
  5   3  27  1   
  6   4   6  1   
  7   4  28  1   
  8   4  29  1   
  9   5   7  1   
 10   5   8  1   
 11   5  30  1   
 12   6   8  1   
 13   7   9  ar  
 14   7  10  ar  
 15   8  11  1   
 16   8  31  1   
 17   9  12  ar  
 18   9  32  1   
 19  10  13  ar  
 20  10  33  1   
 21  11  14  2   
 22  11  15  am  
 23  12  16  ar  
 24  12  34  1   
 25  13  16  ar  
 26  13  35  1   
 27  15  17  1   
 28  15  18  1   
 29  16  36  1   
 30  17  19  1   
 31  17  37  1   
 32  17  38  1   
 33  18  20  1   
 34  18  39  1   
 35  18  40  1   
 36  19  21  1   
 37  19  41  1   
 38  19  42  1   
 39  20  21  1   
 40  20  43  1   
 41  20  44  1   
 42  21  22  1   
 43  21  45  1   
 44  22  23  1   
 45  22  46  1   
 46  22  47  1   
 47  23  24  2   
 48  23  25  am  
 49  25  26  1   
 50  25  48  1   
 51  26  49  1   
 52  26  50  1   
 53  26  51  1   
@<TRIPOS>SUBSTRUCTURE
  1 ****  15 GROUP 4 **** **** 0

# MOE 2024.06 (io_trps.svl 2023.06)
