@<TRIPOS>MOLECULE
NONAME
46 49 1 0 0 
SMALL
USER_CHARGES


@<TRIPOS>ATOM
  1 O       -1.1080     0.1690     0.5390 O.co2 1 <1>  -0.9000 
  2 C       -2.0090    -0.6560     0.8020 C.2   1 <1>   0.9790 
  3 O       -2.9920    -0.2330     1.4430 O.co2 1 <1>  -0.9000 
  4 C       -1.8660    -2.0580     0.3800 C.ar  1 <1>   0.1310 
  5 N       -2.8910    -2.9380     0.3940 N.ar  1 <1>  -0.6200 
  6 C       -0.5930    -2.4520    -0.0470 C.ar  1 <1>   0.1600 
  7 C       -2.5720    -4.1560    -0.0050 C.ar  1 <1>   0.4100 
  8 N       -0.2470    -3.6680    -0.4540 N.ar  1 <1>  -0.6200 
  9 N       -3.5830    -5.1090    -0.0170 N.pl3 1 <1>  -0.8380 
 10 C       -1.2730    -4.4920    -0.4100 C.ar  1 <1>   0.1600 
 11 C       -4.7070    -4.9550     0.9430 C.3   1 <1>   0.2090 
 12 C       -4.0360    -5.6090    -1.3360 C.3   1 <1>   0.2090 
 13 C       -5.3350    -6.3270     1.1880 C.3   1 <1>  -0.1600 
 14 C       -4.6380    -7.0030    -1.1520 C.3   1 <1>  -0.1600 
 15 C       -5.7860    -6.9970    -0.1270 C.3   1 <1>   0.4240 
 16 O       -6.7510    -6.1510    -0.7150 O.3   1 <1>  -0.5600 
 17 C       -6.3550    -8.4290     0.1020 C.ar  1 <1>  -0.1430 
 18 C       -8.0630    -6.2520    -0.2720 C.3   1 <1>   0.1200 
 19 C       -5.5670    -9.4750     0.6060 C.ar  1 <1>   0.0830 
 20 C       -7.6910    -8.7000    -0.1920 C.ar  1 <1>  -0.1430 
 21 C       -8.6010    -7.6050    -0.7090 C.3   1 <1>  -0.0170 
 22 O       -4.2700    -9.2270     0.9270 O.3   1 <1>  -0.3630 
 23 C       -6.1140   -10.7450     0.7790 C.ar  1 <1>  -0.1500 
 24 C       -8.2230    -9.9670    -0.0170 C.ar  1 <1>  -0.1500 
 25 C       -3.4140   -10.2040     1.4770 C.3   1 <1>   0.0400 
 26 C       -7.4350   -10.9910     0.4660 C.ar  1 <1>  -0.1500 
 27 H        0.1880    -1.7110    -0.0470 H     1 <1>   0.1500 
 28 H       -1.1070    -5.5090    -0.7040 H     1 <1>   0.1500 
 29 H       -5.4330    -4.2680     0.5390 H     1 <1>   0.0800 
 30 H       -4.3400    -4.5490     1.8710 H     1 <1>   0.0800 
 31 H       -3.2080    -5.6550    -2.0220 H     1 <1>   0.0800 
 32 H       -4.7710    -4.9320    -1.7400 H     1 <1>   0.0800 
 33 H       -6.1610    -6.2380     1.8650 H     1 <1>   0.0800 
 34 H       -4.5960    -6.9290     1.6760 H     1 <1>   0.0800 
 35 H       -3.8470    -7.6540    -0.8430 H     1 <1>   0.0800 
 36 H       -5.0080    -7.3690    -2.0910 H     1 <1>   0.0800 
 37 H       -8.6270    -5.4550    -0.7250 H     1 <1>   0.0800 
 38 H       -8.0920    -6.1440     0.7970 H     1 <1>   0.0800 
 39 H       -8.6460    -7.6440    -1.7820 H     1 <1>   0.0800 
 40 H       -9.5960    -7.7300    -0.3210 H     1 <1>   0.0800 
 41 H       -5.5300   -11.5620     1.1560 H     1 <1>   0.1500 
 42 H       -9.2530   -10.1620    -0.2570 H     1 <1>   0.1500 
 43 H       -2.4570    -9.7460     1.6530 H     1 <1>   0.0800 
 44 H       -3.3090   -11.0120     0.7760 H     1 <1>   0.0800 
 45 H       -3.8300   -10.5470     2.4080 H     1 <1>   0.0800 
 46 H       -7.8500   -11.9740     0.6000 H     1 <1>   0.1500 
@<TRIPOS>BOND
  1   1   2  ar  
  2   2   3  ar  
  3   2   4  1   
  4   4   5  ar  
  5   4   6  ar  
  6   5   7  ar  
  7   6   8  ar  
  8   6  27  1   
  9   7   9  1   
 10   7  10  ar  
 11   8  10  ar  
 12   9  11  1   
 13   9  12  1   
 14  10  28  1   
 15  11  13  1   
 16  11  29  1   
 17  11  30  1   
 18  12  14  1   
 19  12  31  1   
 20  12  32  1   
 21  13  15  1   
 22  13  33  1   
 23  13  34  1   
 24  14  15  1   
 25  14  35  1   
 26  14  36  1   
 27  15  16  1   
 28  15  17  1   
 29  16  18  1   
 30  17  19  ar  
 31  17  20  ar  
 32  18  21  1   
 33  18  37  1   
 34  18  38  1   
 35  19  22  1   
 36  19  23  ar  
 37  20  21  1   
 38  20  24  ar  
 39  21  39  1   
 40  21  40  1   
 41  22  25  1   
 42  23  26  ar  
 43  23  41  1   
 44  24  26  ar  
 45  24  42  1   
 46  25  43  1   
 47  25  44  1   
 48  25  45  1   
 49  26  46  1   
@<TRIPOS>SUBSTRUCTURE
  1 ****   9 GROUP 4 **** **** 0

# MOE 2024.06 (io_trps.svl 2023.06)
