@<TRIPOS>MOLECULE
NONAME
54 56 1 0 0 
SMALL
USER_CHARGES


@<TRIPOS>ATOM
  1 O        2.7070    -0.6100     3.0520 O.2   1 <1>  -0.5700 
  2 C        1.9930    -0.8500     2.1080 C.2   1 <1>   0.5690 
  3 N        1.6490     0.0960     1.1980 N.am  1 <1>  -0.7300 
  4 C        1.4590    -2.2740     1.9170 C.3   1 <1>   0.1710 
  5 C        2.0700     1.5150     1.2120 C.3   1 <1>   0.1400 
  6 N        1.2440    -2.6740     0.4940 N.3   1 <1>  -0.8100 
  7 C        3.2250     1.7240     0.2340 C.3   1 <1>  -0.0170 
  8 C        2.5030    -2.7560    -0.2650 C.3   1 <1>   0.1100 
  9 C        0.6020    -3.9930     0.3680 C.3   1 <1>   0.1100 
 10 C        3.6360     3.1920     0.2080 C.ar  1 <1>  -0.1430 
 11 C        2.1520    -3.6280    -1.4620 C.3   1 <1>   0.2000 
 12 C        1.2660    -4.7010    -0.8270 C.3   1 <1>  -0.0800 
 13 C        2.9170     4.1280    -0.5330 C.ar  1 <1>   0.0830 
 14 C        4.7420     3.5990     0.9380 C.ar  1 <1>  -0.1500 
 15 O        1.3970    -2.8530    -2.3240 O.3   1 <1>  -0.6800 
 16 C        0.2610    -5.3720    -1.7820 C.3   1 <1>   0.0200 
 17 O        1.8330     3.6890    -1.2270 O.3   1 <1>  -0.3620 
 18 C        3.3230     5.4610    -0.5350 C.ar  1 <1>  -0.1500 
 19 C        5.1390     4.9250     0.9320 C.ar  1 <1>  -0.1500 
 20 C       -0.5000    -6.5160    -1.1330 C.2   1 <1>  -0.0400 
 21 C        1.0750     4.5520    -2.0450 C.3   1 <1>   0.0400 
 22 C        4.4300     5.8550     0.1950 C.ar  1 <1>  -0.1500 
 23 O       -1.5240    -7.0260    -1.7620 O.3   1 <1>  -0.0190 
 24 C       -0.3600    -7.1840     0.0250 C.2   1 <1>  -0.1500 
 25 N       -2.0780    -7.9930    -1.0900 N.2   1 <1>  -0.4100 
 26 C       -1.3970    -8.1120    -0.0090 C.2   1 <1>   0.1080 
 27 C       -1.6920    -9.1270     1.0720 C.3   1 <1>  -0.0590 
 28 H        1.1050    -0.2210     0.3900 H     1 <1>   0.3700 
 29 H        0.5230    -2.3340     2.4410 H     1 <1>   0.0800 
 30 H        2.1440    -2.9560     2.3880 H     1 <1>   0.0800 
 31 H        1.2360     2.1380     0.9360 H     1 <1>   0.0800 
 32 H        2.3850     1.7920     2.2040 H     1 <1>   0.0800 
 33 H        4.0580     1.1160     0.5390 H     1 <1>   0.0800 
 34 H        2.9280     1.4160    -0.7520 H     1 <1>   0.0800 
 35 H        2.8570    -1.7840    -0.5660 H     1 <1>   0.0800 
 36 H        3.2620    -3.2440     0.3240 H     1 <1>   0.0800 
 37 H        0.7400    -4.5790     1.2620 H     1 <1>   0.0800 
 38 H       -0.4540    -3.8550     0.2040 H     1 <1>   0.0800 
 39 H        3.0060    -4.0160    -1.9910 H     1 <1>   0.0800 
 40 H        1.9180    -5.4610    -0.4350 H     1 <1>   0.0800 
 41 H        5.3000     2.8850     1.5180 H     1 <1>   0.1500 
 42 H        0.7570    -2.3630    -1.7660 H     1 <1>   0.4000 
 43 H        0.7800    -5.7510    -2.6440 H     1 <1>   0.0800 
 44 H       -0.4550    -4.6460    -2.1280 H     1 <1>   0.0800 
 45 H        2.7920     6.2060    -1.0950 H     1 <1>   0.1500 
 46 H        5.9990     5.2300     1.5020 H     1 <1>   0.1500 
 47 H        0.2920     3.9760    -2.5030 H     1 <1>   0.0800 
 48 H        1.7160     4.9660    -2.8030 H     1 <1>   0.0800 
 49 H        0.6490     5.3270    -1.4330 H     1 <1>   0.0800 
 50 H        4.7400     6.8850     0.1910 H     1 <1>   0.1500 
 51 H        0.3600    -7.0710     0.8130 H     1 <1>   0.1500 
 52 H       -0.8070    -9.6930     1.2950 H     1 <1>   0.0800 
 53 H       -2.4610    -9.8020     0.7410 H     1 <1>   0.0800 
 54 H       -2.0290    -8.6260     1.9610 H     1 <1>   0.0800 
@<TRIPOS>BOND
  1   1   2  2   
  2   2   3  am  
  3   2   4  1   
  4   3   5  1   
  5   3  28  1   
  6   4   6  1   
  7   4  29  1   
  8   4  30  1   
  9   5   7  1   
 10   5  31  1   
 11   5  32  1   
 12   6   8  1   
 13   6   9  1   
 14   7  10  1   
 15   7  33  1   
 16   7  34  1   
 17   8  11  1   
 18   8  35  1   
 19   8  36  1   
 20   9  12  1   
 21   9  37  1   
 22   9  38  1   
 23  10  13  ar  
 24  10  14  ar  
 25  11  12  1   
 26  11  15  1   
 27  11  39  1   
 28  12  16  1   
 29  12  40  1   
 30  13  17  1   
 31  13  18  ar  
 32  14  19  ar  
 33  14  41  1   
 34  15  42  1   
 35  16  20  1   
 36  16  43  1   
 37  16  44  1   
 38  17  21  1   
 39  18  22  ar  
 40  18  45  1   
 41  19  22  ar  
 42  19  46  1   
 43  20  23  1   
 44  20  24  2   
 45  21  47  1   
 46  21  48  1   
 47  21  49  1   
 48  22  50  1   
 49  23  25  1   
 50  24  26  1   
 51  24  51  1   
 52  25  26  2   
 53  26  27  1   
 54  27  52  1   
 55  27  53  1   
 56  27  54  1   
@<TRIPOS>SUBSTRUCTURE
  1 ****   6 GROUP 4 **** **** 0

# MOE 2024.06 (io_trps.svl 2023.06)
