@<TRIPOS>MOLECULE
NONAME
49 52 1 0 0 
SMALL
USER_CHARGES


@<TRIPOS>ATOM
  1 O        2.1270    -1.9010     0.6490 O.2   1 <1>  -0.5700 
  2 C        3.0630    -1.1760     0.4330 C.2   1 <1>   0.5690 
  3 N        3.0100     0.1650     0.4750 N.am  1 <1>  -0.7300 
  4 C        4.4450    -1.6370     0.0650 C.3   1 <1>  -0.0990 
  5 C        4.2530     0.8180     0.0640 C.3   1 <1>   0.3000 
  6 C        5.2610    -0.3420     0.2630 C.3   1 <1>  -0.1860 
  7 C        4.0360     1.2580    -1.3980 C.3   1 <1>  -0.1600 
  8 C        4.5420     2.0390     0.9640 C.3   1 <1>  -0.1600 
  9 C        6.4940    -0.1710    -0.5790 C.2   1 <1>   0.9060 
 10 C        5.1910     2.0800    -1.9840 C.3   1 <1>   0.3430 
 11 C        5.0910     3.2590     0.2120 C.3   1 <1>   0.3430 
 12 O        6.5230    -0.5990    -1.7300 O.co2 1 <1>  -0.9000 
 13 O        7.3410     0.6330    -0.1740 O.co2 1 <1>  -0.9000 
 14 N        5.9380     2.8190    -0.9260 N.4   1 <1>  -0.9590 
 15 C        6.8630     3.8210    -1.5220 C.3   1 <1>   0.4860 
 16 C        7.2450     4.9160    -0.5340 C.ar  1 <1>  -0.1440 
 17 C        8.2530     4.6520     0.4310 C.ar  1 <1>   0.0000 
 18 C        6.6190     6.1430    -0.5800 C.ar  1 <1>  -0.1440 
 19 C        8.5960     5.6650     1.3580 C.ar  1 <1>   0.3100 
 20 C        8.9530     3.4320     0.5400 C.ar  1 <1>  -0.1500 
 21 C        6.9810     7.1400     0.3340 C.ar  1 <1>  -0.1500 
 22 C        5.5380     6.4960    -1.5960 C.3   1 <1>  -0.0970 
 23 N        9.5290     5.5040     2.3300 N.ar  1 <1>  -0.6200 
 24 C        7.9410     6.8990     1.2760 C.ar  1 <1>  -0.1500 
 25 C        9.8840     3.2940     1.5220 C.ar  1 <1>  -0.1500 
 26 C       10.1350     4.3600     2.3930 C.ar  1 <1>   0.1600 
 27 H        2.1310     0.6560     0.6300 H     1 <1>   0.3700 
 28 H        4.4500    -1.9610    -0.9600 H     1 <1>   0.0800 
 29 H        4.7810    -2.4310     0.7060 H     1 <1>   0.0800 
 30 H        5.5920    -0.3450     1.2840 H     1 <1>   0.0800 
 31 H        3.1450     1.8550    -1.4580 H     1 <1>   0.0800 
 32 H        3.8880     0.3960    -2.0260 H     1 <1>   0.0800 
 33 H        5.2550     1.7780     1.7240 H     1 <1>   0.0800 
 34 H        3.6460     2.3470     1.4720 H     1 <1>   0.0800 
 35 H        4.7960     2.7670    -2.7130 H     1 <1>   0.0800 
 36 H        5.8750     1.4170    -2.4930 H     1 <1>   0.0800 
 37 H        5.6620     3.8600     0.9010 H     1 <1>   0.0800 
 38 H        4.2750     3.8550    -0.1620 H     1 <1>   0.0800 
 39 H        6.5880     2.0930    -0.5220 H     1 <1>   0.4500 
 40 H        6.3930     4.2740    -2.3770 H     1 <1>   0.0800 
 41 H        7.7520     3.3220    -1.8720 H     1 <1>   0.0800 
 42 H        8.7700     2.6100    -0.1280 H     1 <1>   0.1500 
 43 H        6.5010     8.1030     0.2970 H     1 <1>   0.1500 
 44 H        4.8580     5.6780    -1.7490 H     1 <1>   0.0800 
 45 H        5.9910     6.7600    -2.5350 H     1 <1>   0.0800 
 46 H        4.9580     7.3380    -1.2570 H     1 <1>   0.0800 
 47 H        8.2240     7.6580     1.9830 H     1 <1>   0.1500 
 48 H       10.4340     2.3770     1.6430 H     1 <1>   0.1500 
 49 H       10.8770     4.2180     3.1610 H     1 <1>   0.1500 
@<TRIPOS>BOND
  1   1   2  2   
  2   2   3  am  
  3   2   4  1   
  4   3   5  1   
  5   3  27  1   
  6   4   6  1   
  7   4  28  1   
  8   4  29  1   
  9   5   6  1   
 10   5   7  1   
 11   5   8  1   
 12   6   9  1   
 13   6  30  1   
 14   7  10  1   
 15   7  31  1   
 16   7  32  1   
 17   8  11  1   
 18   8  33  1   
 19   8  34  1   
 20   9  12  ar  
 21   9  13  ar  
 22  10  14  1   
 23  10  35  1   
 24  10  36  1   
 25  11  14  1   
 26  11  37  1   
 27  11  38  1   
 28  14  15  1   
 29  14  39  1   
 30  15  16  1   
 31  15  40  1   
 32  15  41  1   
 33  16  17  ar  
 34  16  18  ar  
 35  17  19  ar  
 36  17  20  ar  
 37  18  21  ar  
 38  18  22  1   
 39  19  23  ar  
 40  19  24  ar  
 41  20  25  ar  
 42  20  42  1   
 43  21  24  ar  
 44  21  43  1   
 45  22  44  1   
 46  22  45  1   
 47  22  46  1   
 48  23  26  ar  
 49  24  47  1   
 50  25  26  ar  
 51  25  48  1   
 52  26  49  1   
@<TRIPOS>SUBSTRUCTURE
  1 ****  14 GROUP 4 **** **** 0

# MOE 2024.06 (io_trps.svl 2023.06)
