@<TRIPOS>MOLECULE
NONAME
44 46 1 0 0 
SMALL
USER_CHARGES


@<TRIPOS>ATOM
  1 S       -1.0570     0.1090     2.0000 S.3   1 <1>  -0.0800 
  2 C       -1.8240    -0.6080     0.5950 C.2   1 <1>  -0.1100 
  3 C       -1.9540     1.5990     1.7830 C.2   1 <1>  -0.1100 
  4 C       -2.6970     0.2520     0.0340 C.2   1 <1>  -0.1810 
  5 C       -2.7660     1.5160     0.7130 C.2   1 <1>  -0.1500 
  6 C       -3.5480    -0.0390    -1.1850 C.3   1 <1>   0.5240 
  7 N       -4.9740    -0.0060    -0.7790 N.4   1 <1>  -0.9590 
  8 C       -5.3310    -1.0010     0.2630 C.3   1 <1>   0.3430 
  9 C       -5.9240    -0.0290    -1.9230 C.3   1 <1>   0.3430 
 10 C       -6.6670    -0.6110     0.9030 C.3   1 <1>  -0.1600 
 11 C       -7.3780    -0.0350    -1.4310 C.3   1 <1>  -0.1600 
 12 C       -7.5300     0.3490     0.0550 C.3   1 <1>   0.2800 
 13 O       -6.9370     1.6300     0.1860 O.3   1 <1>  -0.5600 
 14 C       -9.0080     0.3210     0.5550 C.3   1 <1>   0.2000 
 15 C       -7.7030     2.6880     0.6930 C.3   1 <1>   0.1200 
 16 O       -9.6190    -0.8980     0.2450 O.3   1 <1>  -0.6800 
 17 C       -9.8700     1.5370     0.0950 C.3   1 <1>   0.2800 
 18 C       -9.0020     2.7890    -0.1080 C.3   1 <1>  -0.1600 
 19 O      -10.7400     1.8080     1.1310 O.3   1 <1>  -0.6800 
 20 C      -10.7670     1.2990    -1.1290 C.3   1 <1>  -0.2400 
 21 H       -1.5260    -1.6130     0.3470 H     1 <1>   0.1500 
 22 H       -1.7710     2.3910     2.4890 H     1 <1>   0.1500 
 23 H       -3.4100     2.3120     0.3790 H     1 <1>   0.1500 
 24 H       -3.2990    -1.0070    -1.5860 H     1 <1>   0.0800 
 25 H       -3.3580     0.7080    -1.9380 H     1 <1>   0.0800 
 26 H       -5.1490     0.9040    -0.3150 H     1 <1>   0.4500 
 27 H       -5.4140    -1.9780    -0.1850 H     1 <1>   0.0800 
 28 H       -4.5710    -1.0410     1.0280 H     1 <1>   0.0800 
 29 H       -5.7670     0.8490    -2.5280 H     1 <1>   0.0800 
 30 H       -5.7510    -0.8980    -2.5370 H     1 <1>   0.0800 
 31 H       -6.4890    -0.1700     1.8680 H     1 <1>   0.0800 
 32 H       -7.2070    -1.5240     1.0800 H     1 <1>   0.0800 
 33 H       -7.7780    -1.0220    -1.5830 H     1 <1>   0.0800 
 34 H       -7.9530     0.6270    -2.0490 H     1 <1>   0.0800 
 35 H       -8.9610     0.3550     1.6310 H     1 <1>   0.0800 
 36 H       -7.8970     2.5160     1.7390 H     1 <1>   0.0800 
 37 H       -7.1260     3.5920     0.5910 H     1 <1>   0.0800 
 38 H      -10.5280    -0.8920     0.6130 H     1 <1>   0.4000 
 39 H       -8.7370     2.8950    -1.1450 H     1 <1>   0.0800 
 40 H       -9.5410     3.6760     0.1750 H     1 <1>   0.0800 
 41 H      -11.3830     2.4890     0.8560 H     1 <1>   0.4000 
 42 H      -10.1810     1.0000    -1.9760 H     1 <1>   0.0800 
 43 H      -11.2960     2.1970    -1.3930 H     1 <1>   0.0800 
 44 H      -11.4840     0.5210    -0.9340 H     1 <1>   0.0800 
@<TRIPOS>BOND
  1   1   2  1   
  2   1   3  1   
  3   2   4  2   
  4   2  21  1   
  5   3   5  2   
  6   3  22  1   
  7   4   5  1   
  8   4   6  1   
  9   5  23  1   
 10   6   7  1   
 11   6  24  1   
 12   6  25  1   
 13   7   8  1   
 14   7   9  1   
 15   7  26  1   
 16   8  10  1   
 17   8  27  1   
 18   8  28  1   
 19   9  11  1   
 20   9  29  1   
 21   9  30  1   
 22  10  12  1   
 23  10  31  1   
 24  10  32  1   
 25  11  12  1   
 26  11  33  1   
 27  11  34  1   
 28  12  13  1   
 29  12  14  1   
 30  13  15  1   
 31  14  16  1   
 32  14  17  1   
 33  14  35  1   
 34  15  18  1   
 35  15  36  1   
 36  15  37  1   
 37  16  38  1   
 38  17  18  1   
 39  17  19  1   
 40  17  20  1   
 41  18  39  1   
 42  18  40  1   
 43  19  41  1   
 44  20  42  1   
 45  20  43  1   
 46  20  44  1   
@<TRIPOS>SUBSTRUCTURE
  1 ****  13 GROUP 4 **** **** 0

# MOE 2024.06 (io_trps.svl 2023.06)
