@<TRIPOS>MOLECULE
NONAME
45 48 1 0 0 
SMALL
USER_CHARGES


@<TRIPOS>ATOM
  1 O        1.0870     2.0200     1.0990 O.3   1 <1>  -0.0190 
  2 N        1.5190     0.9090     1.6110 N.2   1 <1>  -0.4100 
  3 C        1.0660     1.9830    -0.2060 C.2   1 <1>  -0.0400 
  4 C        1.7610     0.1300     0.6180 C.2   1 <1>   0.1080 
  5 C        1.4890     0.7690    -0.5890 C.2   1 <1>  -0.1500 
  6 C        0.6180     3.2030    -0.9890 C.3   1 <1>   0.0200 
  7 C        2.2730    -1.2880     0.7520 C.3   1 <1>  -0.0590 
  8 C        1.5960     4.3760    -0.7750 C.3   1 <1>  -0.0800 
  9 C        1.2710     5.6580    -1.5400 C.3   1 <1>   0.2000 
 10 C        1.7270     4.8190     0.6870 C.3   1 <1>   0.3430 
 11 O       -0.0950     5.9170    -1.4830 O.3   1 <1>  -0.6800 
 12 C        2.0390     6.7270    -0.7610 C.3   1 <1>   0.3430 
 13 N        2.0000     6.2880     0.6770 N.4   1 <1>  -0.9590 
 14 C        3.2360     6.6630     1.4320 C.3   1 <1>   0.5230 
 15 C        3.2900     8.1700     1.6120 C.2   1 <1>  -0.0400 
 16 O        3.2840     8.9230     0.5330 O.3   1 <1>  -0.2800 
 17 C        3.3400     8.9470     2.7150 C.2   1 <1>  -0.1500 
 18 C        3.3100    10.2000     0.8870 C.2   1 <1>   0.1410 
 19 C        3.3560    10.2650     2.2440 C.2   1 <1>  -0.1500 
 20 C        3.2730    11.2230    -0.1340 C.2   1 <1>   0.2880 
 21 N        3.0600    10.9890    -1.4080 N.2   1 <1>  -0.7070 
 22 C        3.4480    12.5920     0.0940 C.2   1 <1>  -0.1500 
 23 N        3.1010    12.1960    -2.0010 N.pl3 1 <1>   0.3000 
 24 C        3.3330    13.1800    -1.1130 C.2   1 <1>  -0.3020 
 25 H        1.6060     0.3510    -1.5720 H     1 <1>   0.1500 
 26 H        0.5770     2.9550    -2.0360 H     1 <1>   0.0800 
 27 H       -0.3780     3.4640    -0.6760 H     1 <1>   0.0800 
 28 H        3.2290    -1.3800     0.2710 H     1 <1>   0.0800 
 29 H        1.5800    -1.9710     0.2970 H     1 <1>   0.0800 
 30 H        2.3810    -1.5440     1.7910 H     1 <1>   0.0800 
 31 H        2.5710     4.0460    -1.0920 H     1 <1>   0.0800 
 32 H        1.5620     5.6180    -2.5770 H     1 <1>   0.0800 
 33 H        2.5170     4.2670     1.1740 H     1 <1>   0.0800 
 34 H        0.8040     4.6240     1.2090 H     1 <1>   0.0800 
 35 H       -0.4310     6.0260    -0.5740 H     1 <1>   0.4000 
 36 H        1.6110     7.7070    -0.9030 H     1 <1>   0.0800 
 37 H        3.0600     6.7460    -1.1060 H     1 <1>   0.0800 
 38 H        1.2270     6.7950     1.1280 H     1 <1>   0.4500 
 39 H        3.2310     6.1950     2.4030 H     1 <1>   0.0800 
 40 H        4.1120     6.3340     0.8980 H     1 <1>   0.0800 
 41 H        3.3630     8.6660     3.7550 H     1 <1>   0.1500 
 42 H        3.3910    11.1470     2.8600 H     1 <1>   0.1500 
 43 H        3.6360    13.0500     1.0470 H     1 <1>   0.1500 
 44 H        2.9670    12.3180    -3.0130 H     1 <1>   0.2700 
 45 H        3.4010    14.2180    -1.3860 H     1 <1>   0.1500 
@<TRIPOS>BOND
  1   1   2  1   
  2   1   3  1   
  3   2   4  2   
  4   3   5  2   
  5   3   6  1   
  6   4   5  1   
  7   4   7  1   
  8   5  25  1   
  9   6   8  1   
 10   6  26  1   
 11   6  27  1   
 12   7  28  1   
 13   7  29  1   
 14   7  30  1   
 15   8   9  1   
 16   8  10  1   
 17   8  31  1   
 18   9  11  1   
 19   9  12  1   
 20   9  32  1   
 21  10  13  1   
 22  10  33  1   
 23  10  34  1   
 24  11  35  1   
 25  12  13  1   
 26  12  36  1   
 27  12  37  1   
 28  13  14  1   
 29  13  38  1   
 30  14  15  1   
 31  14  39  1   
 32  14  40  1   
 33  15  16  1   
 34  15  17  2   
 35  16  18  1   
 36  17  19  1   
 37  17  41  1   
 38  18  19  2   
 39  18  20  1   
 40  19  42  1   
 41  20  21  2   
 42  20  22  1   
 43  21  23  1   
 44  22  24  2   
 45  22  43  1   
 46  23  24  1   
 47  23  44  1   
 48  24  45  1   
@<TRIPOS>SUBSTRUCTURE
  1 ****  13 GROUP 4 **** **** 0

# MOE 2024.06 (io_trps.svl 2023.06)
