@<TRIPOS>MOLECULE
NONAME
48 50 1 0 0 
SMALL
USER_CHARGES


@<TRIPOS>ATOM
  1 O       -0.4110     0.1490     0.1070 O.2   1 <1>  -0.5700 
  2 C       -1.4080     0.8260     0.3000 C.2   1 <1>   0.6300 
  3 N       -2.6090     0.1660     0.5170 N.am  1 <1>  -0.6600 
  4 C       -1.3080     2.2700     0.2940 C.2   1 <1>   0.4500 
  5 C       -2.7370    -1.3240     0.4360 C.3   1 <1>   0.1400 
  6 C       -3.9280     0.8480     0.6850 C.3   1 <1>   0.1400 
  7 N       -1.4330     2.9890     1.3940 N.2   1 <1>  -0.6210 
  8 C       -1.0960     2.8640    -1.0050 C.2   1 <1>   0.6300 
  9 C       -3.8110    -1.7270    -0.5900 C.3   1 <1>   0.3440 
 10 C       -4.9340     0.3490    -0.3800 C.3   1 <1>   0.2000 
 11 C       -1.2850     4.3390     1.2640 C.2   1 <1>   0.0210 
 12 O       -1.1060     2.2650    -2.0720 O.2   1 <1>  -0.5700 
 13 N       -0.9340     4.2210    -1.0680 N.am  1 <1>  -0.5390 
 14 O       -5.0140    -1.0530    -0.3210 O.3   1 <1>  -0.5600 
 15 C       -4.0530    -3.2330    -0.5540 C.ar  1 <1>  -0.1430 
 16 C       -6.3660     0.9520    -0.2570 C.3   1 <1>   0.0000 
 17 C       -1.0360     4.9630     0.0800 C.2   1 <1>  -0.0410 
 18 C       -3.3320    -4.0640    -1.4010 C.ar  1 <1>  -0.1500 
 19 C       -4.9710    -3.7980     0.3210 C.ar  1 <1>  -0.1500 
 20 C       -6.3270     2.4870    -0.3660 C.3   1 <1>  -0.2400 
 21 C       -7.0420     0.5750     1.0750 C.3   1 <1>  -0.2400 
 22 C       -7.2440     0.4270    -1.4080 C.3   1 <1>  -0.2400 
 23 C       -3.5250    -5.4340    -1.3730 C.ar  1 <1>  -0.1500 
 24 C       -5.1650    -5.1680     0.3500 C.ar  1 <1>  -0.1500 
 25 C       -4.4410    -5.9880    -0.4970 C.ar  1 <1>  -0.1500 
 26 H       -1.8030    -1.7780     0.1580 H     1 <1>   0.0800 
 27 H       -3.0130    -1.7090     1.4020 H     1 <1>   0.0800 
 28 H       -4.3050     0.6310     1.6680 H     1 <1>   0.0800 
 29 H       -3.8170     1.9120     0.6030 H     1 <1>   0.0800 
 30 H       -3.4890    -1.4440    -1.5780 H     1 <1>   0.0800 
 31 H       -4.5510     0.6080    -1.3530 H     1 <1>   0.0800 
 32 H       -1.3710     4.9090     2.1760 H     1 <1>   0.1500 
 33 H       -0.7580     4.6150    -1.9960 H     1 <1>   0.3700 
 34 H       -0.9150     6.0320     0.0080 H     1 <1>   0.1500 
 35 H       -2.6140    -3.6480    -2.0870 H     1 <1>   0.1500 
 36 H       -5.5410    -3.1670     0.9820 H     1 <1>   0.1500 
 37 H       -7.3260     2.8870    -0.3830 H     1 <1>   0.0800 
 38 H       -5.8300     2.7900    -1.2710 H     1 <1>   0.0800 
 39 H       -5.8170     2.9280     0.4720 H     1 <1>   0.0800 
 40 H       -8.0500     0.9480     1.1050 H     1 <1>   0.0800 
 41 H       -6.5120     0.9860     1.9150 H     1 <1>   0.0800 
 42 H       -7.0790    -0.4950     1.1870 H     1 <1>   0.0800 
 43 H       -8.2310     0.8530    -1.3640 H     1 <1>   0.0800 
 44 H       -7.3420    -0.6440    -1.3510 H     1 <1>   0.0800 
 45 H       -6.8090     0.6730    -2.3600 H     1 <1>   0.0800 
 46 H       -2.9620    -6.0700    -2.0330 H     1 <1>   0.1500 
 47 H       -5.8810    -5.5940     1.0310 H     1 <1>   0.1500 
 48 H       -4.5920    -7.0530    -0.4750 H     1 <1>   0.1500 
@<TRIPOS>BOND
  1   1   2  2   
  2   2   3  am  
  3   2   4  1   
  4   3   5  1   
  5   3   6  1   
  6   4   7  2   
  7   4   8  1   
  8   5   9  1   
  9   5  26  1   
 10   5  27  1   
 11   6  10  1   
 12   6  28  1   
 13   6  29  1   
 14   7  11  1   
 15   8  12  2   
 16   8  13  am  
 17   9  14  1   
 18   9  15  1   
 19   9  30  1   
 20  10  14  1   
 21  10  16  1   
 22  10  31  1   
 23  11  17  2   
 24  11  32  1   
 25  13  17  1   
 26  13  33  1   
 27  15  18  ar  
 28  15  19  ar  
 29  16  20  1   
 30  16  21  1   
 31  16  22  1   
 32  17  34  1   
 33  18  23  ar  
 34  18  35  1   
 35  19  24  ar  
 36  19  36  1   
 37  20  37  1   
 38  20  38  1   
 39  20  39  1   
 40  21  40  1   
 41  21  41  1   
 42  21  42  1   
 43  22  43  1   
 44  22  44  1   
 45  22  45  1   
 46  23  25  ar  
 47  23  46  1   
 48  24  25  ar  
 49  24  47  1   
 50  25  48  1   
@<TRIPOS>SUBSTRUCTURE
  1 ****   3 GROUP 4 **** **** 0

# MOE 2024.06 (io_trps.svl 2023.06)
