@<TRIPOS>MOLECULE
NONAME
54 56 1 0 0 
SMALL
USER_CHARGES


@<TRIPOS>ATOM
  1 O       -1.0170     0.8420    -2.3110 O.2   1 <1>  -0.5700 
  2 C       -1.7710     1.3870    -1.5360 C.2   1 <1>   0.5690 
  3 N       -2.5680     0.6490    -0.6990 N.am  1 <1>  -0.6600 
  4 C       -1.8200     2.9270    -1.5360 C.3   1 <1>   0.1710 
  5 C       -3.6070     1.1580     0.2310 C.3   1 <1>   0.1400 
  6 C       -2.4990    -0.8320    -0.6440 C.3   1 <1>   0.1400 
  7 N       -0.7700     3.6290    -0.7420 N.3   1 <1>  -0.8100 
  8 C       -4.3340    -0.0900     0.7290 C.3   1 <1>   0.2000 
  9 C       -3.3290    -1.2280     0.5770 C.3   1 <1>  -0.0800 
 10 C        0.5790     3.3190    -1.2610 C.3   1 <1>   0.2530 
 11 C       -0.8730     3.3450     0.6950 C.3   1 <1>   0.0300 
 12 O       -4.7190     0.0390     2.0530 O.3   1 <1>  -0.6800 
 13 C       -3.9880    -2.6100     0.4510 C.3   1 <1>   0.0210 
 14 C        1.6410     4.2050    -0.6220 C.ar  1 <1>  -0.1440 
 15 C       -2.9500    -3.6850     0.1960 C.2   1 <1>   0.1080 
 16 C        2.7560     3.6440    -0.0180 C.ar  1 <1>  -0.1500 
 17 C        1.5090     5.5850    -0.6400 C.ar  1 <1>  -0.1500 
 18 N       -1.9850    -3.9400     1.0230 N.2   1 <1>  -0.7070 
 19 C       -2.9040    -4.4960    -0.9330 C.2   1 <1>  -0.1500 
 20 C        3.7220     4.4510     0.5580 C.ar  1 <1>  -0.1500 
 21 C        2.4750     6.3920    -0.0640 C.ar  1 <1>  -0.1500 
 22 N       -1.2910    -4.9360     0.4400 N.pl3 1 <1>   0.3000 
 23 C       -1.8270    -5.2880    -0.7480 C.2   1 <1>  -0.3320 
 24 C        3.5870     5.8290     0.5400 C.ar  1 <1>  -0.1440 
 25 C       -1.2690    -6.3760    -1.6460 C.3   1 <1>  -0.0600 
 26 C        4.6460     6.7140     1.1700 C.3   1 <1>  -0.0970 
 27 H       -2.7830     3.2530    -1.1930 H     1 <1>   0.0800 
 28 H       -1.7370     3.2480    -2.5590 H     1 <1>   0.0800 
 29 H       -3.1340     1.6690     1.0500 H     1 <1>   0.0800 
 30 H       -4.2900     1.8150    -0.2790 H     1 <1>   0.0800 
 31 H       -2.9210    -1.2350    -1.5490 H     1 <1>   0.0800 
 32 H       -1.4790    -1.1670    -0.5500 H     1 <1>   0.0800 
 33 H       -5.2150    -0.2580     0.1330 H     1 <1>   0.0800 
 34 H       -2.6600    -1.2350     1.4200 H     1 <1>   0.0800 
 35 H        0.8100     2.2820    -1.0810 H     1 <1>   0.0800 
 36 H        0.5980     3.4810    -2.3250 H     1 <1>   0.0800 
 37 H       -0.1570     3.9370     1.2410 H     1 <1>   0.0800 
 38 H       -0.6840     2.3040     0.8920 H     1 <1>   0.0800 
 39 H       -1.8550     3.6050     1.0500 H     1 <1>   0.0800 
 40 H       -3.9410    -0.0270     2.6400 H     1 <1>   0.4000 
 41 H       -4.7030    -2.6080    -0.3520 H     1 <1>   0.0800 
 42 H       -4.5080    -2.8440     1.3620 H     1 <1>   0.0800 
 43 H        2.8760     2.5760     0.0050 H     1 <1>   0.1500 
 44 H        0.6430     6.0270    -1.1020 H     1 <1>   0.1500 
 45 H       -3.5900    -4.4750    -1.7600 H     1 <1>   0.1500 
 46 H        4.5810     3.9990     1.0210 H     1 <1>   0.1500 
 47 H        2.3530     7.4600    -0.0890 H     1 <1>   0.1500 
 48 H       -0.4600    -5.3520     0.8760 H     1 <1>   0.2700 
 49 H       -1.8700    -6.4680    -2.5330 H     1 <1>   0.0800 
 50 H       -1.2710    -7.3210    -1.1320 H     1 <1>   0.0800 
 51 H       -0.2620    -6.1370    -1.9390 H     1 <1>   0.0800 
 52 H        5.1230     6.2050     1.9890 H     1 <1>   0.0800 
 53 H        4.2050     7.6200     1.5450 H     1 <1>   0.0800 
 54 H        5.3910     6.9670     0.4370 H     1 <1>   0.0800 
@<TRIPOS>BOND
  1   1   2  2   
  2   2   3  am  
  3   2   4  1   
  4   3   5  1   
  5   3   6  1   
  6   4   7  1   
  7   4  27  1   
  8   4  28  1   
  9   5   8  1   
 10   5  29  1   
 11   5  30  1   
 12   6   9  1   
 13   6  31  1   
 14   6  32  1   
 15   7  10  1   
 16   7  11  1   
 17   8   9  1   
 18   8  12  1   
 19   8  33  1   
 20   9  13  1   
 21   9  34  1   
 22  10  14  1   
 23  10  35  1   
 24  10  36  1   
 25  11  37  1   
 26  11  38  1   
 27  11  39  1   
 28  12  40  1   
 29  13  15  1   
 30  13  41  1   
 31  13  42  1   
 32  14  16  ar  
 33  14  17  ar  
 34  15  18  2   
 35  15  19  1   
 36  16  20  ar  
 37  16  43  1   
 38  17  21  ar  
 39  17  44  1   
 40  18  22  1   
 41  19  23  2   
 42  19  45  1   
 43  20  24  ar  
 44  20  46  1   
 45  21  24  ar  
 46  21  47  1   
 47  22  23  1   
 48  22  48  1   
 49  23  25  1   
 50  24  26  1   
 51  25  49  1   
 52  25  50  1   
 53  25  51  1   
 54  26  52  1   
 55  26  53  1   
 56  26  54  1   
@<TRIPOS>SUBSTRUCTURE
  1 ****   2 GROUP 4 **** **** 0

# MOE 2024.06 (io_trps.svl 2023.06)
