@<TRIPOS>MOLECULE
NONAME
35 36 1 0 0 
SMALL
USER_CHARGES


@<TRIPOS>ATOM
  1 F       -0.2740     0.0150     0.5620 F     1 <1>  -0.1900 
  2 C       -1.0620     0.7940    -0.1450 C.ar  1 <1>   0.1900 
  3 C       -0.9070     2.1950    -0.1300 C.ar  1 <1>   0.4100 
  4 C       -2.0480     0.1770    -0.8750 C.ar  1 <1>  -0.1500 
  5 N       -1.7390     2.9800    -0.8140 N.ar  1 <1>  -0.6200 
  6 N        0.0870     2.8740     0.5780 N.pl3 1 <1>  -0.8380 
  7 C       -2.8860     1.0130    -1.5860 C.ar  1 <1>  -0.1500 
  8 C       -2.6890     2.3810    -1.5170 C.ar  1 <1>   0.1600 
  9 C        1.4340     2.2650     0.7730 C.3   1 <1>   0.3900 
 10 C       -0.3200     3.9510     1.5190 C.3   1 <1>   0.2090 
 11 C        2.5340     3.3090     0.7640 C.2   1 <1>  -0.1810 
 12 C       -0.1070     5.3220     0.8820 C.3   1 <1>  -0.2400 
 13 C        3.1890     3.8250     1.8760 C.2   1 <1>   0.1390 
 14 C        3.1020     3.9420    -0.2850 C.2   1 <1>  -0.3020 
 15 N        4.0870     4.7050     1.5550 N.2   1 <1>  -0.7070 
 16 N        4.0320     4.7800     0.2120 N.pl3 1 <1>   0.3140 
 17 C        4.8940     5.6960    -0.5600 C.3   1 <1>   0.0960 
 18 C        6.0850     4.9500    -1.1740 C.3   1 <1>  -0.2400 
 19 H       -2.1580    -0.8920    -0.8850 H     1 <1>   0.1500 
 20 H       -3.6830     0.6090    -2.1840 H     1 <1>   0.1500 
 21 H       -3.3500     3.0250    -2.0720 H     1 <1>   0.1500 
 22 H        1.6280     1.5700    -0.0250 H     1 <1>   0.0800 
 23 H        1.4510     1.7250     1.7040 H     1 <1>   0.0800 
 24 H        0.2440     3.8780     2.4330 H     1 <1>   0.0800 
 25 H       -1.3640     3.8350     1.7610 H     1 <1>   0.0800 
 26 H        0.9340     5.4960     0.6900 H     1 <1>   0.0800 
 27 H       -0.4620     6.0880     1.5460 H     1 <1>   0.0800 
 28 H       -0.6540     5.3880    -0.0410 H     1 <1>   0.0800 
 29 H        2.9840     3.5390     2.8940 H     1 <1>   0.1500 
 30 H        2.8890     3.8470    -1.3340 H     1 <1>   0.1500 
 31 H        5.2450     6.4640     0.1050 H     1 <1>   0.0800 
 32 H        4.3000     6.1530    -1.3290 H     1 <1>   0.0800 
 33 H        6.6740     4.4950    -0.3960 H     1 <1>   0.0800 
 34 H        6.7060     5.6380    -1.7170 H     1 <1>   0.0800 
 35 H        5.7410     4.1880    -1.8510 H     1 <1>   0.0800 
@<TRIPOS>BOND
  1   1   2  1   
  2   2   3  ar  
  3   2   4  ar  
  4   3   5  ar  
  5   3   6  1   
  6   4   7  ar  
  7   4  19  1   
  8   5   8  ar  
  9   6   9  1   
 10   6  10  1   
 11   7   8  ar  
 12   7  20  1   
 13   8  21  1   
 14   9  11  1   
 15   9  22  1   
 16   9  23  1   
 17  10  12  1   
 18  10  24  1   
 19  10  25  1   
 20  11  13  1   
 21  11  14  2   
 22  12  26  1   
 23  12  27  1   
 24  12  28  1   
 25  13  15  2   
 26  13  29  1   
 27  14  16  1   
 28  14  30  1   
 29  15  16  1   
 30  16  17  1   
 31  17  18  1   
 32  17  31  1   
 33  17  32  1   
 34  18  33  1   
 35  18  34  1   
 36  18  35  1   
@<TRIPOS>SUBSTRUCTURE
  1 ****   6 GROUP 4 **** **** 0

# MOE 2024.06 (io_trps.svl 2023.06)
