@<TRIPOS>MOLECULE
NONAME
38 40 1 0 0 
SMALL
USER_CHARGES


@<TRIPOS>ATOM
  1 CL       0.7650     0.7020    -0.3860 Cl    1 <1>  -0.1770 
  2 C        1.4320    -0.8650     0.0460 C.ar  1 <1>   0.1770 
  3 C        0.7980    -2.0590    -0.2870 C.ar  1 <1>   0.4100 
  4 C        2.6160    -0.9270     0.7280 C.ar  1 <1>   0.1600 
  5 N        1.3470    -3.2150     0.0520 N.ar  1 <1>  -0.6200 
  6 N       -0.4100    -2.1150    -0.9600 N.pl3 1 <1>  -0.8380 
  7 N        3.1650    -2.0790     1.0750 N.ar  1 <1>  -0.6200 
  8 C        2.4890    -3.1570     0.7120 C.ar  1 <1>   0.4770 
  9 C       -1.6420    -1.5850    -0.2910 C.3   1 <1>   0.2090 
 10 C       -0.7110    -3.2620    -1.8800 C.3   1 <1>   0.2090 
 11 C        3.0970    -4.4850     1.0930 C.3   1 <1>  -0.0960 
 12 C       -2.4480    -2.7050     0.3970 C.3   1 <1>   0.2090 
 13 C       -1.5240    -4.3670    -1.1770 C.3   1 <1>   0.2090 
 14 N       -2.7670    -3.8230    -0.5430 N.pl3 1 <1>  -0.8380 
 15 C       -3.6590    -4.7740    -0.0620 C.ar  1 <1>   0.1000 
 16 C       -3.3320    -5.6170     0.9940 C.ar  1 <1>  -0.1500 
 17 C       -4.9130    -4.8900    -0.6470 C.ar  1 <1>  -0.1500 
 18 C       -4.2440    -6.5500     1.4480 C.ar  1 <1>   0.0820 
 19 C       -5.8270    -5.8260    -0.1920 C.ar  1 <1>  -0.1500 
 20 O       -3.9080    -7.3550     2.4690 O.3   1 <1>  -0.5320 
 21 C       -5.4950    -6.6620     0.8600 C.ar  1 <1>  -0.1500 
 22 H        3.1280    -0.0200     0.9950 H     1 <1>   0.1500 
 23 H       -2.2640    -1.1080    -1.0280 H     1 <1>   0.0800 
 24 H       -1.3750    -0.8470     0.4440 H     1 <1>   0.0800 
 25 H        0.2060    -3.6790    -2.2560 H     1 <1>   0.0800 
 26 H       -1.2750    -2.8970    -2.7200 H     1 <1>   0.0800 
 27 H        2.3230    -5.1740     1.3760 H     1 <1>   0.0800 
 28 H        3.7720    -4.3640     1.9190 H     1 <1>   0.0800 
 29 H        3.6340    -4.8830     0.2540 H     1 <1>   0.0800 
 30 H       -3.3660    -2.2970     0.7830 H     1 <1>   0.0800 
 31 H       -1.8770    -3.0860     1.2250 H     1 <1>   0.0800 
 32 H       -0.9070    -4.8270    -0.4250 H     1 <1>   0.0800 
 33 H       -1.7940    -5.1210    -1.8950 H     1 <1>   0.0800 
 34 H       -2.3690    -5.5450     1.4610 H     1 <1>   0.1500 
 35 H       -5.1600    -4.2360    -1.4620 H     1 <1>   0.1500 
 36 H       -6.7940    -5.9010    -0.6580 H     1 <1>   0.1500 
 37 H       -4.6170    -7.9750     2.7100 H     1 <1>   0.4500 
 38 H       -6.2040    -7.3870     1.2120 H     1 <1>   0.1500 
@<TRIPOS>BOND
  1   1   2  1   
  2   2   3  ar  
  3   2   4  ar  
  4   3   5  ar  
  5   3   6  1   
  6   4   7  ar  
  7   4  22  1   
  8   5   8  ar  
  9   6   9  1   
 10   6  10  1   
 11   7   8  ar  
 12   8  11  1   
 13   9  12  1   
 14   9  23  1   
 15   9  24  1   
 16  10  13  1   
 17  10  25  1   
 18  10  26  1   
 19  11  27  1   
 20  11  28  1   
 21  11  29  1   
 22  12  14  1   
 23  12  30  1   
 24  12  31  1   
 25  13  14  1   
 26  13  32  1   
 27  13  33  1   
 28  14  15  1   
 29  15  16  ar  
 30  15  17  ar  
 31  16  18  ar  
 32  16  34  1   
 33  17  19  ar  
 34  17  35  1   
 35  18  20  1   
 36  18  21  ar  
 37  19  21  ar  
 38  19  36  1   
 39  20  37  1   
 40  21  38  1   
@<TRIPOS>SUBSTRUCTURE
  1 ****  12 GROUP 4 **** **** 0

# MOE 2024.06 (io_trps.svl 2023.06)
