@<TRIPOS>MOLECULE
NONAME
46 48 1 0 0 
SMALL
USER_CHARGES


@<TRIPOS>ATOM
  1 CL      -0.5750    -0.0240    -1.0370 Cl    1 <1>  -0.1770 
  2 C        0.4970    -1.3060    -1.5520 C.ar  1 <1>   0.1770 
  3 C        1.0330    -2.2080    -0.6330 C.ar  1 <1>  -0.1440 
  4 C        0.7850    -1.3880    -2.9010 C.ar  1 <1>  -0.1500 
  5 C        1.8820    -3.2080    -1.0970 C.ar  1 <1>  -0.1500 
  6 C        0.7300    -2.1400     0.8660 C.3   1 <1>   0.0450 
  7 C        1.6280    -2.3950    -3.3220 C.ar  1 <1>   0.1900 
  8 C        2.1840    -3.3080    -2.4460 C.ar  1 <1>  -0.1500 
  9 C        0.2230    -3.4640     1.4300 C.2   1 <1>   0.5690 
 10 F        1.9090    -2.4900    -4.5930 F     1 <1>  -0.1900 
 11 O        1.0270    -4.1300     2.0410 O.2   1 <1>  -0.5700 
 12 N       -1.0800    -3.8810     1.2660 N.am  1 <1>  -0.6600 
 13 C       -2.0680    -3.1560     0.4120 C.3   1 <1>   0.2200 
 14 C       -1.5380    -5.1310     1.9500 C.3   1 <1>   0.0600 
 15 C       -2.9030    -4.0470    -0.5050 C.3   1 <1>  -0.1600 
 16 C       -3.0960    -2.3850     1.2300 C.3   1 <1>  -0.1600 
 17 C       -4.0970    -3.1650    -0.8920 C.3   1 <1>  -0.0800 
 18 C       -4.2500    -2.1330     0.2510 C.3   1 <1>  -0.0800 
 19 C       -5.3650    -3.9810    -1.2130 C.3   1 <1>   0.1400 
 20 C       -5.6320    -2.1600     0.9250 C.3   1 <1>  -0.0990 
 21 N       -6.5660    -3.1120    -1.1500 N.am  1 <1>  -0.6600 
 22 C       -6.7280    -2.2280    -0.1180 C.2   1 <1>   0.5690 
 23 C       -7.5860    -3.2950    -2.2170 C.3   1 <1>   0.0600 
 24 O       -7.6930    -1.5120    -0.0010 O.2   1 <1>  -0.5700 
 25 H        0.3680    -0.6890    -3.6020 H     1 <1>   0.1500 
 26 H        2.3130    -3.9160    -0.4070 H     1 <1>   0.1500 
 27 H        0.0190    -1.3760     1.1070 H     1 <1>   0.0800 
 28 H        1.6390    -1.8840     1.3800 H     1 <1>   0.0800 
 29 H        2.8380    -4.0790    -2.8120 H     1 <1>   0.1500 
 30 H       -1.5640    -2.4540    -0.2240 H     1 <1>   0.0800 
 31 H       -2.5490    -5.0250     2.3000 H     1 <1>   0.0800 
 32 H       -0.9130    -5.3510     2.7990 H     1 <1>   0.0800 
 33 H       -1.4840    -5.9580     1.2640 H     1 <1>   0.0800 
 34 H       -2.3400    -4.3570    -1.3680 H     1 <1>   0.0800 
 35 H       -3.2610    -4.9110     0.0230 H     1 <1>   0.0800 
 36 H       -3.4340    -2.9840     2.0560 H     1 <1>   0.0800 
 37 H       -2.6880    -1.4620     1.6020 H     1 <1>   0.0800 
 38 H       -3.8300    -2.6210    -1.7840 H     1 <1>   0.0800 
 39 H       -4.1180    -1.1550    -0.1850 H     1 <1>   0.0800 
 40 H       -5.4890    -4.7750    -0.4960 H     1 <1>   0.0800 
 41 H       -5.2740    -4.4220    -2.1910 H     1 <1>   0.0800 
 42 H       -5.7660    -1.2810     1.5300 H     1 <1>   0.0800 
 43 H       -5.7300    -3.0230     1.5570 H     1 <1>   0.0800 
 44 H       -7.9410    -4.3100    -2.2110 H     1 <1>   0.0800 
 45 H       -7.1530    -3.0730    -3.1760 H     1 <1>   0.0800 
 46 H       -8.4230    -2.6360    -2.0570 H     1 <1>   0.0800 
@<TRIPOS>BOND
  1   1   2  1   
  2   2   3  ar  
  3   2   4  ar  
  4   3   5  ar  
  5   3   6  1   
  6   4   7  ar  
  7   4  25  1   
  8   5   8  ar  
  9   5  26  1   
 10   6   9  1   
 11   6  27  1   
 12   6  28  1   
 13   7   8  ar  
 14   7  10  1   
 15   8  29  1   
 16   9  11  2   
 17   9  12  am  
 18  12  13  1   
 19  12  14  1   
 20  13  15  1   
 21  13  16  1   
 22  13  30  1   
 23  14  31  1   
 24  14  32  1   
 25  14  33  1   
 26  15  17  1   
 27  15  34  1   
 28  15  35  1   
 29  16  18  1   
 30  16  36  1   
 31  16  37  1   
 32  17  18  1   
 33  17  19  1   
 34  17  38  1   
 35  18  20  1   
 36  18  39  1   
 37  19  21  1   
 38  19  40  1   
 39  19  41  1   
 40  20  22  1   
 41  20  42  1   
 42  20  43  1   
 43  21  22  am  
 44  21  23  1   
 45  22  24  2   
 46  23  44  1   
 47  23  45  1   
 48  23  46  1   
@<TRIPOS>SUBSTRUCTURE
  1 ****  13 GROUP 4 **** **** 0

# MOE 2024.06 (io_trps.svl 2023.06)
