@<TRIPOS>MOLECULE
NONAME
47 48 1 0 0 
SMALL
USER_CHARGES


@<TRIPOS>ATOM
  1 S        0.2740     0.3700    -1.2050 S.o2  1 <1>   1.3330 
  2 O        0.5340    -0.8580    -1.9210 O.2   1 <1>  -0.6500 
  3 O       -0.8010     1.2360    -1.6320 O.2   1 <1>  -0.6500 
  4 N       -0.0200    -0.0300     0.4210 N.am  1 <1>  -0.8490 
  5 C        1.8020     1.3090    -1.1450 C.3   1 <1>  -0.0550 
  6 C       -0.6630     1.0510     1.1770 C.3   1 <1>   0.1160 
  7 C       -0.8070    -1.2600     0.5520 C.3   1 <1>   0.1160 
  8 C        3.0410     0.4790    -0.7430 C.3   1 <1>  -0.0800 
  9 C        4.3700     1.2070    -0.8820 C.3   1 <1>   0.2200 
 10 C        3.0650     0.0030     0.7150 C.3   1 <1>   0.1200 
 11 N        4.2670     2.5980    -0.3810 N.am  1 <1>  -0.7300 
 12 C        5.2290     0.4020     0.0810 C.3   1 <1>   0.1200 
 13 O        4.3880     0.1180     1.1560 O.3   1 <1>  -0.5600 
 14 C        4.1660     3.6980    -1.1640 C.2   1 <1>   0.5690 
 15 O        4.0880     3.6200    -2.3640 O.2   1 <1>  -0.5700 
 16 C        4.1490     5.0590    -0.5080 C.3   1 <1>  -0.0990 
 17 C        5.5670     5.6300    -0.4030 C.3   1 <1>  -0.0170 
 18 C        5.5480     6.9890     0.2850 C.ar  1 <1>  -0.1440 
 19 C        5.5220     7.1040     1.6720 C.ar  1 <1>   0.1900 
 20 C        5.5550     8.1540    -0.4730 C.ar  1 <1>  -0.1500 
 21 F        5.5060     6.0210     2.4050 F     1 <1>  -0.1900 
 22 C        5.5070     8.3230     2.3210 C.ar  1 <1>  -0.1500 
 23 C        5.5400     9.3940     0.1490 C.ar  1 <1>  -0.1500 
 24 C        5.5170     9.4540     1.5310 C.ar  1 <1>   0.1900 
 25 F        5.5040    10.6250     2.1090 F     1 <1>  -0.1900 
 26 H        1.9810     1.7170    -2.1220 H     1 <1>   0.0800 
 27 H        1.6840     2.1350    -0.4730 H     1 <1>   0.0800 
 28 H       -0.7430     0.7780     2.2160 H     1 <1>   0.0800 
 29 H       -1.6500     1.2470     0.7900 H     1 <1>   0.0800 
 30 H       -0.0800     1.9520     1.1070 H     1 <1>   0.0800 
 31 H       -0.9690    -1.4920     1.5910 H     1 <1>   0.0800 
 32 H       -0.2810    -2.0850     0.1020 H     1 <1>   0.0800 
 33 H       -1.7600    -1.1490     0.0600 H     1 <1>   0.0800 
 34 H        3.0810    -0.3950    -1.3700 H     1 <1>   0.0800 
 35 H        4.7530     1.1900    -1.8890 H     1 <1>   0.0800 
 36 H        2.7520    -1.0240     0.8050 H     1 <1>   0.0800 
 37 H        2.4580     0.6240     1.3510 H     1 <1>   0.0800 
 38 H        4.3180     2.6750     0.6380 H     1 <1>   0.3700 
 39 H        6.0930     0.9420     0.4260 H     1 <1>   0.0800 
 40 H        5.5300    -0.5320    -0.3610 H     1 <1>   0.0800 
 41 H        3.5380     5.7180    -1.0980 H     1 <1>   0.0800 
 42 H        3.7090     4.9800     0.4690 H     1 <1>   0.0800 
 43 H        5.9860     5.7240    -1.3900 H     1 <1>   0.0800 
 44 H        6.1940     4.9510     0.1490 H     1 <1>   0.0800 
 45 H        5.5720     8.1010    -1.5490 H     1 <1>   0.1500 
 46 H        5.4890     8.3880     3.3930 H     1 <1>   0.1500 
 47 H        5.5460    10.3020    -0.4270 H     1 <1>   0.1500 
@<TRIPOS>BOND
  1   1   2  2   
  2   1   3  2   
  3   1   4  am  
  4   1   5  1   
  5   4   6  1   
  6   4   7  1   
  7   5   8  1   
  8   5  26  1   
  9   5  27  1   
 10   6  28  1   
 11   6  29  1   
 12   6  30  1   
 13   7  31  1   
 14   7  32  1   
 15   7  33  1   
 16   8   9  1   
 17   8  10  1   
 18   8  34  1   
 19   9  11  1   
 20   9  12  1   
 21   9  35  1   
 22  10  13  1   
 23  10  36  1   
 24  10  37  1   
 25  11  14  am  
 26  11  38  1   
 27  12  13  1   
 28  12  39  1   
 29  12  40  1   
 30  14  15  2   
 31  14  16  1   
 32  16  17  1   
 33  16  41  1   
 34  16  42  1   
 35  17  18  1   
 36  17  43  1   
 37  17  44  1   
 38  18  19  ar  
 39  18  20  ar  
 40  19  21  1   
 41  19  22  ar  
 42  20  23  ar  
 43  20  45  1   
 44  22  24  ar  
 45  22  46  1   
 46  23  24  ar  
 47  23  47  1   
 48  24  25  1   
@<TRIPOS>SUBSTRUCTURE
  1 ****  11 GROUP 4 **** **** 0

# MOE 2024.06 (io_trps.svl 2023.06)
