@<TRIPOS>MOLECULE
NONAME
45 46 1 0 0 
SMALL
USER_CHARGES


@<TRIPOS>ATOM
  1 S        0.0040    -0.1200    -0.9640 S.o2  1 <1>   1.3330 
  2 O       -0.8530    -1.2450    -0.6640 O.2   1 <1>  -0.6500 
  3 O        0.5780     0.0120    -2.2840 O.2   1 <1>  -0.6500 
  4 N        1.2730    -0.1300     0.1650 N.am  1 <1>  -0.8490 
  5 C       -0.8760     1.4000    -0.5960 C.3   1 <1>  -0.0550 
  6 C        0.8880    -0.6700     1.4740 C.3   1 <1>   0.1160 
  7 C        2.4630    -0.8250    -0.3320 C.3   1 <1>   0.1160 
  8 C       -0.0830     2.6870    -0.9140 C.3   1 <1>  -0.0800 
  9 C       -0.9020     3.9740    -0.7950 C.3   1 <1>   0.2000 
 10 C        1.1350     2.9310    -0.0120 C.3   1 <1>   0.1400 
 11 O       -1.6360     3.9350     0.3810 O.3   1 <1>  -0.6800 
 12 C        0.1570     5.0650    -0.6550 C.3   1 <1>   0.1400 
 13 N        1.2550     4.4070     0.0990 N.am  1 <1>  -0.6600 
 14 C        2.4040     5.0200     0.5460 C.2   1 <1>   0.5440 
 15 O        3.3250     4.3220     0.9230 O.2   1 <1>  -0.5700 
 16 C        2.5450     6.4610     0.5620 C.ar  1 <1>   0.0860 
 17 C        3.5960     7.0770    -0.1140 C.ar  1 <1>  -0.1500 
 18 C        1.6510     7.2830     1.2510 C.ar  1 <1>  -0.1500 
 19 C        3.7230     8.4510    -0.1090 C.ar  1 <1>   0.1900 
 20 C        1.7840     8.6610     1.2520 C.ar  1 <1>  -0.1500 
 21 F        4.7340     8.9420    -0.7800 F     1 <1>  -0.1900 
 22 C        2.8210     9.2790     0.5700 C.ar  1 <1>   0.0820 
 23 O        2.8430    10.6360     0.6420 O.3   1 <1>  -0.3620 
 24 C        3.8560    11.4290     0.0640 C.3   1 <1>   0.0400 
 25 H       -1.7750     1.4130    -1.1800 H     1 <1>   0.0800 
 26 H       -1.1690     1.3990     0.4350 H     1 <1>   0.0800 
 27 H        1.7000    -0.5580     2.1730 H     1 <1>   0.0800 
 28 H        0.6380    -1.7150     1.3910 H     1 <1>   0.0800 
 29 H        0.0340    -0.1400     1.8580 H     1 <1>   0.0800 
 30 H        3.2500    -0.7920     0.4020 H     1 <1>   0.0800 
 31 H        2.8220    -0.3480    -1.2290 H     1 <1>   0.0800 
 32 H        2.2300    -1.8530    -0.5580 H     1 <1>   0.0800 
 33 H        0.2760     2.6250    -1.9280 H     1 <1>   0.0800 
 34 H       -1.5760     4.1360    -1.6190 H     1 <1>   0.0800 
 35 H        2.0290     2.5030    -0.4350 H     1 <1>   0.0800 
 36 H        0.9810     2.5210     0.9720 H     1 <1>   0.0800 
 37 H       -1.0130     3.9680     1.1360 H     1 <1>   0.4000 
 38 H       -0.2340     5.9280    -0.1450 H     1 <1>   0.0800 
 39 H        0.5210     5.3510    -1.6260 H     1 <1>   0.0800 
 40 H        4.3150     6.4730    -0.6400 H     1 <1>   0.1500 
 41 H        0.8440     6.8290     1.8000 H     1 <1>   0.1500 
 42 H        1.0800     9.2740     1.7900 H     1 <1>   0.1500 
 43 H        3.6490    12.4580     0.2970 H     1 <1>   0.0800 
 44 H        3.8470    11.2880    -1.0020 H     1 <1>   0.0800 
 45 H        4.8050    11.1440     0.4820 H     1 <1>   0.0800 
@<TRIPOS>BOND
  1   1   2  2   
  2   1   3  2   
  3   1   4  am  
  4   1   5  1   
  5   4   6  1   
  6   4   7  1   
  7   5   8  1   
  8   5  25  1   
  9   5  26  1   
 10   6  27  1   
 11   6  28  1   
 12   6  29  1   
 13   7  30  1   
 14   7  31  1   
 15   7  32  1   
 16   8   9  1   
 17   8  10  1   
 18   8  33  1   
 19   9  11  1   
 20   9  12  1   
 21   9  34  1   
 22  10  13  1   
 23  10  35  1   
 24  10  36  1   
 25  11  37  1   
 26  12  13  1   
 27  12  38  1   
 28  12  39  1   
 29  13  14  am  
 30  14  15  2   
 31  14  16  1   
 32  16  17  ar  
 33  16  18  ar  
 34  17  19  ar  
 35  17  40  1   
 36  18  20  ar  
 37  18  41  1   
 38  19  21  1   
 39  19  22  ar  
 40  20  22  ar  
 41  20  42  1   
 42  22  23  1   
 43  23  24  1   
 44  24  43  1   
 45  24  44  1   
 46  24  45  1   
@<TRIPOS>SUBSTRUCTURE
  1 ****  13 GROUP 4 **** **** 0

# MOE 2024.06 (io_trps.svl 2023.06)
