@<TRIPOS>MOLECULE
NONAME
58 62 1 0 0 
SMALL
USER_CHARGES


@<TRIPOS>ATOM
  1 O        2.0310    -0.5840     1.7510 O.2   1 <1>  -0.5700 
  2 C        1.6860    -1.5970     1.1730 C.2   1 <1>   0.5440 
  3 N        2.2290    -1.8910    -0.0600 N.am  1 <1>  -0.6600 
  4 C        0.7220    -2.4770     1.8010 C.ar  1 <1>   0.0860 
  5 C        2.2970    -3.2640    -0.6340 C.3   1 <1>   0.1400 
  6 C        2.9130    -0.8540    -0.8790 C.3   1 <1>   0.1400 
  7 C       -0.4020    -2.9340     1.1400 C.ar  1 <1>  -0.1500 
  8 C        0.8630    -2.9320     3.1040 C.ar  1 <1>  -0.1500 
  9 C        1.6740    -3.2710    -2.0330 C.3   1 <1>  -0.1600 
 10 C        2.3060    -0.8360    -2.2870 C.3   1 <1>  -0.1600 
 11 C       -1.2680    -3.8300     1.7450 C.ar  1 <1>   0.4100 
 12 C       -0.0600    -3.8110     3.6320 C.ar  1 <1>   0.1600 
 13 C        2.3360    -2.2260    -2.9440 C.3   1 <1>  -0.1600 
 14 N       -1.1090    -4.2820     2.9800 N.ar  1 <1>  -0.6200 
 15 N       -2.3370    -4.3070     1.0310 N.pl3 1 <1>  -0.8690 
 16 C       -2.5790    -5.7760     0.9740 C.3   1 <1>   0.2090 
 17 C       -2.0980    -6.3780    -0.3780 C.3   1 <1>   0.2800 
 18 O       -2.6680    -5.5970    -1.3890 O.3   1 <1>  -0.6800 
 19 C       -2.5590    -7.8500    -0.5600 C.3   1 <1>  -0.0800 
 20 C       -0.5520    -6.3340    -0.5570 C.3   1 <1>  -0.0800 
 21 C       -2.1550    -8.3830    -1.9570 C.3   1 <1>  -0.1600 
 22 C       -1.8800    -8.7520     0.4990 C.3   1 <1>  -0.1600 
 23 C       -0.1470    -6.8640    -1.9540 C.3   1 <1>  -0.1600 
 24 C        0.1380    -7.2280     0.4990 C.3   1 <1>  -0.1600 
 25 C       -0.6240    -8.3190    -2.1270 C.3   1 <1>  -0.0800 
 26 C       -0.3460    -8.6850     0.3520 C.3   1 <1>  -0.0800 
 27 C        0.0390    -9.1960    -1.0490 C.3   1 <1>  -0.1600 
 28 H        1.7970    -3.9760    -0.0020 H     1 <1>   0.0800 
 29 H        3.3310    -3.5580    -0.7000 H     1 <1>   0.0800 
 30 H        3.9640    -1.0840    -0.9310 H     1 <1>   0.0800 
 31 H        2.8030     0.1180    -0.4280 H     1 <1>   0.0800 
 32 H       -0.6020    -2.6020     0.1410 H     1 <1>   0.1500 
 33 H        1.6960    -2.5930     3.6930 H     1 <1>   0.1500 
 34 H        0.6210    -3.0680    -1.9520 H     1 <1>   0.0800 
 35 H        1.7850    -4.2490    -2.4670 H     1 <1>   0.0800 
 36 H        2.8480    -0.1360    -2.8970 H     1 <1>   0.0800 
 37 H        1.2890    -0.4900    -2.2180 H     1 <1>   0.0800 
 38 H        0.0700    -4.1500     4.6450 H     1 <1>   0.1500 
 39 H        1.8250    -2.1920    -3.8910 H     1 <1>   0.0800 
 40 H        3.3580    -2.5100    -3.1270 H     1 <1>   0.0800 
 41 H       -2.4050    -3.9340     0.0780 H     1 <1>   0.4000 
 42 H       -3.6340    -5.9500     1.0820 H     1 <1>   0.0800 
 43 H       -2.1010    -6.2620     1.8030 H     1 <1>   0.0800 
 44 H       -3.6350    -5.7240    -1.3900 H     1 <1>   0.4000 
 45 H       -3.6270    -7.9160    -0.4430 H     1 <1>   0.0800 
 46 H       -0.2050    -5.3240    -0.4460 H     1 <1>   0.0800 
 47 H       -2.6270    -7.8040    -2.7310 H     1 <1>   0.0800 
 48 H       -2.4890    -9.3990    -2.0710 H     1 <1>   0.0800 
 49 H       -2.2070    -9.7700     0.3680 H     1 <1>   0.0800 
 50 H       -2.1650    -8.4600     1.4940 H     1 <1>   0.0800 
 51 H        0.9220    -6.8180    -2.0660 H     1 <1>   0.0800 
 52 H       -0.5750    -6.2470    -2.7250 H     1 <1>   0.0800 
 53 H       -0.0590    -6.8690     1.4930 H     1 <1>   0.0800 
 54 H        1.2040    -7.1890     0.3620 H     1 <1>   0.0800 
 55 H       -0.3510    -8.6780    -3.1050 H     1 <1>   0.0800 
 56 H        0.1200    -9.3020     1.1020 H     1 <1>   0.0800 
 57 H        1.1080    -9.1710    -1.1660 H     1 <1>   0.0800 
 58 H       -0.2770   -10.2180    -1.1650 H     1 <1>   0.0800 
@<TRIPOS>BOND
  1   1   2  2   
  2   2   3  am  
  3   2   4  1   
  4   3   5  1   
  5   3   6  1   
  6   4   7  ar  
  7   4   8  ar  
  8   5   9  1   
  9   5  28  1   
 10   5  29  1   
 11   6  10  1   
 12   6  30  1   
 13   6  31  1   
 14   7  11  ar  
 15   7  32  1   
 16   8  12  ar  
 17   8  33  1   
 18   9  13  1   
 19   9  34  1   
 20   9  35  1   
 21  10  13  1   
 22  10  36  1   
 23  10  37  1   
 24  11  14  ar  
 25  11  15  1   
 26  12  14  ar  
 27  12  38  1   
 28  13  39  1   
 29  13  40  1   
 30  15  16  1   
 31  15  41  1   
 32  16  17  1   
 33  16  42  1   
 34  16  43  1   
 35  17  18  1   
 36  17  19  1   
 37  17  20  1   
 38  18  44  1   
 39  19  21  1   
 40  19  22  1   
 41  19  45  1   
 42  20  23  1   
 43  20  24  1   
 44  20  46  1   
 45  21  25  1   
 46  21  47  1   
 47  21  48  1   
 48  22  26  1   
 49  22  49  1   
 50  22  50  1   
 51  23  25  1   
 52  23  51  1   
 53  23  52  1   
 54  24  26  1   
 55  24  53  1   
 56  24  54  1   
 57  25  27  1   
 58  25  55  1   
 59  26  27  1   
 60  26  56  1   
 61  27  57  1   
 62  27  58  1   
@<TRIPOS>SUBSTRUCTURE
  1 ****  20 GROUP 4 **** **** 0

# MOE 2024.06 (io_trps.svl 2023.06)
