@<TRIPOS>MOLECULE
NONAME
52 54 1 0 0 
SMALL
USER_CHARGES


@<TRIPOS>ATOM
  1 S       -0.2180    -0.2130    -0.2290 S.o2  1 <1>   1.3330 
  2 O       -0.7210    -0.3970     1.1140 O.2   1 <1>  -0.6500 
  3 O       -0.7960     0.8070    -1.0730 O.2   1 <1>  -0.6500 
  4 N       -0.3410    -1.7030    -1.0340 N.am  1 <1>  -0.8490 
  5 C        1.5550     0.0610    -0.1860 C.3   1 <1>  -0.0550 
  6 C       -0.1840    -2.8600    -0.1450 C.3   1 <1>   0.1160 
  7 C       -1.5890    -1.8240    -1.7930 C.3   1 <1>   0.1160 
  8 C        1.9600     1.4030     0.4570 C.3   1 <1>  -0.0800 
  9 C        3.4390     1.6850     0.2520 C.3   1 <1>   0.2200 
 10 C        1.8610     1.3570     1.9850 C.3   1 <1>   0.1200 
 11 N        3.6840     3.1370     0.3960 N.am  1 <1>  -0.7300 
 12 C        4.0650     0.9460     1.4290 C.3   1 <1>   0.1200 
 13 O        3.1170     0.9670     2.4560 O.3   1 <1>  -0.5600 
 14 C        4.2590     3.9500    -0.5280 C.2   1 <1>   0.7150 
 15 O        4.5820     3.4730    -1.5980 O.2   1 <1>  -0.5700 
 16 C        4.4700     5.3390    -0.1950 C.2   1 <1>  -0.2370 
 17 N        5.2040     6.2340    -0.9550 N.pl3 1 <1>   0.0480 
 18 C        4.0010     6.0150     0.8970 C.2   1 <1>  -0.1500 
 19 C        5.1860     7.4610    -0.3290 C.ar  1 <1>  -0.1520 
 20 C        5.9120     5.9440    -2.2210 C.3   1 <1>   0.0160 
 21 C        4.4390     7.3450     0.8360 C.ar  1 <1>   0.0000 
 22 C        5.7620     8.6900    -0.6730 C.ar  1 <1>  -0.1500 
 23 C        4.2610     8.4550     1.6700 C.ar  1 <1>  -0.1500 
 24 C        5.5830     9.7770     0.1520 C.ar  1 <1>  -0.1500 
 25 C        4.8260     9.6620     1.3350 C.ar  1 <1>   0.0820 
 26 O        4.6150    10.7010     2.1900 O.3   1 <1>  -0.3630 
 27 C        5.1490    11.9790     1.9270 C.3   1 <1>   0.0400 
 28 H        2.0280    -0.7460     0.3370 H     1 <1>   0.0800 
 29 H        1.9110     0.0470    -1.1990 H     1 <1>   0.0800 
 30 H       -0.1760    -3.7700    -0.7210 H     1 <1>   0.0800 
 31 H       -0.9940    -2.9020     0.5650 H     1 <1>   0.0800 
 32 H        0.7440    -2.7920     0.3950 H     1 <1>   0.0800 
 33 H       -1.6270    -2.7720    -2.3020 H     1 <1>   0.0800 
 34 H       -1.6480    -1.0430    -2.5340 H     1 <1>   0.0800 
 35 H       -2.4380    -1.7400    -1.1340 H     1 <1>   0.0800 
 36 H        1.3520     2.1900     0.0410 H     1 <1>   0.0800 
 37 H        3.8130     1.3300    -0.6940 H     1 <1>   0.0800 
 38 H        1.1220     0.6680     2.3540 H     1 <1>   0.0800 
 39 H        1.6570     2.3370     2.3810 H     1 <1>   0.0800 
 40 H        3.5120     3.5160     1.3260 H     1 <1>   0.3700 
 41 H        4.9770     1.4040     1.7690 H     1 <1>   0.0800 
 42 H        4.2490    -0.0840     1.1780 H     1 <1>   0.0800 
 43 H        3.3900     5.6400     1.6980 H     1 <1>   0.1500 
 44 H        6.5770     5.1130    -2.0730 H     1 <1>   0.0800 
 45 H        6.4790     6.7970    -2.5370 H     1 <1>   0.0800 
 46 H        5.1910     5.6930    -2.9780 H     1 <1>   0.0800 
 47 H        6.3380     8.7840    -1.5750 H     1 <1>   0.1500 
 48 H        3.6820     8.3560     2.5680 H     1 <1>   0.1500 
 49 H        6.0290    10.7130    -0.1220 H     1 <1>   0.1500 
 50 H        4.8540    12.6340     2.7270 H     1 <1>   0.0800 
 51 H        4.7500    12.3400     0.9950 H     1 <1>   0.0800 
 52 H        6.2210    11.9090     1.8890 H     1 <1>   0.0800 
@<TRIPOS>BOND
  1   1   2  2   
  2   1   3  2   
  3   1   4  am  
  4   1   5  1   
  5   4   6  1   
  6   4   7  1   
  7   5   8  1   
  8   5  28  1   
  9   5  29  1   
 10   6  30  1   
 11   6  31  1   
 12   6  32  1   
 13   7  33  1   
 14   7  34  1   
 15   7  35  1   
 16   8   9  1   
 17   8  10  1   
 18   8  36  1   
 19   9  11  1   
 20   9  12  1   
 21   9  37  1   
 22  10  13  1   
 23  10  38  1   
 24  10  39  1   
 25  11  14  am  
 26  11  40  1   
 27  12  13  1   
 28  12  41  1   
 29  12  42  1   
 30  14  15  2   
 31  14  16  1   
 32  16  17  1   
 33  16  18  2   
 34  17  19  1   
 35  17  20  1   
 36  18  21  1   
 37  18  43  1   
 38  19  21  ar  
 39  19  22  ar  
 40  20  44  1   
 41  20  45  1   
 42  20  46  1   
 43  21  23  ar  
 44  22  24  ar  
 45  22  47  1   
 46  23  25  ar  
 47  23  48  1   
 48  24  25  ar  
 49  24  49  1   
 50  25  26  1   
 51  26  27  1   
 52  27  50  1   
 53  27  51  1   
 54  27  52  1   
@<TRIPOS>SUBSTRUCTURE
  1 ****  11 GROUP 4 **** **** 0

# MOE 2024.06 (io_trps.svl 2023.06)
