@<TRIPOS>MOLECULE
NONAME
45 46 1 0 0 
SMALL
USER_CHARGES


@<TRIPOS>ATOM
  1 S        0.3400    -0.4210    -0.1880 S.o2  1 <1>   1.3330 
  2 O        0.4560    -1.1920    -1.4050 O.2   1 <1>  -0.6500 
  3 O        0.2570    -1.1000     1.0860 O.2   1 <1>  -0.6500 
  4 N       -1.0070     0.6020    -0.3260 N.am  1 <1>  -0.8490 
  5 C        1.7140     0.7250    -0.1490 C.3   1 <1>  -0.0550 
  6 C       -1.4740     1.1270     0.9620 C.3   1 <1>   0.1160 
  7 C       -2.1210    -0.0380    -1.0340 C.3   1 <1>   0.1160 
  8 C        3.0850     0.0200    -0.1070 C.3   1 <1>  -0.0800 
  9 C        4.2920     0.9380    -0.2460 C.3   1 <1>   0.2760 
 10 C        3.3650    -0.7410     1.1970 C.3   1 <1>   0.1200 
 11 N        4.0690     2.1650     0.5160 N.am  1 <1>  -0.9140 
 12 C        5.3560     0.0820     0.4380 C.3   1 <1>   0.1200 
 13 O        4.6950    -0.4760     1.5310 O.3   1 <1>  -0.5600 
 14 S        5.2330     3.3470     0.2610 S.o2  1 <1>   1.3330 
 15 O        6.1820     3.1190     1.3220 O.2   1 <1>  -0.6500 
 16 O        5.6330     3.2450    -1.1240 O.2   1 <1>  -0.6500 
 17 C        4.3250     4.8760     0.5330 C.3   1 <1>   0.0890 
 18 C        5.1650     6.1350     0.3600 C.ar  1 <1>  -0.1440 
 19 C        5.4630     6.6000    -0.9120 C.ar  1 <1>  -0.1500 
 20 C        5.6410     6.8220     1.4660 C.ar  1 <1>  -0.1500 
 21 C        6.2220     7.7460    -1.0760 C.ar  1 <1>  -0.1500 
 22 C        6.4010     7.9670     1.3020 C.ar  1 <1>  -0.1500 
 23 C        6.6900     8.4310     0.0310 C.ar  1 <1>  -0.1500 
 24 H        1.6720     1.3380    -1.0280 H     1 <1>   0.0800 
 25 H        1.6130     1.3690     0.7020 H     1 <1>   0.0800 
 26 H       -2.2690     1.8360     0.8050 H     1 <1>   0.0800 
 27 H       -0.6700     1.6270     1.4730 H     1 <1>   0.0800 
 28 H       -1.8360     0.3260     1.5860 H     1 <1>   0.0800 
 29 H       -2.9520     0.6410    -1.1180 H     1 <1>   0.0800 
 30 H       -2.4380    -0.9250    -0.5100 H     1 <1>   0.0800 
 31 H       -1.8140    -0.3170    -2.0290 H     1 <1>   0.0800 
 32 H        3.1210    -0.6950    -0.9120 H     1 <1>   0.0800 
 33 H        4.5150     1.1400    -1.2810 H     1 <1>   0.0800 
 34 H        3.2410    -1.8040     1.0730 H     1 <1>   0.0800 
 35 H        2.7480    -0.3980     2.0110 H     1 <1>   0.0800 
 36 H        4.2400     1.8710     1.4830 H     1 <1>   0.4200 
 37 H        6.2150     0.6360     0.7730 H     1 <1>   0.0800 
 38 H        5.6730    -0.7200    -0.2050 H     1 <1>   0.0800 
 39 H        3.5050     4.9200    -0.1570 H     1 <1>   0.0800 
 40 H        3.9120     4.8660     1.5220 H     1 <1>   0.0800 
 41 H        5.1120     6.0720    -1.7830 H     1 <1>   0.1500 
 42 H        5.4310     6.4720     2.4620 H     1 <1>   0.1500 
 43 H        6.4510     8.1020    -2.0650 H     1 <1>   0.1500 
 44 H        6.7690     8.4970     2.1630 H     1 <1>   0.1500 
 45 H        7.2810     9.3210    -0.0970 H     1 <1>   0.1500 
@<TRIPOS>BOND
  1   1   2  2   
  2   1   3  2   
  3   1   4  am  
  4   1   5  1   
  5   4   6  1   
  6   4   7  1   
  7   5   8  1   
  8   5  24  1   
  9   5  25  1   
 10   6  26  1   
 11   6  27  1   
 12   6  28  1   
 13   7  29  1   
 14   7  30  1   
 15   7  31  1   
 16   8   9  1   
 17   8  10  1   
 18   8  32  1   
 19   9  11  1   
 20   9  12  1   
 21   9  33  1   
 22  10  13  1   
 23  10  34  1   
 24  10  35  1   
 25  11  14  am  
 26  11  36  1   
 27  12  13  1   
 28  12  37  1   
 29  12  38  1   
 30  14  15  2   
 31  14  16  2   
 32  14  17  1   
 33  17  18  1   
 34  17  39  1   
 35  17  40  1   
 36  18  19  ar  
 37  18  20  ar  
 38  19  21  ar  
 39  19  41  1   
 40  20  22  ar  
 41  20  42  1   
 42  21  23  ar  
 43  21  43  1   
 44  22  23  ar  
 45  22  44  1   
 46  23  45  1   
@<TRIPOS>SUBSTRUCTURE
  1 ****  11 GROUP 4 **** **** 0

# MOE 2024.06 (io_trps.svl 2023.06)
