@<TRIPOS>MOLECULE
NONAME
54 57 1 0 0 
SMALL
USER_CHARGES


@<TRIPOS>ATOM
  1 O        0.0470    -2.7980    -1.2320 O.3   1 <1>  -0.6800 
  2 C        0.4630    -1.6520    -0.5690 C.3   1 <1>   0.1200 
  3 C        1.7590    -1.8830     0.2630 C.3   1 <1>   0.0000 
  4 C        3.0180    -2.2210    -0.5940 C.3   1 <1>   0.4230 
  5 C        2.0680    -0.5480     0.9940 C.3   1 <1>  -0.1600 
  6 C        1.5250    -2.9780     1.3470 C.3   1 <1>  -0.1600 
  7 N        3.0740    -3.6210    -1.1890 N.4   1 <1>  -0.9590 
  8 C        3.3530    -1.0810    -1.5800 C.3   1 <1>   0.2090 
  9 C        2.4650     0.6100     0.0620 C.3   1 <1>   0.2090 
 10 C        2.3120    -4.2760     1.0910 C.3   1 <1>  -0.1600 
 11 C        2.3150    -4.6350    -0.3930 C.3   1 <1>   0.3430 
 12 C        2.6570    -3.7080    -2.6240 C.3   1 <1>   0.2630 
 13 N        3.5820     0.1860    -0.8270 N.pl3 1 <1>  -0.8380 
 14 C        4.8770     0.4840    -0.4280 C.ar  1 <1>   0.4100 
 15 N        5.5680    -0.5530     0.0400 N.ar  1 <1>  -0.6200 
 16 C        5.3930     1.7840    -0.5160 C.ar  1 <1>   0.0730 
 17 C        6.8020    -0.3130     0.4490 C.ar  1 <1>   0.1670 
 18 C        4.6030     2.8540    -1.0400 C.1   1 <1>   0.4840 
 19 C        6.6860     2.0080    -0.0870 C.ar  1 <1>  -0.1500 
 20 C        7.4070     0.9390     0.4060 C.ar  1 <1>  -0.1430 
 21 C        7.5560    -1.5290     0.9720 C.3   1 <1>  -0.0170 
 22 N        3.9720     3.7220    -1.4300 N.1   1 <1>  -0.5570 
 23 C        8.8310     1.1810     0.8940 C.3   1 <1>  -0.0170 
 24 C        8.8260    -1.1780     1.7580 C.3   1 <1>  -0.1600 
 25 C        9.6380    -0.1160     1.0140 C.3   1 <1>  -0.1600 
 26 H       -0.8700    -2.6830    -1.5640 H     1 <1>   0.4000 
 27 H        0.5890    -0.8790    -1.3060 H     1 <1>   0.0800 
 28 H       -0.3380    -1.3570     0.0890 H     1 <1>   0.0800 
 29 H        3.8270    -2.1950     0.1170 H     1 <1>   0.0800 
 30 H        2.8850    -0.6920     1.6810 H     1 <1>   0.0800 
 31 H        1.2190    -0.2410     1.5800 H     1 <1>   0.0800 
 32 H        1.7950    -2.6220     2.3270 H     1 <1>   0.0800 
 33 H        0.4760    -3.2190     1.3960 H     1 <1>   0.0800 
 34 H        4.0660    -3.8860    -1.1360 H     1 <1>   0.4500 
 35 H        2.5560    -0.9310    -2.2860 H     1 <1>   0.0800 
 36 H        4.2490    -1.3260    -2.1230 H     1 <1>   0.0800 
 37 H        2.7710     1.4540     0.6590 H     1 <1>   0.0800 
 38 H        1.6310     0.9270    -0.5400 H     1 <1>   0.0800 
 39 H        1.8550    -5.0770     1.6470 H     1 <1>   0.0800 
 40 H        3.3250    -4.1800     1.4420 H     1 <1>   0.0800 
 41 H        1.2930    -4.6750    -0.7340 H     1 <1>   0.0800 
 42 H        2.7500    -5.6110    -0.5330 H     1 <1>   0.0800 
 43 H        1.6360    -3.3860    -2.7410 H     1 <1>   0.0800 
 44 H        2.7350    -4.7250    -2.9730 H     1 <1>   0.0800 
 45 H        3.2870    -3.0890    -3.2400 H     1 <1>   0.0800 
 46 H        7.1180     2.9930    -0.1360 H     1 <1>   0.1500 
 47 H        6.9040    -2.1070     1.6030 H     1 <1>   0.0800 
 48 H        7.8220    -2.1400     0.1280 H     1 <1>   0.0800 
 49 H        9.3400     1.8510     0.2230 H     1 <1>   0.0800 
 50 H        8.7820     1.6550     1.8590 H     1 <1>   0.0800 
 51 H        8.5540    -0.8040     2.7300 H     1 <1>   0.0800 
 52 H        9.4200    -2.0650     1.8980 H     1 <1>   0.0800 
 53 H        9.8880    -0.4760     0.0300 H     1 <1>   0.0800 
 54 H       10.5570     0.0800     1.5400 H     1 <1>   0.0800 
@<TRIPOS>BOND
  1   1   2  1   
  2   1  26  1   
  3   2   3  1   
  4   2  27  1   
  5   2  28  1   
  6   3   4  1   
  7   3   5  1   
  8   3   6  1   
  9   4   7  1   
 10   4   8  1   
 11   4  29  1   
 12   5   9  1   
 13   5  30  1   
 14   5  31  1   
 15   6  10  1   
 16   6  32  1   
 17   6  33  1   
 18   7  11  1   
 19   7  12  1   
 20   7  34  1   
 21   8  13  1   
 22   8  35  1   
 23   8  36  1   
 24   9  13  1   
 25   9  37  1   
 26   9  38  1   
 27  10  11  1   
 28  10  39  1   
 29  10  40  1   
 30  11  41  1   
 31  11  42  1   
 32  12  43  1   
 33  12  44  1   
 34  12  45  1   
 35  13  14  1   
 36  14  15  ar  
 37  14  16  ar  
 38  15  17  ar  
 39  16  18  1   
 40  16  19  ar  
 41  17  20  ar  
 42  17  21  1   
 43  18  22  3   
 44  19  20  ar  
 45  19  46  1   
 46  20  23  1   
 47  21  24  1   
 48  21  47  1   
 49  21  48  1   
 50  23  25  1   
 51  23  49  1   
 52  23  50  1   
 53  24  25  1   
 54  24  51  1   
 55  24  52  1   
 56  25  53  1   
 57  25  54  1   
@<TRIPOS>SUBSTRUCTURE
  1 ****  15 GROUP 4 **** **** 0

# MOE 2024.06 (io_trps.svl 2023.06)
