@<TRIPOS>MOLECULE
NONAME
46 48 1 0 0 
SMALL
USER_CHARGES


@<TRIPOS>ATOM
  1 S       -0.1520    -0.0990     1.0200 S.3   1 <1>  -0.0800 
  2 C        0.9860    -0.9870     0.0270 C.2   1 <1>  -0.0450 
  3 C        0.4860     1.4080     0.4130 C.2   1 <1>   0.1980 
  4 C        1.7250    -0.0680    -0.6370 C.2   1 <1>   0.0460 
  5 C        1.0080    -2.4280     0.0660 C.2   1 <1>   0.7150 
  6 N        1.4350     1.2620    -0.4240 N.2   1 <1>  -0.5650 
  7 C       -0.1510     2.6920     0.9400 C.3   1 <1>   0.1000 
  8 C        2.8560    -0.3500    -1.6060 C.3   1 <1>  -0.0590 
  9 O        2.0760    -3.0110     0.0870 O.2   1 <1>  -0.5700 
 10 N       -0.1440    -3.1850     0.0520 N.am  1 <1>  -0.6600 
 11 C       -1.4870     2.9590     0.2340 C.3   1 <1>  -0.2400 
 12 C        0.7800     3.9010     0.7690 C.3   1 <1>  -0.2400 
 13 C       -1.4730    -2.7040    -0.4020 C.3   1 <1>   0.1400 
 14 C       -0.1100    -4.6700     0.0750 C.3   1 <1>   0.1400 
 15 C       -2.2220    -3.9640    -0.8330 C.3   1 <1>   0.2000 
 16 C       -1.5690    -5.1100    -0.0650 C.3   1 <1>  -0.0800 
 17 O       -3.5710    -3.8910    -0.5210 O.3   1 <1>  -0.6800 
 18 C       -1.7550    -6.4700    -0.7590 C.3   1 <1>  -0.0170 
 19 C       -1.1420    -7.6050     0.0460 C.ar  1 <1>   0.1670 
 20 N        0.1620    -7.7860    -0.0870 N.ar  1 <1>  -0.6200 
 21 C       -1.9470    -8.3890     0.8710 C.ar  1 <1>   0.1600 
 22 C        0.6030    -8.7900     0.6520 C.ar  1 <1>   0.1600 
 23 N       -1.5090    -9.3920     1.6130 N.ar  1 <1>  -0.6200 
 24 C       -0.2050    -9.5660     1.4750 C.ar  1 <1>   0.1600 
 25 H       -0.3360     2.5610     1.9920 H     1 <1>   0.0800 
 26 H        2.9970    -1.4050    -1.7440 H     1 <1>   0.0800 
 27 H        3.7670     0.0740    -1.2250 H     1 <1>   0.0800 
 28 H        2.6360     0.0990    -2.5570 H     1 <1>   0.0800 
 29 H       -1.3290     3.0750    -0.8240 H     1 <1>   0.0800 
 30 H       -1.9420     3.8540     0.6180 H     1 <1>   0.0800 
 31 H       -2.1630     2.1370     0.3910 H     1 <1>   0.0800 
 32 H        0.9820     4.0720    -0.2740 H     1 <1>   0.0800 
 33 H        1.7150     3.7150     1.2680 H     1 <1>   0.0800 
 34 H        0.3350     4.7840     1.1890 H     1 <1>   0.0800 
 35 H       -1.9760    -2.2300     0.4220 H     1 <1>   0.0800 
 36 H       -1.3710    -2.0170    -1.2240 H     1 <1>   0.0800 
 37 H        0.4800    -5.0220    -0.7550 H     1 <1>   0.0800 
 38 H        0.3270    -5.0290     0.9920 H     1 <1>   0.0800 
 39 H       -2.1250    -4.1000    -1.8970 H     1 <1>   0.0800 
 40 H       -1.9820    -5.1560     0.9280 H     1 <1>   0.0800 
 41 H       -3.6930    -3.7540     0.4390 H     1 <1>   0.4000 
 42 H       -1.3030    -6.4500    -1.7360 H     1 <1>   0.0800 
 43 H       -2.8060    -6.6550    -0.8960 H     1 <1>   0.0800 
 44 H       -3.0000    -8.1760     0.9210 H     1 <1>   0.1500 
 45 H        1.6550    -9.0090     0.6060 H     1 <1>   0.1500 
 46 H        0.2460   -10.3620     2.0390 H     1 <1>   0.1500 
@<TRIPOS>BOND
  1   1   2  1   
  2   1   3  1   
  3   2   4  2   
  4   2   5  1   
  5   3   6  2   
  6   3   7  1   
  7   4   6  1   
  8   4   8  1   
  9   5   9  2   
 10   5  10  am  
 11   7  11  1   
 12   7  12  1   
 13   7  25  1   
 14   8  26  1   
 15   8  27  1   
 16   8  28  1   
 17  10  13  1   
 18  10  14  1   
 19  11  29  1   
 20  11  30  1   
 21  11  31  1   
 22  12  32  1   
 23  12  33  1   
 24  12  34  1   
 25  13  15  1   
 26  13  35  1   
 27  13  36  1   
 28  14  16  1   
 29  14  37  1   
 30  14  38  1   
 31  15  16  1   
 32  15  17  1   
 33  15  39  1   
 34  16  18  1   
 35  16  40  1   
 36  17  41  1   
 37  18  19  1   
 38  18  42  1   
 39  18  43  1   
 40  19  20  ar  
 41  19  21  ar  
 42  20  22  ar  
 43  21  23  ar  
 44  21  44  1   
 45  22  24  ar  
 46  22  45  1   
 47  23  24  ar  
 48  24  46  1   
@<TRIPOS>SUBSTRUCTURE
  1 ****  10 GROUP 4 **** **** 0

# MOE 2024.06 (io_trps.svl 2023.06)
