@<TRIPOS>MOLECULE
NONAME
54 56 1 0 0 
SMALL
USER_CHARGES


@<TRIPOS>ATOM
  1 O       -0.4140     1.2990    -2.0010 O.co2 1 <1>  -0.9000 
  2 C       -1.0610     1.2750    -0.9500 C.2   1 <1>   0.9060 
  3 O       -1.9190     0.4190    -0.7130 O.co2 1 <1>  -0.9000 
  4 C       -0.8350     2.3800     0.0710 C.3   1 <1>  -0.1060 
  5 C       -2.2080     2.9350     0.4930 C.3   1 <1>   0.2000 
  6 C       -0.0770     3.4870    -0.6810 C.3   1 <1>   0.3430 
  7 C       -0.0320     1.7990     1.2740 C.3   1 <1>  -0.0650 
  8 O       -2.8940     1.9810     1.2060 O.3   1 <1>  -0.6800 
  9 C       -2.1250     4.2020     1.3580 C.3   1 <1>  -0.1600 
 10 N       -0.3240     4.8900    -0.1840 N.4   1 <1>  -0.9590 
 11 C        1.4600     1.5860     0.9830 C.3   1 <1>  -0.1950 
 12 C       -0.7830     4.9210     1.2320 C.3   1 <1>   0.3430 
 13 C        0.9110     5.7010    -0.4230 C.3   1 <1>   0.3430 
 14 C        2.4180     1.3820     2.1110 C.3   1 <1>  -0.2000 
 15 C        2.4800     2.6380     1.2910 C.3   1 <1>  -0.2000 
 16 C        0.6810     7.2030    -0.2390 C.3   1 <1>   0.1200 
 17 O        1.9140     7.8440    -0.4510 O.3   1 <1>  -0.3630 
 18 C        2.0750     9.1780    -0.2380 C.ar  1 <1>   0.0830 
 19 C        3.3730     9.6930    -0.2440 C.ar  1 <1>  -0.1430 
 20 C        0.9920    10.0230    -0.0100 C.ar  1 <1>  -0.1500 
 21 C        3.5720    11.0490     0.0050 C.ar  1 <1>  -0.1430 
 22 C        4.5690     8.7780    -0.5120 C.3   1 <1>  -0.0970 
 23 C        1.1990    11.3680     0.2260 C.ar  1 <1>  -0.1500 
 24 C        2.4830    11.8750     0.2350 C.ar  1 <1>  -0.1500 
 25 C        4.9630    11.6710     0.0380 C.3   1 <1>  -0.0970 
 26 H       -2.7880     3.1400    -0.3930 H     1 <1>   0.0800 
 27 H       -0.3690     3.4530    -1.7190 H     1 <1>   0.0800 
 28 H        0.9750     3.2580    -0.6620 H     1 <1>   0.0800 
 29 H       -0.1350     2.4150     2.1460 H     1 <1>   0.0800 
 30 H       -0.4570     0.8430     1.5350 H     1 <1>   0.0800 
 31 H       -2.8260     1.1360     0.6710 H     1 <1>   0.4000 
 32 H       -2.9180     4.8680     1.0740 H     1 <1>   0.0800 
 33 H       -2.2690     3.9520     2.3950 H     1 <1>   0.0800 
 34 H       -1.0860     5.2590    -0.7680 H     1 <1>   0.4500 
 35 H        1.6190     0.9630     0.1160 H     1 <1>   0.1000 
 36 H       -0.0510     4.4320     1.8530 H     1 <1>   0.0800 
 37 H       -0.8910     5.9360     1.5780 H     1 <1>   0.0800 
 38 H        1.6860     5.3800     0.2530 H     1 <1>   0.0800 
 39 H        1.2540     5.5350    -1.4310 H     1 <1>   0.0800 
 40 H        2.0500     1.4320     3.1220 H     1 <1>   0.1000 
 41 H        3.1910     0.6420     1.9940 H     1 <1>   0.1000 
 42 H        3.3140     2.7640     0.6220 H     1 <1>   0.1000 
 43 H        2.1950     3.5540     1.7760 H     1 <1>   0.1000 
 44 H        0.3620     7.4310     0.7620 H     1 <1>   0.0800 
 45 H       -0.0190     7.5760    -0.9660 H     1 <1>   0.0800 
 46 H       -0.0190     9.6670    -0.0130 H     1 <1>   0.1500 
 47 H        5.3040     9.2770    -1.1160 H     1 <1>   0.0800 
 48 H        4.2810     7.8900    -1.0430 H     1 <1>   0.0800 
 49 H        5.0200     8.4910     0.4200 H     1 <1>   0.0800 
 50 H        0.3640    12.0240     0.4020 H     1 <1>   0.1500 
 51 H        2.6280    12.9240     0.4240 H     1 <1>   0.1500 
 52 H        4.9280    12.6780     0.4130 H     1 <1>   0.0800 
 53 H        5.3770    11.6940    -0.9540 H     1 <1>   0.0800 
 54 H        5.6110    11.1010     0.6790 H     1 <1>   0.0800 
@<TRIPOS>BOND
  1   1   2  ar  
  2   2   3  ar  
  3   2   4  1   
  4   4   5  1   
  5   4   6  1   
  6   4   7  1   
  7   5   8  1   
  8   5   9  1   
  9   5  26  1   
 10   6  10  1   
 11   6  27  1   
 12   6  28  1   
 13   7  11  1   
 14   7  29  1   
 15   7  30  1   
 16   8  31  1   
 17   9  12  1   
 18   9  32  1   
 19   9  33  1   
 20  10  12  1   
 21  10  13  1   
 22  10  34  1   
 23  11  14  1   
 24  11  15  1   
 25  11  35  1   
 26  12  36  1   
 27  12  37  1   
 28  13  16  1   
 29  13  38  1   
 30  13  39  1   
 31  14  15  1   
 32  14  40  1   
 33  14  41  1   
 34  15  42  1   
 35  15  43  1   
 36  16  17  1   
 37  16  44  1   
 38  16  45  1   
 39  17  18  1   
 40  18  19  ar  
 41  18  20  ar  
 42  19  21  ar  
 43  19  22  1   
 44  20  23  ar  
 45  20  46  1   
 46  21  24  ar  
 47  21  25  1   
 48  22  47  1   
 49  22  48  1   
 50  22  49  1   
 51  23  24  ar  
 52  23  50  1   
 53  24  51  1   
 54  25  52  1   
 55  25  53  1   
 56  25  54  1   
@<TRIPOS>SUBSTRUCTURE
  1 ****  13 GROUP 4 **** **** 0

# MOE 2024.06 (io_trps.svl 2023.06)
