@<TRIPOS>MOLECULE
NONAME
51 53 1 0 0 
SMALL
USER_CHARGES


@<TRIPOS>ATOM
  1 O       -1.5940     0.5880     1.7790 O.2   1 <1>  -0.5700 
  2 C       -2.0870     0.9410     0.7300 C.2   1 <1>   0.5690 
  3 N       -2.7640     0.0040    -0.0190 N.am  1 <1>  -0.6600 
  4 C       -1.9230     2.4340     0.3170 C.3   1 <1>   0.0610 
  5 C       -3.4910     0.1510    -1.3080 C.3   1 <1>   0.1400 
  6 C       -2.8770    -1.4050     0.4480 C.3   1 <1>   0.1400 
  7 C       -0.8750     3.0830     1.2620 C.3   1 <1>   0.1200 
  8 C       -1.4170     2.5920    -1.1380 C.3   1 <1>  -0.2400 
  9 C       -3.2600     3.1890     0.4890 C.3   1 <1>  -0.2400 
 10 C       -4.4410    -1.0420    -1.3520 C.3   1 <1>   0.2000 
 11 C       -3.6540    -2.1500    -0.6460 C.3   1 <1>  -0.0800 
 12 O       -0.6800     4.4370     0.9670 O.3   1 <1>  -0.5600 
 13 O       -5.5670    -0.7190    -0.6080 O.3   1 <1>  -0.6800 
 14 C       -4.5190    -3.3180    -0.1250 C.3   1 <1>  -0.0170 
 15 C        0.2410     5.0630     1.7980 C.3   1 <1>   0.0400 
 16 C       -3.7730    -4.5290     0.4480 C.ar  1 <1>  -0.1440 
 17 C       -4.5040    -5.5580     1.0950 C.ar  1 <1>   0.0000 
 18 C       -2.4180    -4.6950     0.3650 C.ar  1 <1>  -0.1500 
 19 C       -3.7830    -6.6580     1.6210 C.ar  1 <1>   0.3100 
 20 C       -5.9120    -5.5630     1.2450 C.ar  1 <1>  -0.1500 
 21 C       -1.8040    -5.8250     0.9170 C.ar  1 <1>   0.1600 
 22 N       -2.4360    -6.7760     1.5250 N.ar  1 <1>  -0.6200 
 23 C       -4.4840    -7.6860     2.2720 C.ar  1 <1>  -0.1500 
 24 C       -6.5650    -6.5820     1.8830 C.ar  1 <1>  -0.1500 
 25 C       -5.8450    -7.6580     2.4060 C.ar  1 <1>  -0.1500 
 26 H       -4.0320     1.0760    -1.3830 H     1 <1>   0.0800 
 27 H       -2.7850     0.0770    -2.1170 H     1 <1>   0.0800 
 28 H       -1.8990    -1.8270     0.6050 H     1 <1>   0.0800 
 29 H       -3.4160    -1.4210     1.3810 H     1 <1>   0.0800 
 30 H        0.0700     2.5750     1.1650 H     1 <1>   0.0800 
 31 H       -1.2070     3.0100     2.2840 H     1 <1>   0.0800 
 32 H       -1.1490     3.6150    -1.3370 H     1 <1>   0.0800 
 33 H       -2.1650     2.3250    -1.8560 H     1 <1>   0.0800 
 34 H       -0.5460     1.9810    -1.2960 H     1 <1>   0.0800 
 35 H       -3.1410     4.2280     0.2350 H     1 <1>   0.0800 
 36 H       -3.5860     3.1290     1.5120 H     1 <1>   0.0800 
 37 H       -4.0320     2.7820    -0.1330 H     1 <1>   0.0800 
 38 H       -4.7520    -1.3020    -2.3490 H     1 <1>   0.0800 
 39 H       -2.9470    -2.5320    -1.3610 H     1 <1>   0.0800 
 40 H       -5.2780    -0.3370     0.2460 H     1 <1>   0.4000 
 41 H       -5.1420    -3.6630    -0.9320 H     1 <1>   0.0800 
 42 H       -5.1700    -2.9340     0.6420 H     1 <1>   0.0800 
 43 H        0.3220     6.0920     1.4940 H     1 <1>   0.0800 
 44 H        1.1970     4.5790     1.6980 H     1 <1>   0.0800 
 45 H       -0.1060     5.0120     2.8150 H     1 <1>   0.0800 
 46 H       -1.7720    -3.9870    -0.1170 H     1 <1>   0.1500 
 47 H       -6.4920    -4.7520     0.8480 H     1 <1>   0.1500 
 48 H       -0.7340    -5.9070     0.8300 H     1 <1>   0.1500 
 49 H       -3.9080    -8.5040     2.6640 H     1 <1>   0.1500 
 50 H       -7.6370    -6.5690     1.9900 H     1 <1>   0.1500 
 51 H       -6.3700    -8.4540     2.9070 H     1 <1>   0.1500 
@<TRIPOS>BOND
  1   1   2  2   
  2   2   3  am  
  3   2   4  1   
  4   3   5  1   
  5   3   6  1   
  6   4   7  1   
  7   4   8  1   
  8   4   9  1   
  9   5  10  1   
 10   5  26  1   
 11   5  27  1   
 12   6  11  1   
 13   6  28  1   
 14   6  29  1   
 15   7  12  1   
 16   7  30  1   
 17   7  31  1   
 18   8  32  1   
 19   8  33  1   
 20   8  34  1   
 21   9  35  1   
 22   9  36  1   
 23   9  37  1   
 24  10  11  1   
 25  10  13  1   
 26  10  38  1   
 27  11  14  1   
 28  11  39  1   
 29  12  15  1   
 30  13  40  1   
 31  14  16  1   
 32  14  41  1   
 33  14  42  1   
 34  15  43  1   
 35  15  44  1   
 36  15  45  1   
 37  16  17  ar  
 38  16  18  ar  
 39  17  19  ar  
 40  17  20  ar  
 41  18  21  ar  
 42  18  46  1   
 43  19  22  ar  
 44  19  23  ar  
 45  20  24  ar  
 46  20  47  1   
 47  21  22  ar  
 48  21  48  1   
 49  23  25  ar  
 50  23  49  1   
 51  24  25  ar  
 52  24  50  1   
 53  25  51  1   
@<TRIPOS>SUBSTRUCTURE
  1 ****   6 GROUP 4 **** **** 0

# MOE 2024.06 (io_trps.svl 2023.06)
