@<TRIPOS>MOLECULE
NONAME
59 62 1 0 0 
SMALL
USER_CHARGES


@<TRIPOS>ATOM
  1 O       -0.2580    -1.4240     1.3450 O.3   1 <1>  -0.5600 
  2 C        0.1040    -2.2070     0.2350 C.3   1 <1>   0.2800 
  3 C       -1.0090    -0.2630     1.1030 C.3   1 <1>   0.1200 
  4 C       -1.0760    -2.3500    -0.7550 C.3   1 <1>  -0.1600 
  5 C        1.3420    -1.5790    -0.4180 C.3   1 <1>  -0.1600 
  6 C        0.5120    -3.5700     0.8100 C.3   1 <1>  -0.1600 
  7 C       -2.3730    -0.5980     0.4750 C.3   1 <1>  -0.1600 
  8 C       -2.4340    -2.0080    -0.1290 C.3   1 <1>   0.2800 
  9 C        2.4790    -1.4410     0.5910 C.3   1 <1>   0.3430 
 10 C        1.6480    -3.4160     1.8160 C.3   1 <1>   0.3430 
 11 O       -2.6320    -2.8690     0.9260 O.3   1 <1>  -0.6800 
 12 C       -3.6070    -2.2120    -1.1130 C.3   1 <1>   0.1200 
 13 N        2.8290    -2.7810     1.1600 N.4   1 <1>  -0.9590 
 14 O       -3.4960    -1.3760    -2.2250 O.3   1 <1>  -0.6800 
 15 C        3.9740    -2.6870     2.1140 C.3   1 <1>   0.5230 
 16 C        5.2660    -2.4470     1.3600 C.2   1 <1>  -0.0400 
 17 O        5.4780    -1.2860     0.8060 O.3   1 <1>  -0.0190 
 18 C        6.3340    -3.2230     1.1130 C.2   1 <1>  -0.1500 
 19 N        6.6170    -1.2450     0.1890 N.2   1 <1>  -0.4100 
 20 C        7.1660    -2.3980     0.3580 C.2   1 <1>   0.1080 
 21 C        8.5310    -2.8070    -0.1870 C.3   1 <1>   0.1010 
 22 C        9.6440    -1.9060     0.3760 C.3   1 <1>  -0.1600 
 23 C        8.5390    -2.7810    -1.7260 C.3   1 <1>  -0.1600 
 24 C       11.0210    -2.2920    -0.1840 C.3   1 <1>  -0.1600 
 25 C        9.9140    -3.1680    -2.2900 C.3   1 <1>  -0.1600 
 26 C       11.0200    -2.2710    -1.7180 C.3   1 <1>  -0.1600 
 27 H       -0.4440     0.3840     0.4550 H     1 <1>   0.0800 
 28 H       -1.1490     0.2410     2.0440 H     1 <1>   0.0800 
 29 H       -1.1070    -3.3390    -1.1770 H     1 <1>   0.0800 
 30 H       -0.9210    -1.6840    -1.5850 H     1 <1>   0.0800 
 31 H        1.1030    -0.6100    -0.8160 H     1 <1>   0.0800 
 32 H        1.6680    -2.1830    -1.2460 H     1 <1>   0.0800 
 33 H        0.8160    -4.2330     0.0200 H     1 <1>   0.0800 
 34 H       -0.3280    -4.0280     1.2990 H     1 <1>   0.0800 
 35 H       -2.5520     0.1320    -0.2930 H     1 <1>   0.0800 
 36 H       -3.1580    -0.4740     1.2000 H     1 <1>   0.0800 
 37 H        2.1690    -0.7780     1.3820 H     1 <1>   0.0800 
 38 H        3.3330    -1.0060     0.0970 H     1 <1>   0.0800 
 39 H        1.9140    -4.3850     2.2070 H     1 <1>   0.0800 
 40 H        1.3090    -2.7990     2.6340 H     1 <1>   0.0800 
 41 H       -1.9920    -2.6180     1.6230 H     1 <1>   0.4000 
 42 H       -4.5480    -2.0110    -0.6310 H     1 <1>   0.0800 
 43 H       -3.6050    -3.2270    -1.4730 H     1 <1>   0.0800 
 44 H        3.1370    -3.3760     0.3810 H     1 <1>   0.4500 
 45 H       -3.9080    -0.5080    -2.0460 H     1 <1>   0.4000 
 46 H        4.0660    -3.6100     2.6610 H     1 <1>   0.0800 
 47 H        3.8110    -1.8890     2.8200 H     1 <1>   0.0800 
 48 H        6.5500    -4.2370     1.4000 H     1 <1>   0.1500 
 49 H        8.7300    -3.8160     0.1290 H     1 <1>   0.0800 
 50 H        9.6580    -1.9780     1.4490 H     1 <1>   0.0800 
 51 H        9.4340    -0.8810     0.1200 H     1 <1>   0.0800 
 52 H        8.2860    -1.7900    -2.0640 H     1 <1>   0.0800 
 53 H        7.7920    -3.4570    -2.1030 H     1 <1>   0.0800 
 54 H       11.2850    -3.2780     0.1590 H     1 <1>   0.0800 
 55 H       11.7640    -1.6050     0.1840 H     1 <1>   0.0800 
 56 H        9.9000    -3.0810    -3.3630 H     1 <1>   0.0800 
 57 H       10.1270    -4.1950    -2.0460 H     1 <1>   0.0800 
 58 H       11.9770    -2.6000    -2.0840 H     1 <1>   0.0800 
 59 H       10.8680    -1.2600    -2.0590 H     1 <1>   0.0800 
@<TRIPOS>BOND
  1   1   2  1   
  2   1   3  1   
  3   2   4  1   
  4   2   5  1   
  5   2   6  1   
  6   3   7  1   
  7   3  27  1   
  8   3  28  1   
  9   4   8  1   
 10   4  29  1   
 11   4  30  1   
 12   5   9  1   
 13   5  31  1   
 14   5  32  1   
 15   6  10  1   
 16   6  33  1   
 17   6  34  1   
 18   7   8  1   
 19   7  35  1   
 20   7  36  1   
 21   8  11  1   
 22   8  12  1   
 23   9  13  1   
 24   9  37  1   
 25   9  38  1   
 26  10  13  1   
 27  10  39  1   
 28  10  40  1   
 29  11  41  1   
 30  12  14  1   
 31  12  42  1   
 32  12  43  1   
 33  13  15  1   
 34  13  44  1   
 35  14  45  1   
 36  15  16  1   
 37  15  46  1   
 38  15  47  1   
 39  16  17  1   
 40  16  18  2   
 41  17  19  1   
 42  18  20  1   
 43  18  48  1   
 44  19  20  2   
 45  20  21  1   
 46  21  22  1   
 47  21  23  1   
 48  21  49  1   
 49  22  24  1   
 50  22  50  1   
 51  22  51  1   
 52  23  25  1   
 53  23  52  1   
 54  23  53  1   
 55  24  26  1   
 56  24  54  1   
 57  24  55  1   
 58  25  26  1   
 59  25  56  1   
 60  25  57  1   
 61  26  58  1   
 62  26  59  1   
@<TRIPOS>SUBSTRUCTURE
  1 ****   9 GROUP 4 **** **** 0

# MOE 2024.06 (io_trps.svl 2023.06)
