@<TRIPOS>MOLECULE
NONAME
47 50 1 0 0 
SMALL
USER_CHARGES


@<TRIPOS>ATOM
  1 O        1.4680    -0.6680     1.7280 O.3   1 <1>  -0.3630 
  2 C        0.6580     0.1730     1.0900 C.ar  1 <1>   0.3920 
  3 C        2.4500    -1.1490     0.8210 C.3   1 <1>   0.2000 
  4 N       -0.5300     0.4600     1.5450 N.ar  1 <1>  -0.6200 
  5 C        1.1420     0.5590    -0.1220 C.ar  1 <1>  -0.1440 
  6 C        2.4770    -0.1040    -0.3180 C.3   1 <1>  -0.0160 
  7 C        1.9990    -2.5700     0.3830 C.3   1 <1>   0.3430 
  8 C       -1.2240     1.2400     0.7320 C.ar  1 <1>   0.4760 
  9 C        0.3420     1.3660    -0.8880 C.ar  1 <1>   0.1660 
 10 N        0.4990    -2.7000     0.3060 N.4   1 <1>  -0.9590 
 11 N       -0.8590     1.6970    -0.4610 N.ar  1 <1>  -0.6200 
 12 C       -2.6010     1.6330     1.2100 C.3   1 <1>  -0.0970 
 13 C        0.7600     1.8950    -2.2440 C.3   1 <1>  -0.0970 
 14 C       -0.0170    -4.0410     0.7510 C.3   1 <1>   0.3430 
 15 C       -0.1030    -2.3240    -1.0240 C.3   1 <1>   0.3430 
 16 C       -1.5600    -4.0670     0.8160 C.3   1 <1>   0.2090 
 17 C       -1.6420    -2.3070    -0.9650 C.3   1 <1>   0.2090 
 18 N       -2.1870    -3.6080    -0.4640 N.pl3 1 <1>  -0.8380 
 19 C       -3.5690    -3.6790    -0.4750 C.ar  1 <1>   0.4100 
 20 N       -4.1930    -2.8570     0.3570 N.ar  1 <1>  -0.6200 
 21 C       -4.2530    -4.5670    -1.3210 C.ar  1 <1>   0.1600 
 22 C       -5.5100    -2.9790     0.2880 C.ar  1 <1>   0.1600 
 23 N       -5.5650    -4.6890    -1.3890 N.ar  1 <1>  -0.6200 
 24 C       -6.1750    -3.8620    -0.5530 C.ar  1 <1>   0.1600 
 25 H        3.4000    -1.1910     1.3250 H     1 <1>   0.0800 
 26 H        2.5850    -0.5520    -1.2900 H     1 <1>   0.0800 
 27 H        3.2710     0.6060    -0.1570 H     1 <1>   0.0800 
 28 H        2.3690    -3.2610     1.1220 H     1 <1>   0.0800 
 29 H        2.4530    -2.8350    -0.5570 H     1 <1>   0.0800 
 30 H        0.1250    -2.0140     0.9920 H     1 <1>   0.4500 
 31 H       -2.5560     1.9300     2.2410 H     1 <1>   0.0800 
 32 H       -3.2670     0.7960     1.1130 H     1 <1>   0.0800 
 33 H       -2.9800     2.4540     0.6290 H     1 <1>   0.0800 
 34 H        1.7660     1.6090    -2.4860 H     1 <1>   0.0800 
 35 H        0.7020     2.9690    -2.2390 H     1 <1>   0.0800 
 36 H        0.0950     1.5230    -3.0010 H     1 <1>   0.0800 
 37 H        0.3750    -4.2790     1.7260 H     1 <1>   0.0800 
 38 H        0.3090    -4.8040     0.0640 H     1 <1>   0.0800 
 39 H        0.2010    -3.0320    -1.7760 H     1 <1>   0.0800 
 40 H        0.2360    -1.3500    -1.3280 H     1 <1>   0.0800 
 41 H       -1.8930    -3.4350     1.6240 H     1 <1>   0.0800 
 42 H       -1.8900    -5.0690     1.0310 H     1 <1>   0.0800 
 43 H       -2.0350    -2.1130    -1.9490 H     1 <1>   0.0800 
 44 H       -1.9670    -1.5050    -0.3220 H     1 <1>   0.0800 
 45 H       -3.6610    -5.1940    -1.9610 H     1 <1>   0.1500 
 46 H       -6.0940    -2.3470     0.9330 H     1 <1>   0.1500 
 47 H       -7.2500    -3.8870    -0.5360 H     1 <1>   0.1500 
@<TRIPOS>BOND
  1   1   2  1   
  2   1   3  1   
  3   2   4  ar  
  4   2   5  ar  
  5   3   6  1   
  6   3   7  1   
  7   3  25  1   
  8   4   8  ar  
  9   5   6  1   
 10   5   9  ar  
 11   6  26  1   
 12   6  27  1   
 13   7  10  1   
 14   7  28  1   
 15   7  29  1   
 16   8  11  ar  
 17   8  12  1   
 18   9  11  ar  
 19   9  13  1   
 20  10  14  1   
 21  10  15  1   
 22  10  30  1   
 23  12  31  1   
 24  12  32  1   
 25  12  33  1   
 26  13  34  1   
 27  13  35  1   
 28  13  36  1   
 29  14  16  1   
 30  14  37  1   
 31  14  38  1   
 32  15  17  1   
 33  15  39  1   
 34  15  40  1   
 35  16  18  1   
 36  16  41  1   
 37  16  42  1   
 38  17  18  1   
 39  17  43  1   
 40  17  44  1   
 41  18  19  1   
 42  19  20  ar  
 43  19  21  ar  
 44  20  22  ar  
 45  21  23  ar  
 46  21  45  1   
 47  22  24  ar  
 48  22  46  1   
 49  23  24  ar  
 50  24  47  1   
@<TRIPOS>SUBSTRUCTURE
  1 ****  17 GROUP 4 **** **** 0

# MOE 2024.06 (io_trps.svl 2023.06)
