@<TRIPOS>MOLECULE
NONAME
37 38 1 0 0 
SMALL
USER_CHARGES


@<TRIPOS>ATOM
  1 O        1.1470    -1.0310     2.7920 O.2   1 <1>  -0.5700 
  2 C        1.8400    -0.8790     1.8100 C.2   1 <1>   0.5690 
  3 N        1.7810    -1.7550     0.7560 N.am  1 <1>  -0.6600 
  4 C        2.8130     0.3110     1.7890 C.3   1 <1>   0.2700 
  5 C        2.5170    -1.6000    -0.5180 C.3   1 <1>   0.1400 
  6 C        0.8410    -2.8910     0.7000 C.3   1 <1>   0.1400 
  7 N        2.5200     1.3390     0.7300 N.pl3 1 <1>  -0.8690 
  8 C        2.1730    -2.8520    -1.3160 C.3   1 <1>  -0.1600 
  9 C        0.8190    -3.3010    -0.7680 C.3   1 <1>  -0.1600 
 10 C        3.5330     1.9220    -0.0170 C.ar  1 <1>   0.4100 
 11 N        4.5380     1.1390    -0.3650 N.ar  1 <1>  -0.6200 
 12 C        3.4430     3.3080    -0.3750 C.ar  1 <1>   0.4100 
 13 C        5.4540     1.7900    -1.0720 C.ar  1 <1>   0.1600 
 14 N        4.3730     3.9310    -1.0790 N.ar  1 <1>  -0.6200 
 15 N        2.3300     4.0750     0.0020 N.pl3 1 <1>  -0.8380 
 16 C        5.3760     3.1280    -1.4130 C.ar  1 <1>   0.1600 
 17 C        1.1330     3.9110    -0.8620 C.3   1 <1>   0.1290 
 18 C        2.5770     5.4880     0.4000 C.3   1 <1>   0.1290 
 19 H        3.8060    -0.0800     1.6690 H     1 <1>   0.0800 
 20 H        2.7730     0.7900     2.7500 H     1 <1>   0.0800 
 21 H        3.5770    -1.5140    -0.3480 H     1 <1>   0.0800 
 22 H        2.1610    -0.7190    -1.0260 H     1 <1>   0.0800 
 23 H       -0.1350    -2.6010     1.0510 H     1 <1>   0.0800 
 24 H        1.2230    -3.6900     1.3130 H     1 <1>   0.0800 
 25 H        1.8620     2.0630     1.0450 H     1 <1>   0.4000 
 26 H        2.9150    -3.6050    -1.1180 H     1 <1>   0.0800 
 27 H        2.1450    -2.6550    -2.3730 H     1 <1>   0.0800 
 28 H        0.0290    -2.7650    -1.2660 H     1 <1>   0.0800 
 29 H        0.6570    -4.3570    -0.8870 H     1 <1>   0.0800 
 30 H        6.3090     1.2220    -1.3940 H     1 <1>   0.1500 
 31 H        6.1720     3.5640    -1.9890 H     1 <1>   0.1500 
 32 H        1.0290     2.8810    -1.1620 H     1 <1>   0.0800 
 33 H        1.2330     4.5190    -1.7450 H     1 <1>   0.0800 
 34 H        0.2490     4.2060    -0.3240 H     1 <1>   0.0800 
 35 H        3.4750     5.5490     0.9910 H     1 <1>   0.0800 
 36 H        1.7520     5.8560     0.9840 H     1 <1>   0.0800 
 37 H        2.6990     6.1020    -0.4760 H     1 <1>   0.0800 
@<TRIPOS>BOND
  1   1   2  2   
  2   2   3  am  
  3   2   4  1   
  4   3   5  1   
  5   3   6  1   
  6   4   7  1   
  7   4  19  1   
  8   4  20  1   
  9   5   8  1   
 10   5  21  1   
 11   5  22  1   
 12   6   9  1   
 13   6  23  1   
 14   6  24  1   
 15   7  10  1   
 16   7  25  1   
 17   8   9  1   
 18   8  26  1   
 19   8  27  1   
 20   9  28  1   
 21   9  29  1   
 22  10  11  ar  
 23  10  12  ar  
 24  11  13  ar  
 25  12  14  ar  
 26  12  15  1   
 27  13  16  ar  
 28  13  30  1   
 29  14  16  ar  
 30  15  17  1   
 31  15  18  1   
 32  16  31  1   
 33  17  32  1   
 34  17  33  1   
 35  17  34  1   
 36  18  35  1   
 37  18  36  1   
 38  18  37  1   
@<TRIPOS>SUBSTRUCTURE
  1 ****   7 GROUP 4 **** **** 0

# MOE 2024.06 (io_trps.svl 2023.06)
