@<TRIPOS>MOLECULE
NONAME
56 60 1 0 0 
SMALL
USER_CHARGES


@<TRIPOS>ATOM
  1 O       -0.8510     1.1170    -1.2430 O.2   1 <1>  -0.5700 
  2 C       -1.8100     1.5220    -0.6150 C.2   1 <1>   0.5440 
  3 N       -3.0550     0.9810    -0.8640 N.am  1 <1>  -0.6600 
  4 C       -1.6080     2.5550     0.3820 C.ar  1 <1>   0.0860 
  5 C       -3.3060     0.0990    -2.0390 C.3   1 <1>   0.1400 
  6 C       -4.1990     1.0480     0.0860 C.3   1 <1>   0.1400 
  7 C       -0.6680     2.4180     1.3820 C.ar  1 <1>  -0.1500 
  8 C       -2.3640     3.7430     0.3530 C.ar  1 <1>  -0.1500 
  9 C       -3.6110    -1.3190    -1.5510 C.3   1 <1>  -0.1600 
 10 C       -4.5090    -0.3610     0.5960 C.3   1 <1>  -0.1600 
 11 C       -0.4640     3.3960     2.3630 C.ar  1 <1>   0.3100 
 12 C       -2.1870     4.7210     1.2950 C.ar  1 <1>  -0.1500 
 13 C       -4.7810    -1.3430    -0.5570 C.3   1 <1>   0.4240 
 14 N        0.4710     3.1840     3.3280 N.ar  1 <1>  -0.6200 
 15 C       -1.2450     4.5790     2.3240 C.ar  1 <1>   0.3100 
 16 O       -5.8940    -0.8680    -1.2790 O.3   1 <1>  -0.5600 
 17 C       -5.0090    -2.7760    -0.0290 C.ar  1 <1>  -0.1430 
 18 C        0.5720     4.1520     4.1840 C.ar  1 <1>   0.1600 
 19 N       -1.1110     5.5680     3.2440 N.ar  1 <1>  -0.6200 
 20 C       -7.1620    -1.2050    -0.8090 C.3   1 <1>   0.1200 
 21 C       -6.2230    -3.4270    -0.2060 C.ar  1 <1>  -0.1430 
 22 C       -3.9970    -3.4480     0.6440 C.ar  1 <1>  -0.1500 
 23 C       -0.2080     5.3270     4.1430 C.ar  1 <1>   0.1600 
 24 C       -7.3480    -2.7140    -0.9290 C.3   1 <1>  -0.0170 
 25 C       -6.4130    -4.7120     0.2750 C.ar  1 <1>  -0.1500 
 26 C       -4.1660    -4.7340     1.1260 C.ar  1 <1>   0.0830 
 27 C       -5.3980    -5.3830     0.9530 C.ar  1 <1>   0.0830 
 28 O       -3.0760    -5.2620     1.7520 O.3   1 <1>  -0.3630 
 29 O       -5.5870    -6.6360     1.4610 O.3   1 <1>  -0.3620 
 30 C       -2.7710    -6.6340     1.6350 C.3   1 <1>   0.0400 
 31 C       -6.8520    -7.2590     1.4720 C.3   1 <1>   0.0400 
 32 H       -2.4510     0.0810    -2.6940 H     1 <1>   0.0800 
 33 H       -4.1420     0.4840    -2.5970 H     1 <1>   0.0800 
 34 H       -5.0580     1.4520    -0.4240 H     1 <1>   0.0800 
 35 H       -3.9730     1.6830     0.9230 H     1 <1>   0.0800 
 36 H       -0.0590     1.5330     1.4230 H     1 <1>   0.1500 
 37 H       -3.0860     3.8670    -0.4360 H     1 <1>   0.1500 
 38 H       -2.7220    -1.7090    -1.0920 H     1 <1>   0.0800 
 39 H       -3.8460    -1.9510    -2.3880 H     1 <1>   0.0800 
 40 H       -5.3480    -0.3370     1.2640 H     1 <1>   0.0800 
 41 H       -3.6650    -0.7040     1.1660 H     1 <1>   0.0800 
 42 H       -2.7650     5.6280     1.2720 H     1 <1>   0.1500 
 43 H        1.2930     4.0600     4.9770 H     1 <1>   0.1500 
 44 H       -7.8860    -0.6870    -1.4130 H     1 <1>   0.0800 
 45 H       -7.2590    -0.8830     0.2130 H     1 <1>   0.0800 
 46 H       -3.0430    -2.9790     0.8060 H     1 <1>   0.1500 
 47 H       -0.0380     6.0630     4.9080 H     1 <1>   0.1500 
 48 H       -7.3470    -2.9930    -1.9680 H     1 <1>   0.0800 
 49 H       -8.2980    -2.9870    -0.5060 H     1 <1>   0.0800 
 50 H       -7.3650    -5.1770     0.1120 H     1 <1>   0.1500 
 51 H       -1.7260    -6.7630     1.8450 H     1 <1>   0.0800 
 52 H       -2.9910    -6.9590     0.6330 H     1 <1>   0.0800 
 53 H       -3.3570    -7.1810     2.3510 H     1 <1>   0.0800 
 54 H       -6.7570    -8.1980     1.9870 H     1 <1>   0.0800 
 55 H       -7.1660    -7.4310     0.4580 H     1 <1>   0.0800 
 56 H       -7.5480    -6.6270     1.9930 H     1 <1>   0.0800 
@<TRIPOS>BOND
  1   1   2  2   
  2   2   3  am  
  3   2   4  1   
  4   3   5  1   
  5   3   6  1   
  6   4   7  ar  
  7   4   8  ar  
  8   5   9  1   
  9   5  32  1   
 10   5  33  1   
 11   6  10  1   
 12   6  34  1   
 13   6  35  1   
 14   7  11  ar  
 15   7  36  1   
 16   8  12  ar  
 17   8  37  1   
 18   9  13  1   
 19   9  38  1   
 20   9  39  1   
 21  10  13  1   
 22  10  40  1   
 23  10  41  1   
 24  11  14  ar  
 25  11  15  ar  
 26  12  15  ar  
 27  12  42  1   
 28  13  16  1   
 29  13  17  1   
 30  14  18  ar  
 31  15  19  ar  
 32  16  20  1   
 33  17  21  ar  
 34  17  22  ar  
 35  18  23  ar  
 36  18  43  1   
 37  19  23  ar  
 38  20  24  1   
 39  20  44  1   
 40  20  45  1   
 41  21  24  1   
 42  21  25  ar  
 43  22  26  ar  
 44  22  46  1   
 45  23  47  1   
 46  24  48  1   
 47  24  49  1   
 48  25  27  ar  
 49  25  50  1   
 50  26  27  ar  
 51  26  28  1   
 52  27  29  1   
 53  28  30  1   
 54  29  31  1   
 55  30  51  1   
 56  30  52  1   
 57  30  53  1   
 58  31  54  1   
 59  31  55  1   
 60  31  56  1   
@<TRIPOS>SUBSTRUCTURE
  1 ****  10 GROUP 4 **** **** 0

# MOE 2024.06 (io_trps.svl 2023.06)
