@<TRIPOS>MOLECULE
NONAME
52 54 1 0 0 
SMALL
USER_CHARGES


@<TRIPOS>ATOM
  1 O       -0.6180     0.7440    -0.7950 O.2   1 <1>  -0.5700 
  2 C       -0.4090     1.9480    -0.7300 C.2   1 <1>   0.6160 
  3 N       -1.0260     2.7250     0.2400 N.am  1 <1>  -0.4690 
  4 C        0.4690     2.6010    -1.6360 C.2   1 <1>  -0.1360 
  5 C       -0.7800     4.0760     0.3110 C.2   1 <1>  -0.0410 
  6 C       -1.9720     2.0830     1.1890 C.3   1 <1>   0.0600 
  7 C        0.7080     3.9370    -1.5550 C.2   1 <1>  -0.1500 
  8 C        0.0800     4.7240    -0.5410 C.2   1 <1>   0.0140 
  9 C        0.3220     6.1450    -0.4360 C.2   1 <1>   0.6160 
 10 O       -0.6090     6.8850    -0.1690 O.2   1 <1>  -0.5700 
 11 N        1.5730     6.7050    -0.6140 N.am  1 <1>  -0.6600 
 12 C        2.8410     5.9730    -0.2990 C.3   1 <1>   0.1400 
 13 C        1.7080     8.1450    -0.9720 C.3   1 <1>   0.1400 
 14 C        3.6320     6.6240     0.8450 C.3   1 <1>   0.1400 
 15 C        1.9660     8.9860     0.2840 C.3   1 <1>  -0.1600 
 16 N        4.2550     7.9110     0.4120 N.am  1 <1>  -0.6600 
 17 C        3.4500     9.1470     0.6420 C.3   1 <1>   0.1400 
 18 C        5.4820     7.8840    -0.2060 C.2   1 <1>   0.5690 
 19 O        5.9650     6.8380    -0.5760 O.2   1 <1>  -0.5700 
 20 C        6.2580     9.1730    -0.4640 C.3   1 <1>  -0.0990 
 21 C        7.7880     8.9950    -0.5020 C.3   1 <1>  -0.0800 
 22 C        8.3860     8.5240     0.8240 C.3   1 <1>  -0.1600 
 23 C        8.5320    10.2980    -0.7830 C.3   1 <1>  -0.1600 
 24 C        9.8560     8.9460     0.7740 C.3   1 <1>  -0.1600 
 25 C        9.9570    10.0490    -0.2860 C.3   1 <1>  -0.1600 
 26 H        0.9220     1.9800    -2.3840 H     1 <1>   0.1500 
 27 H       -1.2940     4.6380     1.0740 H     1 <1>   0.1500 
 28 H       -1.4560     1.3220     1.7490 H     1 <1>   0.0800 
 29 H       -2.7760     1.6250     0.6390 H     1 <1>   0.0800 
 30 H       -2.3790     2.8090     1.8690 H     1 <1>   0.0800 
 31 H        1.3630     4.4340    -2.2510 H     1 <1>   0.1500 
 32 H        3.4600     5.9230    -1.1790 H     1 <1>   0.0800 
 33 H        2.6160     4.9650    -0.0010 H     1 <1>   0.0800 
 34 H        0.7930     8.4770    -1.4340 H     1 <1>   0.0800 
 35 H        2.5000     8.2730    -1.6890 H     1 <1>   0.0800 
 36 H        4.4130     5.9480     1.1480 H     1 <1>   0.0800 
 37 H        2.9940     6.7800     1.6960 H     1 <1>   0.0800 
 38 H        1.4220     8.5730     1.1150 H     1 <1>   0.0800 
 39 H        1.5660     9.9700     0.1190 H     1 <1>   0.0800 
 40 H        3.5410     9.4410     1.6740 H     1 <1>   0.0800 
 41 H        3.8400     9.9450     0.0370 H     1 <1>   0.0800 
 42 H        6.0280     9.8860     0.3040 H     1 <1>   0.0800 
 43 H        5.9300     9.5700    -1.4060 H     1 <1>   0.0800 
 44 H        8.0500     8.2830    -1.2680 H     1 <1>   0.0800 
 45 H        8.2790     7.4600     0.9520 H     1 <1>   0.0800 
 46 H        7.9030     9.0260     1.6440 H     1 <1>   0.0800 
 47 H        8.0970    11.1010    -0.2120 H     1 <1>   0.0800 
 48 H        8.5120    10.5570    -1.8280 H     1 <1>   0.0800 
 49 H       10.4670     8.1090     0.4810 H     1 <1>   0.0800 
 50 H       10.1840     9.2960     1.7370 H     1 <1>   0.0800 
 51 H       10.3890    10.9480     0.1180 H     1 <1>   0.0800 
 52 H       10.5690     9.7050    -1.1020 H     1 <1>   0.0800 
@<TRIPOS>BOND
  1   1   2  2   
  2   2   3  am  
  3   2   4  1   
  4   3   5  1   
  5   3   6  1   
  6   4   7  2   
  7   4  26  1   
  8   5   8  2   
  9   5  27  1   
 10   6  28  1   
 11   6  29  1   
 12   6  30  1   
 13   7   8  1   
 14   7  31  1   
 15   8   9  1   
 16   9  10  2   
 17   9  11  am  
 18  11  12  1   
 19  11  13  1   
 20  12  14  1   
 21  12  32  1   
 22  12  33  1   
 23  13  15  1   
 24  13  34  1   
 25  13  35  1   
 26  14  16  1   
 27  14  36  1   
 28  14  37  1   
 29  15  17  1   
 30  15  38  1   
 31  15  39  1   
 32  16  17  1   
 33  16  18  am  
 34  17  40  1   
 35  17  41  1   
 36  18  19  2   
 37  18  20  1   
 38  20  21  1   
 39  20  42  1   
 40  20  43  1   
 41  21  22  1   
 42  21  23  1   
 43  21  44  1   
 44  22  24  1   
 45  22  45  1   
 46  22  46  1   
 47  23  25  1   
 48  23  47  1   
 49  23  48  1   
 50  24  25  1   
 51  24  49  1   
 52  24  50  1   
 53  25  51  1   
 54  25  52  1   
@<TRIPOS>SUBSTRUCTURE
  1 ****  12 GROUP 4 **** **** 0

# MOE 2024.06 (io_trps.svl 2023.06)
