@<TRIPOS>MOLECULE
NONAME
52 55 1 0 0 
SMALL
USER_CHARGES


@<TRIPOS>ATOM
  1 O        0.0350     1.4600    -1.9530 O.2   1 <1>  -0.5700 
  2 C       -0.1660     2.4470    -1.2680 C.2   1 <1>   0.6160 
  3 N       -1.4100     3.0490    -1.3140 N.am  1 <1>  -0.6600 
  4 C        0.9250     2.9770    -0.5020 C.2   1 <1>   0.0290 
  5 C       -1.7540     4.3320    -0.6480 C.3   1 <1>   0.1400 
  6 C       -2.5620     2.4360    -2.0270 C.3   1 <1>   0.1400 
  7 C        0.8460     2.9440     0.9310 C.2   1 <1>   0.6160 
  8 C        2.0500     3.4960    -1.1010 C.2   1 <1>  -0.1500 
  9 C       -2.8680     4.0870     0.3740 C.3   1 <1>  -0.1600 
 10 C       -3.6820     2.1670    -1.0210 C.3   1 <1>  -0.1600 
 11 O       -0.1030     2.5080     1.5660 O.2   1 <1>  -0.5700 
 12 N        1.8930     3.4490     1.6610 N.am  1 <1>  -0.5390 
 13 C        3.0900     4.0000    -0.2970 C.2   1 <1>  -0.1380 
 14 C       -4.1140     3.4330    -0.2610 C.3   1 <1>   0.2800 
 15 C        2.9950     3.9690     1.0460 C.2   1 <1>  -0.0290 
 16 C        4.3970     4.6010    -0.7470 C.3   1 <1>  -0.0220 
 17 O       -4.6230     4.2990    -1.2340 O.3   1 <1>  -0.5600 
 18 C       -5.1980     3.0590     0.7880 C.3   1 <1>  -0.1600 
 19 C        4.2050     4.5390     1.7350 C.3   1 <1>  -0.0220 
 20 C        5.0350     5.1070     0.5650 C.3   1 <1>  -0.1600 
 21 C       -5.3020     5.4780    -0.8720 C.3   1 <1>   0.1200 
 22 C       -6.5000     3.8730     0.7080 C.3   1 <1>   0.2800 
 23 C       -6.1740     5.3500     0.3930 C.3   1 <1>   0.2000 
 24 O       -7.2740     3.3620    -0.3180 O.3   1 <1>  -0.6800 
 25 C       -7.3460     3.7020     1.9750 C.3   1 <1>  -0.2400 
 26 O       -5.4950     5.9380     1.4650 O.3   1 <1>  -0.6800 
 27 H       -0.8970     4.7590    -0.1590 H     1 <1>   0.0800 
 28 H       -2.0940     5.0310    -1.3940 H     1 <1>   0.0800 
 29 H       -2.9070     3.1130    -2.7910 H     1 <1>   0.0800 
 30 H       -2.2760     1.5140    -2.5030 H     1 <1>   0.0800 
 31 H        2.1500     3.5180    -2.1720 H     1 <1>   0.1500 
 32 H       -3.1160     5.0170     0.8440 H     1 <1>   0.0800 
 33 H       -2.4820     3.4380     1.1400 H     1 <1>   0.0800 
 34 H       -3.3320     1.4260    -0.3240 H     1 <1>   0.0800 
 35 H       -4.5300     1.7550    -1.5380 H     1 <1>   0.0800 
 36 H        1.7950     3.3860     2.6740 H     1 <1>   0.3700 
 37 H        5.0080     3.8430    -1.2050 H     1 <1>   0.0800 
 38 H        4.2360     5.4080    -1.4410 H     1 <1>   0.0800 
 39 H       -5.4350     2.0120     0.7350 H     1 <1>   0.0800 
 40 H       -4.7720     3.2000     1.7650 H     1 <1>   0.0800 
 41 H        3.9300     5.3120     2.4310 H     1 <1>   0.0800 
 42 H        4.7390     3.7560     2.2440 H     1 <1>   0.0800 
 43 H        4.9870     6.1820     0.5880 H     1 <1>   0.0800 
 44 H        6.0650     4.8050     0.6370 H     1 <1>   0.0800 
 45 H       -4.5840     6.2720    -0.7670 H     1 <1>   0.0800 
 46 H       -5.9420     5.7140    -1.7030 H     1 <1>   0.0800 
 47 H       -7.0840     5.9090     0.2670 H     1 <1>   0.0800 
 48 H       -7.4320     2.4120    -0.1720 H     1 <1>   0.4000 
 49 H       -6.8150     4.0750     2.8320 H     1 <1>   0.0800 
 50 H       -7.5740     2.6660     2.1470 H     1 <1>   0.0800 
 51 H       -8.2610     4.2590     1.8850 H     1 <1>   0.0800 
 52 H       -4.6750     5.4420     1.6440 H     1 <1>   0.4000 
@<TRIPOS>BOND
  1   1   2  2   
  2   2   3  am  
  3   2   4  1   
  4   3   5  1   
  5   3   6  1   
  6   4   7  1   
  7   4   8  2   
  8   5   9  1   
  9   5  27  1   
 10   5  28  1   
 11   6  10  1   
 12   6  29  1   
 13   6  30  1   
 14   7  11  2   
 15   7  12  am  
 16   8  13  1   
 17   8  31  1   
 18   9  14  1   
 19   9  32  1   
 20   9  33  1   
 21  10  14  1   
 22  10  34  1   
 23  10  35  1   
 24  12  15  1   
 25  12  36  1   
 26  13  15  2   
 27  13  16  1   
 28  14  17  1   
 29  14  18  1   
 30  15  19  1   
 31  16  20  1   
 32  16  37  1   
 33  16  38  1   
 34  17  21  1   
 35  18  22  1   
 36  18  39  1   
 37  18  40  1   
 38  19  20  1   
 39  19  41  1   
 40  19  42  1   
 41  20  43  1   
 42  20  44  1   
 43  21  23  1   
 44  21  45  1   
 45  21  46  1   
 46  22  23  1   
 47  22  24  1   
 48  22  25  1   
 49  23  26  1   
 50  23  47  1   
 51  24  48  1   
 52  25  49  1   
 53  25  50  1   
 54  25  51  1   
 55  26  52  1   
@<TRIPOS>SUBSTRUCTURE
  1 ****   5 GROUP 4 **** **** 0

# MOE 2024.06 (io_trps.svl 2023.06)
