@<TRIPOS>MOLECULE
NONAME
52 55 1 0 0 
SMALL
USER_CHARGES


@<TRIPOS>ATOM
  1 S       -1.1120    -1.1570     0.4880 S.3   1 <1>  -0.0800 
  2 C        0.5070    -0.9390    -0.1580 C.2   1 <1>  -0.1400 
  3 C       -0.9190     0.2170     1.5570 C.2   1 <1>  -0.1100 
  4 C        1.1130     0.1170     0.4220 C.2   1 <1>  -0.1810 
  5 C        0.9510    -1.9320    -1.2100 C.3   1 <1>   0.5230 
  6 C        0.2960     0.7710     1.4000 C.2   1 <1>  -0.1500 
  7 C        2.5080     0.6520     0.1460 C.3   1 <1>  -0.0590 
  8 N        1.0730    -3.2950    -0.6260 N.4   1 <1>  -0.9590 
  9 C        1.7780    -3.3410     0.7100 C.3   1 <1>   0.4230 
 10 C        1.4690    -4.3080    -1.6600 C.3   1 <1>   0.3430 
 11 C        3.3160    -3.3760     0.6030 C.3   1 <1>   0.1200 
 12 C        1.2170    -4.5030     1.5690 C.3   1 <1>   0.1400 
 13 C        2.2220    -5.5610    -1.1660 C.3   1 <1>  -0.0800 
 14 O        3.8050    -4.6730     0.4370 O.3   1 <1>  -0.5600 
 15 N        0.5870    -5.5970     0.7530 N.am  1 <1>  -0.6600 
 16 C        3.6850    -5.2410    -0.8220 C.3   1 <1>   0.1200 
 17 C        1.5120    -6.4080    -0.0830 C.3   1 <1>   0.1400 
 18 C       -0.7660    -5.6030     0.5140 C.2   1 <1>   0.5440 
 19 O       -1.2890    -4.5150     0.3610 O.2   1 <1>  -0.5700 
 20 C       -1.5070    -6.8460     0.3930 C.ar  1 <1>   0.0860 
 21 C       -2.4690    -7.0850    -0.6000 C.ar  1 <1>   0.1670 
 22 C       -1.2570    -7.8770     1.2920 C.ar  1 <1>  -0.1500 
 23 N       -3.1350    -8.2190    -0.7450 N.ar  1 <1>  -0.6200 
 24 C       -2.8300    -6.0270    -1.6300 C.3   1 <1>  -0.0970 
 25 C       -1.9530    -9.0560     1.1520 C.ar  1 <1>  -0.1500 
 26 C       -2.8710    -9.1760     0.1270 C.ar  1 <1>   0.1600 
 27 H       -1.7470     0.4700     2.1960 H     1 <1>   0.1500 
 28 H        1.9010    -1.6210    -1.6090 H     1 <1>   0.0800 
 29 H        0.2310    -1.9380    -2.0130 H     1 <1>   0.0800 
 30 H        0.6540     1.6320     1.9410 H     1 <1>   0.1500 
 31 H        3.0950     0.6300     1.0470 H     1 <1>   0.0800 
 32 H        2.4440     1.6710    -0.1930 H     1 <1>   0.0800 
 33 H        3.0100     0.0750    -0.6080 H     1 <1>   0.0800 
 34 H        0.1050    -3.5650    -0.3410 H     1 <1>   0.4500 
 35 H        1.5430    -2.4400     1.2500 H     1 <1>   0.0800 
 36 H        0.5760    -4.6340    -2.1670 H     1 <1>   0.0800 
 37 H        2.0930    -3.8270    -2.3960 H     1 <1>   0.0800 
 38 H        3.7290    -3.0200     1.5300 H     1 <1>   0.0800 
 39 H        3.6810    -2.7450    -0.1880 H     1 <1>   0.0800 
 40 H        0.4700    -4.0960     2.2290 H     1 <1>   0.0800 
 41 H        1.9890    -4.9160     2.1950 H     1 <1>   0.0800 
 42 H        2.2920    -6.2010    -2.0280 H     1 <1>   0.0800 
 43 H        4.1380    -4.5860    -1.5470 H     1 <1>   0.0800 
 44 H        4.2560    -6.1550    -0.7990 H     1 <1>   0.0800 
 45 H        2.2380    -6.8880     0.5530 H     1 <1>   0.0800 
 46 H        0.9520    -7.1900    -0.5680 H     1 <1>   0.0800 
 47 H       -0.5380    -7.7550     2.0830 H     1 <1>   0.1500 
 48 H       -1.9470    -5.5800    -2.0450 H     1 <1>   0.0800 
 49 H       -3.4310    -5.2650    -1.1670 H     1 <1>   0.0800 
 50 H       -3.3970    -6.4610    -2.4350 H     1 <1>   0.0800 
 51 H       -1.7910    -9.8770     1.8280 H     1 <1>   0.1500 
 52 H       -3.4150   -10.1000     0.0190 H     1 <1>   0.1500 
@<TRIPOS>BOND
  1   1   2  1   
  2   1   3  1   
  3   2   4  2   
  4   2   5  1   
  5   3   6  2   
  6   3  27  1   
  7   4   6  1   
  8   4   7  1   
  9   5   8  1   
 10   5  28  1   
 11   5  29  1   
 12   6  30  1   
 13   7  31  1   
 14   7  32  1   
 15   7  33  1   
 16   8   9  1   
 17   8  10  1   
 18   8  34  1   
 19   9  11  1   
 20   9  12  1   
 21   9  35  1   
 22  10  13  1   
 23  10  36  1   
 24  10  37  1   
 25  11  14  1   
 26  11  38  1   
 27  11  39  1   
 28  12  15  1   
 29  12  40  1   
 30  12  41  1   
 31  13  16  1   
 32  13  17  1   
 33  13  42  1   
 34  14  16  1   
 35  15  17  1   
 36  15  18  am  
 37  16  43  1   
 38  16  44  1   
 39  17  45  1   
 40  17  46  1   
 41  18  19  2   
 42  18  20  1   
 43  20  21  ar  
 44  20  22  ar  
 45  21  23  ar  
 46  21  24  1   
 47  22  25  ar  
 48  22  47  1   
 49  23  26  ar  
 50  24  48  1   
 51  24  49  1   
 52  24  50  1   
 53  25  26  ar  
 54  25  51  1   
 55  26  52  1   
@<TRIPOS>SUBSTRUCTURE
  1 ****  15 GROUP 4 **** **** 0

# MOE 2024.06 (io_trps.svl 2023.06)
