@<TRIPOS>MOLECULE
NONAME
45 47 1 0 0 
SMALL
USER_CHARGES


@<TRIPOS>ATOM
  1 O        0.4770    -2.8580    -2.2460 O.3   1 <1>  -0.6800 
  2 C        0.0970    -2.6880    -0.9230 C.3   1 <1>   0.1200 
  3 C        1.1880    -1.9360    -0.1110 C.3   1 <1>   0.0000 
  4 C        2.6280    -2.4740    -0.2940 C.3   1 <1>   0.4230 
  5 C        1.1430    -0.4350    -0.5370 C.3   1 <1>  -0.1600 
  6 C        0.8730    -2.0960     1.3990 C.3   1 <1>  -0.1600 
  7 N        2.8050    -3.9540    -0.0500 N.4   1 <1>  -0.9590 
  8 C        3.3330    -1.8320    -1.4990 C.3   1 <1>   0.2090 
  9 C        2.4850     0.3180    -0.4370 C.3   1 <1>   0.2090 
 10 C        1.5460    -3.3390     2.0420 C.3   1 <1>  -0.1600 
 11 C        1.9160    -4.4560     1.0480 C.3   1 <1>   0.3430 
 12 C        2.6830    -4.7870    -1.2860 C.3   1 <1>   0.2630 
 13 N        3.6080    -0.4060    -1.1240 N.pl3 1 <1>  -0.8380 
 14 C        4.8620    -0.1610    -0.5820 C.ar  1 <1>   0.4100 
 15 N        5.3550    -1.0580     0.2850 N.ar  1 <1>  -0.3100 
 16 C        5.5540     0.9850    -0.9200 C.ar  1 <1>  -0.1500 
 17 N        6.5260    -0.8710     0.8400 N.ar  1 <1>  -0.3100 
 18 C        6.7820     1.1840    -0.3380 C.ar  1 <1>  -0.1500 
 19 C        7.2260     0.2190     0.5420 C.ar  1 <1>   0.1670 
 20 C        8.5710     0.3630     1.2250 C.3   1 <1>  -0.0970 
 21 H       -0.3090    -2.9940    -2.8190 H     1 <1>   0.4000 
 22 H       -0.8210    -2.1220    -0.9110 H     1 <1>   0.0800 
 23 H       -0.1100    -3.6610    -0.5180 H     1 <1>   0.0800 
 24 H        3.1580    -2.0260     0.5290 H     1 <1>   0.0800 
 25 H        0.3990     0.0920     0.0340 H     1 <1>   0.0800 
 26 H        0.8390    -0.3570    -1.5670 H     1 <1>   0.0800 
 27 H        1.2190    -1.2280     1.9370 H     1 <1>   0.0800 
 28 H       -0.1930    -2.1410     1.5480 H     1 <1>   0.0800 
 29 H        3.7780    -4.0330     0.2850 H     1 <1>   0.4500 
 30 H        2.7250    -1.8600    -2.3850 H     1 <1>   0.0800 
 31 H        4.2620    -2.3350    -1.7050 H     1 <1>   0.0800 
 32 H        2.7380     0.4600     0.6020 H     1 <1>   0.0800 
 33 H        2.3800     1.2940    -0.8820 H     1 <1>   0.0800 
 34 H        0.8920    -3.7430     2.7960 H     1 <1>   0.0800 
 35 H        2.4450    -3.0330     2.5500 H     1 <1>   0.0800 
 36 H        1.0080    -4.8480     0.6220 H     1 <1>   0.0800 
 37 H        2.4050    -5.2620     1.5720 H     1 <1>   0.0800 
 38 H        1.6760    -4.7540    -1.6650 H     1 <1>   0.0800 
 39 H        2.9340    -5.8130    -1.0710 H     1 <1>   0.0800 
 40 H        3.3480    -4.4260    -2.0530 H     1 <1>   0.0800 
 41 H        5.1330     1.6830    -1.6180 H     1 <1>   0.1500 
 42 H        7.3670     2.0560    -0.5640 H     1 <1>   0.1500 
 43 H        9.0640     1.2690     0.9220 H     1 <1>   0.0800 
 44 H        9.1960    -0.4730     0.9710 H     1 <1>   0.0800 
 45 H        8.4340     0.3820     2.2910 H     1 <1>   0.0800 
@<TRIPOS>BOND
  1   1   2  1   
  2   1  21  1   
  3   2   3  1   
  4   2  22  1   
  5   2  23  1   
  6   3   4  1   
  7   3   5  1   
  8   3   6  1   
  9   4   7  1   
 10   4   8  1   
 11   4  24  1   
 12   5   9  1   
 13   5  25  1   
 14   5  26  1   
 15   6  10  1   
 16   6  27  1   
 17   6  28  1   
 18   7  11  1   
 19   7  12  1   
 20   7  29  1   
 21   8  13  1   
 22   8  30  1   
 23   8  31  1   
 24   9  13  1   
 25   9  32  1   
 26   9  33  1   
 27  10  11  1   
 28  10  34  1   
 29  10  35  1   
 30  11  36  1   
 31  11  37  1   
 32  12  38  1   
 33  12  39  1   
 34  12  40  1   
 35  13  14  1   
 36  14  15  ar  
 37  14  16  ar  
 38  15  17  ar  
 39  16  18  ar  
 40  16  41  1   
 41  17  19  ar  
 42  18  19  ar  
 43  18  42  1   
 44  19  20  1   
 45  20  43  1   
 46  20  44  1   
 47  20  45  1   
@<TRIPOS>SUBSTRUCTURE
  1 ****   4 GROUP 4 **** **** 0

# MOE 2024.06 (io_trps.svl 2023.06)
