@<TRIPOS>MOLECULE
NONAME
46 48 1 0 0 
SMALL
USER_CHARGES


@<TRIPOS>ATOM
  1 O        1.2550    -1.3740    -0.9620 O.co2 1 <1>  -0.9000 
  2 C        2.4580    -1.1110    -1.0270 C.2   1 <1>   0.9060 
  3 O        3.2490    -1.7660    -1.7190 O.co2 1 <1>  -0.9000 
  4 C        2.9860     0.0470    -0.2030 C.3   1 <1>  -0.1860 
  5 C        4.1860    -0.3840     0.6520 C.3   1 <1>   0.2000 
  6 C        3.3280     1.2860    -1.0590 C.3   1 <1>  -0.1600 
  7 O        5.1730    -0.8980    -0.1760 O.3   1 <1>  -0.6800 
  8 C        4.7410     0.7990     1.4730 C.3   1 <1>   0.2090 
  9 C        3.8000     2.4610    -0.1950 C.3   1 <1>   0.2090 
 10 N        4.9390     2.0470     0.6630 N.pl3 1 <1>  -0.8380 
 11 C        6.1810     2.6110     0.4650 C.ar  1 <1>   0.4100 
 12 N        6.2580     3.9120     0.5210 N.ar  1 <1>  -0.6200 
 13 C        7.2980     1.7920     0.2100 C.ar  1 <1>  -0.1500 
 14 C        7.4770     4.4720     0.3500 C.ar  1 <1>   0.3100 
 15 C        8.5360     2.3240     0.0270 C.ar  1 <1>  -0.1440 
 16 C        8.6540     3.7280     0.1000 C.ar  1 <1>   0.0000 
 17 C        7.5650     5.8690     0.4350 C.ar  1 <1>  -0.1500 
 18 C        9.7340     1.4290    -0.2530 C.3   1 <1>  -0.0970 
 19 C        9.8640     4.4300    -0.0670 C.ar  1 <1>  -0.1500 
 20 C        8.7550     6.5420     0.2770 C.ar  1 <1>   0.0820 
 21 C        9.9260     5.7960     0.0040 C.ar  1 <1>   0.0820 
 22 O        8.8480     7.8960     0.3900 O.3   1 <1>  -0.3630 
 23 O       11.1460     6.3640    -0.1850 O.3   1 <1>  -0.3630 
 24 C        7.7600     8.6800     0.8280 C.3   1 <1>   0.0400 
 25 C       11.2700     7.4060    -1.1280 C.3   1 <1>   0.0400 
 26 H        2.1940     0.3240     0.4680 H     1 <1>   0.0800 
 27 H        3.8890    -1.1800     1.3120 H     1 <1>   0.0800 
 28 H        2.4600     1.5810    -1.6190 H     1 <1>   0.0800 
 29 H        4.1020     1.0360    -1.7650 H     1 <1>   0.0800 
 30 H        4.6810    -1.3630    -0.9200 H     1 <1>   0.4000 
 31 H        5.6600     0.5070     1.9470 H     1 <1>   0.0800 
 32 H        4.0360     1.0270     2.2510 H     1 <1>   0.0800 
 33 H        2.9970     2.8010     0.4340 H     1 <1>   0.0800 
 34 H        4.0970     3.2780    -0.8310 H     1 <1>   0.0800 
 35 H        7.1290     0.7340     0.1510 H     1 <1>   0.1500 
 36 H        6.6440     6.3780     0.6350 H     1 <1>   0.1500 
 37 H        9.4380     0.3950    -0.2790 H     1 <1>   0.0800 
 38 H       10.4740     1.5510     0.5180 H     1 <1>   0.0800 
 39 H       10.1680     1.6810    -1.2040 H     1 <1>   0.0800 
 40 H       10.7680     3.8860    -0.2590 H     1 <1>   0.1500 
 41 H        8.0920     9.7000     0.9040 H     1 <1>   0.0800 
 42 H        7.4400     8.3270     1.7930 H     1 <1>   0.0800 
 43 H        6.9640     8.6080     0.1080 H     1 <1>   0.0800 
 44 H       12.2900     7.4320    -1.4650 H     1 <1>   0.0800 
 45 H       11.0230     8.3380    -0.6530 H     1 <1>   0.0800 
 46 H       10.6110     7.2150    -1.9560 H     1 <1>   0.0800 
@<TRIPOS>BOND
  1   1   2  ar  
  2   2   3  ar  
  3   2   4  1   
  4   4   5  1   
  5   4   6  1   
  6   4  26  1   
  7   5   7  1   
  8   5   8  1   
  9   5  27  1   
 10   6   9  1   
 11   6  28  1   
 12   6  29  1   
 13   7  30  1   
 14   8  10  1   
 15   8  31  1   
 16   8  32  1   
 17   9  10  1   
 18   9  33  1   
 19   9  34  1   
 20  10  11  1   
 21  11  12  ar  
 22  11  13  ar  
 23  12  14  ar  
 24  13  15  ar  
 25  13  35  1   
 26  14  16  ar  
 27  14  17  ar  
 28  15  16  ar  
 29  15  18  1   
 30  16  19  ar  
 31  17  20  ar  
 32  17  36  1   
 33  18  37  1   
 34  18  38  1   
 35  18  39  1   
 36  19  21  ar  
 37  19  40  1   
 38  20  21  ar  
 39  20  22  1   
 40  21  23  1   
 41  22  24  1   
 42  23  25  1   
 43  24  41  1   
 44  24  42  1   
 45  24  43  1   
 46  25  44  1   
 47  25  45  1   
 48  25  46  1   
@<TRIPOS>SUBSTRUCTURE
  1 ****  11 GROUP 4 **** **** 0

# MOE 2024.06 (io_trps.svl 2023.06)
