@<TRIPOS>MOLECULE
NONAME
42 43 1 0 0 
SMALL
USER_CHARGES


@<TRIPOS>ATOM
  1 O       -1.5510     0.0180     1.4360 O.2   1 <1>  -0.5700 
  2 C       -2.3750     0.8890     1.2170 C.2   1 <1>   0.5440 
  3 N       -3.7110     0.5740     1.3290 N.am  1 <1>  -0.6600 
  4 C       -1.9390     2.2010     0.8240 C.ar  1 <1>   0.0860 
  5 C       -4.1330    -0.7540     1.8690 C.3   1 <1>   0.3200 
  6 C       -4.8010     1.3670     0.6790 C.3   1 <1>   0.1400 
  7 C       -1.2570     2.4730    -0.3540 C.ar  1 <1>   0.1660 
  8 C       -2.1870     3.2950     1.6290 C.ar  1 <1>   0.1600 
  9 C       -4.0990    -1.8000     0.7690 C.2   1 <1>   0.0060 
 10 C       -4.8690     1.0860    -0.8270 C.3   1 <1>   0.1200 
 11 N       -0.8880     3.6850    -0.6830 N.ar  1 <1>  -0.6200 
 12 C       -0.8920     1.3790    -1.3420 C.3   1 <1>  -0.0960 
 13 N       -1.8350     4.5160     1.3200 N.ar  1 <1>  -0.6200 
 14 N       -5.1380    -2.3750     0.2500 N.2   1 <1>  -0.5650 
 15 N       -2.9300    -2.2040     0.2310 N.pl3 1 <1>   0.0330 
 16 O       -5.9820     1.7210    -1.3560 O.3   1 <1>  -0.6800 
 17 C       -1.1920     4.6710     0.1620 C.ar  1 <1>   0.7200 
 18 C       -4.6140    -3.2040    -0.6750 C.2   1 <1>   0.0770 
 19 C       -3.2660    -3.1110    -0.7030 C.2   1 <1>  -0.3020 
 20 N       -0.8150     5.9450    -0.1870 N.pl3 1 <1>  -0.8380 
 21 C       -1.3070     7.1510     0.5360 C.3   1 <1>   0.1290 
 22 C        0.1210     6.2180    -1.3140 C.3   1 <1>   0.1290 
 23 H       -5.1280    -0.6900     2.2720 H     1 <1>   0.0800 
 24 H       -3.4740    -1.0520     2.6660 H     1 <1>   0.0800 
 25 H       -4.6340     2.4190     0.8320 H     1 <1>   0.0800 
 26 H       -5.7440     1.1110     1.1300 H     1 <1>   0.0800 
 27 H       -2.6990     3.1450     2.5640 H     1 <1>   0.1500 
 28 H       -4.9590     0.0330    -1.0320 H     1 <1>   0.0800 
 29 H       -4.0020     1.4810    -1.3240 H     1 <1>   0.0800 
 30 H       -1.6260     0.5940    -1.3500 H     1 <1>   0.0800 
 31 H        0.0630     0.9630    -1.0780 H     1 <1>   0.0800 
 32 H       -0.8260     1.7870    -2.3350 H     1 <1>   0.0800 
 33 H       -2.0050    -1.8380     0.4970 H     1 <1>   0.2700 
 34 H       -6.7900     1.2000    -1.1780 H     1 <1>   0.4000 
 35 H       -5.2440    -3.8330    -1.2820 H     1 <1>   0.1500 
 36 H       -2.5500    -3.6260    -1.3160 H     1 <1>   0.1500 
 37 H       -2.2750     6.9670     0.9680 H     1 <1>   0.0800 
 38 H       -1.3950     7.9800    -0.1440 H     1 <1>   0.0800 
 39 H       -0.6160     7.4060     1.3210 H     1 <1>   0.0800 
 40 H        0.7850     5.3850    -1.4680 H     1 <1>   0.0800 
 41 H        0.7180     7.0870    -1.0980 H     1 <1>   0.0800 
 42 H       -0.4410     6.3880    -2.2160 H     1 <1>   0.0800 
@<TRIPOS>BOND
  1   1   2  2   
  2   2   3  am  
  3   2   4  1   
  4   3   5  1   
  5   3   6  1   
  6   4   7  ar  
  7   4   8  ar  
  8   5   9  1   
  9   5  23  1   
 10   5  24  1   
 11   6  10  1   
 12   6  25  1   
 13   6  26  1   
 14   7  11  ar  
 15   7  12  1   
 16   8  13  ar  
 17   8  27  1   
 18   9  14  2   
 19   9  15  1   
 20  10  16  1   
 21  10  28  1   
 22  10  29  1   
 23  11  17  ar  
 24  12  30  1   
 25  12  31  1   
 26  12  32  1   
 27  13  17  ar  
 28  14  18  1   
 29  15  19  1   
 30  15  33  1   
 31  16  34  1   
 32  17  20  1   
 33  18  19  2   
 34  18  35  1   
 35  19  36  1   
 36  20  21  1   
 37  20  22  1   
 38  21  37  1   
 39  21  38  1   
 40  21  39  1   
 41  22  40  1   
 42  22  41  1   
 43  22  42  1   
@<TRIPOS>SUBSTRUCTURE
  1 ****   4 GROUP 4 **** **** 0

# MOE 2024.06 (io_trps.svl 2023.06)
