@<TRIPOS>MOLECULE
NONAME
54 57 1 0 0 
SMALL
USER_CHARGES


@<TRIPOS>ATOM
  1 O       -2.7470     0.4450    -1.9090 O.2   1 <1>  -0.5700 
  2 C       -2.3080     0.6340    -0.7920 C.2   1 <1>   0.5440 
  3 N       -2.1070    -0.4580     0.0060 N.am  1 <1>  -0.7300 
  4 C       -2.0220     1.9730    -0.3410 C.ar  1 <1>   0.0860 
  5 C       -2.4380    -1.8480    -0.3830 C.3   1 <1>   0.2200 
  6 C       -1.8280     2.3120     0.9880 C.ar  1 <1>   0.1600 
  7 C       -1.9280     3.0340    -1.2250 C.ar  1 <1>   0.1600 
  8 C       -3.8500    -2.1650     0.0820 C.3   1 <1>  -0.0800 
  9 C       -1.6140    -2.8270     0.4420 C.3   1 <1>   0.1200 
 10 N       -1.5650     3.5290     1.3960 N.ar  1 <1>  -0.6200 
 11 N       -1.6670     4.2650    -0.8550 N.ar  1 <1>  -0.6200 
 12 C       -3.6360    -2.6680     1.5170 C.3   1 <1>   0.1200 
 13 C       -4.5160    -3.2200    -0.8210 C.3   1 <1>  -0.0170 
 14 O       -2.2670    -2.9150     1.6700 O.3   1 <1>  -0.5600 
 15 C       -1.4960     4.4550     0.4490 C.ar  1 <1>   0.7200 
 16 C       -5.9740    -3.4450    -0.4310 C.ar  1 <1>  -0.1430 
 17 N       -1.2260     5.6930     0.8990 N.pl3 1 <1>  -0.8690 
 18 C       -6.9910    -2.5130    -0.7470 C.ar  1 <1>   0.0000 
 19 C       -6.3390    -4.5720     0.2450 C.ar  1 <1>  -0.1500 
 20 C       -1.0840     6.9230     0.1190 C.3   1 <1>   0.2890 
 21 C       -8.3090    -2.8080    -0.3180 C.ar  1 <1>   0.3100 
 22 C       -6.7830    -1.3090    -1.4620 C.ar  1 <1>  -0.1500 
 23 C       -7.6740    -4.7710     0.6160 C.ar  1 <1>   0.1600 
 24 C        0.3370     7.4370     0.3120 C.3   1 <1>  -0.2400 
 25 C       -2.1110     7.9240     0.6320 C.3   1 <1>  -0.2400 
 26 N       -8.6320    -3.9380     0.3610 N.ar  1 <1>  -0.6200 
 27 C       -9.3370    -1.8970    -0.6040 C.ar  1 <1>  -0.1500 
 28 C       -7.8080    -0.4430    -1.7250 C.ar  1 <1>  -0.1500 
 29 C       -9.1030    -0.7370    -1.2910 C.ar  1 <1>  -0.1500 
 30 H       -1.7860    -0.3750     0.9730 H     1 <1>   0.3700 
 31 H       -2.2940    -1.9850    -1.4420 H     1 <1>   0.0800 
 32 H       -1.8970     1.5500     1.7430 H     1 <1>   0.1500 
 33 H       -2.0740     2.8490    -2.2770 H     1 <1>   0.1500 
 34 H       -4.4580    -1.2780     0.0880 H     1 <1>   0.0800 
 35 H       -0.6000    -2.4980     0.5910 H     1 <1>   0.0800 
 36 H       -1.6190    -3.8050    -0.0050 H     1 <1>   0.0800 
 37 H       -4.1740    -3.5770     1.7230 H     1 <1>   0.0800 
 38 H       -3.9150    -1.9170     2.2350 H     1 <1>   0.0800 
 39 H       -3.9750    -4.1480    -0.7550 H     1 <1>   0.0800 
 40 H       -4.4730    -2.9070    -1.8490 H     1 <1>   0.0800 
 41 H       -1.1030     5.7690     1.9040 H     1 <1>   0.4000 
 42 H       -5.6230    -5.3290     0.5120 H     1 <1>   0.1500 
 43 H       -1.2590     6.7310    -0.9270 H     1 <1>   0.0800 
 44 H       -5.7970    -1.0610    -1.8120 H     1 <1>   0.1500 
 45 H       -7.9180    -5.6740     1.1490 H     1 <1>   0.1500 
 46 H        0.5330     7.6380     1.3490 H     1 <1>   0.0800 
 47 H        0.4770     8.3430    -0.2490 H     1 <1>   0.0800 
 48 H        1.0380     6.7050    -0.0480 H     1 <1>   0.0800 
 49 H       -1.9510     8.1350     1.6740 H     1 <1>   0.0800 
 50 H       -3.1010     7.5280     0.4960 H     1 <1>   0.0800 
 51 H       -2.0350     8.8420     0.0790 H     1 <1>   0.0800 
 52 H      -10.3250    -2.1450    -0.2630 H     1 <1>   0.1500 
 53 H       -7.6320     0.4700    -2.2680 H     1 <1>   0.1500 
 54 H       -9.9020    -0.0480    -1.5040 H     1 <1>   0.1500 
@<TRIPOS>BOND
  1   1   2  2   
  2   2   3  am  
  3   2   4  1   
  4   3   5  1   
  5   3  30  1   
  6   4   6  ar  
  7   4   7  ar  
  8   5   8  1   
  9   5   9  1   
 10   5  31  1   
 11   6  10  ar  
 12   6  32  1   
 13   7  11  ar  
 14   7  33  1   
 15   8  12  1   
 16   8  13  1   
 17   8  34  1   
 18   9  14  1   
 19   9  35  1   
 20   9  36  1   
 21  10  15  ar  
 22  11  15  ar  
 23  12  14  1   
 24  12  37  1   
 25  12  38  1   
 26  13  16  1   
 27  13  39  1   
 28  13  40  1   
 29  15  17  1   
 30  16  18  ar  
 31  16  19  ar  
 32  17  20  1   
 33  17  41  1   
 34  18  21  ar  
 35  18  22  ar  
 36  19  23  ar  
 37  19  42  1   
 38  20  24  1   
 39  20  25  1   
 40  20  43  1   
 41  21  26  ar  
 42  21  27  ar  
 43  22  28  ar  
 44  22  44  1   
 45  23  26  ar  
 46  23  45  1   
 47  24  46  1   
 48  24  47  1   
 49  24  48  1   
 50  25  49  1   
 51  25  50  1   
 52  25  51  1   
 53  27  29  ar  
 54  27  52  1   
 55  28  29  ar  
 56  28  53  1   
 57  29  54  1   
@<TRIPOS>SUBSTRUCTURE
  1 ****   2 GROUP 4 **** **** 0

# MOE 2024.06 (io_trps.svl 2023.06)
