@<TRIPOS>MOLECULE
NONAME
47 50 1 0 0 
SMALL
USER_CHARGES


@<TRIPOS>ATOM
  1 O       -0.9930     0.9040    -2.0370 O.2   1 <1>  -0.5700 
  2 C       -1.8680     1.3320    -1.3010 C.2   1 <1>   0.5440 
  3 N       -2.9330     0.5000    -0.9750 N.am  1 <1>  -0.6600 
  4 C       -1.7080     2.6890    -0.7770 C.ar  1 <1>   0.3960 
  5 C       -3.0620    -0.8770    -1.5780 C.3   1 <1>   0.1400 
  6 C       -4.1220     0.9700    -0.2070 C.3   1 <1>   0.1400 
  7 N       -2.6830     3.6320    -0.9750 N.ar  1 <1>  -0.6200 
  8 C       -0.5570     3.0120    -0.0970 C.ar  1 <1>  -0.1500 
  9 C       -3.5210    -1.9610    -0.5720 C.3   1 <1>  -0.1060 
 10 C       -4.5610    -0.0590     0.8330 C.3   1 <1>  -0.1600 
 11 C       -2.4820     4.8230    -0.4990 C.ar  1 <1>   0.1600 
 12 C       -0.3300     4.2910     0.4300 C.ar  1 <1>   0.0000 
 13 C       -4.0270    -3.1800    -1.3510 C.2   1 <1>   0.9060 
 14 C       -4.7580    -1.4190     0.1790 C.3   1 <1>   0.2000 
 15 C       -2.3540    -2.4760     0.3340 C.3   1 <1>  -0.0650 
 16 C       -1.3400     5.2390     0.2180 C.ar  1 <1>   0.0000 
 17 C        0.8270     4.6630     1.1390 C.ar  1 <1>  -0.1500 
 18 O       -3.8810    -3.2490    -2.5760 O.co2 1 <1>  -0.9000 
 19 O       -4.5950    -4.0870    -0.7210 O.co2 1 <1>  -0.9000 
 20 O       -5.1730    -2.3090     1.1490 O.3   1 <1>  -0.6800 
 21 C       -1.3200    -1.4700     0.8700 C.3   1 <1>  -0.1950 
 22 C       -1.1640     6.5410     0.7260 C.ar  1 <1>  -0.1500 
 23 C        0.9750     5.9350     1.6230 C.ar  1 <1>  -0.1500 
 24 C       -0.0330    -1.2330     0.1440 C.3   1 <1>  -0.2000 
 25 C       -0.0360    -1.9810     1.4440 C.3   1 <1>  -0.2000 
 26 C       -0.0310     6.8840     1.4140 C.ar  1 <1>  -0.1500 
 27 H       -3.7810    -0.8110    -2.3760 H     1 <1>   0.0800 
 28 H       -2.1330    -1.1910    -2.0230 H     1 <1>   0.0800 
 29 H       -3.9140     1.8890     0.3060 H     1 <1>   0.0800 
 30 H       -4.9260     1.1470    -0.9000 H     1 <1>   0.0800 
 31 H        0.1990     2.2610     0.0340 H     1 <1>   0.1500 
 32 H       -5.4920     0.2610     1.2630 H     1 <1>   0.0800 
 33 H       -3.8380    -0.1210     1.6210 H     1 <1>   0.0800 
 34 H       -3.2480     5.5610    -0.6610 H     1 <1>   0.1500 
 35 H       -5.5690    -1.3400    -0.5270 H     1 <1>   0.0800 
 36 H       -2.7670    -3.0080     1.1720 H     1 <1>   0.0800 
 37 H       -1.8090    -3.2110    -0.2340 H     1 <1>   0.0800 
 38 H        1.5970     3.9280     1.2940 H     1 <1>   0.1500 
 39 H       -5.1340    -3.2080     0.7090 H     1 <1>   0.4000 
 40 H       -1.7600    -0.6340     1.3770 H     1 <1>   0.1000 
 41 H       -1.9380     7.2700     0.5630 H     1 <1>   0.1500 
 42 H        1.8600     6.2200     2.1660 H     1 <1>   0.1500 
 43 H        0.1300    -1.7620    -0.7800 H     1 <1>   0.1000 
 44 H        0.3590    -0.2330     0.1120 H     1 <1>   0.1000 
 45 H        0.3600    -1.5010     2.3220 H     1 <1>   0.1000 
 46 H        0.1560    -3.0400     1.4280 H     1 <1>   0.1000 
 47 H        0.1010     7.8800     1.8010 H     1 <1>   0.1500 
@<TRIPOS>BOND
  1   1   2  2   
  2   2   3  am  
  3   2   4  1   
  4   3   5  1   
  5   3   6  1   
  6   4   7  ar  
  7   4   8  ar  
  8   5   9  1   
  9   5  27  1   
 10   5  28  1   
 11   6  10  1   
 12   6  29  1   
 13   6  30  1   
 14   7  11  ar  
 15   8  12  ar  
 16   8  31  1   
 17   9  13  1   
 18   9  14  1   
 19   9  15  1   
 20  10  14  1   
 21  10  32  1   
 22  10  33  1   
 23  11  16  ar  
 24  11  34  1   
 25  12  16  ar  
 26  12  17  ar  
 27  13  18  ar  
 28  13  19  ar  
 29  14  20  1   
 30  14  35  1   
 31  15  21  1   
 32  15  36  1   
 33  15  37  1   
 34  16  22  ar  
 35  17  23  ar  
 36  17  38  1   
 37  20  39  1   
 38  21  24  1   
 39  21  25  1   
 40  21  40  1   
 41  22  26  ar  
 42  22  41  1   
 43  23  26  ar  
 44  23  42  1   
 45  24  25  1   
 46  24  43  1   
 47  24  44  1   
 48  25  45  1   
 49  25  46  1   
 50  26  47  1   
@<TRIPOS>SUBSTRUCTURE
  1 ****   2 GROUP 4 **** **** 0

# MOE 2024.06 (io_trps.svl 2023.06)
