@<TRIPOS>MOLECULE
NONAME
50 53 1 0 0 
SMALL
USER_CHARGES


@<TRIPOS>ATOM
  1 O       -1.1410     0.7430    -0.4940 O.2   1 <1>  -0.5700 
  2 C       -0.6910     1.8420    -0.2670 C.2   1 <1>   0.5690 
  3 N       -1.4740     2.9340     0.0260 N.am  1 <1>  -0.5090 
  4 C        0.8300     1.9880    -0.3090 C.3   1 <1>   0.1810 
  5 C       -0.8420     4.2470     0.3900 C.3   1 <1>   0.3640 
  6 C       -2.8870     2.7650     0.4680 C.3   1 <1>   0.0490 
  7 O        1.2950     3.0600     0.4710 O.3   1 <1>  -0.5600 
  8 C       -1.4780     5.3950    -0.3900 C.ar  1 <1>  -0.1440 
  9 C        0.6880     4.2890     0.1440 C.3   1 <1>   0.2610 
 10 C       -3.8500     2.0160    -0.4000 C.3   1 <1>  -0.2000 
 11 C       -4.0070     3.4890    -0.2170 C.3   1 <1>  -0.2000 
 12 C       -1.9590     6.5060     0.2880 C.ar  1 <1>   0.1600 
 13 C       -1.5710     5.3710    -1.7700 C.ar  1 <1>  -0.1500 
 14 C        1.3500     5.4600     0.8930 C.2   1 <1>   0.5690 
 15 N       -2.5020     7.5690    -0.2840 N.ar  1 <1>  -0.6200 
 16 C       -2.1420     6.4660    -2.3810 C.ar  1 <1>  -0.1500 
 17 O        0.7280     6.0200     1.7710 O.2   1 <1>  -0.5700 
 18 N        2.5970     5.9120     0.5360 N.am  1 <1>  -0.6600 
 19 C       -2.5860     7.5200    -1.6040 C.ar  1 <1>   0.1600 
 20 C        3.1200     7.1810     1.1190 C.3   1 <1>   0.3200 
 21 C        3.4480     5.3490    -0.5500 C.3   1 <1>   0.0600 
 22 C        2.5660     8.3640     0.3460 C.2   1 <1>   0.0070 
 23 N        1.2530     8.6770     0.3780 N.pl3 1 <1>   0.0330 
 24 N        3.2710     9.1600    -0.3950 N.2   1 <1>  -0.5650 
 25 C        1.1270     9.7630    -0.4040 C.2   1 <1>  -0.3320 
 26 C        2.3670    10.0410    -0.8650 C.2   1 <1>   0.0770 
 27 C       -0.1960    10.4620    -0.6500 C.3   1 <1>  -0.0600 
 28 H        1.1540     2.1310    -1.3240 H     1 <1>   0.0800 
 29 H        1.2810     1.0890     0.0730 H     1 <1>   0.0800 
 30 H       -1.0210     4.3930     1.4420 H     1 <1>   0.0800 
 31 H       -2.9590     2.6080     1.5320 H     1 <1>   0.1000 
 32 H        0.8540     4.4550    -0.9040 H     1 <1>   0.0800 
 33 H       -3.5090     1.6430    -1.3500 H     1 <1>   0.1000 
 34 H       -4.5590     1.3580     0.0700 H     1 <1>   0.1000 
 35 H       -4.8340     3.8400     0.3740 H     1 <1>   0.1000 
 36 H       -3.8320     4.1040    -1.0800 H     1 <1>   0.1000 
 37 H       -1.8890     6.5300     1.3630 H     1 <1>   0.1500 
 38 H       -1.2250     4.5320    -2.3510 H     1 <1>   0.1500 
 39 H       -2.2470     6.5030    -3.4500 H     1 <1>   0.1500 
 40 H       -3.0340     8.3690    -2.0940 H     1 <1>   0.1500 
 41 H        2.8360     7.2610     2.1540 H     1 <1>   0.0800 
 42 H        4.1950     7.1940     1.0710 H     1 <1>   0.0800 
 43 H        4.4660     5.2700    -0.2080 H     1 <1>   0.0800 
 44 H        3.4200     6.0030    -1.4050 H     1 <1>   0.0800 
 45 H        3.1200     4.3680    -0.8420 H     1 <1>   0.0800 
 46 H        0.5220     8.1650     0.8890 H     1 <1>   0.2700 
 47 H        2.6610    10.8420    -1.5220 H     1 <1>   0.1500 
 48 H       -0.0510    11.3230    -1.2770 H     1 <1>   0.0800 
 49 H       -0.6270    10.7810     0.2820 H     1 <1>   0.0800 
 50 H       -0.8820     9.7930    -1.1370 H     1 <1>   0.0800 
@<TRIPOS>BOND
  1   1   2  2   
  2   2   3  am  
  3   2   4  1   
  4   3   5  1   
  5   3   6  1   
  6   4   7  1   
  7   4  28  1   
  8   4  29  1   
  9   5   8  1   
 10   5   9  1   
 11   5  30  1   
 12   6  10  1   
 13   6  11  1   
 14   6  31  1   
 15   7   9  1   
 16   8  12  ar  
 17   8  13  ar  
 18   9  14  1   
 19   9  32  1   
 20  10  11  1   
 21  10  33  1   
 22  10  34  1   
 23  11  35  1   
 24  11  36  1   
 25  12  15  ar  
 26  12  37  1   
 27  13  16  ar  
 28  13  38  1   
 29  14  17  2   
 30  14  18  am  
 31  15  19  ar  
 32  16  19  ar  
 33  16  39  1   
 34  18  20  1   
 35  18  21  1   
 36  19  40  1   
 37  20  22  1   
 38  20  41  1   
 39  20  42  1   
 40  21  43  1   
 41  21  44  1   
 42  21  45  1   
 43  22  23  1   
 44  22  24  2   
 45  23  25  1   
 46  23  46  1   
 47  24  26  1   
 48  25  26  2   
 49  25  27  1   
 50  26  47  1   
 51  27  48  1   
 52  27  49  1   
 53  27  50  1   
@<TRIPOS>SUBSTRUCTURE
  1 ****   8 GROUP 4 **** **** 0

# MOE 2024.06 (io_trps.svl 2023.06)
