@<TRIPOS>MOLECULE
NONAME
57 59 1 0 0 
SMALL
USER_CHARGES


@<TRIPOS>ATOM
  1 O       -1.0910     0.5510    -1.1400 O.2   1 <1>  -0.5700 
  2 C       -1.8530     1.1860    -0.4340 C.2   1 <1>   0.5440 
  3 N       -2.9980     0.5780     0.0340 N.am  1 <1>  -0.6600 
  4 C       -1.5310     2.5660    -0.1140 C.ar  1 <1>   0.0860 
  5 C       -3.1670    -0.9110     0.0390 C.3   1 <1>   0.1400 
  6 C       -4.2030     1.3230     0.5010 C.3   1 <1>   0.1400 
  7 C       -1.1240     3.4560    -1.1060 C.ar  1 <1>  -0.1500 
  8 C       -1.6040     3.0530     1.1920 C.ar  1 <1>  -0.1500 
  9 C       -4.3930    -1.3070    -0.7940 C.3   1 <1>   0.2000 
 10 C       -5.4340     0.9090    -0.3180 C.3   1 <1>  -0.1600 
 11 C       -0.8210     4.7740    -0.8140 C.ar  1 <1>  -0.1500 
 12 C       -1.3040     4.3690     1.4890 C.ar  1 <1>  -0.1500 
 13 O       -4.5370    -2.6850    -0.7680 O.3   1 <1>  -0.6800 
 14 C       -5.6900    -0.6260    -0.2870 C.3   1 <1>  -0.1060 
 15 C       -0.9110     5.2420     0.4880 C.ar  1 <1>  -0.1440 
 16 C       -5.9990    -1.1270     1.1390 C.2   1 <1>   0.9060 
 17 C       -6.8630    -1.0020    -1.2330 C.3   1 <1>  -0.0170 
 18 C       -0.5820     6.6920     0.8170 C.3   1 <1>  -0.0160 
 19 O       -6.2680    -0.3330     2.0470 O.co2 1 <1>  -0.9000 
 20 O       -5.9590    -2.3480     1.3580 O.co2 1 <1>  -0.9000 
 21 C       -8.0920    -0.0990    -1.1430 C.ar  1 <1>  -0.1440 
 22 C        0.7960     6.8480     1.4880 C.3   1 <1>  -0.0800 
 23 C       -8.4220     0.7440    -2.1940 C.ar  1 <1>  -0.1500 
 24 C       -8.8960    -0.1130    -0.0130 C.ar  1 <1>  -0.1500 
 25 C        1.0280     8.3090     1.8940 C.3   1 <1>  -0.2400 
 26 C        1.9340     6.3820     0.5700 C.3   1 <1>  -0.2400 
 27 C       -9.5370     1.5600    -2.1180 C.ar  1 <1>  -0.1500 
 28 C      -10.0100     0.7040     0.0670 C.ar  1 <1>  -0.1500 
 29 C      -10.3330     1.5410    -0.9860 C.ar  1 <1>  -0.1500 
 30 H       -2.2940    -1.3890    -0.3680 H     1 <1>   0.0800 
 31 H       -3.2950    -1.2420     1.0550 H     1 <1>   0.0800 
 32 H       -4.3630     1.1150     1.5450 H     1 <1>   0.0800 
 33 H       -4.0630     2.3840     0.3930 H     1 <1>   0.0800 
 34 H       -1.0450     3.0980    -2.1170 H     1 <1>   0.1500 
 35 H       -1.9010     2.3810     1.9790 H     1 <1>   0.1500 
 36 H       -4.2020    -1.0330    -1.8170 H     1 <1>   0.0800 
 37 H       -6.2880     1.4240     0.0880 H     1 <1>   0.0800 
 38 H       -5.3060     1.2410    -1.3320 H     1 <1>   0.0800 
 39 H       -0.5100     5.4340    -1.6050 H     1 <1>   0.1500 
 40 H       -1.3750     4.7130     2.5060 H     1 <1>   0.1500 
 41 H       -5.0470    -2.8830     0.0780 H     1 <1>   0.4000 
 42 H       -6.5080    -0.9890    -2.2480 H     1 <1>   0.0800 
 43 H       -7.1680    -2.0150    -1.0310 H     1 <1>   0.0800 
 44 H       -0.6140     7.2850    -0.0810 H     1 <1>   0.0800 
 45 H       -1.3430     7.0720     1.4760 H     1 <1>   0.0800 
 46 H        0.8110     6.2440     2.3800 H     1 <1>   0.0800 
 47 H       -7.8080     0.7670    -3.0770 H     1 <1>   0.1500 
 48 H       -8.6490    -0.7560     0.8170 H     1 <1>   0.1500 
 49 H        1.0260     8.9500     1.0300 H     1 <1>   0.0800 
 50 H        1.9750     8.4110     2.3940 H     1 <1>   0.0800 
 51 H        0.2560     8.6390     2.5680 H     1 <1>   0.0800 
 52 H        1.9350     6.9400    -0.3490 H     1 <1>   0.0800 
 53 H        1.8260     5.3370     0.3370 H     1 <1>   0.0800 
 54 H        2.8840     6.5160     1.0550 H     1 <1>   0.0800 
 55 H       -9.7850     2.2100    -2.9380 H     1 <1>   0.1500 
 56 H      -10.6170     0.6840     0.9540 H     1 <1>   0.1500 
 57 H      -11.1980     2.1750    -0.9220 H     1 <1>   0.1500 
@<TRIPOS>BOND
  1   1   2  2   
  2   2   3  am  
  3   2   4  1   
  4   3   5  1   
  5   3   6  1   
  6   4   7  ar  
  7   4   8  ar  
  8   5   9  1   
  9   5  30  1   
 10   5  31  1   
 11   6  10  1   
 12   6  32  1   
 13   6  33  1   
 14   7  11  ar  
 15   7  34  1   
 16   8  12  ar  
 17   8  35  1   
 18   9  13  1   
 19   9  14  1   
 20   9  36  1   
 21  10  14  1   
 22  10  37  1   
 23  10  38  1   
 24  11  15  ar  
 25  11  39  1   
 26  12  15  ar  
 27  12  40  1   
 28  13  41  1   
 29  14  16  1   
 30  14  17  1   
 31  15  18  1   
 32  16  19  ar  
 33  16  20  ar  
 34  17  21  1   
 35  17  42  1   
 36  17  43  1   
 37  18  22  1   
 38  18  44  1   
 39  18  45  1   
 40  21  23  ar  
 41  21  24  ar  
 42  22  25  1   
 43  22  26  1   
 44  22  46  1   
 45  23  27  ar  
 46  23  47  1   
 47  24  28  ar  
 48  24  48  1   
 49  25  49  1   
 50  25  50  1   
 51  25  51  1   
 52  26  52  1   
 53  26  53  1   
 54  26  54  1   
 55  27  29  ar  
 56  27  55  1   
 57  28  29  ar  
 58  28  56  1   
 59  29  57  1   
@<TRIPOS>SUBSTRUCTURE
  1 ****   6 GROUP 4 **** **** 0

# MOE 2024.06 (io_trps.svl 2023.06)
