@<TRIPOS>MOLECULE
NONAME
60 62 1 0 0 
SMALL
USER_CHARGES


@<TRIPOS>ATOM
  1 O       -1.3700     0.5650    -2.7170 O.2   1 <1>  -0.5700 
  2 C       -1.8930     1.3890    -1.9980 C.2   1 <1>   0.5690 
  3 N       -2.1370     1.1010    -0.6750 N.am  1 <1>  -0.6600 
  4 C       -2.3090     2.7170    -2.6380 C.3   1 <1>   0.1810 
  5 C       -1.5740    -0.1260    -0.0530 C.3   1 <1>   0.1400 
  6 C       -3.0090     1.8900     0.2490 C.3   1 <1>   0.1400 
  7 O       -1.3650     3.7610    -2.4300 O.3   1 <1>  -0.3620 
  8 C       -2.7010    -1.1640     0.1720 C.3   1 <1>   0.0000 
  9 C       -3.7150     0.9650     1.2610 C.3   1 <1>  -0.1600 
 10 C       -1.2250     4.2380    -1.1710 C.ar  1 <1>   0.0820 
 11 C       -3.9960    -0.4020     0.6230 C.3   1 <1>   0.2000 
 12 C       -3.0700    -1.8800    -1.1590 C.3   1 <1>   0.1200 
 13 C       -2.2280    -2.1850     1.2510 C.3   1 <1>  -0.0170 
 14 C       -0.1540     3.8050    -0.3860 C.ar  1 <1>  -0.1440 
 15 C       -2.1510     5.1550    -0.6770 C.ar  1 <1>  -0.1440 
 16 O       -4.7810    -1.1440     1.4900 O.3   1 <1>  -0.6800 
 17 O       -1.9660    -2.2080    -1.9300 O.3   1 <1>  -0.6800 
 18 C       -0.7700    -2.6300     1.1650 C.ar  1 <1>  -0.1440 
 19 C       -0.0520     4.2510     0.9280 C.ar  1 <1>  -0.1440 
 20 C        0.8970     2.8490    -0.9550 C.3   1 <1>  -0.0970 
 21 C       -2.0270     5.5930     0.6290 C.ar  1 <1>  -0.1500 
 22 C       -3.2850     5.7090    -1.5290 C.3   1 <1>  -0.0970 
 23 C       -0.3860    -3.6360     0.2930 C.ar  1 <1>  -0.1500 
 24 C        0.1910    -2.0400     1.9750 C.ar  1 <1>  -0.1500 
 25 C       -0.9920     5.1400     1.4250 C.ar  1 <1>  -0.1500 
 26 C        1.0730     3.7920     1.8460 C.3   1 <1>  -0.0970 
 27 C        0.9350    -4.0400     0.2210 C.ar  1 <1>  -0.1500 
 28 C        1.5140    -2.4430     1.9060 C.ar  1 <1>  -0.1500 
 29 C        1.8870    -3.4430     1.0280 C.ar  1 <1>  -0.1500 
 30 H       -3.2650     3.0360    -2.2760 H     1 <1>   0.0800 
 31 H       -2.3830     2.5740    -3.7000 H     1 <1>   0.0800 
 32 H       -0.7690    -0.5300    -0.6410 H     1 <1>   0.0800 
 33 H       -1.1410     0.1540     0.8910 H     1 <1>   0.0800 
 34 H       -2.4140     2.6150     0.7780 H     1 <1>   0.0800 
 35 H       -3.7550     2.4160    -0.3180 H     1 <1>   0.0800 
 36 H       -4.6350     1.4280     1.5700 H     1 <1>   0.0800 
 37 H       -3.0890     0.8490     2.1270 H     1 <1>   0.0800 
 38 H       -4.6160    -0.2130    -0.2370 H     1 <1>   0.0800 
 39 H       -3.6820    -1.2470    -1.7770 H     1 <1>   0.0800 
 40 H       -3.6180    -2.7850    -0.9620 H     1 <1>   0.0800 
 41 H       -2.3600    -1.7470     2.2240 H     1 <1>   0.0800 
 42 H       -2.8580    -3.0570     1.2210 H     1 <1>   0.0800 
 43 H       -4.3450    -1.2330     2.3590 H     1 <1>   0.4000 
 44 H       -1.5620    -1.3820    -2.2950 H     1 <1>   0.4000 
 45 H        1.8850     3.1990    -0.7230 H     1 <1>   0.0800 
 46 H        0.8310     2.7700    -2.0250 H     1 <1>   0.0800 
 47 H        0.7650     1.8690    -0.5370 H     1 <1>   0.0800 
 48 H       -2.7330     6.2970     1.0350 H     1 <1>   0.1500 
 49 H       -3.5500     6.6990    -1.2020 H     1 <1>   0.0800 
 50 H       -4.1500     5.0780    -1.4510 H     1 <1>   0.0800 
 51 H       -2.9850     5.7730    -2.5600 H     1 <1>   0.0800 
 52 H       -1.1160    -4.1060    -0.3440 H     1 <1>   0.1500 
 53 H       -0.0820    -1.2640     2.6670 H     1 <1>   0.1500 
 54 H       -0.9190     5.4960     2.4380 H     1 <1>   0.1500 
 55 H        0.9070     4.1220     2.8560 H     1 <1>   0.0800 
 56 H        2.0090     4.1970     1.5070 H     1 <1>   0.0800 
 57 H        1.1350     2.7190     1.8510 H     1 <1>   0.0800 
 58 H        1.2190    -4.8180    -0.4660 H     1 <1>   0.1500 
 59 H        2.2520    -1.9790     2.5360 H     1 <1>   0.1500 
 60 H        2.9140    -3.7580     0.9710 H     1 <1>   0.1500 
@<TRIPOS>BOND
  1   1   2  2   
  2   2   3  am  
  3   2   4  1   
  4   3   5  1   
  5   3   6  1   
  6   4   7  1   
  7   4  30  1   
  8   4  31  1   
  9   5   8  1   
 10   5  32  1   
 11   5  33  1   
 12   6   9  1   
 13   6  34  1   
 14   6  35  1   
 15   7  10  1   
 16   8  11  1   
 17   8  12  1   
 18   8  13  1   
 19   9  11  1   
 20   9  36  1   
 21   9  37  1   
 22  10  14  ar  
 23  10  15  ar  
 24  11  16  1   
 25  11  38  1   
 26  12  17  1   
 27  12  39  1   
 28  12  40  1   
 29  13  18  1   
 30  13  41  1   
 31  13  42  1   
 32  14  19  ar  
 33  14  20  1   
 34  15  21  ar  
 35  15  22  1   
 36  16  43  1   
 37  17  44  1   
 38  18  23  ar  
 39  18  24  ar  
 40  19  25  ar  
 41  19  26  1   
 42  20  45  1   
 43  20  46  1   
 44  20  47  1   
 45  21  25  ar  
 46  21  48  1   
 47  22  49  1   
 48  22  50  1   
 49  22  51  1   
 50  23  27  ar  
 51  23  52  1   
 52  24  28  ar  
 53  24  53  1   
 54  25  54  1   
 55  26  55  1   
 56  26  56  1   
 57  26  57  1   
 58  27  29  ar  
 59  27  58  1   
 60  28  29  ar  
 61  28  59  1   
 62  29  60  1   
@<TRIPOS>SUBSTRUCTURE
  1 ****   3 GROUP 4 **** **** 0

# MOE 2024.06 (io_trps.svl 2023.06)
