@<TRIPOS>MOLECULE
NONAME
63 67 1 0 0 
SMALL
USER_CHARGES


@<TRIPOS>ATOM
  1 O        1.7400    -0.7020    -1.2610 O.2   1 <1>  -0.5700 
  2 C        2.1130     0.3890    -0.8760 C.2   1 <1>   0.5440 
  3 N        2.8640     0.5780     0.2460 N.am  1 <1>  -0.6600 
  4 C        1.8480     1.6560    -1.4930 C.ar  1 <1>   0.0860 
  5 C        3.1240     2.0230     0.4720 C.3   1 <1>   0.2840 
  6 C        3.2800    -0.4720     1.2040 C.3   1 <1>   0.1400 
  7 C        2.4290     2.6510    -0.7270 C.ar  1 <1>  -0.1440 
  8 C        1.1520     1.9930    -2.6470 C.ar  1 <1>  -0.1500 
  9 C        4.4700    -1.2850     0.6630 C.3   1 <1>  -0.0800 
 10 C        2.3340     3.9820    -1.0870 C.ar  1 <1>  -0.1500 
 11 C        1.0500     3.3250    -3.0160 C.ar  1 <1>  -0.1500 
 12 C        4.8120    -2.4210     1.6440 C.3   1 <1>  -0.1600 
 13 C        5.7110    -0.4100     0.3950 C.3   1 <1>  -0.1600 
 14 C        1.6380     4.3140    -2.2400 C.ar  1 <1>  -0.1500 
 15 C        6.0010    -3.2570     1.1490 C.3   1 <1>  -0.1600 
 16 C        6.9020    -1.2510    -0.0900 C.3   1 <1>  -0.1600 
 17 C        7.2260    -2.3750     0.8960 C.3   1 <1>   0.2200 
 18 N        8.3030    -3.2050     0.3340 N.am  1 <1>  -0.7300 
 19 C        9.5860    -3.2580     0.7970 C.2   1 <1>   0.5440 
 20 O        9.9000    -2.5700     1.7470 O.2   1 <1>  -0.5700 
 21 C       10.5460    -4.1270     0.1610 C.ar  1 <1>   0.0860 
 22 C       11.8140    -3.6960    -0.2470 C.ar  1 <1>   0.0000 
 23 C       10.2740    -5.4590    -0.1010 C.ar  1 <1>  -0.1500 
 24 C       12.6460    -4.6000    -0.8590 C.ar  1 <1>   0.3970 
 25 C       12.5920    -2.5210    -0.2550 C.2   1 <1>   0.1080 
 26 C       11.2050    -6.2900    -0.7290 C.ar  1 <1>   0.1670 
 27 O       13.7690    -3.9770    -1.1680 O.3   1 <1>  -0.0190 
 28 N       12.3950    -5.8820    -1.1200 N.ar  1 <1>  -0.5670 
 29 N       13.7320    -2.7170    -0.8030 N.2   1 <1>  -0.4100 
 30 C       12.1710    -1.1760     0.3020 C.3   1 <1>  -0.0590 
 31 C       10.8350    -7.7570    -0.9830 C.3   1 <1>   0.0630 
 32 C       11.7900    -8.7060    -0.2450 C.3   1 <1>  -0.2400 
 33 C       10.8230    -8.0750    -2.4840 C.3   1 <1>  -0.2400 
 34 H        4.1800     2.2250     0.4640 H     1 <1>   0.0800 
 35 H        2.6770     2.3470     1.3950 H     1 <1>   0.0800 
 36 H        2.4450    -1.1330     1.3640 H     1 <1>   0.0800 
 37 H        3.5360    -0.0200     2.1470 H     1 <1>   0.0800 
 38 H        0.7010     1.2140    -3.2360 H     1 <1>   0.1500 
 39 H        4.1590    -1.7340    -0.2660 H     1 <1>   0.0800 
 40 H        2.7890     4.7510    -0.4870 H     1 <1>   0.1500 
 41 H        0.5120     3.5930    -3.9090 H     1 <1>   0.1500 
 42 H        3.9560    -3.0640     1.7640 H     1 <1>   0.0800 
 43 H        5.0510    -2.0060     2.6090 H     1 <1>   0.0800 
 44 H        5.9870     0.1110     1.2960 H     1 <1>   0.0800 
 45 H        5.4830     0.3240    -0.3580 H     1 <1>   0.0800 
 46 H        1.5540     5.3460    -2.5360 H     1 <1>   0.1500 
 47 H        5.7200    -3.7570     0.2390 H     1 <1>   0.0800 
 48 H        6.2450    -4.0000     1.8890 H     1 <1>   0.0800 
 49 H        7.7630    -0.6160    -0.1990 H     1 <1>   0.0800 
 50 H        6.6610    -1.6710    -1.0510 H     1 <1>   0.0800 
 51 H        7.5460    -1.9430     1.8310 H     1 <1>   0.0800 
 52 H        8.0540    -3.7020    -0.5210 H     1 <1>   0.3700 
 53 H        9.3230    -5.8630     0.1960 H     1 <1>   0.1500 
 54 H       11.1980    -0.9090    -0.0660 H     1 <1>   0.0800 
 55 H       12.8730    -0.4180     0.0070 H     1 <1>   0.0800 
 56 H       12.1420    -1.2200     1.3760 H     1 <1>   0.0800 
 57 H        9.8440    -7.9370    -0.6040 H     1 <1>   0.0800 
 58 H       12.7940    -8.5900    -0.6150 H     1 <1>   0.0800 
 59 H       11.4880    -9.7280    -0.3840 H     1 <1>   0.0800 
 60 H       11.7890    -8.4860     0.8080 H     1 <1>   0.0800 
 61 H       11.8060    -7.9440    -2.9020 H     1 <1>   0.0800 
 62 H       10.1450    -7.4170    -2.9970 H     1 <1>   0.0800 
 63 H       10.5110    -9.0900    -2.6510 H     1 <1>   0.0800 
@<TRIPOS>BOND
  1   1   2  2   
  2   2   3  am  
  3   2   4  1   
  4   3   5  1   
  5   3   6  1   
  6   4   7  ar  
  7   4   8  ar  
  8   5   7  1   
  9   5  34  1   
 10   5  35  1   
 11   6   9  1   
 12   6  36  1   
 13   6  37  1   
 14   7  10  ar  
 15   8  11  ar  
 16   8  38  1   
 17   9  12  1   
 18   9  13  1   
 19   9  39  1   
 20  10  14  ar  
 21  10  40  1   
 22  11  14  ar  
 23  11  41  1   
 24  12  15  1   
 25  12  42  1   
 26  12  43  1   
 27  13  16  1   
 28  13  44  1   
 29  13  45  1   
 30  14  46  1   
 31  15  17  1   
 32  15  47  1   
 33  15  48  1   
 34  16  17  1   
 35  16  49  1   
 36  16  50  1   
 37  17  18  1   
 38  17  51  1   
 39  18  19  am  
 40  18  52  1   
 41  19  20  2   
 42  19  21  1   
 43  21  22  ar  
 44  21  23  ar  
 45  22  24  ar  
 46  22  25  1   
 47  23  26  ar  
 48  23  53  1   
 49  24  27  1   
 50  24  28  ar  
 51  25  29  2   
 52  25  30  1   
 53  26  28  ar  
 54  26  31  1   
 55  27  29  1   
 56  30  54  1   
 57  30  55  1   
 58  30  56  1   
 59  31  32  1   
 60  31  33  1   
 61  31  57  1   
 62  32  58  1   
 63  32  59  1   
 64  32  60  1   
 65  33  61  1   
 66  33  62  1   
 67  33  63  1   
@<TRIPOS>SUBSTRUCTURE
  1 ****  16 GROUP 4 **** **** 0

# MOE 2024.06 (io_trps.svl 2023.06)
