@<TRIPOS>MOLECULE
NONAME
48 50 1 0 0 
SMALL
USER_CHARGES


@<TRIPOS>ATOM
  1 O       -0.3230     0.1820    -0.2700 O.2   1 <1>  -0.5700 
  2 C        0.7180    -0.3350    -0.5910 C.2   1 <1>   0.5690 
  3 N        1.6980     0.3550    -1.2160 N.am  1 <1>  -0.7300 
  4 C        0.9210    -1.7990    -0.2930 C.3   1 <1>  -0.0990 
  5 C        1.6350     1.7960    -1.5270 C.3   1 <1>   0.3200 
  6 C       -0.1220    -2.6290    -1.0450 C.3   1 <1>   0.0960 
  7 C        2.9470     2.4460    -1.1390 C.2   1 <1>  -0.0400 
  8 N        0.0580    -4.0620    -0.7430 N.pl3 1 <1>   0.3140 
  9 O        4.0410     2.1230    -1.7680 O.3   1 <1>  -0.0190 
 10 C        3.2650     3.3550    -0.2080 C.2   1 <1>  -0.1500 
 11 N        0.9740    -4.7710    -1.4130 N.2   1 <1>  -0.7070 
 12 C       -0.5790    -4.8180     0.1720 C.2   1 <1>  -0.3320 
 13 N        5.0740     2.7630    -1.3100 N.2   1 <1>  -0.4100 
 14 C        4.6470     3.5320    -0.3550 C.2   1 <1>   0.2350 
 15 C        0.9050    -5.9620    -0.9210 C.2   1 <1>   0.1080 
 16 C       -0.0460    -6.0800     0.1050 C.2   1 <1>  -0.0860 
 17 C       -1.6960    -4.2690     1.0550 C.3   1 <1>  -0.0600 
 18 C        5.4840     4.4200     0.4280 C.ar  1 <1>   0.0540 
 19 C        1.7960    -7.0730    -1.4370 C.3   1 <1>  -0.0590 
 20 C       -0.3020    -7.2880     0.8500 C.2   1 <1>   0.5950 
 21 C        4.9530     5.4880     1.1530 C.ar  1 <1>   0.1600 
 22 C        6.8600     4.2470     0.4910 C.ar  1 <1>  -0.1500 
 23 O       -0.1470    -8.3970     0.4060 O.2   1 <1>  -0.5700 
 24 C       -0.7600    -7.2050     2.2890 C.3   1 <1>  -0.1790 
 25 N        5.6360     6.3400     1.9000 N.ar  1 <1>  -0.6200 
 26 C        7.5940     5.1240     1.2600 C.ar  1 <1>  -0.1500 
 27 C        6.9430     6.1390     1.9370 C.ar  1 <1>   0.1600 
 28 H        2.5860    -0.0940    -1.4520 H     1 <1>   0.3700 
 29 H        0.8130    -1.9490     0.7650 H     1 <1>   0.0800 
 30 H        1.9080    -2.1030    -0.5900 H     1 <1>   0.0800 
 31 H        0.8260     2.2580    -0.9870 H     1 <1>   0.0800 
 32 H        1.4620     1.9280    -2.5810 H     1 <1>   0.0800 
 33 H       -0.0070    -2.4930    -2.1050 H     1 <1>   0.0800 
 34 H       -1.1140    -2.3260    -0.7690 H     1 <1>   0.0800 
 35 H        2.6260     3.8430     0.5040 H     1 <1>   0.1500 
 36 H       -2.4250    -3.7540     0.4550 H     1 <1>   0.0800 
 37 H       -1.2940    -3.5820     1.7790 H     1 <1>   0.0800 
 38 H       -2.2110    -5.0550     1.5730 H     1 <1>   0.0800 
 39 H        2.5070    -6.6790    -2.1400 H     1 <1>   0.0800 
 40 H        1.1970    -7.8170    -1.9270 H     1 <1>   0.0800 
 41 H        2.3270    -7.5270    -0.6220 H     1 <1>   0.0800 
 42 H        3.8920     5.6530     1.1110 H     1 <1>   0.1500 
 43 H        7.3380     3.4480    -0.0490 H     1 <1>   0.1500 
 44 H       -0.4390    -6.2820     2.7320 H     1 <1>   0.0800 
 45 H       -0.3340    -8.0190     2.8460 H     1 <1>   0.0800 
 46 H       -1.8300    -7.2810     2.3310 H     1 <1>   0.0800 
 47 H        8.6620     5.0230     1.3350 H     1 <1>   0.1500 
 48 H        7.5240     6.8190     2.5370 H     1 <1>   0.1500 
@<TRIPOS>BOND
  1   1   2  2   
  2   2   3  am  
  3   2   4  1   
  4   3   5  1   
  5   3  28  1   
  6   4   6  1   
  7   4  29  1   
  8   4  30  1   
  9   5   7  1   
 10   5  31  1   
 11   5  32  1   
 12   6   8  1   
 13   6  33  1   
 14   6  34  1   
 15   7   9  1   
 16   7  10  2   
 17   8  11  1   
 18   8  12  1   
 19   9  13  1   
 20  10  14  1   
 21  10  35  1   
 22  11  15  2   
 23  12  16  2   
 24  12  17  1   
 25  13  14  2   
 26  14  18  1   
 27  15  16  1   
 28  15  19  1   
 29  16  20  1   
 30  17  36  1   
 31  17  37  1   
 32  17  38  1   
 33  18  21  ar  
 34  18  22  ar  
 35  19  39  1   
 36  19  40  1   
 37  19  41  1   
 38  20  23  2   
 39  20  24  1   
 40  21  25  ar  
 41  21  42  1   
 42  22  26  ar  
 43  22  43  1   
 44  24  44  1   
 45  24  45  1   
 46  24  46  1   
 47  25  27  ar  
 48  26  27  ar  
 49  26  47  1   
 50  27  48  1   
@<TRIPOS>SUBSTRUCTURE
  1 ****   3 GROUP 4 **** **** 0

# MOE 2024.06 (io_trps.svl 2023.06)
