@<TRIPOS>MOLECULE
NONAME
41 43 1 0 0 
SMALL
USER_CHARGES


@<TRIPOS>ATOM
  1 O       -0.9730    -0.3980    -1.6100 O.2   1 <1>  -0.5700 
  2 C       -1.7920     0.4900    -1.4640 C.2   1 <1>   0.7150 
  3 N       -3.1180     0.1550    -1.3030 N.am  1 <1>  -0.6600 
  4 C       -1.3600     1.8550    -1.4760 C.2   1 <1>  -0.2370 
  5 C       -3.6010    -1.2120    -1.6380 C.3   1 <1>   0.3200 
  6 C       -4.1690     1.1650    -0.9290 C.3   1 <1>   0.1400 
  7 N       -0.6380     2.4220    -0.4600 N.pl3 1 <1>   0.2940 
  8 C       -1.5650     2.8140    -2.4370 C.2   1 <1>  -0.1500 
  9 C       -4.0530    -1.9310    -0.3820 C.2   1 <1>  -0.3320 
 10 C       -4.5540     1.1240     0.5620 C.3   1 <1>   0.1200 
 11 C       -0.4180     3.7200    -0.7870 C.2   1 <1>  -0.3020 
 12 C       -0.2040     1.7860     0.8080 C.3   1 <1>  -0.0910 
 13 C       -0.9710     3.9920    -1.9990 C.2   1 <1>  -0.1500 
 14 N       -3.2380    -2.3760     0.5980 N.pl3 1 <1>   0.0480 
 15 C       -5.3100    -2.2680    -0.0180 C.2   1 <1>   0.0770 
 16 O       -3.4330     0.8910     1.3390 O.3   1 <1>  -0.6800 
 17 C        1.1820     2.0400     1.3250 C.3   1 <1>  -0.2000 
 18 C        0.8220     0.6920     0.7900 C.3   1 <1>  -0.2000 
 19 C       -4.0710    -2.9410     1.5000 C.2   1 <1>   0.0360 
 20 C       -1.7670    -2.3100     0.6780 C.3   1 <1>   0.0160 
 21 N       -5.3200    -2.8960     1.1700 N.2   1 <1>  -0.5650 
 22 H       -2.8330    -1.7870    -2.1270 H     1 <1>   0.0800 
 23 H       -4.4260    -1.1320    -2.3250 H     1 <1>   0.0800 
 24 H       -5.0510     1.0050    -1.5230 H     1 <1>   0.0800 
 25 H       -3.8260     2.1590    -1.1500 H     1 <1>   0.0800 
 26 H       -2.0880     2.6930    -3.3710 H     1 <1>   0.1500 
 27 H       -5.2590     0.3340     0.7520 H     1 <1>   0.0800 
 28 H       -4.9910     2.0580     0.8680 H     1 <1>   0.0800 
 29 H        0.1230     4.3850    -0.1390 H     1 <1>   0.1500 
 30 H       -1.0060     1.7390     1.5230 H     1 <1>   0.1000 
 31 H       -0.9620     4.9280    -2.5330 H     1 <1>   0.1500 
 32 H       -6.2280    -2.0880    -0.5530 H     1 <1>   0.1500 
 33 H       -3.0410     0.0490     1.0290 H     1 <1>   0.4000 
 34 H        1.3310     2.1400     2.3860 H     1 <1>   0.1000 
 35 H        1.8600     2.6500     0.7520 H     1 <1>   0.1000 
 36 H        1.2310     0.3820    -0.1580 H     1 <1>   0.1000 
 37 H        0.7350    -0.1220     1.4880 H     1 <1>   0.1000 
 38 H       -3.7070    -3.3880     2.4090 H     1 <1>   0.1500 
 39 H       -1.3430    -2.6350    -0.2550 H     1 <1>   0.0800 
 40 H       -1.4170    -2.9480     1.4680 H     1 <1>   0.0800 
 41 H       -1.4620    -1.2990     0.8740 H     1 <1>   0.0800 
@<TRIPOS>BOND
  1   1   2  2   
  2   2   3  am  
  3   2   4  1   
  4   3   5  1   
  5   3   6  1   
  6   4   7  1   
  7   4   8  2   
  8   5   9  1   
  9   5  22  1   
 10   5  23  1   
 11   6  10  1   
 12   6  24  1   
 13   6  25  1   
 14   7  11  1   
 15   7  12  1   
 16   8  13  1   
 17   8  26  1   
 18   9  14  1   
 19   9  15  2   
 20  10  16  1   
 21  10  27  1   
 22  10  28  1   
 23  11  13  2   
 24  11  29  1   
 25  12  17  1   
 26  12  18  1   
 27  12  30  1   
 28  13  31  1   
 29  14  19  1   
 30  14  20  1   
 31  15  21  1   
 32  15  32  1   
 33  16  33  1   
 34  17  18  1   
 35  17  34  1   
 36  17  35  1   
 37  18  36  1   
 38  18  37  1   
 39  19  21  2   
 40  19  38  1   
 41  20  39  1   
 42  20  40  1   
 43  20  41  1   
@<TRIPOS>SUBSTRUCTURE
  1 ****   2 GROUP 4 **** **** 0

# MOE 2024.06 (io_trps.svl 2023.06)
