@<TRIPOS>MOLECULE
NONAME
38 40 1 0 0 
SMALL
USER_CHARGES


@<TRIPOS>ATOM
  1 S       -0.5060    -0.7020    -1.5080 S.3   1 <1>  -0.4600 
  2 C       -1.6910     0.4260    -0.7060 C.3   1 <1>   0.2510 
  3 C       -1.2600    -2.2860    -1.0340 C.3   1 <1>   0.2510 
  4 C       -2.7000    -0.5170    -0.0930 C.2   1 <1>   0.1080 
  5 C       -2.4880    -1.8690    -0.2590 C.2   1 <1>  -0.1810 
  6 N       -3.7700    -0.2500     0.5830 N.2   1 <1>  -0.7070 
  7 C       -3.5160    -2.4780     0.3760 C.2   1 <1>  -0.0880 
  8 N       -4.2850    -1.4680     0.8880 N.pl3 1 <1>   0.3140 
  9 N       -3.7390    -3.8750     0.4560 N.am  1 <1>  -0.4940 
 10 C       -5.5650    -1.5530     1.6040 C.3   1 <1>   0.0160 
 11 C       -4.3020    -4.6350     1.4440 C.2   1 <1>   0.5690 
 12 O       -4.7000    -4.1850     2.4890 O.2   1 <1>  -0.5700 
 13 C       -4.4220    -6.1290     1.2150 C.3   1 <1>  -0.0990 
 14 C       -5.8110    -6.5400     0.6910 C.3   1 <1>  -0.0800 
 15 C       -5.9240    -8.0740     0.6270 C.3   1 <1>   0.1200 
 16 C       -6.1170    -5.9290    -0.6890 C.3   1 <1>  -0.1600 
 17 O       -7.1760    -8.4380     0.1340 O.3   1 <1>  -0.5600 
 18 C       -7.4330    -6.4970    -1.2330 C.3   1 <1>  -0.1600 
 19 C       -7.4370    -8.0280    -1.1730 C.3   1 <1>   0.1200 
 20 H       -2.1300     1.0550    -1.4580 H     1 <1>   0.0800 
 21 H       -1.1690     0.9970     0.0400 H     1 <1>   0.0800 
 22 H       -0.5550    -2.8220    -0.4250 H     1 <1>   0.0800 
 23 H       -1.5020    -2.8230    -1.9330 H     1 <1>   0.0800 
 24 H       -3.3760    -4.4050    -0.3340 H     1 <1>   0.3700 
 25 H       -6.1050    -0.6350     1.4730 H     1 <1>   0.0800 
 26 H       -5.3690    -1.7100     2.6480 H     1 <1>   0.0800 
 27 H       -6.1400    -2.3700     1.2140 H     1 <1>   0.0800 
 28 H       -4.2450    -6.6160     2.1580 H     1 <1>   0.0800 
 29 H       -3.6570    -6.4550     0.5340 H     1 <1>   0.0800 
 30 H       -6.5490    -6.1930     1.3950 H     1 <1>   0.0800 
 31 H       -5.8300    -8.5000     1.6110 H     1 <1>   0.0800 
 32 H       -5.1700    -8.4990    -0.0120 H     1 <1>   0.0800 
 33 H       -5.3250    -6.1670    -1.3770 H     1 <1>   0.0800 
 34 H       -6.1980    -4.8570    -0.6200 H     1 <1>   0.0800 
 35 H       -7.5810    -6.1760    -2.2490 H     1 <1>   0.0800 
 36 H       -8.2590    -6.1290    -0.6490 H     1 <1>   0.0800 
 37 H       -8.4020    -8.4150    -1.4510 H     1 <1>   0.0800 
 38 H       -6.6890    -8.4500    -1.8220 H     1 <1>   0.0800 
@<TRIPOS>BOND
  1   1   2  1   
  2   1   3  1   
  3   2   4  1   
  4   2  20  1   
  5   2  21  1   
  6   3   5  1   
  7   3  22  1   
  8   3  23  1   
  9   4   5  1   
 10   4   6  2   
 11   5   7  2   
 12   6   8  1   
 13   7   8  1   
 14   7   9  1   
 15   8  10  1   
 16   9  11  am  
 17   9  24  1   
 18  10  25  1   
 19  10  26  1   
 20  10  27  1   
 21  11  12  2   
 22  11  13  1   
 23  13  14  1   
 24  13  28  1   
 25  13  29  1   
 26  14  15  1   
 27  14  16  1   
 28  14  30  1   
 29  15  17  1   
 30  15  31  1   
 31  15  32  1   
 32  16  18  1   
 33  16  33  1   
 34  16  34  1   
 35  17  19  1   
 36  18  19  1   
 37  18  35  1   
 38  18  36  1   
 39  19  37  1   
 40  19  38  1   
@<TRIPOS>SUBSTRUCTURE
  1 ****   9 GROUP 4 **** **** 0

# MOE 2024.06 (io_trps.svl 2023.06)
