@<TRIPOS>MOLECULE
NONAME
46 48 1 0 0 
SMALL
USER_CHARGES


@<TRIPOS>ATOM
  1 S        3.5450     1.4780     0.8460 S.3   1 <1>  -0.0800 
  2 C        2.9000     3.0570     0.4610 C.2   1 <1>  -0.1100 
  3 C        2.0020     0.9650     1.4940 C.2   1 <1>  -0.1100 
  4 C        1.5900     3.1680     0.7950 C.2   1 <1>  -0.0860 
  5 C        1.0970     1.9550     1.3960 C.2   1 <1>  -0.1500 
  6 C        0.7300     4.3250     0.6340 C.2   1 <1>   0.7160 
  7 O        0.0580     4.6790     1.5850 O.2   1 <1>  -0.5700 
  8 N        0.6300     5.0330    -0.5500 N.am  1 <1>  -0.6600 
  9 C        1.1620     4.5350    -1.8630 C.3   1 <1>   0.1400 
 10 C       -0.0590     6.3540    -0.5820 C.3   1 <1>   0.1400 
 11 C        1.8600     5.6160    -2.7080 C.3   1 <1>   0.1400 
 12 C        0.9460     7.4760    -0.2900 C.3   1 <1>  -0.1600 
 13 N        2.6580     6.5580    -1.8680 N.am  1 <1>  -0.6600 
 14 C        1.9180     7.7760    -1.4390 C.3   1 <1>   0.1400 
 15 C        3.9290     6.2220    -1.4820 C.2   1 <1>   0.5690 
 16 O        4.4530     5.2060    -1.8790 O.2   1 <1>  -0.5700 
 17 C        4.7070     7.1230    -0.5260 C.3   1 <1>  -0.0990 
 18 C        6.0500     6.5360    -0.0510 C.3   1 <1>  -0.1600 
 19 C        6.7820     7.4800     0.9120 C.3   1 <1>   0.0210 
 20 C        8.1180     6.9180     1.3690 C.2   1 <1>  -0.1810 
 21 C        9.0100     7.5570     2.2270 C.2   1 <1>   0.1390 
 22 C        8.7180     5.7450     1.0740 C.2   1 <1>  -0.3020 
 23 N       10.0760     6.8510     2.4510 N.2   1 <1>  -0.7070 
 24 N        9.8920     5.7260     1.7340 N.pl3 1 <1>   0.3000 
 25 H        3.5740     3.7660     0.0130 H     1 <1>   0.1500 
 26 H        1.9370    -0.0330     1.8880 H     1 <1>   0.1500 
 27 H        0.0750     1.8990     1.7300 H     1 <1>   0.1500 
 28 H        0.3470     4.1250    -2.4330 H     1 <1>   0.0800 
 29 H        1.8630     3.7370    -1.7110 H     1 <1>   0.0800 
 30 H       -0.8360     6.3750     0.1650 H     1 <1>   0.0800 
 31 H       -0.5320     6.5050    -1.5370 H     1 <1>   0.0800 
 32 H        1.1230     6.1640    -3.2670 H     1 <1>   0.0800 
 33 H        2.5040     5.1370    -3.4260 H     1 <1>   0.0800 
 34 H        1.4960     7.2380     0.6030 H     1 <1>   0.0800 
 35 H        0.3920     8.3740    -0.0870 H     1 <1>   0.0800 
 36 H        2.6060     8.5440    -1.1320 H     1 <1>   0.0800 
 37 H        1.3700     8.1660    -2.2800 H     1 <1>   0.0800 
 38 H        4.0900     7.3100     0.3330 H     1 <1>   0.0800 
 39 H        4.8900     8.0550    -1.0260 H     1 <1>   0.0800 
 40 H        6.6770     6.3490    -0.9080 H     1 <1>   0.0800 
 41 H        5.8720     5.5940     0.4400 H     1 <1>   0.0800 
 42 H        6.1680     7.6560     1.7780 H     1 <1>   0.0800 
 43 H        6.9550     8.4240     0.4260 H     1 <1>   0.0800 
 44 H        8.8470     8.5290     2.6620 H     1 <1>   0.1500 
 45 H        8.3860     4.9380     0.4460 H     1 <1>   0.1500 
 46 H       10.5850     4.9680     1.7170 H     1 <1>   0.2700 
@<TRIPOS>BOND
  1   1   2  1   
  2   1   3  1   
  3   2   4  2   
  4   2  25  1   
  5   3   5  2   
  6   3  26  1   
  7   4   5  1   
  8   4   6  1   
  9   5  27  1   
 10   6   7  2   
 11   6   8  am  
 12   8   9  1   
 13   8  10  1   
 14   9  11  1   
 15   9  28  1   
 16   9  29  1   
 17  10  12  1   
 18  10  30  1   
 19  10  31  1   
 20  11  13  1   
 21  11  32  1   
 22  11  33  1   
 23  12  14  1   
 24  12  34  1   
 25  12  35  1   
 26  13  14  1   
 27  13  15  am  
 28  14  36  1   
 29  14  37  1   
 30  15  16  2   
 31  15  17  1   
 32  17  18  1   
 33  17  38  1   
 34  17  39  1   
 35  18  19  1   
 36  18  40  1   
 37  18  41  1   
 38  19  20  1   
 39  19  42  1   
 40  19  43  1   
 41  20  21  1   
 42  20  22  2   
 43  21  23  2   
 44  21  44  1   
 45  22  24  1   
 46  22  45  1   
 47  23  24  1   
 48  24  46  1   
@<TRIPOS>SUBSTRUCTURE
  1 ****  15 GROUP 4 **** **** 0

# MOE 2024.06 (io_trps.svl 2023.06)
