@<TRIPOS>MOLECULE
NONAME
54 58 1 0 0 
SMALL
USER_CHARGES


@<TRIPOS>ATOM
  1 O        1.7240    -0.0540     1.6620 O.3   1 <1>  -0.6800 
  2 C        1.7350    -0.1390     0.2730 C.3   1 <1>   0.2000 
  3 C        2.4540    -1.4060    -0.1880 C.3   1 <1>  -0.0800 
  4 C        2.6190     0.9850    -0.2720 C.3   1 <1>   0.2090 
  5 C        3.9410    -1.0430    -0.1710 C.3   1 <1>   0.2090 
  6 C        2.1410    -2.6990     0.5910 C.3   1 <1>   0.0210 
  7 N        4.0190     0.4470    -0.2760 N.pl3 1 <1>  -0.8380 
  8 C        2.9680    -3.8690     0.0870 C.2   1 <1>   0.1080 
  9 C        5.1760     1.1360    -0.2400 C.ar  1 <1>   0.4610 
 10 N        3.2260    -4.0710    -1.1690 N.2   1 <1>  -0.7070 
 11 C        3.5360    -4.8430     0.9010 C.2   1 <1>  -0.1500 
 12 N        5.1510     2.4680    -0.2110 N.ar  1 <1>  -0.1790 
 13 C        6.4540     0.5210    -0.2290 C.ar  1 <1>  -0.1500 
 14 N        3.9650    -5.1970    -1.1890 N.pl3 1 <1>   0.3000 
 15 C        4.1700    -5.6800     0.0540 C.2   1 <1>  -0.3320 
 16 C        6.2710     3.2760    -0.1720 C.ar  1 <1>   0.3610 
 17 C        7.6080     1.2440    -0.1910 C.ar  1 <1>  -0.1430 
 18 C        4.9670    -6.9350     0.3600 C.3   1 <1>  -0.0600 
 19 C        7.5460     2.6710    -0.1620 C.ar  1 <1>   0.0000 
 20 C        6.1430     4.6700    -0.1430 C.ar  1 <1>  -0.1500 
 21 C        8.9570     0.5350    -0.1810 C.3   1 <1>  -0.0970 
 22 C        8.6740     3.5100    -0.1230 C.ar  1 <1>  -0.1500 
 23 C        7.2700     5.4510    -0.1070 C.ar  1 <1>  -0.1430 
 24 C        8.5220     4.8730    -0.0970 C.ar  1 <1>  -0.1430 
 25 C        7.3680     6.9580    -0.0690 C.3   1 <1>  -0.0170 
 26 C        9.6040     5.9250    -0.0510 C.3   1 <1>  -0.0170 
 27 C        8.8380     7.2100     0.3040 C.3   1 <1>  -0.1600 
 28 H        1.1090    -0.7090     2.0470 H     1 <1>   0.4000 
 29 H        0.7210    -0.0720    -0.0830 H     1 <1>   0.0800 
 30 H        2.1880    -1.5710    -1.2180 H     1 <1>   0.0800 
 31 H        2.5170     1.8670     0.3360 H     1 <1>   0.0800 
 32 H        2.3270     1.2020    -1.2850 H     1 <1>   0.0800 
 33 H        4.4530    -1.5210    -0.9900 H     1 <1>   0.0800 
 34 H        4.3850    -1.3560     0.7600 H     1 <1>   0.0800 
 35 H        1.1010    -2.9450     0.4790 H     1 <1>   0.0800 
 36 H        2.3480    -2.5660     1.6370 H     1 <1>   0.0800 
 37 H        3.4670    -4.8970     1.9730 H     1 <1>   0.1500 
 38 H        4.2390     2.9040    -0.2010 H     1 <1>   0.4570 
 39 H        6.4920    -0.5520    -0.2540 H     1 <1>   0.1500 
 40 H        4.3080    -5.6130    -2.0640 H     1 <1>   0.2700 
 41 H        4.9850    -7.1120     1.4210 H     1 <1>   0.0800 
 42 H        5.9790    -6.8280     0.0130 H     1 <1>   0.0800 
 43 H        4.5190    -7.7860    -0.1210 H     1 <1>   0.0800 
 44 H        5.1750     5.1350    -0.1500 H     1 <1>   0.1500 
 45 H        8.8350    -0.5340    -0.2050 H     1 <1>   0.0800 
 46 H        9.5030     0.7880     0.7100 H     1 <1>   0.0800 
 47 H        9.5350     0.8240    -1.0410 H     1 <1>   0.0800 
 48 H        9.6650     3.0920    -0.1130 H     1 <1>   0.1500 
 49 H        7.1560     7.3590    -1.0450 H     1 <1>   0.0800 
 50 H        6.6990     7.3890     0.6560 H     1 <1>   0.0800 
 51 H       10.3550     5.6960     0.6850 H     1 <1>   0.0800 
 52 H       10.0600     6.0140    -1.0220 H     1 <1>   0.0800 
 53 H        9.2400     8.0690    -0.2030 H     1 <1>   0.0800 
 54 H        8.9040     7.3690     1.3670 H     1 <1>   0.0800 
@<TRIPOS>BOND
  1   1   2  1   
  2   1  28  1   
  3   2   3  1   
  4   2   4  1   
  5   2  29  1   
  6   3   5  1   
  7   3   6  1   
  8   3  30  1   
  9   4   7  1   
 10   4  31  1   
 11   4  32  1   
 12   5   7  1   
 13   5  33  1   
 14   5  34  1   
 15   6   8  1   
 16   6  35  1   
 17   6  36  1   
 18   7   9  1   
 19   8  10  2   
 20   8  11  1   
 21   9  12  ar  
 22   9  13  ar  
 23  10  14  1   
 24  11  15  2   
 25  11  37  1   
 26  12  16  ar  
 27  12  38  1   
 28  13  17  ar  
 29  13  39  1   
 30  14  15  1   
 31  14  40  1   
 32  15  18  1   
 33  16  19  ar  
 34  16  20  ar  
 35  17  19  ar  
 36  17  21  1   
 37  18  41  1   
 38  18  42  1   
 39  18  43  1   
 40  19  22  ar  
 41  20  23  ar  
 42  20  44  1   
 43  21  45  1   
 44  21  46  1   
 45  21  47  1   
 46  22  24  ar  
 47  22  48  1   
 48  23  24  ar  
 49  23  25  1   
 50  24  26  1   
 51  25  27  1   
 52  25  49  1   
 53  25  50  1   
 54  26  27  1   
 55  26  51  1   
 56  26  52  1   
 57  27  53  1   
 58  27  54  1   
@<TRIPOS>SUBSTRUCTURE
  1 ****   9 GROUP 4 **** **** 0

# MOE 2024.06 (io_trps.svl 2023.06)
