@<TRIPOS>MOLECULE
NONAME
47 50 1 0 0 
SMALL
USER_CHARGES


@<TRIPOS>ATOM
  1 CL       1.5070    -2.2340    -3.4450 Cl    1 <1>  -0.1770 
  2 C        0.8850    -3.0450    -2.0330 C.ar  1 <1>   0.1770 
  3 C        0.2840    -4.2850    -2.1490 C.ar  1 <1>   0.1600 
  4 C        0.9930    -2.4480    -0.7990 C.ar  1 <1>  -0.1500 
  5 N       -0.2170    -4.9680    -1.1330 N.ar  1 <1>  -0.6200 
  6 C        0.4750    -3.1560     0.2660 C.ar  1 <1>  -0.1500 
  7 C       -0.1280    -4.4070     0.0920 C.ar  1 <1>   0.3960 
  8 C       -0.6460    -5.1000     1.2780 C.2   1 <1>   0.5440 
  9 O        0.0010    -5.0430     2.3120 O.2   1 <1>  -0.5700 
 10 N       -1.8450    -5.7970     1.3050 N.am  1 <1>  -0.6600 
 11 C       -2.1610    -6.7880     2.3710 C.3   1 <1>   0.1400 
 12 C       -2.8930    -5.7200     0.2530 C.3   1 <1>   0.1400 
 13 C       -2.2870    -8.1770     1.7370 C.3   1 <1>  -0.1600 
 14 C       -3.0110    -7.0840    -0.4290 C.3   1 <1>  -0.1600 
 15 C       -3.3100    -8.2060     0.5870 C.3   1 <1>   0.4240 
 16 O       -4.5280    -7.8680     1.2160 O.3   1 <1>  -0.5600 
 17 C       -3.3830    -9.6110    -0.0810 C.ar  1 <1>  -0.1430 
 18 C       -5.7120    -8.2240     0.5810 C.3   1 <1>   0.1200 
 19 C       -2.2780   -10.1910    -0.7190 C.ar  1 <1>   0.0830 
 20 C       -4.5780   -10.3300    -0.0590 C.ar  1 <1>  -0.1430 
 21 C       -5.8120    -9.7410     0.5910 C.3   1 <1>  -0.0170 
 22 O       -1.1110    -9.4970    -0.7740 O.3   1 <1>  -0.3630 
 23 C       -2.3820   -11.4570    -1.2920 C.ar  1 <1>  -0.1500 
 24 C       -4.6690   -11.5880    -0.6300 C.ar  1 <1>  -0.1500 
 25 C        0.0550    -9.9940    -1.3900 C.3   1 <1>   0.0400 
 26 C       -3.5720   -12.1540    -1.2460 C.ar  1 <1>  -0.1500 
 27 H        0.2170    -4.7280    -3.1280 H     1 <1>   0.1500 
 28 H        1.4580    -1.4860    -0.6810 H     1 <1>   0.1500 
 29 H        0.5340    -2.7460     1.2600 H     1 <1>   0.1500 
 30 H       -3.0860    -6.5110     2.8480 H     1 <1>   0.0800 
 31 H       -1.3910    -6.8040     3.1220 H     1 <1>   0.0800 
 32 H       -2.6630    -4.9600    -0.4710 H     1 <1>   0.0800 
 33 H       -3.8310    -5.4590     0.7140 H     1 <1>   0.0800 
 34 H       -2.5780    -8.8930     2.4830 H     1 <1>   0.0800 
 35 H       -1.3130    -8.4590     1.3910 H     1 <1>   0.0800 
 36 H       -2.0830    -7.2730    -0.9320 H     1 <1>   0.0800 
 37 H       -3.7720    -7.0560    -1.1850 H     1 <1>   0.0800 
 38 H       -5.7100    -7.8390    -0.4230 H     1 <1>   0.0800 
 39 H       -6.5270    -7.7870     1.1300 H     1 <1>   0.0800 
 40 H       -6.6960   -10.0390     0.0560 H     1 <1>   0.0800 
 41 H       -5.8930   -10.0900     1.6050 H     1 <1>   0.0800 
 42 H       -1.5480   -11.9220    -1.7810 H     1 <1>   0.1500 
 43 H       -5.5960   -12.1340    -0.5990 H     1 <1>   0.1500 
 44 H        0.8250    -9.2500    -1.2910 H     1 <1>   0.0800 
 45 H       -0.1480   -10.1720    -2.4310 H     1 <1>   0.0800 
 46 H        0.3550   -10.8980    -0.8910 H     1 <1>   0.0800 
 47 H       -3.6460   -13.1310    -1.6890 H     1 <1>   0.1500 
@<TRIPOS>BOND
  1   1   2  1   
  2   2   3  ar  
  3   2   4  ar  
  4   3   5  ar  
  5   3  27  1   
  6   4   6  ar  
  7   4  28  1   
  8   5   7  ar  
  9   6   7  ar  
 10   6  29  1   
 11   7   8  1   
 12   8   9  2   
 13   8  10  am  
 14  10  11  1   
 15  10  12  1   
 16  11  13  1   
 17  11  30  1   
 18  11  31  1   
 19  12  14  1   
 20  12  32  1   
 21  12  33  1   
 22  13  15  1   
 23  13  34  1   
 24  13  35  1   
 25  14  15  1   
 26  14  36  1   
 27  14  37  1   
 28  15  16  1   
 29  15  17  1   
 30  16  18  1   
 31  17  19  ar  
 32  17  20  ar  
 33  18  21  1   
 34  18  38  1   
 35  18  39  1   
 36  19  22  1   
 37  19  23  ar  
 38  20  21  1   
 39  20  24  ar  
 40  21  40  1   
 41  21  41  1   
 42  22  25  1   
 43  23  26  ar  
 44  23  42  1   
 45  24  26  ar  
 46  24  43  1   
 47  25  44  1   
 48  25  45  1   
 49  25  46  1   
 50  26  47  1   
@<TRIPOS>SUBSTRUCTURE
  1 ****  14 GROUP 4 **** **** 0

# MOE 2024.06 (io_trps.svl 2023.06)
