@<TRIPOS>MOLECULE
NONAME
28 29 1 0 0 
SMALL
USER_CHARGES


@<TRIPOS>ATOM
  1 O        0.0050     0.3590    -0.6800 O.2   1 <1>  -0.5700 
  2 C       -0.2960     1.4890    -0.3510 C.2   1 <1>   0.8060 
  3 O        0.6820     2.3670    -0.1010 O.3   1 <1>  -0.4300 
  4 C       -1.6460     1.9680    -0.2160 C.2   1 <1>  -0.0860 
  5 C        2.0410     2.0080    -0.2060 C.3   1 <1>   0.1200 
  6 C       -2.8340     1.2330    -0.3250 C.2   1 <1>   0.2030 
  7 C       -2.0920     3.2310     0.0420 C.2   1 <1>  -0.3020 
  8 C        2.8810     3.2320     0.1460 C.3   1 <1>  -0.2400 
  9 N       -3.8910     1.9660    -0.1600 N.2   1 <1>  -0.7070 
 10 C       -2.9200    -0.2610    -0.6020 C.3   1 <1>  -0.0140 
 11 N       -3.4300     3.2010     0.0680 N.pl3 1 <1>   0.3140 
 12 C       -3.9990    -1.1040     0.0090 C.3   1 <1>  -0.2000 
 13 C       -2.5890    -1.2330     0.4910 C.3   1 <1>  -0.2000 
 14 C       -4.3450     4.3210     0.3080 C.3   1 <1>   0.0160 
 15 H        2.2320     1.6850    -1.2160 H     1 <1>   0.0800 
 16 H        2.2350     1.1970     0.4760 H     1 <1>   0.0800 
 17 H       -1.5160     4.1240     0.2010 H     1 <1>   0.1500 
 18 H        2.6690     4.0360    -0.5370 H     1 <1>   0.0800 
 19 H        3.9250     2.9870     0.0740 H     1 <1>   0.0800 
 20 H        2.6720     3.5480     1.1520 H     1 <1>   0.0800 
 21 H       -2.6060    -0.5070    -1.6010 H     1 <1>   0.1000 
 22 H       -4.4270    -1.8930    -0.5840 H     1 <1>   0.1000 
 23 H       -4.7260    -0.6140     0.6330 H     1 <1>   0.1000 
 24 H       -2.3380    -0.8450     1.4630 H     1 <1>   0.1000 
 25 H       -2.0150    -2.1050     0.2320 H     1 <1>   0.1000 
 26 H       -3.7820     5.2210     0.4690 H     1 <1>   0.0800 
 27 H       -4.9410     4.1030     1.1740 H     1 <1>   0.0800 
 28 H       -4.9840     4.4370    -0.5470 H     1 <1>   0.0800 
@<TRIPOS>BOND
  1   1   2  2   
  2   2   3  1   
  3   2   4  1   
  4   3   5  1   
  5   4   6  1   
  6   4   7  2   
  7   5   8  1   
  8   5  15  1   
  9   5  16  1   
 10   6   9  2   
 11   6  10  1   
 12   7  11  1   
 13   7  17  1   
 14   8  18  1   
 15   8  19  1   
 16   8  20  1   
 17   9  11  1   
 18  10  12  1   
 19  10  13  1   
 20  10  21  1   
 21  11  14  1   
 22  12  13  1   
 23  12  22  1   
 24  12  23  1   
 25  13  24  1   
 26  13  25  1   
 27  14  26  1   
 28  14  27  1   
 29  14  28  1   
@<TRIPOS>SUBSTRUCTURE
  1 ****   4 GROUP 4 **** **** 0

# MOE 2024.06 (io_trps.svl 2023.06)
