@<TRIPOS>MOLECULE
NONAME
53 56 1 0 0 
SMALL
USER_CHARGES


@<TRIPOS>ATOM
  1 O       -0.6880     0.3880     1.5410 O.2   1 <1>  -0.5700 
  2 C       -1.6340     1.0260     1.1210 C.2   1 <1>   0.5440 
  3 N       -2.7990     0.3640     0.8090 N.am  1 <1>  -0.6600 
  4 C       -1.5110     2.4590     0.9370 C.ar  1 <1>   0.0860 
  5 C       -3.8000     0.8550    -0.1750 C.3   1 <1>   0.1400 
  6 C       -2.9790    -1.0930     1.0080 C.3   1 <1>   0.1400 
  7 C       -0.4530     3.0130     0.2540 C.ar  1 <1>  -0.1500 
  8 C       -2.4780     3.3400     1.4590 C.ar  1 <1>  -0.1500 
  9 C       -4.6230    -0.3730    -0.5930 C.3   1 <1>   0.2000 
 10 C       -3.7220    -1.5610    -0.2430 C.3   1 <1>  -0.0800 
 11 C       -0.3220     4.3910     0.0410 C.ar  1 <1>   0.3100 
 12 C       -2.3820     4.6910     1.2770 C.ar  1 <1>  -0.1500 
 13 O       -5.7890    -0.4490     0.1780 O.3   1 <1>  -0.5600 
 14 C       -4.4580    -2.9000    -0.0570 C.3   1 <1>   0.0200 
 15 N        0.7490     4.8290    -0.6660 N.ar  1 <1>  -0.6200 
 16 C       -1.3080     5.2620     0.5610 C.ar  1 <1>   0.0000 
 17 C       -6.8780     0.2640    -0.3200 C.3   1 <1>   0.0400 
 18 C       -3.5150    -4.0790     0.1150 C.2   1 <1>  -0.0400 
 19 C        0.8630     6.1040    -0.8580 C.ar  1 <1>   0.1670 
 20 C       -1.1510     6.6460     0.3300 C.ar  1 <1>  -0.1430 
 21 O       -4.0210    -5.2580     0.3630 O.3   1 <1>  -0.0190 
 22 C       -2.1790    -4.2120     0.0650 C.2   1 <1>  -0.1500 
 23 C       -0.0590     7.0470    -0.3820 C.ar  1 <1>  -0.1500 
 24 C        2.0670     6.5740    -1.6470 C.3   1 <1>  -0.0970 
 25 C       -2.1560     7.6630     0.8500 C.3   1 <1>  -0.0970 
 26 N       -3.1000    -6.1700     0.4840 N.2   1 <1>  -0.4100 
 27 C       -1.9790    -5.5670     0.3110 C.2   1 <1>   0.1080 
 28 C       -0.6290    -6.2470     0.3690 C.3   1 <1>  -0.0590 
 29 H       -4.4260     1.6130     0.2610 H     1 <1>   0.0800 
 30 H       -3.2830     1.2570    -1.0280 H     1 <1>   0.0800 
 31 H       -2.0360    -1.5980     1.1280 H     1 <1>   0.0800 
 32 H       -3.5810    -1.2500     1.8870 H     1 <1>   0.0800 
 33 H        0.3170     2.3770    -0.1420 H     1 <1>   0.1500 
 34 H       -3.2980     2.9190     2.0160 H     1 <1>   0.1500 
 35 H       -4.8850    -0.3640    -1.6380 H     1 <1>   0.0800 
 36 H       -3.0000    -1.6680    -1.0330 H     1 <1>   0.0800 
 37 H       -3.1360     5.3360     1.6900 H     1 <1>   0.1500 
 38 H       -5.0800    -3.0860    -0.9140 H     1 <1>   0.0800 
 39 H       -5.1010    -2.8470     0.8050 H     1 <1>   0.0800 
 40 H       -7.6970     0.1420     0.3670 H     1 <1>   0.0800 
 41 H       -7.1530    -0.1330    -1.2810 H     1 <1>   0.0800 
 42 H       -6.6240     1.3070    -0.3970 H     1 <1>   0.0800 
 43 H       -1.4110    -3.4840    -0.1170 H     1 <1>   0.1500 
 44 H        0.1130     8.0860    -0.5910 H     1 <1>   0.1500 
 45 H        2.1910     7.6380    -1.5730 H     1 <1>   0.0800 
 46 H        1.9430     6.3050    -2.6800 H     1 <1>   0.0800 
 47 H        2.9520     6.0950    -1.2700 H     1 <1>   0.0800 
 48 H       -1.8690     8.6620     0.5750 H     1 <1>   0.0800 
 49 H       -2.2100     7.6110     1.9230 H     1 <1>   0.0800 
 50 H       -3.1290     7.4650     0.4380 H     1 <1>   0.0800 
 51 H       -0.0090    -5.7630     1.1000 H     1 <1>   0.0800 
 52 H       -0.1540    -6.1940    -0.5930 H     1 <1>   0.0800 
 53 H       -0.7500    -7.2790     0.6420 H     1 <1>   0.0800 
@<TRIPOS>BOND
  1   1   2  2   
  2   2   3  am  
  3   2   4  1   
  4   3   5  1   
  5   3   6  1   
  6   4   7  ar  
  7   4   8  ar  
  8   5   9  1   
  9   5  29  1   
 10   5  30  1   
 11   6  10  1   
 12   6  31  1   
 13   6  32  1   
 14   7  11  ar  
 15   7  33  1   
 16   8  12  ar  
 17   8  34  1   
 18   9  10  1   
 19   9  13  1   
 20   9  35  1   
 21  10  14  1   
 22  10  36  1   
 23  11  15  ar  
 24  11  16  ar  
 25  12  16  ar  
 26  12  37  1   
 27  13  17  1   
 28  14  18  1   
 29  14  38  1   
 30  14  39  1   
 31  15  19  ar  
 32  16  20  ar  
 33  17  40  1   
 34  17  41  1   
 35  17  42  1   
 36  18  21  1   
 37  18  22  2   
 38  19  23  ar  
 39  19  24  1   
 40  20  23  ar  
 41  20  25  1   
 42  21  26  1   
 43  22  27  1   
 44  22  43  1   
 45  23  44  1   
 46  24  45  1   
 47  24  46  1   
 48  24  47  1   
 49  25  48  1   
 50  25  49  1   
 51  25  50  1   
 52  26  27  2   
 53  27  28  1   
 54  28  51  1   
 55  28  52  1   
 56  28  53  1   
@<TRIPOS>SUBSTRUCTURE
  1 ****   2 GROUP 4 **** **** 0

# MOE 2024.06 (io_trps.svl 2023.06)
