@<TRIPOS>MOLECULE
NONAME
47 50 1 0 0 
SMALL
USER_CHARGES


@<TRIPOS>ATOM
  1 O       -2.4130     0.2990    -2.5620 O.2   1 <1>  -0.5700 
  2 C       -2.4020    -0.2940    -1.5180 C.2   1 <1>   0.5690 
  3 N       -2.3240     0.3750    -0.3500 N.am  1 <1>  -0.7300 
  4 C       -2.5680    -1.7940    -1.5120 C.3   1 <1>  -0.0190 
  5 C       -2.3000    -0.2530     0.9970 C.3   1 <1>   0.2200 
  6 C       -1.3840    -2.5520    -0.8800 C.3   1 <1>   0.1200 
  7 C       -3.9290    -2.1270    -0.9020 C.3   1 <1>   0.3430 
  8 C       -1.1260    -1.2500     1.1720 C.3   1 <1>   0.1200 
  9 C       -3.6660    -0.9090     1.3080 C.3   1 <1>   0.3430 
 10 O       -0.6130    -1.7550    -0.0300 O.3   1 <1>  -0.5600 
 11 N       -3.9290    -2.2140     0.6010 N.4   1 <1>  -0.9590 
 12 C       -5.1870    -2.8420     1.0870 C.3   1 <1>   0.5240 
 13 C       -5.1830    -4.2750     0.6070 C.2   1 <1>  -0.1810 
 14 C       -6.0060    -4.8180    -0.3730 C.2   1 <1>   0.1080 
 15 C       -4.3970    -5.3030     0.9980 C.2   1 <1>  -0.3020 
 16 N       -5.7370    -6.0600    -0.5870 N.2   1 <1>  -0.7070 
 17 C       -7.1030    -4.1100    -1.1420 C.3   1 <1>  -0.0590 
 18 N       -4.7400    -6.3980     0.2690 N.pl3 1 <1>   0.5930 
 19 C       -4.1750    -7.7050     0.3500 C.ar  1 <1>  -0.0230 
 20 C       -2.8440    -7.9000     0.7190 C.ar  1 <1>  -0.1500 
 21 C       -4.9500    -8.8260     0.0600 C.ar  1 <1>  -0.1500 
 22 C       -2.3110    -9.1740     0.8020 C.ar  1 <1>  -0.1500 
 23 C       -4.4180   -10.1000     0.1430 C.ar  1 <1>  -0.1500 
 24 C       -3.0980   -10.2760     0.5150 C.ar  1 <1>  -0.1500 
 25 H       -2.0610     1.3640    -0.4260 H     1 <1>   0.3700 
 26 H       -2.6240    -2.1010    -2.5410 H     1 <1>   0.0800 
 27 H       -2.1660     0.5350     1.7180 H     1 <1>   0.0800 
 28 H       -0.7180    -2.8590    -1.6700 H     1 <1>   0.0800 
 29 H       -1.6890    -3.4390    -0.3540 H     1 <1>   0.0800 
 30 H       -4.2320    -3.0800    -1.3060 H     1 <1>   0.0800 
 31 H       -4.6490    -1.3950    -1.2310 H     1 <1>   0.0800 
 32 H       -1.3850    -2.0740     1.8130 H     1 <1>   0.0800 
 33 H       -0.3100    -0.7280     1.6430 H     1 <1>   0.0800 
 34 H       -4.4420    -0.2010     1.0670 H     1 <1>   0.0800 
 35 H       -3.7080    -1.0820     2.3710 H     1 <1>   0.0800 
 36 H       -3.1880    -2.8800     0.8530 H     1 <1>   0.4500 
 37 H       -5.2210    -2.8310     2.1650 H     1 <1>   0.0800 
 38 H       -6.0480    -2.3160     0.7070 H     1 <1>   0.0800 
 39 H       -3.6270    -5.3510     1.7450 H     1 <1>   0.1500 
 40 H       -6.6840    -3.5440    -1.9530 H     1 <1>   0.0800 
 41 H       -7.6650    -3.4610    -0.4980 H     1 <1>   0.0800 
 42 H       -7.7780    -4.8400    -1.5550 H     1 <1>   0.0800 
 43 H       -2.2100    -7.0620     0.9390 H     1 <1>   0.1500 
 44 H       -5.9790    -8.7010    -0.2350 H     1 <1>   0.1500 
 45 H       -1.2830    -9.3140     1.0890 H     1 <1>   0.1500 
 46 H       -5.0310   -10.9550    -0.0850 H     1 <1>   0.1500 
 47 H       -2.6840   -11.2670     0.5800 H     1 <1>   0.1500 
@<TRIPOS>BOND
  1   1   2  2   
  2   2   3  am  
  3   2   4  1   
  4   3   5  1   
  5   3  25  1   
  6   4   6  1   
  7   4   7  1   
  8   4  26  1   
  9   5   8  1   
 10   5   9  1   
 11   5  27  1   
 12   6  10  1   
 13   6  28  1   
 14   6  29  1   
 15   7  11  1   
 16   7  30  1   
 17   7  31  1   
 18   8  10  1   
 19   8  32  1   
 20   8  33  1   
 21   9  11  1   
 22   9  34  1   
 23   9  35  1   
 24  11  12  1   
 25  11  36  1   
 26  12  13  1   
 27  12  37  1   
 28  12  38  1   
 29  13  14  1   
 30  13  15  2   
 31  14  16  2   
 32  14  17  1   
 33  15  18  1   
 34  15  39  1   
 35  16  18  1   
 36  17  40  1   
 37  17  41  1   
 38  17  42  1   
 39  18  19  1   
 40  19  20  ar  
 41  19  21  ar  
 42  20  22  ar  
 43  20  43  1   
 44  21  23  ar  
 45  21  44  1   
 46  22  24  ar  
 47  22  45  1   
 48  23  24  ar  
 49  23  46  1   
 50  24  47  1   
@<TRIPOS>SUBSTRUCTURE
  1 ****  13 GROUP 4 **** **** 0

# MOE 2024.06 (io_trps.svl 2023.06)
