@<TRIPOS>MOLECULE
NONAME
47 50 1 0 0 
SMALL
USER_CHARGES


@<TRIPOS>ATOM
  1 O        1.3800    -0.4590     1.3930 O.co2 1 <1>  -0.9000 
  2 C        1.3620     0.4790     0.5780 C.2   1 <1>   0.9060 
  3 O        0.4620     1.3150     0.5760 O.co2 1 <1>  -0.9000 
  4 C        2.5050     0.5910    -0.4490 C.3   1 <1>  -0.1060 
  5 C        3.7890     0.0000     0.1740 C.3   1 <1>   0.4230 
  6 C        2.7740     2.0800    -0.8090 C.3   1 <1>  -0.1600 
  7 C        2.1540    -0.1790    -1.7450 C.3   1 <1>  -0.1600 
  8 N        3.6110    -1.4730     0.4370 N.4   1 <1>  -0.9590 
  9 C        4.2120     0.8330     1.4130 C.3   1 <1>   0.2090 
 10 C        3.2180     2.9020     0.4080 C.3   1 <1>   0.2090 
 11 C        2.0770    -1.6930    -1.4960 C.3   1 <1>  -0.1600 
 12 C        3.3310    -2.2350    -0.8070 C.3   1 <1>   0.3430 
 13 C        4.6580    -2.1150     1.2760 C.3   1 <1>   0.2630 
 14 N        4.4190     2.2540     1.0070 N.pl3 1 <1>  -0.8220 
 15 C        5.6830     2.7970     0.8490 C.2   1 <1>   0.5620 
 16 O        6.7540     2.1680     1.2470 O.3   1 <1>  -0.0190 
 17 N        5.9750     3.9110     0.3000 N.2   1 <1>  -0.5650 
 18 N        7.7970     2.8660     0.9630 N.2   1 <1>  -0.4100 
 19 C        7.3230     3.9240     0.3960 C.2   1 <1>   0.4620 
 20 C        8.1210     5.0320    -0.1070 C.ar  1 <1>   0.0540 
 21 C        9.5160     5.0160    -0.0270 C.ar  1 <1>  -0.1500 
 22 C        7.5320     6.1560    -0.6890 C.ar  1 <1>  -0.1500 
 23 C       10.2820     6.0640    -0.5040 C.ar  1 <1>  -0.1500 
 24 C        8.2920     7.2080    -1.1680 C.ar  1 <1>  -0.1500 
 25 C        9.6710     7.1640    -1.0770 C.ar  1 <1>  -0.1500 
 26 H        4.5800     0.1090    -0.5470 H     1 <1>   0.0800 
 27 H        1.8760     2.5230    -1.2060 H     1 <1>   0.0800 
 28 H        3.5330     2.1580    -1.5670 H     1 <1>   0.0800 
 29 H        1.2060     0.1710    -2.1200 H     1 <1>   0.0800 
 30 H        2.8980     0.0160    -2.4980 H     1 <1>   0.0800 
 31 H        2.7020    -1.4600     0.9790 H     1 <1>   0.4500 
 32 H        5.1210     0.4440     1.8300 H     1 <1>   0.0800 
 33 H        3.4500     0.7970     2.1740 H     1 <1>   0.0800 
 34 H        2.4290     2.9430     1.1410 H     1 <1>   0.0800 
 35 H        3.4380     3.9130     0.1080 H     1 <1>   0.0800 
 36 H        1.9400    -2.2020    -2.4330 H     1 <1>   0.0800 
 37 H        1.2180    -1.9170    -0.8860 H     1 <1>   0.0800 
 38 H        4.1720    -2.1560    -1.4760 H     1 <1>   0.0800 
 39 H        3.1790    -3.2750    -0.5700 H     1 <1>   0.0800 
 40 H        5.6180    -2.0510     0.7910 H     1 <1>   0.0800 
 41 H        4.4150    -3.1520     1.4370 H     1 <1>   0.0800 
 42 H        4.7140    -1.6300     2.2360 H     1 <1>   0.0800 
 43 H       10.0100     4.1680     0.4160 H     1 <1>   0.1500 
 44 H        6.4600     6.2100    -0.7690 H     1 <1>   0.1500 
 45 H       11.3550     6.0240    -0.4290 H     1 <1>   0.1500 
 46 H        7.8100     8.0620    -1.6130 H     1 <1>   0.1500 
 47 H       10.2650     7.9800    -1.4490 H     1 <1>   0.1500 
@<TRIPOS>BOND
  1   1   2  ar  
  2   2   3  ar  
  3   2   4  1   
  4   4   5  1   
  5   4   6  1   
  6   4   7  1   
  7   5   8  1   
  8   5   9  1   
  9   5  26  1   
 10   6  10  1   
 11   6  27  1   
 12   6  28  1   
 13   7  11  1   
 14   7  29  1   
 15   7  30  1   
 16   8  12  1   
 17   8  13  1   
 18   8  31  1   
 19   9  14  1   
 20   9  32  1   
 21   9  33  1   
 22  10  14  1   
 23  10  34  1   
 24  10  35  1   
 25  11  12  1   
 26  11  36  1   
 27  11  37  1   
 28  12  38  1   
 29  12  39  1   
 30  13  40  1   
 31  13  41  1   
 32  13  42  1   
 33  14  15  1   
 34  15  16  1   
 35  15  17  2   
 36  16  18  1   
 37  17  19  1   
 38  18  19  2   
 39  19  20  1   
 40  20  21  ar  
 41  20  22  ar  
 42  21  23  ar  
 43  21  43  1   
 44  22  24  ar  
 45  22  44  1   
 46  23  25  ar  
 47  23  45  1   
 48  24  25  ar  
 49  24  46  1   
 50  25  47  1   
@<TRIPOS>SUBSTRUCTURE
  1 ****  14 GROUP 4 **** **** 0

# MOE 2024.06 (io_trps.svl 2023.06)
