@<TRIPOS>MOLECULE
NONAME
22 21 1 0 0 
SMALL
USER_CHARGES


@<TRIPOS>ATOM
  1 O       -0.1710     0.0050     0.1270 O.2   1 <1>  -0.5700 
  2 C       -1.1930    -0.6430     0.0390 C.2   1 <1>   0.7060 
  3 O       -2.3690    -0.0140     0.0100 O.3   1 <1>  -0.4300 
  4 C       -1.2220    -2.0720    -0.0390 C.2   1 <1>  -0.1360 
  5 C       -2.4500     1.3920     0.0810 C.3   1 <1>   0.1200 
  6 C       -0.1630    -2.9160    -0.0270 C.2   1 <1>  -0.1500 
  7 C       -3.9230     1.7850     0.0240 C.3   1 <1>  -0.2400 
  8 C       -0.1550    -4.3530    -0.1030 C.2   1 <1>  -0.1380 
  9 C        0.9730    -5.0800    -0.0820 C.2   1 <1>  -0.3000 
 10 C       -1.5000    -5.0550    -0.2120 C.3   1 <1>  -0.1020 
 11 H       -2.2190    -2.4580    -0.1120 H     1 <1>   0.1500 
 12 H       -1.9990     1.7140     1.0040 H     1 <1>   0.0800 
 13 H       -1.9060     1.8070    -0.7510 H     1 <1>   0.0800 
 14 H        0.8220    -2.4820     0.0480 H     1 <1>   0.1500 
 15 H       -4.4530     1.3550     0.8540 H     1 <1>   0.0800 
 16 H       -4.3610     1.4480    -0.8980 H     1 <1>   0.0800 
 17 H       -4.0140     2.8540     0.0760 H     1 <1>   0.0800 
 18 H        1.9580    -4.6530    -0.0070 H     1 <1>   0.1500 
 19 H        1.0050    -6.1540    -0.1380 H     1 <1>   0.1500 
 20 H       -2.0130    -4.7350    -1.1010 H     1 <1>   0.0800 
 21 H       -2.1060    -4.8280     0.6470 H     1 <1>   0.0800 
 22 H       -1.3740    -6.1210    -0.2620 H     1 <1>   0.0800 
@<TRIPOS>BOND
  1   1   2  2   
  2   2   3  1   
  3   2   4  1   
  4   3   5  1   
  5   4   6  2   
  6   4  11  1   
  7   5   7  1   
  8   5  12  1   
  9   5  13  1   
 10   6   8  1   
 11   6  14  1   
 12   7  15  1   
 13   7  16  1   
 14   7  17  1   
 15   8   9  2   
 16   8  10  1   
 17   9  18  1   
 18   9  19  1   
 19  10  20  1   
 20  10  21  1   
 21  10  22  1   
@<TRIPOS>SUBSTRUCTURE
  1 ****   4 GROUP 4 **** **** 0

# MOE 2024.06 (io_trps.svl 2023.06)
