@<TRIPOS>MOLECULE
NONAME
59 61 1 0 0 
SMALL
USER_CHARGES


@<TRIPOS>ATOM
  1 S       -0.4850    -0.4700    -0.8530 S.o2  1 <1>   1.4470 
  2 O        0.9400    -0.2470    -0.9360 O.2   1 <1>  -0.6500 
  3 O       -1.1950    -0.7930    -2.0690 O.2   1 <1>  -0.6500 
  4 N       -1.1680     0.9580    -0.2460 N.am  1 <1>  -0.8490 
  5 C       -0.7780    -1.7420     0.4120 C.ar  1 <1>  -0.0090 
  6 C       -2.6450     1.0390    -0.2170 C.3   1 <1>   0.3370 
  7 C       -0.7500     2.1390    -0.9970 C.3   1 <1>   0.1960 
  8 C       -1.0620    -3.0550     0.0430 C.ar  1 <1>  -0.1500 
  9 C       -0.6950    -1.4440     1.7710 C.ar  1 <1>  -0.1500 
 10 C       -3.4740    -0.1180     0.4240 C.2   1 <1>   0.5690 
 11 C       -3.0820     1.7170    -1.5240 C.3   1 <1>  -0.1600 
 12 C       -1.8040     2.3450    -2.0800 C.3   1 <1>  -0.1600 
 13 C       -1.2720    -4.0430     0.9910 C.ar  1 <1>  -0.1500 
 14 C       -0.9060    -2.4150     2.7370 C.ar  1 <1>  -0.1500 
 15 O       -3.5160    -0.0720     1.6350 O.2   1 <1>  -0.5700 
 16 N       -4.1800    -1.1370    -0.1960 N.am  1 <1>  -0.6600 
 17 C       -1.1960    -3.7000     2.3250 C.ar  1 <1>   0.1900 
 18 C       -4.1980    -1.5370    -1.6520 C.3   1 <1>   0.3210 
 19 C       -5.1650    -1.8940     0.6410 C.3   1 <1>   0.1400 
 20 F       -1.4250    -4.6160     3.2250 F     1 <1>  -0.1900 
 21 C       -3.8630    -3.0120    -1.9530 C.2   1 <1>   0.0460 
 22 C       -4.4240    -2.8640     1.5790 C.3   1 <1>   0.3430 
 23 N       -4.3300    -4.0600    -1.2270 N.2   1 <1>  -0.5650 
 24 C       -3.1120    -3.4650    -2.9890 C.2   1 <1>  -0.3320 
 25 N       -5.3460    -3.7800     2.3300 N.4   1 <1>  -0.9590 
 26 C       -3.8490    -5.1010    -1.8260 C.2   1 <1>   0.0360 
 27 N       -3.0960    -4.8060    -2.9010 N.pl3 1 <1>   0.0330 
 28 C       -2.3930    -2.7420    -4.1190 C.3   1 <1>  -0.0600 
 29 C       -4.5840    -4.4760     3.4090 C.3   1 <1>   0.2630 
 30 C       -5.9640    -4.7770     1.4000 C.3   1 <1>   0.2630 
 31 H       -2.8160     1.8230     0.5010 H     1 <1>   0.0800 
 32 H        0.2410     2.0420    -1.4110 H     1 <1>   0.0800 
 33 H       -0.7530     2.9860    -0.3300 H     1 <1>   0.0800 
 34 H       -1.1170    -3.3060    -1.0030 H     1 <1>   0.1500 
 35 H       -0.4640    -0.4350     2.0750 H     1 <1>   0.1500 
 36 H       -3.8180     2.4720    -1.3070 H     1 <1>   0.0800 
 37 H       -3.5030     1.0530    -2.2470 H     1 <1>   0.0800 
 38 H       -1.4970     1.8300    -2.9740 H     1 <1>   0.0800 
 39 H       -1.9270     3.3890    -2.3080 H     1 <1>   0.0800 
 40 H       -1.4880    -5.0550     0.6970 H     1 <1>   0.1500 
 41 H       -0.8440    -2.1760     3.7840 H     1 <1>   0.1500 
 42 H       -3.5160    -0.9410    -2.2110 H     1 <1>   0.0800 
 43 H       -5.1800    -1.3390    -2.0430 H     1 <1>   0.0800 
 44 H       -5.8510    -2.4220     0.0050 H     1 <1>   0.0800 
 45 H       -5.7320    -1.1950     1.2310 H     1 <1>   0.0800 
 46 H       -3.8480    -2.2820     2.2790 H     1 <1>   0.0800 
 47 H       -3.7380    -3.4510     0.9940 H     1 <1>   0.0800 
 48 H       -6.0830    -3.2060     2.7640 H     1 <1>   0.4500 
 49 H       -4.0210    -6.1190    -1.5230 H     1 <1>   0.1500 
 50 H       -2.6270    -5.4650    -3.5310 H     1 <1>   0.2700 
 51 H       -2.6240    -1.6930    -4.1200 H     1 <1>   0.0800 
 52 H       -2.6870    -3.1490    -5.0700 H     1 <1>   0.0800 
 53 H       -1.3280    -2.8510    -4.0100 H     1 <1>   0.0800 
 54 H       -3.8120    -5.0940     2.9810 H     1 <1>   0.0800 
 55 H       -5.2430    -5.1000     3.9910 H     1 <1>   0.0800 
 56 H       -4.1220    -3.7550     4.0650 H     1 <1>   0.0800 
 57 H       -5.1960    -5.3540     0.9120 H     1 <1>   0.0800 
 58 H       -6.5420    -4.2790     0.6400 H     1 <1>   0.0800 
 59 H       -6.6120    -5.4470     1.9420 H     1 <1>   0.0800 
@<TRIPOS>BOND
  1   1   2  2   
  2   1   3  2   
  3   1   4  am  
  4   1   5  1   
  5   4   6  1   
  6   4   7  1   
  7   5   8  ar  
  8   5   9  ar  
  9   6  10  1   
 10   6  11  1   
 11   6  31  1   
 12   7  12  1   
 13   7  32  1   
 14   7  33  1   
 15   8  13  ar  
 16   8  34  1   
 17   9  14  ar  
 18   9  35  1   
 19  10  15  2   
 20  10  16  am  
 21  11  12  1   
 22  11  36  1   
 23  11  37  1   
 24  12  38  1   
 25  12  39  1   
 26  13  17  ar  
 27  13  40  1   
 28  14  17  ar  
 29  14  41  1   
 30  16  18  1   
 31  16  19  1   
 32  17  20  1   
 33  18  21  1   
 34  18  42  1   
 35  18  43  1   
 36  19  22  1   
 37  19  44  1   
 38  19  45  1   
 39  21  23  1   
 40  21  24  2   
 41  22  25  1   
 42  22  46  1   
 43  22  47  1   
 44  23  26  2   
 45  24  27  1   
 46  24  28  1   
 47  25  29  1   
 48  25  30  1   
 49  25  48  1   
 50  26  27  1   
 51  26  49  1   
 52  27  50  1   
 53  28  51  1   
 54  28  52  1   
 55  28  53  1   
 56  29  54  1   
 57  29  55  1   
 58  29  56  1   
 59  30  57  1   
 60  30  58  1   
 61  30  59  1   
@<TRIPOS>SUBSTRUCTURE
  1 ****  16 GROUP 4 **** **** 0

# MOE 2024.06 (io_trps.svl 2023.06)
