@<TRIPOS>MOLECULE
NONAME
59 63 1 0 0 
SMALL
USER_CHARGES


@<TRIPOS>ATOM
  1 O        2.7990     0.7250    -1.3740 O.3   1 <1>  -0.6800 
  2 C        2.5630     0.3550    -0.0570 C.3   1 <1>   0.4240 
  3 C        1.7100     1.4490     0.6170 C.ar  1 <1>  -0.1440 
  4 C        3.9360     0.2400     0.6360 C.3   1 <1>  -0.0800 
  5 C        1.8420    -1.0140    -0.1080 C.3   1 <1>  -0.1600 
  6 C        1.3680     2.6420    -0.0190 C.ar  1 <1>  -0.1500 
  7 C        1.2760     1.2630     1.9260 C.ar  1 <1>  -0.1500 
  8 C        4.8670    -0.8120     0.0040 C.3   1 <1>  -0.0800 
  9 C        4.6890     1.5660     0.5540 C.3   1 <1>   0.3430 
 10 C        2.7800    -2.2430    -0.1310 C.3   1 <1>  -0.1600 
 11 C        0.6170     3.6060     0.6300 C.ar  1 <1>  -0.1500 
 12 C        0.5250     2.2260     2.5770 C.ar  1 <1>  -0.1500 
 13 C        4.1380    -1.9300    -0.7700 C.3   1 <1>  -0.1600 
 14 C        5.7980     0.0050    -0.8830 C.3   1 <1>   0.3430 
 15 N        5.9640     1.2880    -0.1670 N.4   1 <1>  -0.9590 
 16 C        0.1930     3.4000     1.9290 C.ar  1 <1>  -0.1500 
 17 C        6.4040     2.3820    -1.0670 C.3   1 <1>   0.4860 
 18 C        6.2350     3.7530    -0.4140 C.ar  1 <1>  -0.1430 
 19 C        6.9060     4.1990     0.7330 C.ar  1 <1>  -0.1430 
 20 C        5.3300     4.5990    -1.0430 C.ar  1 <1>  -0.1500 
 21 C        6.6450     5.4800     1.2030 C.ar  1 <1>  -0.1500 
 22 C        7.9090     3.3890     1.5680 C.3   1 <1>   0.2390 
 23 C        5.0830     5.8680    -0.5600 C.ar  1 <1>  -0.1500 
 24 C        5.7440     6.3100     0.5670 C.ar  1 <1>  -0.1500 
 25 N        8.8030     2.5160     0.7800 N.pl3 1 <1>   0.3140 
 26 N        8.6580     1.1700     0.7720 N.2   1 <1>  -0.7070 
 27 C        9.8350     2.8970     0.0050 C.2   1 <1>  -0.3020 
 28 C        9.6260     0.7380     0.0190 C.2   1 <1>   0.1390 
 29 C       10.3910     1.7750    -0.4990 C.2   1 <1>  -0.1500 
 30 H        1.9340     0.7770    -1.8260 H     1 <1>   0.4000 
 31 H        3.7730    -0.0090     1.6690 H     1 <1>   0.0800 
 32 H        1.2040    -1.1250     0.7490 H     1 <1>   0.0800 
 33 H        1.1920    -1.0410    -0.9650 H     1 <1>   0.0800 
 34 H        1.6780     2.8550    -1.0260 H     1 <1>   0.1500 
 35 H        1.5160     0.3630     2.4650 H     1 <1>   0.1500 
 36 H        5.4560    -1.2590     0.7870 H     1 <1>   0.0800 
 37 H        4.8830     1.9650     1.5350 H     1 <1>   0.0800 
 38 H        4.1000     2.2820     0.0020 H     1 <1>   0.0800 
 39 H        2.9460    -2.5800     0.8780 H     1 <1>   0.0800 
 40 H        2.3010    -3.0490    -0.6620 H     1 <1>   0.0800 
 41 H        0.3590     4.5210     0.1240 H     1 <1>   0.1500 
 42 H        0.1950     2.0630     3.5890 H     1 <1>   0.1500 
 43 H        3.9710    -1.6360    -1.7930 H     1 <1>   0.0800 
 44 H        4.7460    -2.8180    -0.7860 H     1 <1>   0.0800 
 45 H        5.3140     0.1790    -1.8310 H     1 <1>   0.0800 
 46 H        6.7420    -0.4910    -1.0390 H     1 <1>   0.0800 
 47 H        6.7390     1.1440     0.5110 H     1 <1>   0.4500 
 48 H       -0.3930     4.1490     2.4330 H     1 <1>   0.1500 
 49 H        7.4360     2.2350    -1.3430 H     1 <1>   0.0800 
 50 H        5.8150     2.3540    -1.9680 H     1 <1>   0.0800 
 51 H        4.8000     4.2810    -1.9260 H     1 <1>   0.1500 
 52 H        7.1410     5.8550     2.0830 H     1 <1>   0.1500 
 53 H        7.3730     2.7770     2.2690 H     1 <1>   0.0800 
 54 H        8.5350     4.0540     2.1340 H     1 <1>   0.0800 
 55 H        4.3790     6.5140    -1.0580 H     1 <1>   0.1500 
 56 H        5.5560     7.3010     0.9470 H     1 <1>   0.1500 
 57 H       10.1200     3.9250    -0.1380 H     1 <1>   0.1500 
 58 H        9.8140    -0.3060    -0.1780 H     1 <1>   0.1500 
 59 H       11.2420     1.6740    -1.1510 H     1 <1>   0.1500 
@<TRIPOS>BOND
  1   1   2  1   
  2   1  30  1   
  3   2   3  1   
  4   2   4  1   
  5   2   5  1   
  6   3   6  ar  
  7   3   7  ar  
  8   4   8  1   
  9   4   9  1   
 10   4  31  1   
 11   5  10  1   
 12   5  32  1   
 13   5  33  1   
 14   6  11  ar  
 15   6  34  1   
 16   7  12  ar  
 17   7  35  1   
 18   8  13  1   
 19   8  14  1   
 20   8  36  1   
 21   9  15  1   
 22   9  37  1   
 23   9  38  1   
 24  10  13  1   
 25  10  39  1   
 26  10  40  1   
 27  11  16  ar  
 28  11  41  1   
 29  12  16  ar  
 30  12  42  1   
 31  13  43  1   
 32  13  44  1   
 33  14  15  1   
 34  14  45  1   
 35  14  46  1   
 36  15  17  1   
 37  15  47  1   
 38  16  48  1   
 39  17  18  1   
 40  17  49  1   
 41  17  50  1   
 42  18  19  ar  
 43  18  20  ar  
 44  19  21  ar  
 45  19  22  1   
 46  20  23  ar  
 47  20  51  1   
 48  21  24  ar  
 49  21  52  1   
 50  22  25  1   
 51  22  53  1   
 52  22  54  1   
 53  23  24  ar  
 54  23  55  1   
 55  24  56  1   
 56  25  26  1   
 57  25  27  1   
 58  26  28  2   
 59  27  29  2   
 60  27  57  1   
 61  28  29  1   
 62  28  58  1   
 63  29  59  1   
@<TRIPOS>SUBSTRUCTURE
  1 ****   9 GROUP 4 **** **** 0

# MOE 2024.06 (io_trps.svl 2023.06)
