@<TRIPOS>MOLECULE
NONAME
50 52 1 0 0 
SMALL
USER_CHARGES


@<TRIPOS>ATOM
  1 CL      -1.0840    -5.0830    -1.8350 Cl    1 <1>  -0.1770 
  2 C       -2.0340    -3.6240    -1.6730 C.ar  1 <1>   0.1770 
  3 C       -2.9260    -3.5200    -0.6070 C.ar  1 <1>  -0.1520 
  4 C       -1.9150    -2.5990    -2.5790 C.ar  1 <1>  -0.1500 
  5 N       -3.2070    -4.3910     0.4070 N.pl3 1 <1>   0.0330 
  6 C       -3.7180    -2.3900    -0.4590 C.ar  1 <1>   0.0000 
  7 C       -2.7020    -1.4490    -2.4290 C.ar  1 <1>  -0.1500 
  8 C       -4.1970    -3.8340     1.1830 C.2   1 <1>  -0.3320 
  9 C       -4.5190    -2.6140     0.6830 C.2   1 <1>  -0.1810 
 10 C       -3.5940    -1.3430    -1.3840 C.ar  1 <1>  -0.1500 
 11 C       -4.7800    -4.5600     2.3720 C.3   1 <1>   0.5230 
 12 C       -5.5390    -1.6040     1.1780 C.3   1 <1>  -0.0590 
 13 N       -5.3420    -5.7950     1.8070 N.4   1 <1>  -0.9590 
 14 C       -6.5740    -5.6210     0.9770 C.3   1 <1>   0.3430 
 15 C       -5.5410    -6.9540     2.7010 C.3   1 <1>   0.3430 
 16 C       -7.3490    -6.9450     1.1130 C.3   1 <1>   0.2000 
 17 C       -6.4290    -7.9030     1.8890 C.3   1 <1>  -0.0800 
 18 O       -8.4950    -6.7360     1.8700 O.3   1 <1>  -0.6800 
 19 C       -5.6290    -8.8760     0.9730 C.3   1 <1>  -0.0550 
 20 S       -4.5720    -8.1310    -0.2810 S.o2  1 <1>   1.3330 
 21 O       -5.4210    -7.4220    -1.2060 O.2   1 <1>  -0.6500 
 22 O       -3.5700    -7.3550     0.4250 O.2   1 <1>  -0.6500 
 23 N       -3.8300    -9.4340    -1.0600 N.am  1 <1>  -0.8490 
 24 C       -2.5300    -9.0730    -1.6430 C.3   1 <1>   0.1160 
 25 C       -4.6710   -10.0550    -2.0920 C.3   1 <1>   0.1160 
 26 H       -1.2250    -2.6770    -3.4000 H     1 <1>   0.1500 
 27 H       -2.7550    -5.3140     0.4930 H     1 <1>   0.2700 
 28 H       -2.6010    -0.6490    -3.1420 H     1 <1>   0.1500 
 29 H       -4.2030    -0.4650    -1.2650 H     1 <1>   0.1500 
 30 H       -5.5440    -3.9710     2.8520 H     1 <1>   0.0800 
 31 H       -3.9990    -4.7840     3.0810 H     1 <1>   0.0800 
 32 H       -6.2700    -1.4200     0.4110 H     1 <1>   0.0800 
 33 H       -5.0450    -0.6760     1.4100 H     1 <1>   0.0800 
 34 H       -6.0420    -1.9540     2.0600 H     1 <1>   0.0800 
 35 H       -4.6050    -6.0820     1.1380 H     1 <1>   0.4500 
 36 H       -7.1760    -4.7990     1.3280 H     1 <1>   0.0800 
 37 H       -6.3000    -5.4470    -0.0530 H     1 <1>   0.0800 
 38 H       -4.6030    -7.4130     2.9730 H     1 <1>   0.0800 
 39 H       -6.0620    -6.6420     3.5930 H     1 <1>   0.0800 
 40 H       -7.6610    -7.3300     0.1560 H     1 <1>   0.0800 
 41 H       -7.0070    -8.5140     2.5610 H     1 <1>   0.0800 
 42 H       -8.3180    -6.3900     2.7650 H     1 <1>   0.4000 
 43 H       -6.3330    -9.5190     0.4810 H     1 <1>   0.0800 
 44 H       -5.0210    -9.5060     1.5940 H     1 <1>   0.0800 
 45 H       -2.0790    -9.9330    -2.1100 H     1 <1>   0.0800 
 46 H       -1.8620    -8.7230    -0.8750 H     1 <1>   0.0800 
 47 H       -2.6500    -8.2950    -2.3800 H     1 <1>   0.0800 
 48 H       -4.1780   -10.9230    -2.4970 H     1 <1>   0.0800 
 49 H       -4.8650    -9.3590    -2.8920 H     1 <1>   0.0800 
 50 H       -5.6110   -10.3680    -1.6710 H     1 <1>   0.0800 
@<TRIPOS>BOND
  1   1   2  1   
  2   2   3  ar  
  3   2   4  ar  
  4   3   5  1   
  5   3   6  ar  
  6   4   7  ar  
  7   4  26  1   
  8   5   8  1   
  9   5  27  1   
 10   6   9  1   
 11   6  10  ar  
 12   7  10  ar  
 13   7  28  1   
 14   8   9  2   
 15   8  11  1   
 16   9  12  1   
 17  10  29  1   
 18  11  13  1   
 19  11  30  1   
 20  11  31  1   
 21  12  32  1   
 22  12  33  1   
 23  12  34  1   
 24  13  14  1   
 25  13  15  1   
 26  13  35  1   
 27  14  16  1   
 28  14  36  1   
 29  14  37  1   
 30  15  17  1   
 31  15  38  1   
 32  15  39  1   
 33  16  17  1   
 34  16  18  1   
 35  16  40  1   
 36  17  19  1   
 37  17  41  1   
 38  18  42  1   
 39  19  20  1   
 40  19  43  1   
 41  19  44  1   
 42  20  21  2   
 43  20  22  2   
 44  20  23  am  
 45  23  24  1   
 46  23  25  1   
 47  24  45  1   
 48  24  46  1   
 49  24  47  1   
 50  25  48  1   
 51  25  49  1   
 52  25  50  1   
@<TRIPOS>SUBSTRUCTURE
  1 ****   5 GROUP 4 **** **** 0

# MOE 2024.06 (io_trps.svl 2023.06)
