@<TRIPOS>MOLECULE
NONAME
41 42 1 0 0 
SMALL
USER_CHARGES


@<TRIPOS>ATOM
  1 CL      -1.1770    -0.2490    -1.6380 Cl    1 <1>  -0.1770 
  2 C       -2.3480    -1.2760    -0.8340 C.ar  1 <1>   0.1770 
  3 C       -3.5250    -0.7720    -0.2900 C.ar  1 <1>   0.1660 
  4 C       -2.0690    -2.6230    -0.7530 C.ar  1 <1>  -0.1500 
  5 N       -4.4290    -1.5280     0.3150 N.ar  1 <1>  -0.6200 
  6 C       -3.8800     0.7030    -0.3490 C.3   1 <1>  -0.0960 
  7 C       -3.0090    -3.4030    -0.1220 C.ar  1 <1>  -0.1500 
  8 C       -4.1720    -2.8310     0.3910 C.ar  1 <1>   0.4100 
  9 N       -5.1090    -3.6400     1.0050 N.pl3 1 <1>  -0.8380 
 10 C       -5.7360    -4.7530     0.2220 C.3   1 <1>   0.2090 
 11 C       -5.9940    -3.1070     2.0840 C.3   1 <1>   0.2090 
 12 C       -7.0940    -4.3160    -0.3560 C.3   1 <1>   0.2000 
 13 C       -7.3510    -2.6820     1.5040 C.3   1 <1>  -0.1600 
 14 O       -7.6460    -5.3790    -1.0550 O.3   1 <1>  -0.6800 
 15 C       -8.0670    -3.8420     0.7550 C.3   1 <1>  -0.1060 
 16 C       -8.3550    -5.0120     1.7250 C.2   1 <1>   0.9060 
 17 C       -9.4300    -3.3530     0.1830 C.3   1 <1>  -0.1600 
 18 O       -8.4420    -6.1670     1.2730 O.co2 1 <1>  -0.9000 
 19 O       -8.5140    -4.7890     2.9310 O.co2 1 <1>  -0.9000 
 20 C       -9.3710    -2.2390    -0.8790 C.3   1 <1>  -0.1600 
 21 C      -10.7790    -1.8580    -1.3440 C.3   1 <1>  -0.2400 
 22 H       -1.1630    -3.0310    -1.1630 H     1 <1>   0.1500 
 23 H       -3.0670     1.3080    -0.6990 H     1 <1>   0.0800 
 24 H       -4.1560     1.0410     0.6330 H     1 <1>   0.0800 
 25 H       -4.7210     0.8380    -1.0040 H     1 <1>   0.0800 
 26 H       -2.8640    -4.4600    -0.0090 H     1 <1>   0.1500 
 27 H       -5.0940    -5.0400    -0.5900 H     1 <1>   0.0800 
 28 H       -5.8690    -5.6020     0.8700 H     1 <1>   0.0800 
 29 H       -6.1340    -3.8670     2.8330 H     1 <1>   0.0800 
 30 H       -5.5230    -2.2640     2.5590 H     1 <1>   0.0800 
 31 H       -6.9130    -3.5280    -1.0630 H     1 <1>   0.0800 
 32 H       -7.9730    -2.3350     2.3100 H     1 <1>   0.0800 
 33 H       -7.1760    -1.8520     0.8460 H     1 <1>   0.0800 
 34 H       -8.0520    -5.9630    -0.3440 H     1 <1>   0.4000 
 35 H       -9.9350    -4.2030    -0.2450 H     1 <1>   0.0800 
 36 H      -10.0360    -3.0200     1.0080 H     1 <1>   0.0800 
 37 H       -8.8910    -1.3650    -0.4790 H     1 <1>   0.0800 
 38 H       -8.8070    -2.5770    -1.7310 H     1 <1>   0.0800 
 39 H      -11.3630    -1.5000    -0.5140 H     1 <1>   0.0800 
 40 H      -11.2730    -2.7120    -1.7720 H     1 <1>   0.0800 
 41 H      -10.7250    -1.0830    -2.0870 H     1 <1>   0.0800 
@<TRIPOS>BOND
  1   1   2  1   
  2   2   3  ar  
  3   2   4  ar  
  4   3   5  ar  
  5   3   6  1   
  6   4   7  ar  
  7   4  22  1   
  8   5   8  ar  
  9   6  23  1   
 10   6  24  1   
 11   6  25  1   
 12   7   8  ar  
 13   7  26  1   
 14   8   9  1   
 15   9  10  1   
 16   9  11  1   
 17  10  12  1   
 18  10  27  1   
 19  10  28  1   
 20  11  13  1   
 21  11  29  1   
 22  11  30  1   
 23  12  14  1   
 24  12  15  1   
 25  12  31  1   
 26  13  15  1   
 27  13  32  1   
 28  13  33  1   
 29  14  34  1   
 30  15  16  1   
 31  15  17  1   
 32  16  18  ar  
 33  16  19  ar  
 34  17  20  1   
 35  17  35  1   
 36  17  36  1   
 37  20  21  1   
 38  20  37  1   
 39  20  38  1   
 40  21  39  1   
 41  21  40  1   
 42  21  41  1   
@<TRIPOS>SUBSTRUCTURE
  1 ****   9 GROUP 4 **** **** 0

# MOE 2024.06 (io_trps.svl 2023.06)
