@<TRIPOS>MOLECULE
NONAME
38 40 1 0 0 
SMALL
USER_CHARGES


@<TRIPOS>ATOM
  1 O        1.5030    -1.0420     1.2150 O.3   1 <1>  -0.5600 
  2 C        0.3770    -1.8250     1.4820 C.3   1 <1>   0.1200 
  3 C        1.6020    -0.5380    -0.0740 C.3   1 <1>   0.1200 
  4 C        0.5800    -3.2650     0.9730 C.3   1 <1>   0.1900 
  5 C        1.8330    -1.6570    -1.1030 C.3   1 <1>  -0.0800 
  6 N        0.1840    -3.4850    -0.4620 N.3   1 <1>  -0.8100 
  7 C        2.0470    -3.7120     1.1860 C.3   1 <1>   0.3430 
  8 C        0.5220    -2.4130    -1.4180 C.3   1 <1>   0.1100 
  9 C        3.0700    -2.5180    -0.7570 C.3   1 <1>   0.3430 
 10 C       -1.1950    -3.9700    -0.6190 C.3   1 <1>   0.2900 
 11 N        2.7490    -3.8380    -0.1330 N.4   1 <1>  -0.9590 
 12 C       -1.2820    -5.3720    -0.0490 C.2   1 <1>  -0.3320 
 13 C        3.9150    -4.7610    -0.0740 C.3   1 <1>   0.2630 
 14 N       -2.4010    -5.9100     0.4760 N.pl3 1 <1>   0.0330 
 15 C       -0.3280    -6.3250     0.0510 C.2   1 <1>   0.0770 
 16 C       -2.0420    -7.1480     0.8780 C.2   1 <1>   0.0360 
 17 N       -0.8020    -7.4320     0.6460 N.2   1 <1>  -0.5650 
 18 H        0.2700    -1.8450     2.5520 H     1 <1>   0.0800 
 19 H       -0.5040    -1.3680     1.0650 H     1 <1>   0.0800 
 20 H        0.7130     0.0300    -0.2940 H     1 <1>   0.0800 
 21 H        2.4380     0.1420    -0.0780 H     1 <1>   0.0800 
 22 H       -0.0270    -3.8940     1.6020 H     1 <1>   0.0800 
 23 H        2.0860    -1.1310    -2.0060 H     1 <1>   0.0800 
 24 H        2.0310    -4.6710     1.6750 H     1 <1>   0.0800 
 25 H        2.5630    -3.0200     1.8310 H     1 <1>   0.0800 
 26 H        0.6040    -2.8550    -2.3970 H     1 <1>   0.0800 
 27 H       -0.2880    -1.7020    -1.4600 H     1 <1>   0.0800 
 28 H        3.7200    -1.9570    -0.1040 H     1 <1>   0.0800 
 29 H        3.6090    -2.7010    -1.6720 H     1 <1>   0.0800 
 30 H       -1.8750    -3.3060    -0.1100 H     1 <1>   0.0800 
 31 H       -1.4630    -4.0030    -1.6620 H     1 <1>   0.0800 
 32 H        1.9870    -4.2270    -0.7240 H     1 <1>   0.4500 
 33 H        4.6800    -4.3560     0.5690 H     1 <1>   0.0800 
 34 H        4.3280    -4.9040    -1.0590 H     1 <1>   0.0800 
 35 H        3.6100    -5.7200     0.3130 H     1 <1>   0.0800 
 36 H       -3.3340    -5.4920     0.5590 H     1 <1>   0.2700 
 37 H        0.6930    -6.2720    -0.2810 H     1 <1>   0.1500 
 38 H       -2.7380    -7.8230     1.3460 H     1 <1>   0.1500 
@<TRIPOS>BOND
  1   1   2  1   
  2   1   3  1   
  3   2   4  1   
  4   2  18  1   
  5   2  19  1   
  6   3   5  1   
  7   3  20  1   
  8   3  21  1   
  9   4   6  1   
 10   4   7  1   
 11   4  22  1   
 12   5   8  1   
 13   5   9  1   
 14   5  23  1   
 15   6   8  1   
 16   6  10  1   
 17   7  11  1   
 18   7  24  1   
 19   7  25  1   
 20   8  26  1   
 21   8  27  1   
 22   9  11  1   
 23   9  28  1   
 24   9  29  1   
 25  10  12  1   
 26  10  30  1   
 27  10  31  1   
 28  11  13  1   
 29  11  32  1   
 30  12  14  1   
 31  12  15  2   
 32  13  33  1   
 33  13  34  1   
 34  13  35  1   
 35  14  16  1   
 36  14  36  1   
 37  15  17  1   
 38  15  37  1   
 39  16  17  2   
 40  16  38  1   
@<TRIPOS>SUBSTRUCTURE
  1 ****   6 GROUP 4 **** **** 0

# MOE 2024.06 (io_trps.svl 2023.06)
