@<TRIPOS>MOLECULE
NONAME
50 53 1 0 0 
SMALL
USER_CHARGES


@<TRIPOS>ATOM
  1 O        0.8520     0.0770    -1.8190 O.2   1 <1>  -0.5700 
  2 C        1.6340    -0.5130    -1.1170 C.2   1 <1>   0.5690 
  3 N        2.4320     0.1620    -0.2120 N.am  1 <1>  -0.6600 
  4 C        1.6780    -2.0140    -1.3070 C.3   1 <1>   0.1570 
  5 C        3.4410    -0.4780     0.6940 C.3   1 <1>   0.1400 
  6 C        2.1560     1.6060     0.0660 C.3   1 <1>   0.1400 
  7 N        1.0290    -2.6650    -0.1680 N.pl3 1 <1>   0.3140 
  8 C        4.8650    -0.3960     0.1090 C.3   1 <1>   0.3430 
  9 C        3.4320     2.4410     0.2100 C.3   1 <1>  -0.1600 
 10 N        1.6700    -3.4790     0.6410 N.2   1 <1>  -0.4180 
 11 C       -0.2050    -2.5440     0.2830 C.2   1 <1>   0.0360 
 12 N        5.4360     0.9940     0.0160 N.4   1 <1>  -0.9590 
 13 C        4.5700     1.9830    -0.7000 C.3   1 <1>   0.3430 
 14 N        0.8270    -3.8270     1.5450 N.2   1 <1>   0.0000 
 15 N       -0.3520    -3.2480     1.3370 N.2   1 <1>  -0.3380 
 16 C        6.7990     0.9520    -0.5860 C.3   1 <1>   0.4860 
 17 C        7.4960     2.2750    -0.3240 C.ar  1 <1>  -0.1440 
 18 C        7.9450     2.5940     0.9500 C.ar  1 <1>  -0.1500 
 19 C        7.7000     3.1770    -1.3580 C.ar  1 <1>  -0.1500 
 20 C        8.5790     3.8010     1.1850 C.ar  1 <1>  -0.1500 
 21 C        8.3360     4.3820    -1.1210 C.ar  1 <1>  -0.1500 
 22 C        8.7840     4.7120     0.1540 C.ar  1 <1>  -0.0230 
 23 N        9.4440     5.9460     0.3970 N.pl3 1 <1>   0.3260 
 24 C        9.1220     7.1860    -0.0600 C.2   1 <1>   0.0360 
 25 C       10.5510     6.1660     1.1410 C.2   1 <1>  -0.3020 
 26 N        9.9150     8.1310     0.3270 N.2   1 <1>  -0.5650 
 27 C       10.8200     7.4870     1.0870 C.2   1 <1>   0.0770 
 28 H        2.6910    -2.3560    -1.3870 H     1 <1>   0.0800 
 29 H        1.1480    -2.2830    -2.2020 H     1 <1>   0.0800 
 30 H        3.2030    -1.5120     0.8470 H     1 <1>   0.0800 
 31 H        3.4120    -0.0150     1.6650 H     1 <1>   0.0800 
 32 H        1.5630     1.6880     0.9630 H     1 <1>   0.0800 
 33 H        1.5710     2.0270    -0.7360 H     1 <1>   0.0800 
 34 H        4.8510    -0.8450    -0.8700 H     1 <1>   0.0800 
 35 H        5.5120    -0.9970     0.7280 H     1 <1>   0.0800 
 36 H        3.7480     2.4710     1.2370 H     1 <1>   0.0800 
 37 H        3.1760     3.4520    -0.0570 H     1 <1>   0.0800 
 38 H       -0.9600    -1.9330    -0.1780 H     1 <1>   0.1500 
 39 H        5.5670     1.3650     0.9650 H     1 <1>   0.4500 
 40 H        5.1570     2.8510    -0.9560 H     1 <1>   0.0800 
 41 H        4.1760     1.5630    -1.6120 H     1 <1>   0.0800 
 42 H        6.7350     0.7700    -1.6460 H     1 <1>   0.0800 
 43 H        7.3790     0.1600    -0.1390 H     1 <1>   0.0800 
 44 H        7.8180     1.9110     1.7730 H     1 <1>   0.1500 
 45 H        7.3760     2.9530    -2.3620 H     1 <1>   0.1500 
 46 H        8.9210     4.0390     2.1790 H     1 <1>   0.1500 
 47 H        8.4950     5.0690    -1.9360 H     1 <1>   0.1500 
 48 H        8.2660     7.3420    -0.6900 H     1 <1>   0.1500 
 49 H       11.0750     5.3800     1.6510 H     1 <1>   0.1500 
 50 H       11.6300     8.0210     1.5600 H     1 <1>   0.1500 
@<TRIPOS>BOND
  1   1   2  2   
  2   2   3  am  
  3   2   4  1   
  4   3   5  1   
  5   3   6  1   
  6   4   7  1   
  7   4  28  1   
  8   4  29  1   
  9   5   8  1   
 10   5  30  1   
 11   5  31  1   
 12   6   9  1   
 13   6  32  1   
 14   6  33  1   
 15   7  10  1   
 16   7  11  1   
 17   8  12  1   
 18   8  34  1   
 19   8  35  1   
 20   9  13  1   
 21   9  36  1   
 22   9  37  1   
 23  10  14  2   
 24  11  15  2   
 25  11  38  1   
 26  12  13  1   
 27  12  16  1   
 28  12  39  1   
 29  13  40  1   
 30  13  41  1   
 31  14  15  1   
 32  16  17  1   
 33  16  42  1   
 34  16  43  1   
 35  17  18  ar  
 36  17  19  ar  
 37  18  20  ar  
 38  18  44  1   
 39  19  21  ar  
 40  19  45  1   
 41  20  22  ar  
 42  20  46  1   
 43  21  22  ar  
 44  21  47  1   
 45  22  23  1   
 46  23  24  1   
 47  23  25  1   
 48  24  26  2   
 49  24  48  1   
 50  25  27  2   
 51  25  49  1   
 52  26  27  1   
 53  27  50  1   
@<TRIPOS>SUBSTRUCTURE
  1 ****  12 GROUP 4 **** **** 0

# MOE 2024.06 (io_trps.svl 2023.06)
