@<TRIPOS>MOLECULE
NONAME
41 43 1 0 0 
SMALL
USER_CHARGES


@<TRIPOS>ATOM
  1 CL      -2.7250    -1.9940     3.1550 Cl    1 <1>  -0.1770 
  2 C       -2.6480    -1.9940     1.4120 C.ar  1 <1>   0.1770 
  3 C       -2.2670    -0.8480     0.7350 C.ar  1 <1>   0.1600 
  4 C       -2.9690    -3.1360     0.7180 C.ar  1 <1>  -0.1500 
  5 N       -2.1810    -0.7650    -0.5860 N.ar  1 <1>  -0.6200 
  6 C       -2.8970    -3.0800    -0.6680 C.ar  1 <1>   0.0860 
  7 C       -2.4870    -1.8770    -1.2430 C.ar  1 <1>   0.1600 
  8 C       -3.2150    -4.2160    -1.5020 C.2   1 <1>   0.5440 
  9 O       -2.4810    -4.4890    -2.4310 O.2   1 <1>  -0.5700 
 10 N       -4.3300    -4.9850    -1.2670 N.am  1 <1>  -0.6600 
 11 C       -4.3690    -6.4350    -1.6330 C.3   1 <1>   0.1400 
 12 C       -5.6280    -4.4290    -0.7780 C.3   1 <1>   0.1400 
 13 C       -4.7500    -7.3340    -0.4260 C.3   1 <1>  -0.1060 
 14 C       -6.4130    -5.4570     0.0470 C.3   1 <1>  -0.1600 
 15 C       -5.6630    -8.4240    -1.0100 C.2   1 <1>   0.9060 
 16 C       -5.4600    -6.4780     0.6650 C.3   1 <1>   0.2000 
 17 C       -3.5050    -8.0500     0.1680 C.3   1 <1>  -0.0650 
 18 O       -5.2790    -9.0380    -2.0120 O.co2 1 <1>  -0.9000 
 19 O       -6.7580    -8.6850    -0.4890 O.co2 1 <1>  -0.9000 
 20 O       -6.1690    -7.2630     1.5470 O.3   1 <1>  -0.6800 
 21 C       -2.4060    -7.1490     0.7620 C.3   1 <1>  -0.1950 
 22 C       -1.3050    -6.5750    -0.0720 C.3   1 <1>  -0.2000 
 23 C       -1.0170    -7.6870     0.8940 C.3   1 <1>  -0.2000 
 24 H       -2.0240     0.0310     1.3060 H     1 <1>   0.1500 
 25 H       -3.2610    -4.0380     1.2260 H     1 <1>   0.1500 
 26 H       -2.4110    -1.8440    -2.3180 H     1 <1>   0.1500 
 27 H       -5.1010    -6.5480    -2.4160 H     1 <1>   0.0800 
 28 H       -3.4290    -6.7540    -2.0480 H     1 <1>   0.0800 
 29 H       -5.4490    -3.5590    -0.1730 H     1 <1>   0.0800 
 30 H       -6.2210    -4.1250    -1.6240 H     1 <1>   0.0800 
 31 H       -7.1160    -5.9640    -0.5910 H     1 <1>   0.0800 
 32 H       -6.9650    -4.9510     0.8180 H     1 <1>   0.0800 
 33 H       -4.7410    -5.9380     1.2490 H     1 <1>   0.0800 
 34 H       -3.8420    -8.7190     0.9400 H     1 <1>   0.0800 
 35 H       -3.0690    -8.6650    -0.6020 H     1 <1>   0.0800 
 36 H       -6.6280    -7.9480     0.9690 H     1 <1>   0.4000 
 37 H       -2.7490    -6.5820     1.6090 H     1 <1>   0.1000 
 38 H       -1.2830    -6.7880    -1.1270 H     1 <1>   0.1000 
 39 H       -0.9500    -5.5840     0.1510 H     1 <1>   0.1000 
 40 H       -0.4610    -7.4670     1.7880 H     1 <1>   0.1000 
 41 H       -0.7950    -8.6630     0.4980 H     1 <1>   0.1000 
@<TRIPOS>BOND
  1   1   2  1   
  2   2   3  ar  
  3   2   4  ar  
  4   3   5  ar  
  5   3  24  1   
  6   4   6  ar  
  7   4  25  1   
  8   5   7  ar  
  9   6   7  ar  
 10   6   8  1   
 11   7  26  1   
 12   8   9  2   
 13   8  10  am  
 14  10  11  1   
 15  10  12  1   
 16  11  13  1   
 17  11  27  1   
 18  11  28  1   
 19  12  14  1   
 20  12  29  1   
 21  12  30  1   
 22  13  15  1   
 23  13  16  1   
 24  13  17  1   
 25  14  16  1   
 26  14  31  1   
 27  14  32  1   
 28  15  18  ar  
 29  15  19  ar  
 30  16  20  1   
 31  16  33  1   
 32  17  21  1   
 33  17  34  1   
 34  17  35  1   
 35  20  36  1   
 36  21  22  1   
 37  21  23  1   
 38  21  37  1   
 39  22  23  1   
 40  22  38  1   
 41  22  39  1   
 42  23  40  1   
 43  23  41  1   
@<TRIPOS>SUBSTRUCTURE
  1 ****  10 GROUP 4 **** **** 0

# MOE 2024.06 (io_trps.svl 2023.06)
