@<TRIPOS>MOLECULE
NONAME
52 55 1 0 0 
SMALL
USER_CHARGES


@<TRIPOS>ATOM
  1 O       -0.7970     0.3830    -0.9160 O.2   1 <1>  -0.5700 
  2 C       -1.7710     0.9680    -0.4790 C.2   1 <1>   0.6900 
  3 N       -3.0370     0.5790    -0.8260 N.am  1 <1>  -0.6600 
  4 N       -1.6140     2.0230     0.3570 N.am  1 <1>  -0.7300 
  5 C       -3.2650    -0.3430    -1.9710 C.3   1 <1>   0.1400 
  6 C       -4.2170     0.7230     0.0660 C.3   1 <1>   0.1400 
  7 C       -0.3210     2.6020     0.7740 C.3   1 <1>   0.1400 
  8 C       -3.6120    -1.7310    -1.4320 C.3   1 <1>  -0.1600 
  9 C       -4.5680    -0.6510     0.6380 C.3   1 <1>  -0.1600 
 10 C       -0.2410     4.0480     0.2850 C.3   1 <1>  -0.1600 
 11 C       -4.8050    -1.6830    -0.4730 C.3   1 <1>   0.4600 
 12 C        1.0870     4.6980     0.6920 C.3   1 <1>  -0.1600 
 13 O       -5.9190    -1.2830    -1.2430 O.3   1 <1>  -0.5600 
 14 C       -5.0650    -3.0660     0.1110 C.2   1 <1>  -0.3320 
 15 C        1.1650     6.1460     0.2010 C.3   1 <1>  -0.2400 
 16 C       -7.2060    -1.5850    -0.7570 C.3   1 <1>   0.1200 
 17 N       -4.1670    -3.8410     0.7910 N.pl3 1 <1>   0.0330 
 18 C       -6.2410    -3.7190     0.0250 C.2   1 <1>  -0.1810 
 19 C       -7.4290    -3.1040    -0.6710 C.3   1 <1>   0.0210 
 20 C       -4.7950    -5.0120     1.1380 C.ar  1 <1>  -0.1520 
 21 C       -6.1050    -4.9670     0.6670 C.ar  1 <1>   0.0000 
 22 C       -4.3220    -6.1270     1.8350 C.ar  1 <1>  -0.1500 
 23 C       -6.9580    -6.0520     0.8920 C.ar  1 <1>  -0.1500 
 24 C       -5.1730    -7.1870     2.0500 C.ar  1 <1>  -0.1500 
 25 C       -6.4910    -7.1490     1.5780 C.ar  1 <1>  -0.1500 
 26 H       -2.4350     2.5970     0.5210 H     1 <1>   0.3700 
 27 H       -2.3880    -0.3980    -2.5930 H     1 <1>   0.0800 
 28 H       -4.0770     0.0330    -2.5710 H     1 <1>   0.0800 
 29 H       -5.0450     1.1090    -0.5050 H     1 <1>   0.0800 
 30 H       -4.0120     1.4050     0.8710 H     1 <1>   0.0800 
 31 H        0.4930     2.0280     0.3600 H     1 <1>   0.0800 
 32 H       -0.2480     2.5660     1.8470 H     1 <1>   0.0800 
 33 H       -2.7480    -2.1180    -0.9250 H     1 <1>   0.0800 
 34 H       -3.8380    -2.3960    -2.2460 H     1 <1>   0.0800 
 35 H       -5.4330    -0.5810     1.2690 H     1 <1>   0.0800 
 36 H       -3.7520    -0.9780     1.2550 H     1 <1>   0.0800 
 37 H       -1.0560     4.6120     0.7030 H     1 <1>   0.0800 
 38 H       -0.3260     4.0580    -0.7880 H     1 <1>   0.0800 
 39 H        1.9060     4.1390     0.2720 H     1 <1>   0.0800 
 40 H        1.1870     4.6820     1.7650 H     1 <1>   0.0800 
 41 H        1.0890     6.1840    -0.8720 H     1 <1>   0.0800 
 42 H        2.1030     6.5840     0.4920 H     1 <1>   0.0800 
 43 H        0.3680     6.7320     0.6250 H     1 <1>   0.0800 
 44 H       -7.9210    -1.1430    -1.4280 H     1 <1>   0.0800 
 45 H       -7.3200    -1.1370     0.2130 H     1 <1>   0.0800 
 46 H       -3.1900    -3.6090     0.9950 H     1 <1>   0.2700 
 47 H       -7.5240    -3.5180    -1.6580 H     1 <1>   0.0800 
 48 H       -8.3280    -3.3090    -0.1210 H     1 <1>   0.0800 
 49 H       -3.3080    -6.1470     2.1920 H     1 <1>   0.1500 
 50 H       -7.9660    -6.0100     0.5230 H     1 <1>   0.1500 
 51 H       -4.8330    -8.0570     2.5830 H     1 <1>   0.1500 
 52 H       -7.1360    -7.9910     1.7590 H     1 <1>   0.1500 
@<TRIPOS>BOND
  1   1   2  2   
  2   2   3  am  
  3   2   4  am  
  4   3   5  1   
  5   3   6  1   
  6   4   7  1   
  7   4  26  1   
  8   5   8  1   
  9   5  27  1   
 10   5  28  1   
 11   6   9  1   
 12   6  29  1   
 13   6  30  1   
 14   7  10  1   
 15   7  31  1   
 16   7  32  1   
 17   8  11  1   
 18   8  33  1   
 19   8  34  1   
 20   9  11  1   
 21   9  35  1   
 22   9  36  1   
 23  10  12  1   
 24  10  37  1   
 25  10  38  1   
 26  11  13  1   
 27  11  14  1   
 28  12  15  1   
 29  12  39  1   
 30  12  40  1   
 31  13  16  1   
 32  14  17  1   
 33  14  18  2   
 34  15  41  1   
 35  15  42  1   
 36  15  43  1   
 37  16  19  1   
 38  16  44  1   
 39  16  45  1   
 40  17  20  1   
 41  17  46  1   
 42  18  19  1   
 43  18  21  1   
 44  19  47  1   
 45  19  48  1   
 46  20  21  ar  
 47  20  22  ar  
 48  21  23  ar  
 49  22  24  ar  
 50  22  49  1   
 51  23  25  ar  
 52  23  50  1   
 53  24  25  ar  
 54  24  51  1   
 55  25  52  1   
@<TRIPOS>SUBSTRUCTURE
  1 ****   9 GROUP 4 **** **** 0

# MOE 2024.06 (io_trps.svl 2023.06)
