@<TRIPOS>MOLECULE
NONAME
48 50 1 0 0 
SMALL
USER_CHARGES


@<TRIPOS>ATOM
  1 O       -2.3530     0.7550    -1.8190 O.2   1 <1>  -0.5700 
  2 C       -2.0440     0.7910    -0.6520 C.2   1 <1>   0.5690 
  3 N       -1.9980    -0.3380     0.0980 N.am  1 <1>  -0.7300 
  4 C       -1.7120     2.1260     0.0120 C.3   1 <1>  -0.0190 
  5 C       -2.3060    -1.6930    -0.4070 C.3   1 <1>   0.2200 
  6 C       -2.9590     3.0240     0.1080 C.3   1 <1>  -0.1600 
  7 C       -0.5740     2.8590    -0.7240 C.3   1 <1>  -0.1600 
  8 C       -3.7190    -2.0670     0.0050 C.3   1 <1>  -0.0800 
  9 C       -1.4780    -2.7230     0.3520 C.3   1 <1>   0.1200 
 10 C       -2.6350     4.3720     0.7680 C.3   1 <1>  -0.1600 
 11 C       -0.2510     4.2070    -0.0620 C.3   1 <1>  -0.1600 
 12 C       -3.5130    -2.6020     1.4270 C.3   1 <1>   0.1200 
 13 C       -4.3190    -3.1260    -0.9390 C.3   1 <1>  -0.0170 
 14 O       -2.1680    -2.9700     1.5410 O.3   1 <1>  -0.5600 
 15 C       -1.4990     5.0980     0.0300 C.3   1 <1>  -0.0800 
 16 C       -5.7480    -3.4720    -0.5490 C.ar  1 <1>  -0.1440 
 17 C       -1.1640     6.4190     0.7310 C.3   1 <1>  -0.2400 
 18 C       -6.0740    -4.6580     0.0780 C.ar  1 <1>  -0.1500 
 19 C       -6.7960    -2.6110    -0.8060 C.ar  1 <1>  -0.1500 
 20 C       -7.3930    -4.9160     0.4130 C.ar  1 <1>   0.1600 
 21 C       -8.0810    -2.9660    -0.4300 C.ar  1 <1>   0.1600 
 22 N       -8.4050    -4.0970     0.1750 N.ar  1 <1>  -0.6200 
 23 H       -1.7820    -0.2960     1.0960 H     1 <1>   0.3700 
 24 H       -1.3740     1.9230     1.0130 H     1 <1>   0.0800 
 25 H       -2.1440    -1.7410    -1.4710 H     1 <1>   0.0800 
 26 H       -3.3460     3.1980    -0.8820 H     1 <1>   0.0800 
 27 H       -3.7240     2.5210     0.6740 H     1 <1>   0.0800 
 28 H        0.3070     2.2410    -0.7330 H     1 <1>   0.0800 
 29 H       -0.8650     3.0280    -1.7470 H     1 <1>   0.0800 
 30 H       -4.3620    -1.2050     0.0070 H     1 <1>   0.0800 
 31 H       -0.4840    -2.3770     0.5740 H     1 <1>   0.0800 
 32 H       -1.4270    -3.6480    -0.1940 H     1 <1>   0.0800 
 33 H       -2.3500     4.2060     1.7930 H     1 <1>   0.0800 
 34 H       -3.5180     4.9880     0.7670 H     1 <1>   0.0800 
 35 H        0.5100     4.7080    -0.6350 H     1 <1>   0.0800 
 36 H        0.1420     4.0320     0.9250 H     1 <1>   0.0800 
 37 H       -4.1280    -3.4560     1.6510 H     1 <1>   0.0800 
 38 H       -3.6990    -1.8300     2.1530 H     1 <1>   0.0800 
 39 H       -3.7170    -4.0180    -0.9330 H     1 <1>   0.0800 
 40 H       -4.3230    -2.7440    -1.9450 H     1 <1>   0.0800 
 41 H       -1.8320     5.3210    -0.9710 H     1 <1>   0.0800 
 42 H       -0.8260     6.2410     1.7360 H     1 <1>   0.0800 
 43 H       -2.0320     7.0520     0.7660 H     1 <1>   0.0800 
 44 H       -0.3890     6.9380     0.1940 H     1 <1>   0.0800 
 45 H       -5.3160    -5.3840     0.3110 H     1 <1>   0.1500 
 46 H       -6.6260    -1.6700    -1.2960 H     1 <1>   0.1500 
 47 H       -7.6280    -5.8450     0.9030 H     1 <1>   0.1500 
 48 H       -8.8860    -2.2820    -0.6390 H     1 <1>   0.1500 
@<TRIPOS>BOND
  1   1   2  2   
  2   2   3  am  
  3   2   4  1   
  4   3   5  1   
  5   3  23  1   
  6   4   6  1   
  7   4   7  1   
  8   4  24  1   
  9   5   8  1   
 10   5   9  1   
 11   5  25  1   
 12   6  10  1   
 13   6  26  1   
 14   6  27  1   
 15   7  11  1   
 16   7  28  1   
 17   7  29  1   
 18   8  12  1   
 19   8  13  1   
 20   8  30  1   
 21   9  14  1   
 22   9  31  1   
 23   9  32  1   
 24  10  15  1   
 25  10  33  1   
 26  10  34  1   
 27  11  15  1   
 28  11  35  1   
 29  11  36  1   
 30  12  14  1   
 31  12  37  1   
 32  12  38  1   
 33  13  16  1   
 34  13  39  1   
 35  13  40  1   
 36  15  17  1   
 37  15  41  1   
 38  16  18  ar  
 39  16  19  ar  
 40  17  42  1   
 41  17  43  1   
 42  17  44  1   
 43  18  20  ar  
 44  18  45  1   
 45  19  21  ar  
 46  19  46  1   
 47  20  22  ar  
 48  20  47  1   
 49  21  22  ar  
 50  21  48  1   
@<TRIPOS>SUBSTRUCTURE
  1 ****   3 GROUP 4 **** **** 0

# MOE 2024.06 (io_trps.svl 2023.06)
