@<TRIPOS>MOLECULE
NONAME
61 64 1 0 0 
SMALL
USER_CHARGES


@<TRIPOS>ATOM
  1 O       -0.7980    -0.7630     1.5220 O.2   1 <1>  -0.5700 
  2 C       -0.7660    -1.5910     0.6340 C.2   1 <1>   0.7800 
  3 O        0.3880    -2.1610     0.2880 O.3   1 <1>  -0.4300 
  4 N       -1.8990    -1.9950    -0.0310 N.am  1 <1>  -0.6600 
  5 C        1.6110    -1.8090     0.8920 C.3   1 <1>   0.2000 
  6 C       -1.8960    -3.0410    -1.0790 C.3   1 <1>   0.1400 
  7 C       -3.2260    -1.4170     0.2850 C.3   1 <1>   0.1400 
  8 C        2.1690    -0.5780     0.1780 C.3   1 <1>  -0.2400 
  9 C        2.5450    -3.0080     0.7480 C.3   1 <1>  -0.2400 
 10 C       -2.7870    -4.1940    -0.6110 C.3   1 <1>  -0.1600 
 11 C       -4.1310    -2.5450     0.7810 C.3   1 <1>  -0.1600 
 12 C       -4.1870    -3.6940    -0.2310 C.3   1 <1>   0.4230 
 13 N       -4.9920    -4.7780     0.3760 N.4   1 <1>  -0.9060 
 14 C       -5.3700    -5.9220    -0.5000 C.3   1 <1>   0.4230 
 15 C       -6.6880    -6.4960     0.0140 C.3   1 <1>  -0.0800 
 16 C       -4.4340    -7.0920    -0.2120 C.3   1 <1>   0.1200 
 17 C       -6.2330    -7.4680     1.1190 C.3   1 <1>   0.1200 
 18 C       -7.4780    -7.2190    -1.0990 C.3   1 <1>  -0.0170 
 19 O       -4.8380    -7.5070     1.0480 O.3   1 <1>  -0.5600 
 20 C       -8.8120    -7.7310    -0.5670 C.ar  1 <1>  -0.1440 
 21 C       -9.9180    -6.8760    -0.3380 C.ar  1 <1>   0.0000 
 22 C       -8.9710    -9.0560    -0.2820 C.ar  1 <1>  -0.1500 
 23 C      -11.0870    -7.4510     0.2200 C.ar  1 <1>   0.3100 
 24 C       -9.9400    -5.4920    -0.6310 C.ar  1 <1>  -0.1500 
 25 C      -10.1790    -9.5250     0.2470 C.ar  1 <1>   0.1600 
 26 N      -11.1990    -8.7710     0.5050 N.ar  1 <1>  -0.6200 
 27 C      -12.1890    -6.6250     0.4910 C.ar  1 <1>  -0.1500 
 28 C      -11.0340    -4.7160    -0.3610 C.ar  1 <1>  -0.1500 
 29 C      -12.1730    -5.2860     0.2130 C.ar  1 <1>  -0.1500 
 30 H        1.4430    -1.6030     1.9380 H     1 <1>   0.0800 
 31 H       -2.2680    -2.6190    -1.9980 H     1 <1>   0.0800 
 32 H       -0.8980    -3.4030    -1.2650 H     1 <1>   0.0800 
 33 H       -3.1420    -0.6550     1.0430 H     1 <1>   0.0800 
 34 H       -3.6330    -0.9580    -0.6010 H     1 <1>   0.0800 
 35 H        2.3000    -0.7770    -0.8710 H     1 <1>   0.0800 
 36 H        3.1210    -0.3120     0.5990 H     1 <1>   0.0800 
 37 H        1.5030     0.2560     0.3040 H     1 <1>   0.0800 
 38 H        2.7030    -3.2400    -0.2900 H     1 <1>   0.0800 
 39 H        2.1250    -3.8620     1.2470 H     1 <1>   0.0800 
 40 H        3.4950    -2.7870     1.1990 H     1 <1>   0.0800 
 41 H       -2.3100    -4.6570     0.2350 H     1 <1>   0.0800 
 42 H       -2.8450    -4.9070    -1.4120 H     1 <1>   0.0800 
 43 H       -5.1140    -2.1430     0.9440 H     1 <1>   0.0800 
 44 H       -3.7400    -2.8900     1.7230 H     1 <1>   0.0800 
 45 H       -4.6780    -3.3340    -1.1220 H     1 <1>   0.0800 
 46 H       -5.8410    -4.3710     0.7800 H     1 <1>   0.4500 
 47 H       -4.4820    -5.1910     1.1730 H     1 <1>   0.4500 
 48 H       -5.4070    -5.6410    -1.5400 H     1 <1>   0.0800 
 49 H       -7.3180    -5.7310     0.4310 H     1 <1>   0.0800 
 50 H       -3.3910    -6.8320    -0.1860 H     1 <1>   0.0800 
 51 H       -4.5860    -7.9050    -0.9020 H     1 <1>   0.0800 
 52 H       -6.6060    -8.4690     0.9750 H     1 <1>   0.0800 
 53 H       -6.5130    -7.1260     2.1020 H     1 <1>   0.0800 
 54 H       -6.9080    -8.0480    -1.4810 H     1 <1>   0.0800 
 55 H       -7.6600    -6.5590    -1.9300 H     1 <1>   0.0800 
 56 H       -8.1880    -9.7740    -0.4460 H     1 <1>   0.1500 
 57 H       -9.0870    -5.0310    -1.0860 H     1 <1>   0.1500 
 58 H      -10.2630   -10.5780     0.4590 H     1 <1>   0.1500 
 59 H      -13.0570    -7.0870     0.9250 H     1 <1>   0.1500 
 60 H      -11.0430    -3.6630    -0.5880 H     1 <1>   0.1500 
 61 H      -13.0280    -4.6670     0.4250 H     1 <1>   0.1500 
@<TRIPOS>BOND
  1   1   2  2   
  2   2   3  1   
  3   2   4  am  
  4   3   5  1   
  5   4   6  1   
  6   4   7  1   
  7   5   8  1   
  8   5   9  1   
  9   5  30  1   
 10   6  10  1   
 11   6  31  1   
 12   6  32  1   
 13   7  11  1   
 14   7  33  1   
 15   7  34  1   
 16   8  35  1   
 17   8  36  1   
 18   8  37  1   
 19   9  38  1   
 20   9  39  1   
 21   9  40  1   
 22  10  12  1   
 23  10  41  1   
 24  10  42  1   
 25  11  12  1   
 26  11  43  1   
 27  11  44  1   
 28  12  13  1   
 29  12  45  1   
 30  13  14  1   
 31  13  46  1   
 32  13  47  1   
 33  14  15  1   
 34  14  16  1   
 35  14  48  1   
 36  15  17  1   
 37  15  18  1   
 38  15  49  1   
 39  16  19  1   
 40  16  50  1   
 41  16  51  1   
 42  17  19  1   
 43  17  52  1   
 44  17  53  1   
 45  18  20  1   
 46  18  54  1   
 47  18  55  1   
 48  20  21  ar  
 49  20  22  ar  
 50  21  23  ar  
 51  21  24  ar  
 52  22  25  ar  
 53  22  56  1   
 54  23  26  ar  
 55  23  27  ar  
 56  24  28  ar  
 57  24  57  1   
 58  25  26  ar  
 59  25  58  1   
 60  27  29  ar  
 61  27  59  1   
 62  28  29  ar  
 63  28  60  1   
 64  29  61  1   
@<TRIPOS>SUBSTRUCTURE
  1 ****  13 GROUP 4 **** **** 0

# MOE 2024.06 (io_trps.svl 2023.06)
