@<TRIPOS>MOLECULE
NONAME
39 41 1 0 0 
SMALL
USER_CHARGES


@<TRIPOS>ATOM
  1 O       -0.3050     0.0790    -1.0040 O.2   1 <1>  -0.5700 
  2 C       -1.3030     0.6970    -0.7100 C.2   1 <1>   0.6300 
  3 N       -2.5180     0.0800    -0.5740 N.am  1 <1>  -0.6600 
  4 C       -1.1660     2.1890    -0.4750 C.3   1 <1>   0.0000 
  5 C       -3.7620     0.7140    -0.0630 C.3   1 <1>   0.1400 
  6 C       -2.6890    -1.3880    -0.6720 C.3   1 <1>   0.1400 
  7 C       -0.8780     2.4290     0.9910 C.2   1 <1>   0.6300 
  8 C       -0.4620     3.0430    -1.5000 C.3   1 <1>  -0.2000 
  9 C       -1.9370     3.1880    -1.3010 C.3   1 <1>  -0.2000 
 10 C       -4.7190    -0.4480     0.2150 C.3   1 <1>   0.2000 
 11 C       -3.8480    -1.7030     0.2720 C.3   1 <1>  -0.0800 
 12 O       -1.7480     2.8270     1.7240 O.2   1 <1>  -0.5700 
 13 N        0.3560     2.1890     1.4690 N.am  1 <1>  -0.8000 
 14 O       -5.3860    -0.2850     1.4180 O.3   1 <1>  -0.6800 
 15 C       -4.6260    -2.9810    -0.0850 C.3   1 <1>  -0.0170 
 16 C       -3.7440    -4.2160    -0.0050 C.ar  1 <1>   0.1670 
 17 N       -3.0120    -4.4900    -1.0720 N.ar  1 <1>  -0.6200 
 18 C       -3.7340    -4.9890     1.1550 C.ar  1 <1>   0.1600 
 19 C       -2.2750    -5.5750    -0.9040 C.ar  1 <1>   0.1600 
 20 N       -2.9970    -6.0750     1.3250 N.ar  1 <1>  -0.6200 
 21 C       -2.2670    -6.3410     0.2560 C.ar  1 <1>   0.1600 
 22 H       -3.5520     1.2610     0.8400 H     1 <1>   0.0800 
 23 H       -4.1760     1.3710    -0.8060 H     1 <1>   0.0800 
 24 H       -2.9370    -1.6460    -1.6880 H     1 <1>   0.0800 
 25 H       -1.7910    -1.9100    -0.3840 H     1 <1>   0.0800 
 26 H        0.1830     3.8350    -1.1630 H     1 <1>   0.1000 
 27 H       -0.0990     2.5670    -2.3960 H     1 <1>   0.1000 
 28 H       -2.5910     2.8330    -2.0780 H     1 <1>   0.1000 
 29 H       -2.3150     4.0670    -0.8100 H     1 <1>   0.1000 
 30 H       -5.4500    -0.5150    -0.5730 H     1 <1>   0.0800 
 31 H       -3.4320    -1.8030     1.2590 H     1 <1>   0.0800 
 32 H        0.5570     2.3270     2.4590 H     1 <1>   0.3700 
 33 H        1.0860     1.7550     0.9000 H     1 <1>   0.3700 
 34 H       -4.7480    -0.1120     2.1390 H     1 <1>   0.4000 
 35 H       -5.0280    -2.9020    -1.0800 H     1 <1>   0.0800 
 36 H       -5.4570    -3.0880     0.5900 H     1 <1>   0.0800 
 37 H       -4.3600    -4.6970     1.9780 H     1 <1>   0.1500 
 38 H       -1.6450    -5.8740    -1.7230 H     1 <1>   0.1500 
 39 H       -1.6320    -7.2080     0.2970 H     1 <1>   0.1500 
@<TRIPOS>BOND
  1   1   2  2   
  2   2   3  am  
  3   2   4  1   
  4   3   5  1   
  5   3   6  1   
  6   4   7  1   
  7   4   8  1   
  8   4   9  1   
  9   5  10  1   
 10   5  22  1   
 11   5  23  1   
 12   6  11  1   
 13   6  24  1   
 14   6  25  1   
 15   7  12  2   
 16   7  13  am  
 17   8   9  1   
 18   8  26  1   
 19   8  27  1   
 20   9  28  1   
 21   9  29  1   
 22  10  11  1   
 23  10  14  1   
 24  10  30  1   
 25  11  15  1   
 26  11  31  1   
 27  13  32  1   
 28  13  33  1   
 29  14  34  1   
 30  15  16  1   
 31  15  35  1   
 32  15  36  1   
 33  16  17  ar  
 34  16  18  ar  
 35  17  19  ar  
 36  18  20  ar  
 37  18  37  1   
 38  19  21  ar  
 39  19  38  1   
 40  20  21  ar  
 41  21  39  1   
@<TRIPOS>SUBSTRUCTURE
  1 ****   6 GROUP 4 **** **** 0

# MOE 2024.06 (io_trps.svl 2023.06)
