@<TRIPOS>MOLECULE
NONAME
58 62 1 0 0 
SMALL
USER_CHARGES


@<TRIPOS>ATOM
  1 S        1.0730    -0.0970    -1.1610 S.3   1 <1>  -0.0800 
  2 C        2.5040    -0.1340    -2.1670 C.2   1 <1>   0.2280 
  3 C        2.0830     0.2750     0.2060 C.2   1 <1>  -0.1100 
  4 N        3.5930     0.1030    -1.5520 N.2   1 <1>  -0.5650 
  5 C        3.3610     0.3380    -0.1990 C.2   1 <1>   0.0460 
  6 C        4.5500     0.6410     0.7030 C.3   1 <1>   0.3210 
  7 N        4.8930     2.0860     0.6520 N.am  1 <1>  -0.6600 
  8 C        4.6100     2.9360     1.6720 C.2   1 <1>   0.5690 
  9 C        5.4750     2.6340    -0.6030 C.3   1 <1>   0.2200 
 10 O        4.1510     2.5730     2.7290 O.2   1 <1>  -0.5700 
 11 C        4.8990     4.4060     1.4380 C.3   1 <1>  -0.0190 
 12 C        6.9560     3.0110    -0.3700 C.3   1 <1>   0.2090 
 13 C        4.6260     3.8400    -1.0570 C.3   1 <1>  -0.1600 
 14 C        6.4180     4.6240     1.5530 C.3   1 <1>   0.2090 
 15 C        4.3020     4.8420     0.0800 C.3   1 <1>  -0.1600 
 16 N        7.1920     4.3400     0.2990 N.pl3 1 <1>  -0.8380 
 17 C        8.3970     4.9350     0.1260 C.ar  1 <1>   0.4100 
 18 N        9.4510     4.1770     0.3490 N.ar  1 <1>  -0.6200 
 19 C        8.5150     6.2910    -0.2630 C.ar  1 <1>  -0.1430 
 20 C       10.6510     4.7250     0.2590 C.ar  1 <1>   0.7710 
 21 C        9.7620     6.8280    -0.3400 C.ar  1 <1>   0.2180 
 22 C        7.2720     7.1120    -0.6090 C.3   1 <1>  -0.0160 
 23 N       10.8100     6.0170    -0.0700 N.ar  1 <1>  -0.1790 
 24 N       11.7560     3.9650     0.5020 N.pl3 1 <1>  -0.8380 
 25 C       10.0460     8.2740    -0.7350 C.3   1 <1>  -0.0170 
 26 C        7.6070     8.4050    -1.3640 C.3   1 <1>  -0.1600 
 27 C       11.6380     2.4870     0.7450 C.3   1 <1>   0.1290 
 28 C       13.1690     4.4410     0.6390 C.3   1 <1>   0.1290 
 29 C        8.7780     9.1400    -0.7050 C.3   1 <1>  -0.1600 
 30 H        2.3600    -0.3510    -3.2110 H     1 <1>   0.1500 
 31 H        1.6160     0.4120     1.1640 H     1 <1>   0.1500 
 32 H        5.3970     0.0540     0.3970 H     1 <1>   0.0800 
 33 H        4.3030     0.3630     1.7130 H     1 <1>   0.0800 
 34 H        5.4470     1.8780    -1.3680 H     1 <1>   0.0800 
 35 H        4.4230     4.9610     2.2260 H     1 <1>   0.0800 
 36 H        7.4390     3.0370    -1.3310 H     1 <1>   0.0800 
 37 H        7.4310     2.2340     0.2030 H     1 <1>   0.0800 
 38 H        5.1350     4.3490    -1.8560 H     1 <1>   0.0800 
 39 H        3.7040     3.4610    -1.4620 H     1 <1>   0.0800 
 40 H        6.8050     4.0060     2.3460 H     1 <1>   0.0800 
 41 H        6.5910     5.6460     1.8400 H     1 <1>   0.0800 
 42 H        3.2320     4.8930     0.1850 H     1 <1>   0.0800 
 43 H        4.6430     5.8270    -0.1760 H     1 <1>   0.0800 
 44 H        6.6120     6.5220    -1.2210 H     1 <1>   0.0800 
 45 H        6.7500     7.3580     0.2990 H     1 <1>   0.0800 
 46 H       11.7690     6.3290    -0.1330 H     1 <1>   0.4570 
 47 H       10.7730     8.7080    -0.0710 H     1 <1>   0.0800 
 48 H       10.4530     8.2870    -1.7320 H     1 <1>   0.0800 
 49 H        7.8570     8.1700    -2.3850 H     1 <1>   0.0800 
 50 H        6.7380     9.0420    -1.3820 H     1 <1>   0.0800 
 51 H       12.4870     1.9710     0.3290 H     1 <1>   0.0800 
 52 H       10.7520     2.0810     0.2870 H     1 <1>   0.0800 
 53 H       11.5970     2.2940     1.8040 H     1 <1>   0.0800 
 54 H       13.6390     3.9490     1.4760 H     1 <1>   0.0800 
 55 H       13.2230     5.5000     0.8150 H     1 <1>   0.0800 
 56 H       13.7250     4.1980    -0.2510 H     1 <1>   0.0800 
 57 H        8.5210     9.3720     0.3150 H     1 <1>   0.0800 
 58 H        8.9620    10.0700    -1.2170 H     1 <1>   0.0800 
@<TRIPOS>BOND
  1   1   2  1   
  2   1   3  1   
  3   2   4  2   
  4   2  30  1   
  5   3   5  2   
  6   3  31  1   
  7   4   5  1   
  8   5   6  1   
  9   6   7  1   
 10   6  32  1   
 11   6  33  1   
 12   7   8  am  
 13   7   9  1   
 14   8  10  2   
 15   8  11  1   
 16   9  12  1   
 17   9  13  1   
 18   9  34  1   
 19  11  14  1   
 20  11  15  1   
 21  11  35  1   
 22  12  16  1   
 23  12  36  1   
 24  12  37  1   
 25  13  15  1   
 26  13  38  1   
 27  13  39  1   
 28  14  16  1   
 29  14  40  1   
 30  14  41  1   
 31  15  42  1   
 32  15  43  1   
 33  16  17  1   
 34  17  18  ar  
 35  17  19  ar  
 36  18  20  ar  
 37  19  21  ar  
 38  19  22  1   
 39  20  23  ar  
 40  20  24  1   
 41  21  23  ar  
 42  21  25  1   
 43  22  26  1   
 44  22  44  1   
 45  22  45  1   
 46  23  46  1   
 47  24  27  1   
 48  24  28  1   
 49  25  29  1   
 50  25  47  1   
 51  25  48  1   
 52  26  29  1   
 53  26  49  1   
 54  26  50  1   
 55  27  51  1   
 56  27  52  1   
 57  27  53  1   
 58  28  54  1   
 59  28  55  1   
 60  28  56  1   
 61  29  57  1   
 62  29  58  1   
@<TRIPOS>SUBSTRUCTURE
  1 ****  16 GROUP 4 **** **** 0

# MOE 2024.06 (io_trps.svl 2023.06)
