@<TRIPOS>MOLECULE
NONAME
47 49 1 0 0 
SMALL
USER_CHARGES


@<TRIPOS>ATOM
  1 O       -5.0400    -0.8350    -1.3140 O.2   1 <1>  -0.5700 
  2 C       -4.2420    -0.1580    -0.7110 C.2   1 <1>   0.5690 
  3 N       -3.3280    -0.6200     0.1700 N.am  1 <1>  -0.6600 
  4 C       -4.1490     1.3360    -0.8400 C.3   1 <1>  -0.0990 
  5 C       -2.5090     0.4460     0.7690 C.3   1 <1>   0.1400 
  6 C       -3.1180    -2.0460     0.4980 C.3   1 <1>   0.1400 
  7 C       -3.1830     1.7400     0.2890 C.3   1 <1>  -0.1600 
  8 C       -4.0690    -2.4580     1.6190 C.3   1 <1>  -0.0990 
  9 C       -4.2330    -3.9610     1.6240 C.2   1 <1>   0.5690 
 10 O       -3.6180    -4.5930     2.4480 O.2   1 <1>  -0.5700 
 11 N       -5.0460    -4.5690     0.7090 N.am  1 <1>  -0.6600 
 12 C       -5.8780    -3.9130    -0.3400 C.3   1 <1>   0.1400 
 13 C       -5.2060    -6.0430     0.6360 C.3   1 <1>   0.1400 
 14 C       -6.9270    -4.9660    -0.6910 C.3   1 <1>   0.2000 
 15 C       -6.1700    -6.2880    -0.5310 C.3   1 <1>  -0.0800 
 16 O       -7.9370    -4.8950     0.2580 O.3   1 <1>  -0.6800 
 17 C       -7.0500    -7.5390    -0.3570 C.3   1 <1>   0.0210 
 18 C       -6.1980    -8.7830    -0.2030 C.2   1 <1>   0.1080 
 19 N       -5.4880    -9.2760    -1.1700 N.2   1 <1>  -0.7070 
 20 C       -6.0690    -9.5180     0.9710 C.2   1 <1>  -0.1500 
 21 N       -4.8840   -10.3530    -0.6340 N.pl3 1 <1>   0.3000 
 22 C       -5.2180   -10.5190     0.6630 C.2   1 <1>  -0.3320 
 23 C       -4.6950   -11.6400     1.5420 C.3   1 <1>  -0.0600 
 24 H       -3.7440     1.5780    -1.8050 H     1 <1>   0.0800 
 25 H       -5.1180     1.7860    -0.7220 H     1 <1>   0.0800 
 26 H       -2.5150     0.3730     1.8430 H     1 <1>   0.0800 
 27 H       -1.5000     0.3750     0.3990 H     1 <1>   0.0800 
 28 H       -3.3180    -2.6290    -0.3860 H     1 <1>   0.0800 
 29 H       -2.0960    -2.2210     0.7870 H     1 <1>   0.0800 
 30 H       -3.7390     2.1660     1.1060 H     1 <1>   0.0800 
 31 H       -2.4560     2.4600    -0.0430 H     1 <1>   0.0800 
 32 H       -5.0300    -2.0000     1.4890 H     1 <1>   0.0800 
 33 H       -3.6700    -2.1420     2.5640 H     1 <1>   0.0800 
 34 H       -6.3350    -3.0000    -0.0020 H     1 <1>   0.0800 
 35 H       -5.2650    -3.7070    -1.2000 H     1 <1>   0.0800 
 36 H       -4.2560    -6.5240     0.4670 H     1 <1>   0.0800 
 37 H       -5.6210    -6.3980     1.5640 H     1 <1>   0.0800 
 38 H       -7.3580    -4.8300    -1.6680 H     1 <1>   0.0800 
 39 H       -5.5690    -6.4290    -1.4130 H     1 <1>   0.0800 
 40 H       -7.5200    -4.8410     1.1420 H     1 <1>   0.4000 
 41 H       -7.6800    -7.6570    -1.2200 H     1 <1>   0.0800 
 42 H       -7.6840    -7.4410     0.5050 H     1 <1>   0.0800 
 43 H       -6.5550    -9.3100     1.9070 H     1 <1>   0.1500 
 44 H       -4.2510   -10.9510    -1.1770 H     1 <1>   0.2700 
 45 H       -5.1070   -11.5550     2.5330 H     1 <1>   0.0800 
 46 H       -3.6230   -11.5890     1.6120 H     1 <1>   0.0800 
 47 H       -4.9770   -12.5950     1.1350 H     1 <1>   0.0800 
@<TRIPOS>BOND
  1   1   2  2   
  2   2   3  am  
  3   2   4  1   
  4   3   5  1   
  5   3   6  1   
  6   4   7  1   
  7   4  24  1   
  8   4  25  1   
  9   5   7  1   
 10   5  26  1   
 11   5  27  1   
 12   6   8  1   
 13   6  28  1   
 14   6  29  1   
 15   7  30  1   
 16   7  31  1   
 17   8   9  1   
 18   8  32  1   
 19   8  33  1   
 20   9  10  2   
 21   9  11  am  
 22  11  12  1   
 23  11  13  1   
 24  12  14  1   
 25  12  34  1   
 26  12  35  1   
 27  13  15  1   
 28  13  36  1   
 29  13  37  1   
 30  14  15  1   
 31  14  16  1   
 32  14  38  1   
 33  15  17  1   
 34  15  39  1   
 35  16  40  1   
 36  17  18  1   
 37  17  41  1   
 38  17  42  1   
 39  18  19  2   
 40  18  20  1   
 41  19  21  1   
 42  20  22  2   
 43  20  43  1   
 44  21  22  1   
 45  21  44  1   
 46  22  23  1   
 47  23  45  1   
 48  23  46  1   
 49  23  47  1   
@<TRIPOS>SUBSTRUCTURE
  1 ****  11 GROUP 4 **** **** 0

# MOE 2024.06 (io_trps.svl 2023.06)
