@<TRIPOS>MOLECULE
NONAME
53 55 1 0 0 
SMALL
USER_CHARGES


@<TRIPOS>ATOM
  1 O        0.3070     0.1230    -1.0470 O.3   1 <1>  -0.5600 
  2 C        1.5410    -0.5100    -1.2680 C.3   1 <1>   0.2000 
  3 C        0.3740     1.5130    -1.1700 C.3   1 <1>   0.1200 
  4 C        2.5840    -0.0070    -0.2300 C.3   1 <1>   0.3340 
  5 C        1.2890    -2.0260    -1.2060 C.3   1 <1>   0.1200 
  6 C        1.3530     2.0930    -0.1370 C.3   1 <1>   0.1100 
  7 N        2.6910     1.4760    -0.2520 N.3   1 <1>  -0.8100 
  8 C        3.9500    -0.6480    -0.4850 C.ar  1 <1>  -0.1440 
  9 O        2.3380    -2.7410    -1.7790 O.3   1 <1>  -0.6800 
 10 C        3.6290     1.9830     0.7720 C.3   1 <1>   0.2530 
 11 C        4.4040    -1.6690     0.3390 C.ar  1 <1>  -0.1500 
 12 C        4.7430    -0.2310    -1.5450 C.ar  1 <1>  -0.1500 
 13 C        3.8540     3.4830     0.6340 C.ar  1 <1>  -0.1430 
 14 C        5.6250    -2.2780     0.1020 C.ar  1 <1>   0.0830 
 15 C        5.9740    -0.8210    -1.7780 C.ar  1 <1>  -0.1500 
 16 C        4.7510     3.9890    -0.3060 C.ar  1 <1>   0.3930 
 17 C        3.1770     4.3650     1.4530 C.ar  1 <1>  -0.1500 
 18 O        5.9760    -3.3020     0.9180 O.3   1 <1>  -0.3630 
 19 C        6.4300    -1.8330    -0.9520 C.ar  1 <1>   0.0830 
 20 O        5.4240     3.1070    -1.0810 O.3   1 <1>  -0.3630 
 21 N        4.9970     5.2870    -0.4830 N.ar  1 <1>  -0.6200 
 22 C        3.4270     5.7090     1.2770 C.ar  1 <1>  -0.1500 
 23 C        6.0630    -4.5750     0.3160 C.3   1 <1>   0.0400 
 24 O        7.6570    -2.3470    -1.2080 O.3   1 <1>  -0.3630 
 25 C        6.3310     3.5410    -2.0730 C.3   1 <1>   0.0400 
 26 C        4.3300     6.1080     0.3090 C.ar  1 <1>   0.1600 
 27 C        8.6490    -2.1010    -0.2350 C.3   1 <1>   0.0400 
 28 H        1.8620    -0.2550    -2.2630 H     1 <1>   0.0800 
 29 H        0.6890     1.7610    -2.1690 H     1 <1>   0.0800 
 30 H       -0.6140     1.9070    -1.0100 H     1 <1>   0.0800 
 31 H        2.2420    -0.3080     0.7450 H     1 <1>   0.0800 
 32 H        0.3990    -2.2710    -1.7590 H     1 <1>   0.0800 
 33 H        1.1760    -2.3510    -0.1870 H     1 <1>   0.0800 
 34 H        0.9550     1.9350     0.8510 H     1 <1>   0.0800 
 35 H        1.4300     3.1530    -0.3060 H     1 <1>   0.0800 
 36 H        3.2040    -2.4240    -1.4390 H     1 <1>   0.4000 
 37 H        3.2490     1.7590     1.7540 H     1 <1>   0.0800 
 38 H        4.5830     1.4940     0.6770 H     1 <1>   0.0800 
 39 H        3.8130    -2.0130     1.1680 H     1 <1>   0.1500 
 40 H        4.4040     0.5670    -2.1850 H     1 <1>   0.1500 
 41 H        6.5880    -0.4910    -2.5960 H     1 <1>   0.1500 
 42 H        2.4800     4.0240     2.1990 H     1 <1>   0.1500 
 43 H        2.9280     6.4420     1.8840 H     1 <1>   0.1500 
 44 H        6.2350    -5.3010     1.0900 H     1 <1>   0.0800 
 45 H        6.8800    -4.5850    -0.3830 H     1 <1>   0.0800 
 46 H        5.1370    -4.7860    -0.1890 H     1 <1>   0.0800 
 47 H        6.7360     2.6740    -2.5610 H     1 <1>   0.0800 
 48 H        7.1170     4.1040    -1.6020 H     1 <1>   0.0800 
 49 H        5.8020     4.1530    -2.7810 H     1 <1>   0.0800 
 50 H        4.5160     7.1600     0.1800 H     1 <1>   0.1500 
 51 H        9.5850    -2.4780    -0.6060 H     1 <1>   0.0800 
 52 H        8.3860    -2.6060     0.6770 H     1 <1>   0.0800 
 53 H        8.7160    -1.0410    -0.0690 H     1 <1>   0.0800 
@<TRIPOS>BOND
  1   1   2  1   
  2   1   3  1   
  3   2   4  1   
  4   2   5  1   
  5   2  28  1   
  6   3   6  1   
  7   3  29  1   
  8   3  30  1   
  9   4   7  1   
 10   4   8  1   
 11   4  31  1   
 12   5   9  1   
 13   5  32  1   
 14   5  33  1   
 15   6   7  1   
 16   6  34  1   
 17   6  35  1   
 18   7  10  1   
 19   8  11  ar  
 20   8  12  ar  
 21   9  36  1   
 22  10  13  1   
 23  10  37  1   
 24  10  38  1   
 25  11  14  ar  
 26  11  39  1   
 27  12  15  ar  
 28  12  40  1   
 29  13  16  ar  
 30  13  17  ar  
 31  14  18  1   
 32  14  19  ar  
 33  15  19  ar  
 34  15  41  1   
 35  16  20  1   
 36  16  21  ar  
 37  17  22  ar  
 38  17  42  1   
 39  18  23  1   
 40  19  24  1   
 41  20  25  1   
 42  21  26  ar  
 43  22  26  ar  
 44  22  43  1   
 45  23  44  1   
 46  23  45  1   
 47  23  46  1   
 48  24  27  1   
 49  25  47  1   
 50  25  48  1   
 51  25  49  1   
 52  26  50  1   
 53  27  51  1   
 54  27  52  1   
 55  27  53  1   
@<TRIPOS>SUBSTRUCTURE
  1 ****   8 GROUP 4 **** **** 0

# MOE 2024.06 (io_trps.svl 2023.06)
