@<TRIPOS>MOLECULE
NONAME
41 44 1 0 0 
SMALL
USER_CHARGES


@<TRIPOS>ATOM
  1 S        0.1800    -0.2970    -0.3340 S.3   1 <1>  -0.0800 
  2 C       -0.5470     1.3160    -0.1920 C.ar  1 <1>   0.0400 
  3 C       -1.3750    -1.0070    -0.7660 C.2   1 <1>  -0.1100 
  4 C        0.0320     2.5300     0.1420 C.ar  1 <1>   0.4100 
  5 C       -1.8880     1.2530    -0.4620 C.ar  1 <1>   0.2560 
  6 C       -2.3390    -0.0680    -0.7880 C.2   1 <1>  -0.1500 
  7 N       -0.7130     3.6200     0.1930 N.ar  1 <1>  -0.6200 
  8 N        1.3750     2.6910     0.4140 N.pl3 1 <1>  -0.8380 
  9 N       -2.6460     2.3420    -0.4080 N.ar  1 <1>  -0.5660 
 10 C       -2.0080     3.4470    -0.0790 C.ar  1 <1>   0.4700 
 11 C        1.8250     3.5030     1.6080 C.3   1 <1>   0.2090 
 12 C        2.4110     2.2890    -0.5900 C.3   1 <1>   0.2090 
 13 C        2.3550     4.9050     1.2090 C.3   1 <1>   0.4230 
 14 C        3.2650     3.4490    -1.1630 C.3   1 <1>  -0.0800 
 15 N        1.7710     5.2450    -0.1400 N.4   1 <1>  -0.9590 
 16 C        3.9010     4.9700     1.3090 C.3   1 <1>   0.1200 
 17 C        4.6300     3.6060    -0.4740 C.3   1 <1>   0.1200 
 18 C        2.5770     4.8160    -1.3160 C.3   1 <1>   0.3430 
 19 C        1.4390     6.7250    -0.2320 C.3   1 <1>   0.2370 
 20 O        4.5040     3.7750     0.8960 O.3   1 <1>  -0.5600 
 21 C        2.6430     7.6440    -0.0230 C.2   1 <1>   0.9060 
 22 O        3.3840     7.8580    -0.9870 O.co2 1 <1>  -0.9000 
 23 O        2.9110     7.9780     1.1340 O.co2 1 <1>  -0.9000 
 24 H       -1.3960    -2.0650    -0.9590 H     1 <1>   0.1500 
 25 H       -3.3760    -0.2300    -1.0190 H     1 <1>   0.1500 
 26 H       -2.6160     4.3360    -0.0260 H     1 <1>   0.1500 
 27 H        0.9880     3.6400     2.2710 H     1 <1>   0.0800 
 28 H        2.5670     2.9550     2.1620 H     1 <1>   0.0800 
 29 H        3.0570     1.5510    -0.1430 H     1 <1>   0.0800 
 30 H        1.9120     1.8090    -1.4150 H     1 <1>   0.0800 
 31 H        1.9770     5.6170     1.9230 H     1 <1>   0.0800 
 32 H        3.5180     3.1530    -2.1650 H     1 <1>   0.0800 
 33 H        0.9090     4.6620    -0.1570 H     1 <1>   0.4500 
 34 H        4.1650     5.1020     2.3430 H     1 <1>   0.0800 
 35 H        4.3160     5.8000     0.7630 H     1 <1>   0.0800 
 36 H        5.1810     4.4420    -0.8750 H     1 <1>   0.0800 
 37 H        5.2180     2.7170    -0.6240 H     1 <1>   0.0800 
 38 H        1.9280     4.7830    -2.1750 H     1 <1>   0.0800 
 39 H        3.3330     5.5600    -1.5160 H     1 <1>   0.0800 
 40 H        1.0250     6.9480    -1.1980 H     1 <1>   0.0800 
 41 H        0.7140     6.9800     0.5180 H     1 <1>   0.0800 
@<TRIPOS>BOND
  1   1   2  1   
  2   1   3  1   
  3   2   4  ar  
  4   2   5  ar  
  5   3   6  2   
  6   3  24  1   
  7   4   7  ar  
  8   4   8  1   
  9   5   6  1   
 10   5   9  ar  
 11   6  25  1   
 12   7  10  ar  
 13   8  11  1   
 14   8  12  1   
 15   9  10  ar  
 16  10  26  1   
 17  11  13  1   
 18  11  27  1   
 19  11  28  1   
 20  12  14  1   
 21  12  29  1   
 22  12  30  1   
 23  13  15  1   
 24  13  16  1   
 25  13  31  1   
 26  14  17  1   
 27  14  18  1   
 28  14  32  1   
 29  15  18  1   
 30  15  19  1   
 31  15  33  1   
 32  16  20  1   
 33  16  34  1   
 34  16  35  1   
 35  17  20  1   
 36  17  36  1   
 37  17  37  1   
 38  18  38  1   
 39  18  39  1   
 40  19  21  1   
 41  19  40  1   
 42  19  41  1   
 43  21  22  ar  
 44  21  23  ar  
@<TRIPOS>SUBSTRUCTURE
  1 ****   8 GROUP 4 **** **** 0

# MOE 2024.06 (io_trps.svl 2023.06)
