@<TRIPOS>MOLECULE
NONAME
44 46 1 0 0 
SMALL
USER_CHARGES


@<TRIPOS>ATOM
  1 S        0.3730     1.2710    -1.4470 S.o2  1 <1>   1.3330 
  2 O        0.0150     2.2750    -2.4240 O.2   1 <1>  -0.6500 
  3 O        0.6360    -0.0770    -1.8960 O.2   1 <1>  -0.6500 
  4 N        1.7650     1.8010    -0.6350 N.am  1 <1>  -0.8490 
  5 C       -0.9290     1.1970    -0.2020 C.3   1 <1>  -0.0550 
  6 C        2.7490     2.3830    -1.5520 C.3   1 <1>   0.1160 
  7 C        2.4110     0.7550     0.1670 C.3   1 <1>   0.1160 
  8 C       -1.3350     2.4750     0.5740 C.3   1 <1>  -0.0800 
  9 C       -1.6370     3.6990    -0.3030 C.3   1 <1>   0.2000 
 10 C       -0.2830     2.9560     1.5830 C.3   1 <1>   0.1400 
 11 O       -2.6540     4.4080     0.3150 O.3   1 <1>  -0.6800 
 12 C       -0.3720     4.5570    -0.2530 C.3   1 <1>   0.1400 
 13 N        0.2450     4.2350     1.0560 N.am  1 <1>  -0.6600 
 14 C        1.0610     5.0600     1.7930 C.2   1 <1>   0.5440 
 15 O        1.2400     4.7930     2.9670 O.2   1 <1>  -0.5700 
 16 C        1.6880     6.2320     1.2150 C.ar  1 <1>   0.0860 
 17 C        2.3670     6.1650    -0.0070 C.ar  1 <1>  -0.1500 
 18 C        1.6370     7.4680     1.8770 C.ar  1 <1>  -0.1500 
 19 C        2.9380     7.3080    -0.5220 C.ar  1 <1>   0.0820 
 20 C        2.2180     8.6120     1.3480 C.ar  1 <1>  -0.1500 
 21 O        3.6160     7.4540    -1.6650 O.3   1 <1>  -0.3630 
 22 C        2.8650     8.5020     0.1340 C.ar  1 <1>   0.0820 
 23 C        4.0010     8.8260    -1.7410 C.3   1 <1>   0.4000 
 24 O        3.4910     9.4500    -0.5650 O.3   1 <1>  -0.3630 
 25 H       -1.8110     0.8400    -0.6960 H     1 <1>   0.0800 
 26 H       -0.6650     0.4450     0.5160 H     1 <1>   0.0800 
 27 H        3.6040     2.7390    -1.0040 H     1 <1>   0.0800 
 28 H        2.3170     3.2170    -2.0800 H     1 <1>   0.0800 
 29 H        3.0690     1.6490    -2.2730 H     1 <1>   0.0800 
 30 H        3.2280     1.1750     0.7290 H     1 <1>   0.0800 
 31 H        2.7890    -0.0290    -0.4690 H     1 <1>   0.0800 
 32 H        1.7080     0.3280     0.8600 H     1 <1>   0.0800 
 33 H       -2.2210     2.2070     1.1240 H     1 <1>   0.0800 
 34 H       -1.9550     3.4620    -1.3040 H     1 <1>   0.0800 
 35 H        0.5200     2.2520     1.7110 H     1 <1>   0.0800 
 36 H       -0.7390     3.1360     2.5420 H     1 <1>   0.0800 
 37 H       -2.3190     4.7620     1.1640 H     1 <1>   0.4000 
 38 H       -0.6000     5.6050    -0.3440 H     1 <1>   0.0800 
 39 H        0.3040     4.2750    -1.0380 H     1 <1>   0.0800 
 40 H        2.4490     5.2350    -0.5370 H     1 <1>   0.1500 
 41 H        1.1310     7.5200     2.8270 H     1 <1>   0.1500 
 42 H        2.1750     9.5580     1.8570 H     1 <1>   0.1500 
 43 H        5.0740     8.9010    -1.7520 H     1 <1>   0.0800 
 44 H        3.5600     9.2790    -2.6110 H     1 <1>   0.0800 
@<TRIPOS>BOND
  1   1   2  2   
  2   1   3  2   
  3   1   4  am  
  4   1   5  1   
  5   4   6  1   
  6   4   7  1   
  7   5   8  1   
  8   5  25  1   
  9   5  26  1   
 10   6  27  1   
 11   6  28  1   
 12   6  29  1   
 13   7  30  1   
 14   7  31  1   
 15   7  32  1   
 16   8   9  1   
 17   8  10  1   
 18   8  33  1   
 19   9  11  1   
 20   9  12  1   
 21   9  34  1   
 22  10  13  1   
 23  10  35  1   
 24  10  36  1   
 25  11  37  1   
 26  12  13  1   
 27  12  38  1   
 28  12  39  1   
 29  13  14  am  
 30  14  15  2   
 31  14  16  1   
 32  16  17  ar  
 33  16  18  ar  
 34  17  19  ar  
 35  17  40  1   
 36  18  20  ar  
 37  18  41  1   
 38  19  21  1   
 39  19  22  ar  
 40  20  22  ar  
 41  20  42  1   
 42  21  23  1   
 43  22  24  1   
 44  23  24  1   
 45  23  43  1   
 46  23  44  1   
@<TRIPOS>SUBSTRUCTURE
  1 ****  13 GROUP 4 **** **** 0

# MOE 2024.06 (io_trps.svl 2023.06)
