@<TRIPOS>MOLECULE
NONAME
38 40 1 0 0 
SMALL
USER_CHARGES


@<TRIPOS>ATOM
  1 O       -0.6790     0.3260     0.4560 O.2   1 <1>  -0.5700 
  2 C       -1.6780     0.9060     0.0580 C.2   1 <1>   0.7160 
  3 N       -2.8310     0.1490    -0.0560 N.am  1 <1>  -0.6600 
  4 C       -1.6030     2.3320    -0.2660 C.2   1 <1>   0.2030 
  5 C       -4.1840     0.6520    -0.4030 C.3   1 <1>   0.1400 
  6 C       -2.8470    -1.3290     0.0740 C.3   1 <1>   0.1400 
  7 N       -2.5370     3.0920    -0.8190 N.2   1 <1>  -0.7070 
  8 C       -0.4530     3.0980    -0.0190 C.2   1 <1>  -0.1500 
  9 C       -5.1200    -0.5130    -0.0820 C.3   1 <1>   0.2000 
 10 C       -4.2580    -1.7510    -0.3490 C.3   1 <1>  -0.0800 
 11 N       -1.9840     4.3200    -0.9130 N.pl3 1 <1>   0.3000 
 12 C       -0.7150     4.3500    -0.4440 C.2   1 <1>  -0.0680 
 13 O       -5.4390    -0.4540     1.2670 O.3   1 <1>  -0.6800 
 14 C       -4.7440    -3.0530     0.3150 C.3   1 <1>  -0.0170 
 15 N        0.1200     5.4740    -0.4130 N.pl3 1 <1>  -0.8840 
 16 C       -3.8520    -4.2220    -0.0710 C.ar  1 <1>  -0.1440 
 17 C       -2.8400    -4.6740     0.7510 C.ar  1 <1>  -0.1500 
 18 C       -4.0080    -4.8890    -1.2690 C.ar  1 <1>  -0.1500 
 19 C       -2.0510    -5.7380     0.3440 C.ar  1 <1>   0.1600 
 20 C       -3.1650    -5.9430    -1.5810 C.ar  1 <1>   0.1600 
 21 N       -2.1880    -6.3820    -0.8030 N.ar  1 <1>  -0.6200 
 22 H       -4.4410     1.5350     0.1570 H     1 <1>   0.0800 
 23 H       -4.2140     0.8740    -1.4560 H     1 <1>   0.0800 
 24 H       -2.0950    -1.7780    -0.5540 H     1 <1>   0.0800 
 25 H       -2.6560    -1.5910     1.1000 H     1 <1>   0.0800 
 26 H        0.4510     2.7220     0.4250 H     1 <1>   0.1500 
 27 H       -6.0330    -0.4920    -0.6520 H     1 <1>   0.0800 
 28 H       -4.2360    -1.9050    -1.4140 H     1 <1>   0.0800 
 29 H       -2.4870     5.1360    -1.2760 H     1 <1>   0.2700 
 30 H       -4.6230    -0.2640     1.7720 H     1 <1>   0.4000 
 31 H       -5.7540    -3.2570     0.0050 H     1 <1>   0.0800 
 32 H       -4.7530    -2.9480     1.3860 H     1 <1>   0.0800 
 33 H        0.1750     6.0140    -1.2850 H     1 <1>   0.4000 
 34 H        1.0690     5.2790    -0.0740 H     1 <1>   0.4000 
 35 H       -2.6540    -4.2120     1.7030 H     1 <1>   0.1500 
 36 H       -4.7750    -4.6000    -1.9630 H     1 <1>   0.1500 
 37 H       -1.2650    -6.0760     0.9980 H     1 <1>   0.1500 
 38 H       -3.3000    -6.4520    -2.5200 H     1 <1>   0.1500 
@<TRIPOS>BOND
  1   1   2  2   
  2   2   3  am  
  3   2   4  1   
  4   3   5  1   
  5   3   6  1   
  6   4   7  2   
  7   4   8  1   
  8   5   9  1   
  9   5  22  1   
 10   5  23  1   
 11   6  10  1   
 12   6  24  1   
 13   6  25  1   
 14   7  11  1   
 15   8  12  2   
 16   8  26  1   
 17   9  10  1   
 18   9  13  1   
 19   9  27  1   
 20  10  14  1   
 21  10  28  1   
 22  11  12  1   
 23  11  29  1   
 24  12  15  1   
 25  13  30  1   
 26  14  16  1   
 27  14  31  1   
 28  14  32  1   
 29  15  33  1   
 30  15  34  1   
 31  16  17  ar  
 32  16  18  ar  
 33  17  19  ar  
 34  17  35  1   
 35  18  20  ar  
 36  18  36  1   
 37  19  21  ar  
 38  19  37  1   
 39  20  21  ar  
 40  20  38  1   
@<TRIPOS>SUBSTRUCTURE
  1 ****   6 GROUP 4 **** **** 0

# MOE 2024.06 (io_trps.svl 2023.06)
