@<TRIPOS>MOLECULE
NONAME
52 54 1 0 0 
SMALL
USER_CHARGES


@<TRIPOS>ATOM
  1 O        0.8680    -0.1760     1.1640 O.2   1 <1>  -0.5700 
  2 C        0.9520    -1.2920     0.7120 C.2   1 <1>   0.5690 
  3 N        1.5300    -1.5060    -0.5150 N.am  1 <1>  -0.6600 
  4 C        0.3940    -2.4030     1.5810 C.3   1 <1>  -0.0990 
  5 C        1.9030    -2.8250    -1.1090 C.3   1 <1>   0.1400 
  6 C        1.7420    -0.3410    -1.4310 C.3   1 <1>   0.1400 
  7 C        0.1610    -3.7400     0.8800 C.3   1 <1>   0.1200 
  8 C        2.3890    -3.9140    -0.1050 C.3   1 <1>   0.2800 
  9 C        3.1190     0.3120    -1.2550 C.3   1 <1>   0.1200 
 10 O        1.3600    -4.4350     0.6840 O.3   1 <1>  -0.5600 
 11 C        2.9240    -5.1280    -0.8770 C.3   1 <1>  -0.1600 
 12 C        3.4880    -3.4340     0.8590 C.3   1 <1>  -0.1600 
 13 O        4.1490    -0.5460    -1.6710 O.3   1 <1>  -0.5600 
 14 C        4.2460    -4.8330    -1.5840 C.3   1 <1>   0.3430 
 15 C        4.7850    -3.1300     0.1270 C.3   1 <1>   0.3430 
 16 C        5.3720     0.1110    -1.8010 C.3   1 <1>   0.0400 
 17 N        5.2530    -4.3470    -0.6010 N.4   1 <1>  -0.9590 
 18 C        6.5690    -4.1070    -1.2570 C.3   1 <1>   0.4860 
 19 C        7.6200    -3.8600    -0.1960 C.ar  1 <1>  -0.1440 
 20 C        8.1790    -4.9290     0.4890 C.ar  1 <1>   0.1600 
 21 C        8.0420    -2.5790     0.1110 C.ar  1 <1>  -0.1500 
 22 N        9.0820    -4.8220     1.4440 N.ar  1 <1>  -0.6200 
 23 C        8.9920    -2.4540     1.1020 C.ar  1 <1>  -0.1500 
 24 C        9.4720    -3.5910     1.7300 C.ar  1 <1>   0.1600 
 25 H       -0.5570    -2.0590     1.9440 H     1 <1>   0.0800 
 26 H        1.0230    -2.5440     2.4390 H     1 <1>   0.0800 
 27 H        2.6950    -2.6420    -1.8110 H     1 <1>   0.0800 
 28 H        1.0730    -3.2020    -1.6800 H     1 <1>   0.0800 
 29 H        0.9900     0.4030    -1.2260 H     1 <1>   0.0800 
 30 H        1.6120    -0.6410    -2.4560 H     1 <1>   0.0800 
 31 H       -0.3520    -3.6180    -0.0580 H     1 <1>   0.0800 
 32 H       -0.4520    -4.3620     1.5090 H     1 <1>   0.0800 
 33 H        3.2740     0.5750    -0.2220 H     1 <1>   0.0800 
 34 H        3.1530     1.2070    -1.8530 H     1 <1>   0.0800 
 35 H        2.1970    -5.4380    -1.6070 H     1 <1>   0.0800 
 36 H        3.0710    -5.9520    -0.1990 H     1 <1>   0.0800 
 37 H        3.6730    -4.1870     1.6050 H     1 <1>   0.0800 
 38 H        3.1880    -2.5420     1.3730 H     1 <1>   0.0800 
 39 H        4.0910    -4.0860    -2.3460 H     1 <1>   0.0800 
 40 H        4.6010    -5.7330    -2.0620 H     1 <1>   0.0800 
 41 H        5.5270    -2.8140     0.8420 H     1 <1>   0.0800 
 42 H        4.6240    -2.3270    -0.5680 H     1 <1>   0.0800 
 43 H        6.1100    -0.6020    -2.1200 H     1 <1>   0.0800 
 44 H        5.6520     0.5330    -0.8500 H     1 <1>   0.0800 
 45 H        5.2820     0.8870    -2.5420 H     1 <1>   0.0800 
 46 H        5.3900    -5.0770     0.1110 H     1 <1>   0.4500 
 47 H        6.5050    -3.2550    -1.9150 H     1 <1>   0.0800 
 48 H        6.8540    -4.9670    -1.8420 H     1 <1>   0.0800 
 49 H        7.8730    -5.9340     0.2480 H     1 <1>   0.1500 
 50 H        7.6600    -1.7060    -0.3900 H     1 <1>   0.1500 
 51 H        9.3650    -1.4870     1.3900 H     1 <1>   0.1500 
 52 H       10.2140    -3.4820     2.5040 H     1 <1>   0.1500 
@<TRIPOS>BOND
  1   1   2  2   
  2   2   3  am  
  3   2   4  1   
  4   3   5  1   
  5   3   6  1   
  6   4   7  1   
  7   4  25  1   
  8   4  26  1   
  9   5   8  1   
 10   5  27  1   
 11   5  28  1   
 12   6   9  1   
 13   6  29  1   
 14   6  30  1   
 15   7  10  1   
 16   7  31  1   
 17   7  32  1   
 18   8  10  1   
 19   8  11  1   
 20   8  12  1   
 21   9  13  1   
 22   9  33  1   
 23   9  34  1   
 24  11  14  1   
 25  11  35  1   
 26  11  36  1   
 27  12  15  1   
 28  12  37  1   
 29  12  38  1   
 30  13  16  1   
 31  14  17  1   
 32  14  39  1   
 33  14  40  1   
 34  15  17  1   
 35  15  41  1   
 36  15  42  1   
 37  16  43  1   
 38  16  44  1   
 39  16  45  1   
 40  17  18  1   
 41  17  46  1   
 42  18  19  1   
 43  18  47  1   
 44  18  48  1   
 45  19  20  ar  
 46  19  21  ar  
 47  20  22  ar  
 48  20  49  1   
 49  21  23  ar  
 50  21  50  1   
 51  22  24  ar  
 52  23  24  ar  
 53  23  51  1   
 54  24  52  1   
@<TRIPOS>SUBSTRUCTURE
  1 ****  15 GROUP 4 **** **** 0

# MOE 2024.06 (io_trps.svl 2023.06)
