@<TRIPOS>MOLECULE
NONAME
47 49 1 0 0 
SMALL
USER_CHARGES


@<TRIPOS>ATOM
  1 O        1.3710    -0.8530     1.2460 O.3   1 <1>  -0.0190 
  2 N        1.4830     0.4250     1.4310 N.2   1 <1>  -0.4100 
  3 C        1.5310    -1.1760    -0.0080 C.2   1 <1>  -0.0400 
  4 C        1.7360     0.9420     0.2790 C.2   1 <1>   0.1080 
  5 C        1.7760    -0.0510    -0.6990 C.2   1 <1>  -0.1500 
  6 C        1.3980    -2.6310    -0.4010 C.3   1 <1>   0.5230 
  7 C        1.9580     2.4300     0.0170 C.3   1 <1>   0.1010 
  8 N        0.1070    -3.1630     0.1250 N.4   1 <1>  -0.9590 
  9 C        3.1550     2.9510     0.8210 C.3   1 <1>  -0.2400 
 10 C        0.6980     3.2350     0.3520 C.3   1 <1>  -0.2400 
 11 C        0.0200    -4.6470     0.0260 C.3   1 <1>   0.5660 
 12 C       -1.0610    -2.4460    -0.4680 C.3   1 <1>   0.3430 
 13 C       -1.4190    -5.1680     0.1110 C.ar  1 <1>  -0.1430 
 14 C        0.8580    -5.2210     1.1700 C.3   1 <1>  -0.2400 
 15 C       -2.3300    -2.8210     0.2880 C.3   1 <1>  -0.0170 
 16 C       -2.5170    -4.3240     0.2530 C.ar  1 <1>  -0.1430 
 17 C       -1.6430    -6.5360     0.0280 C.ar  1 <1>  -0.1500 
 18 C       -3.7970    -4.8490     0.3420 C.ar  1 <1>  -0.1500 
 19 C       -2.9180    -7.0660     0.1120 C.ar  1 <1>   0.0830 
 20 C       -4.0030    -6.2140     0.2760 C.ar  1 <1>  -0.1500 
 21 O       -3.0200    -8.4140     0.0260 O.3   1 <1>  -0.3630 
 22 C       -4.2700    -9.0630     0.1060 C.3   1 <1>   0.0400 
 23 H        1.9640     0.1060    -1.7460 H     1 <1>   0.1500 
 24 H        2.2260    -3.1750     0.0220 H     1 <1>   0.0800 
 25 H        1.4370    -2.7260    -1.4730 H     1 <1>   0.0800 
 26 H        2.1750     2.5630    -1.0290 H     1 <1>   0.0800 
 27 H        0.0910    -2.9510     1.1300 H     1 <1>   0.4500 
 28 H        2.9700     2.8490     1.8770 H     1 <1>   0.0800 
 29 H        3.3330     3.9890     0.6010 H     1 <1>   0.0800 
 30 H        4.0390     2.3910     0.5750 H     1 <1>   0.0800 
 31 H        0.4570     3.1350     1.3960 H     1 <1>   0.0800 
 32 H       -0.1360     2.8790    -0.2260 H     1 <1>   0.0800 
 33 H        0.8480     4.2770     0.1320 H     1 <1>   0.0800 
 34 H        0.4310    -4.9680    -0.9180 H     1 <1>   0.0800 
 35 H       -1.1710    -2.7160    -1.5060 H     1 <1>   0.0800 
 36 H       -0.9190    -1.3780    -0.4030 H     1 <1>   0.0800 
 37 H        0.4290    -4.9540     2.1200 H     1 <1>   0.0800 
 38 H        1.8790    -4.8900     1.1300 H     1 <1>   0.0800 
 39 H        0.8740    -6.2940     1.1130 H     1 <1>   0.0800 
 40 H       -3.1680    -2.3360    -0.1790 H     1 <1>   0.0800 
 41 H       -2.2730    -2.4780     1.3060 H     1 <1>   0.0800 
 42 H       -0.8330    -7.2320    -0.1040 H     1 <1>   0.1500 
 43 H       -4.6480    -4.1990     0.4620 H     1 <1>   0.1500 
 44 H       -5.0050    -6.5920     0.3490 H     1 <1>   0.1500 
 45 H       -4.1030   -10.1220     0.0150 H     1 <1>   0.0800 
 46 H       -4.8940    -8.7220    -0.7010 H     1 <1>   0.0800 
 47 H       -4.7170    -8.8450     1.0590 H     1 <1>   0.0800 
@<TRIPOS>BOND
  1   1   2  1   
  2   1   3  1   
  3   2   4  2   
  4   3   5  2   
  5   3   6  1   
  6   4   5  1   
  7   4   7  1   
  8   5  23  1   
  9   6   8  1   
 10   6  24  1   
 11   6  25  1   
 12   7   9  1   
 13   7  10  1   
 14   7  26  1   
 15   8  11  1   
 16   8  12  1   
 17   8  27  1   
 18   9  28  1   
 19   9  29  1   
 20   9  30  1   
 21  10  31  1   
 22  10  32  1   
 23  10  33  1   
 24  11  13  1   
 25  11  14  1   
 26  11  34  1   
 27  12  15  1   
 28  12  35  1   
 29  12  36  1   
 30  13  16  ar  
 31  13  17  ar  
 32  14  37  1   
 33  14  38  1   
 34  14  39  1   
 35  15  16  1   
 36  15  40  1   
 37  15  41  1   
 38  16  18  ar  
 39  17  19  ar  
 40  17  42  1   
 41  18  20  ar  
 42  18  43  1   
 43  19  20  ar  
 44  19  21  1   
 45  20  44  1   
 46  21  22  1   
 47  22  45  1   
 48  22  46  1   
 49  22  47  1   
@<TRIPOS>SUBSTRUCTURE
  1 ****   8 GROUP 4 **** **** 0

# MOE 2024.06 (io_trps.svl 2023.06)
