@<TRIPOS>MOLECULE
NONAME
50 52 1 0 0 
SMALL
USER_CHARGES


@<TRIPOS>ATOM
  1 S        0.3670    -0.1980     0.0880 S.3   1 <1>  -0.4600 
  2 C       -1.2840    -0.8480     0.4660 C.3   1 <1>   0.2140 
  3 C        0.2090     1.5690     0.4540 C.3   1 <1>   0.0700 
  4 C       -1.2950    -2.3380     0.1680 C.ar  1 <1>  -0.1440 
  5 C        1.5590     2.2300     0.1700 C.3   1 <1>  -0.0990 
  6 C       -0.7730    -3.2360     1.0860 C.ar  1 <1>  -0.1500 
  7 C       -1.8310    -2.8130    -1.0190 C.ar  1 <1>  -0.1500 
  8 C        1.5400     3.7270     0.4230 C.2   1 <1>   0.5690 
  9 C       -0.7920    -4.5950     0.8230 C.ar  1 <1>  -0.1500 
 10 C       -1.8500    -4.1720    -1.2830 C.ar  1 <1>  -0.1500 
 11 O        0.5840     4.2190     0.9740 O.2   1 <1>  -0.5700 
 12 N        2.6020     4.4900     0.0280 N.am  1 <1>  -0.6600 
 13 C       -1.3320    -5.0640    -0.3610 C.ar  1 <1>  -0.1500 
 14 C        3.8730     4.0130    -0.5630 C.3   1 <1>   0.1400 
 15 C        2.6620     5.9570     0.2290 C.3   1 <1>   0.1400 
 16 C        4.8480     5.1940    -0.4770 C.3   1 <1>   0.2000 
 17 C        4.1510     6.3010     0.3450 C.3   1 <1>   0.1900 
 18 O        6.0390     4.7930     0.1290 O.3   1 <1>  -0.6800 
 19 N        4.4580     7.6780    -0.1250 N.3   1 <1>  -0.8100 
 20 C        3.7420     8.7040     0.6690 C.3   1 <1>   0.1100 
 21 C        5.9120     7.9630    -0.0660 C.3   1 <1>   0.1100 
 22 C        4.1190    10.1280     0.2210 C.3   1 <1>   0.1200 
 23 C        6.2240     9.4120    -0.4830 C.3   1 <1>   0.1200 
 24 O        5.5010    10.3160     0.3020 O.3   1 <1>  -0.5600 
 25 H       -1.4780    -0.6540     1.5050 H     1 <1>   0.0800 
 26 H       -1.9890    -0.3150    -0.1470 H     1 <1>   0.0800 
 27 H       -0.5660     1.9680    -0.1780 H     1 <1>   0.0800 
 28 H       -0.0690     1.6680     1.4890 H     1 <1>   0.0800 
 29 H        2.3070     1.7850     0.7990 H     1 <1>   0.0800 
 30 H        1.8200     2.0540    -0.8570 H     1 <1>   0.0800 
 31 H       -0.3440    -2.8780     2.0060 H     1 <1>   0.1500 
 32 H       -2.2310    -2.1270    -1.7450 H     1 <1>   0.1500 
 33 H       -0.3840    -5.2870     1.5390 H     1 <1>   0.1500 
 34 H       -2.2670    -4.5340    -2.2070 H     1 <1>   0.1500 
 35 H       -1.3470    -6.1200    -0.5660 H     1 <1>   0.1500 
 36 H        4.2420     3.1610    -0.0180 H     1 <1>   0.0800 
 37 H        3.7110     3.7460    -1.5930 H     1 <1>   0.0800 
 38 H        2.2350     6.4420    -0.6310 H     1 <1>   0.0800 
 39 H        2.1250     6.2430     1.1170 H     1 <1>   0.0800 
 40 H        5.0730     5.5440    -1.4690 H     1 <1>   0.0800 
 41 H        4.4290     6.2020     1.3800 H     1 <1>   0.0800 
 42 H        5.8780     4.5290     1.0560 H     1 <1>   0.4000 
 43 H        2.6800     8.5850     0.5510 H     1 <1>   0.0800 
 44 H        3.9800     8.5960     1.7140 H     1 <1>   0.0800 
 45 H        6.2810     7.8010     0.9330 H     1 <1>   0.0800 
 46 H        6.4440     7.3020    -0.7280 H     1 <1>   0.0800 
 47 H        3.6510    10.8560     0.8590 H     1 <1>   0.0800 
 48 H        3.8050    10.2990    -0.7940 H     1 <1>   0.0800 
 49 H        5.9670     9.5690    -1.5160 H     1 <1>   0.0800 
 50 H        7.2690     9.6220    -0.3480 H     1 <1>   0.0800 
@<TRIPOS>BOND
  1   1   2  1   
  2   1   3  1   
  3   2   4  1   
  4   2  25  1   
  5   2  26  1   
  6   3   5  1   
  7   3  27  1   
  8   3  28  1   
  9   4   6  ar  
 10   4   7  ar  
 11   5   8  1   
 12   5  29  1   
 13   5  30  1   
 14   6   9  ar  
 15   6  31  1   
 16   7  10  ar  
 17   7  32  1   
 18   8  11  2   
 19   8  12  am  
 20   9  13  ar  
 21   9  33  1   
 22  10  13  ar  
 23  10  34  1   
 24  12  14  1   
 25  12  15  1   
 26  13  35  1   
 27  14  16  1   
 28  14  36  1   
 29  14  37  1   
 30  15  17  1   
 31  15  38  1   
 32  15  39  1   
 33  16  17  1   
 34  16  18  1   
 35  16  40  1   
 36  17  19  1   
 37  17  41  1   
 38  18  42  1   
 39  19  20  1   
 40  19  21  1   
 41  20  22  1   
 42  20  43  1   
 43  20  44  1   
 44  21  23  1   
 45  21  45  1   
 46  21  46  1   
 47  22  24  1   
 48  22  47  1   
 49  22  48  1   
 50  23  24  1   
 51  23  49  1   
 52  23  50  1   
@<TRIPOS>SUBSTRUCTURE
  1 ****   8 GROUP 4 **** **** 0

# MOE 2024.06 (io_trps.svl 2023.06)
