@<TRIPOS>MOLECULE
NONAME
44 45 1 0 0 
SMALL
USER_CHARGES


@<TRIPOS>ATOM
  1 O        2.5130    -0.8830     1.9060 O.2   1 <1>  -0.5700 
  2 C        1.9310    -0.9990     0.8540 C.2   1 <1>   0.5690 
  3 N        1.6190     0.0900     0.0950 N.am  1 <1>  -0.7300 
  4 C        1.5930    -2.4040     0.3330 C.3   1 <1>   0.1710 
  5 C        1.8730     1.5020     0.4980 C.3   1 <1>   0.1400 
  6 N        0.1940    -2.8830     0.5610 N.3   1 <1>  -0.8100 
  7 C        3.3710     1.8450     0.4990 C.3   1 <1>   0.2000 
  8 C        0.0630    -4.3080     0.2100 C.3   1 <1>   0.1100 
  9 C       -0.8070    -2.0490    -0.1220 C.3   1 <1>   0.0300 
 10 O        3.5260     3.2190     0.6320 O.3   1 <1>  -0.5600 
 11 C        4.1140     1.5200    -0.7920 C.3   1 <1>  -0.1600 
 12 C       -1.0630    -4.9590     1.0180 C.3   1 <1>   0.0960 
 13 C        4.8010     3.5900     0.2210 C.3   1 <1>   0.1200 
 14 C        5.2220     2.5620    -0.8270 C.3   1 <1>  -0.1600 
 15 N       -1.1800    -6.3810     0.6440 N.pl3 1 <1>   0.0480 
 16 C       -1.9400    -6.9470    -0.3270 C.2   1 <1>   0.0070 
 17 C       -0.5080    -7.4090     1.1940 C.2   1 <1>  -0.3020 
 18 N       -1.7930    -8.2280    -0.4210 N.2   1 <1>  -0.5650 
 19 C       -2.8780    -6.1650    -1.2250 C.3   1 <1>  -0.0600 
 20 C       -0.8940    -8.5220     0.5350 C.2   1 <1>   0.0770 
 21 H        1.1260    -0.0380    -0.7880 H     1 <1>   0.3700 
 22 H        2.2690    -3.0790     0.8280 H     1 <1>   0.0800 
 23 H        1.8160    -2.4410    -0.7180 H     1 <1>   0.0800 
 24 H        1.4830     1.6590     1.4890 H     1 <1>   0.0800 
 25 H        1.3620     2.1580    -0.1830 H     1 <1>   0.0800 
 26 H        3.8560     1.3810     1.3420 H     1 <1>   0.0800 
 27 H        0.9770    -4.8250     0.4510 H     1 <1>   0.0800 
 28 H       -0.1200    -4.4140    -0.8460 H     1 <1>   0.0800 
 29 H       -0.7760    -1.0460     0.2660 H     1 <1>   0.0800 
 30 H       -1.7970    -2.4310     0.0530 H     1 <1>   0.0800 
 31 H       -0.6230    -2.0280    -1.1830 H     1 <1>   0.0800 
 32 H        3.4570     1.6490    -1.6340 H     1 <1>   0.0800 
 33 H        4.4910     0.5130    -0.7830 H     1 <1>   0.0800 
 34 H       -2.0000    -4.4730     0.8300 H     1 <1>   0.0800 
 35 H       -0.8390    -4.8940     2.0670 H     1 <1>   0.0800 
 36 H        5.4500     3.5600     1.0800 H     1 <1>   0.0800 
 37 H        4.7580     4.5890    -0.1770 H     1 <1>   0.0800 
 38 H        5.3040     3.0150    -1.7990 H     1 <1>   0.0800 
 39 H        6.1710     2.1340    -0.5560 H     1 <1>   0.0800 
 40 H        0.1900    -7.2980     2.0030 H     1 <1>   0.1500 
 41 H       -2.3310    -5.4250    -1.7790 H     1 <1>   0.0800 
 42 H       -3.6390    -5.6870    -0.6370 H     1 <1>   0.0800 
 43 H       -3.3520    -6.8340    -1.9210 H     1 <1>   0.0800 
 44 H       -0.5690    -9.5350     0.7000 H     1 <1>   0.1500 
@<TRIPOS>BOND
  1   1   2  2   
  2   2   3  am  
  3   2   4  1   
  4   3   5  1   
  5   3  21  1   
  6   4   6  1   
  7   4  22  1   
  8   4  23  1   
  9   5   7  1   
 10   5  24  1   
 11   5  25  1   
 12   6   8  1   
 13   6   9  1   
 14   7  10  1   
 15   7  11  1   
 16   7  26  1   
 17   8  12  1   
 18   8  27  1   
 19   8  28  1   
 20   9  29  1   
 21   9  30  1   
 22   9  31  1   
 23  10  13  1   
 24  11  14  1   
 25  11  32  1   
 26  11  33  1   
 27  12  15  1   
 28  12  34  1   
 29  12  35  1   
 30  13  14  1   
 31  13  36  1   
 32  13  37  1   
 33  14  38  1   
 34  14  39  1   
 35  15  16  1   
 36  15  17  1   
 37  16  18  2   
 38  16  19  1   
 39  17  20  2   
 40  17  40  1   
 41  18  20  1   
 42  19  41  1   
 43  19  42  1   
 44  19  43  1   
 45  20  44  1   
@<TRIPOS>SUBSTRUCTURE
  1 ****   4 GROUP 4 **** **** 0

# MOE 2024.06 (io_trps.svl 2023.06)
