@<TRIPOS>MOLECULE
NONAME
45 48 1 0 0 
SMALL
USER_CHARGES


@<TRIPOS>ATOM
  1 O        0.7290    -0.3520     2.3690 O.2   1 <1>  -0.5700 
  2 C        1.5440    -0.9700     1.7070 C.2   1 <1>   0.7160 
  3 N        1.4630    -2.3220     1.6350 N.am  1 <1>  -0.4900 
  4 C        2.6050    -0.3850     0.9720 C.2   1 <1>  -0.0860 
  5 C        2.3380    -3.0720     0.8880 C.2   1 <1>   0.4490 
  6 C        3.4370    -1.1890     0.2560 C.2   1 <1>  -0.0260 
  7 C        3.0870     0.9040     0.7480 C.2   1 <1>   0.1390 
  8 N        3.3060    -2.5640     0.2060 N.2   1 <1>  -0.5760 
  9 C        2.1010    -4.5820     0.9050 C.3   1 <1>   0.1710 
 10 N        4.3440    -0.3820    -0.3400 N.pl3 1 <1>   0.3140 
 11 N        4.1240     0.9180    -0.0320 N.2   1 <1>  -0.7070 
 12 N        0.6600    -4.9480     0.9580 N.3   1 <1>  -0.8100 
 13 C        5.4520    -0.7900    -1.2100 C.3   1 <1>   0.0160 
 14 C       -0.0570    -4.6030    -0.2820 C.3   1 <1>   0.1100 
 15 C        0.4600    -6.3940     1.1650 C.3   1 <1>   0.1100 
 16 C       -1.2710    -5.5240    -0.2900 C.3   1 <1>   0.2000 
 17 C       -0.7100    -6.8320     0.2630 C.3   1 <1>  -0.0800 
 18 O       -2.1810    -5.0330     0.6260 O.3   1 <1>  -0.6800 
 19 C       -0.2500    -7.7610    -0.8770 C.3   1 <1>  -0.0170 
 20 C        0.3750    -9.0420    -0.3450 C.ar  1 <1>  -0.1430 
 21 C        1.7190    -9.3190    -0.4970 C.ar  1 <1>  -0.1500 
 22 C       -0.3710    -9.9940     0.3200 C.ar  1 <1>  -0.1500 
 23 C        2.2380   -10.4950     0.0180 C.ar  1 <1>   0.1600 
 24 C        0.2460   -11.1390     0.7970 C.ar  1 <1>   0.1600 
 25 N        1.5350   -11.4090     0.6650 N.ar  1 <1>  -0.6200 
 26 H        0.6800    -2.7880     2.0880 H     1 <1>   0.3700 
 27 H        2.6460     1.7890     1.1770 H     1 <1>   0.1500 
 28 H        2.5930    -4.9770     1.7760 H     1 <1>   0.0800 
 29 H        2.5630    -5.0220     0.0380 H     1 <1>   0.0800 
 30 H        5.2920    -1.7980    -1.5440 H     1 <1>   0.0800 
 31 H        6.3690    -0.7300    -0.6560 H     1 <1>   0.0800 
 32 H        5.4940    -0.1290    -2.0550 H     1 <1>   0.0800 
 33 H       -0.3460    -3.5650    -0.3040 H     1 <1>   0.0800 
 34 H        0.5570    -4.8170    -1.1400 H     1 <1>   0.0800 
 35 H        1.3550    -6.9450     0.9300 H     1 <1>   0.0800 
 36 H        0.2170    -6.5720     2.2000 H     1 <1>   0.0800 
 37 H       -1.7530    -5.6110    -1.2480 H     1 <1>   0.0800 
 38 H       -1.4560    -7.3490     0.8400 H     1 <1>   0.0800 
 39 H       -1.6790    -4.8130     1.4370 H     1 <1>   0.4000 
 40 H        0.4570    -7.2500    -1.5060 H     1 <1>   0.0800 
 41 H       -1.0980    -8.0200    -1.4880 H     1 <1>   0.0800 
 42 H        2.3700    -8.6350    -1.0090 H     1 <1>   0.1500 
 43 H       -1.4260    -9.8580     0.4740 H     1 <1>   0.1500 
 44 H        3.2890   -10.6940    -0.1090 H     1 <1>   0.1500 
 45 H       -0.3510   -11.8700     1.3150 H     1 <1>   0.1500 
@<TRIPOS>BOND
  1   1   2  2   
  2   2   3  am  
  3   2   4  1   
  4   3   5  1   
  5   3  26  1   
  6   4   6  2   
  7   4   7  1   
  8   5   8  2   
  9   5   9  1   
 10   6   8  1   
 11   6  10  1   
 12   7  11  2   
 13   7  27  1   
 14   9  12  1   
 15   9  28  1   
 16   9  29  1   
 17  10  11  1   
 18  10  13  1   
 19  12  14  1   
 20  12  15  1   
 21  13  30  1   
 22  13  31  1   
 23  13  32  1   
 24  14  16  1   
 25  14  33  1   
 26  14  34  1   
 27  15  17  1   
 28  15  35  1   
 29  15  36  1   
 30  16  17  1   
 31  16  18  1   
 32  16  37  1   
 33  17  19  1   
 34  17  38  1   
 35  18  39  1   
 36  19  20  1   
 37  19  40  1   
 38  19  41  1   
 39  20  21  ar  
 40  20  22  ar  
 41  21  23  ar  
 42  21  42  1   
 43  22  24  ar  
 44  22  43  1   
 45  23  25  ar  
 46  23  44  1   
 47  24  25  ar  
 48  24  45  1   
@<TRIPOS>SUBSTRUCTURE
  1 ****   9 GROUP 4 **** **** 0

# MOE 2024.06 (io_trps.svl 2023.06)
