@<TRIPOS>MOLECULE
NONAME
44 47 1 0 0 
SMALL
USER_CHARGES


@<TRIPOS>ATOM
  1 O       -0.2960     0.1010     0.5630 O.2   1 <1>  -0.5700 
  2 C       -1.3090     0.7490     0.7790 C.2   1 <1>   0.7160 
  3 N       -2.5200     0.0890     0.7370 N.am  1 <1>  -0.6600 
  4 C       -1.2340     2.1480     1.0570 C.2   1 <1>  -0.0860 
  5 C       -3.7870     0.7340     0.3000 C.3   1 <1>   0.1400 
  6 C       -2.5970    -1.3810     0.5280 C.3   1 <1>   0.1400 
  7 C       -0.3510     3.0940     0.5980 C.2   1 <1>  -0.0680 
  8 C       -2.0750     2.8990     1.8930 C.2   1 <1>   0.1390 
  9 C       -4.5540    -0.3620    -0.4370 C.3   1 <1>   0.2000 
 10 C       -4.0550    -1.6700     0.1680 C.3   1 <1>  -0.0800 
 11 N       -0.7040     4.2700     1.1370 N.pl3 1 <1>   0.6010 
 12 N        0.7550     3.2680    -0.2090 N.pl3 1 <1>  -0.5530 
 13 N       -1.7860     4.1640     1.9480 N.2   1 <1>  -0.7070 
 14 O       -5.9220    -0.2390    -0.2570 O.3   1 <1>  -0.6800 
 15 C       -4.2290    -2.8780    -0.7650 C.3   1 <1>   0.0210 
 16 C        0.1830     5.2260     0.6800 C.2   1 <1>  -0.1810 
 17 C        1.0710     4.6160    -0.1340 C.2   1 <1>  -0.0500 
 18 C        1.5150     2.1950    -0.8870 C.3   1 <1>   0.1290 
 19 C       -3.5950    -4.1200    -0.1700 C.2   1 <1>   0.1080 
 20 N       -3.9350    -4.5990     0.9860 N.2   1 <1>  -0.7070 
 21 C       -2.5900    -4.8670    -0.7740 C.2   1 <1>  -0.1500 
 22 N       -3.1490    -5.6800     1.1510 N.pl3 1 <1>   0.3000 
 23 C       -2.3240    -5.8610     0.0990 C.2   1 <1>  -0.3320 
 24 C       -1.3160    -6.9910    -0.0090 C.3   1 <1>  -0.0600 
 25 H       -4.3360     1.0590     1.1660 H     1 <1>   0.0800 
 26 H       -3.5920     1.5670    -0.3540 H     1 <1>   0.0800 
 27 H       -1.9420    -1.6620    -0.2800 H     1 <1>   0.0800 
 28 H       -2.3040    -1.9110     1.4190 H     1 <1>   0.0800 
 29 H       -2.8910     2.4670     2.4490 H     1 <1>   0.1500 
 30 H       -4.3430    -0.3070    -1.4910 H     1 <1>   0.0800 
 31 H       -4.5730    -1.8630     1.0910 H     1 <1>   0.0800 
 32 H       -6.1660    -0.4620     0.6630 H     1 <1>   0.4000 
 33 H       -3.7820    -2.6740    -1.7210 H     1 <1>   0.0800 
 34 H       -5.2770    -3.0650    -0.9190 H     1 <1>   0.0800 
 35 H        0.0860     6.2460     0.9910 H     1 <1>   0.1500 
 36 H        1.9090     5.0350    -0.6670 H     1 <1>   0.1500 
 37 H        2.2930     2.6210    -1.4940 H     1 <1>   0.0800 
 38 H        0.8500     1.6210    -1.5080 H     1 <1>   0.0800 
 39 H        1.9500     1.5450    -0.1480 H     1 <1>   0.0800 
 40 H       -2.1390    -4.6730    -1.7300 H     1 <1>   0.1500 
 41 H       -3.2010    -6.2710     1.9890 H     1 <1>   0.2700 
 42 H       -0.7800    -6.9210    -0.9390 H     1 <1>   0.0800 
 43 H       -1.8180    -7.9420     0.0250 H     1 <1>   0.0800 
 44 H       -0.6080    -6.9370     0.7990 H     1 <1>   0.0800 
@<TRIPOS>BOND
  1   1   2  2   
  2   2   3  am  
  3   2   4  1   
  4   3   5  1   
  5   3   6  1   
  6   4   7  2   
  7   4   8  1   
  8   5   9  1   
  9   5  25  1   
 10   5  26  1   
 11   6  10  1   
 12   6  27  1   
 13   6  28  1   
 14   7  11  1   
 15   7  12  1   
 16   8  13  2   
 17   8  29  1   
 18   9  10  1   
 19   9  14  1   
 20   9  30  1   
 21  10  15  1   
 22  10  31  1   
 23  11  13  1   
 24  11  16  1   
 25  12  17  1   
 26  12  18  1   
 27  14  32  1   
 28  15  19  1   
 29  15  33  1   
 30  15  34  1   
 31  16  17  2   
 32  16  35  1   
 33  17  36  1   
 34  18  37  1   
 35  18  38  1   
 36  18  39  1   
 37  19  20  2   
 38  19  21  1   
 39  20  22  1   
 40  21  23  2   
 41  21  40  1   
 42  22  23  1   
 43  22  41  1   
 44  23  24  1   
 45  24  42  1   
 46  24  43  1   
 47  24  44  1   
@<TRIPOS>SUBSTRUCTURE
  1 ****   3 GROUP 4 **** **** 0

# MOE 2024.06 (io_trps.svl 2023.06)
