@<TRIPOS>MOLECULE
NONAME
48 51 1 0 0 
SMALL
USER_CHARGES


@<TRIPOS>ATOM
  1 O       -1.8070     0.5490     2.2110 O.2   1 <1>  -0.5700 
  2 C       -2.2200     0.8320     1.1000 C.2   1 <1>   0.6160 
  3 N       -2.9860    -0.1080     0.4450 N.am  1 <1>  -0.6600 
  4 C       -1.9670     2.1480     0.5820 C.2   1 <1>   0.0290 
  5 C       -3.7960     0.1140    -0.7750 C.3   1 <1>   0.1400 
  6 C       -3.2290    -1.4720     0.9830 C.3   1 <1>   0.1400 
  7 C       -1.4080     2.3120    -0.7250 C.2   1 <1>   0.6160 
  8 C       -2.2270     3.2760     1.3230 C.2   1 <1>  -0.1500 
  9 C       -4.9070    -0.9290    -0.6790 C.3   1 <1>   0.2000 
 10 C       -4.2590    -2.1170     0.0390 C.3   1 <1>  -0.0800 
 11 O       -1.1170     1.4000    -1.4850 O.2   1 <1>  -0.5700 
 12 N       -1.1810     3.5800    -1.1850 N.am  1 <1>  -0.5390 
 13 C       -1.9770     4.5670     0.8070 C.2   1 <1>  -0.1380 
 14 O       -5.9050    -0.4300     0.1410 O.3   1 <1>  -0.6800 
 15 C       -3.5970    -3.0790    -0.9680 C.3   1 <1>  -0.0170 
 16 C       -1.4490     4.7000    -0.4450 C.2   1 <1>  -0.0290 
 17 C       -2.2980     5.7710     1.6840 C.3   1 <1>  -0.0220 
 18 C       -3.1860    -4.3910    -0.3150 C.ar  1 <1>   0.1670 
 19 C       -1.1390     6.0460    -1.0840 C.3   1 <1>  -0.0220 
 20 C       -2.3540     7.0760     0.8780 C.3   1 <1>  -0.1600 
 21 N       -1.9660    -4.4510     0.1920 N.ar  1 <1>  -0.6200 
 22 C       -4.0850    -5.4570    -0.2740 C.ar  1 <1>   0.1600 
 23 C       -1.1460     7.1890    -0.0600 C.3   1 <1>  -0.1600 
 24 C       -1.7070    -5.6280     0.7340 C.ar  1 <1>   0.1600 
 25 N       -3.8300    -6.6360     0.2680 N.ar  1 <1>  -0.6200 
 26 C       -2.6080    -6.6850     0.7710 C.ar  1 <1>   0.1600 
 27 H       -4.1890     1.1140    -0.8290 H     1 <1>   0.0800 
 28 H       -3.1870    -0.0840    -1.6400 H     1 <1>   0.0800 
 29 H       -2.3040    -2.0210     1.0260 H     1 <1>   0.0800 
 30 H       -3.6300    -1.3920     1.9790 H     1 <1>   0.0800 
 31 H       -2.6260     3.1840     2.3190 H     1 <1>   0.1500 
 32 H       -5.3440    -1.1730    -1.6320 H     1 <1>   0.0800 
 33 H       -4.9960    -2.6680     0.5990 H     1 <1>   0.0800 
 34 H       -0.7730     3.6250    -2.1180 H     1 <1>   0.3700 
 35 H       -5.4940    -0.1050     0.9690 H     1 <1>   0.4000 
 36 H       -2.7320    -2.6170    -1.4130 H     1 <1>   0.0800 
 37 H       -4.2880    -3.2980    -1.7620 H     1 <1>   0.0800 
 38 H       -3.2440     5.6220     2.1770 H     1 <1>   0.0800 
 39 H       -1.5390     5.8510     2.4420 H     1 <1>   0.0800 
 40 H       -0.1750     6.0100    -1.5610 H     1 <1>   0.0800 
 41 H       -1.8780     6.2400    -1.8410 H     1 <1>   0.0800 
 42 H       -3.2590     7.0960     0.2960 H     1 <1>   0.0800 
 43 H       -2.3740     7.9140     1.5530 H     1 <1>   0.0800 
 44 H       -5.0610    -5.3280    -0.7090 H     1 <1>   0.1500 
 45 H       -0.2420     7.1470     0.5230 H     1 <1>   0.0800 
 46 H       -1.1660     8.1340    -0.5740 H     1 <1>   0.0800 
 47 H       -0.7330    -5.7640     1.1710 H     1 <1>   0.1500 
 48 H       -2.3050    -7.6070     1.2360 H     1 <1>   0.1500 
@<TRIPOS>BOND
  1   1   2  2   
  2   2   3  am  
  3   2   4  1   
  4   3   5  1   
  5   3   6  1   
  6   4   7  1   
  7   4   8  2   
  8   5   9  1   
  9   5  27  1   
 10   5  28  1   
 11   6  10  1   
 12   6  29  1   
 13   6  30  1   
 14   7  11  2   
 15   7  12  am  
 16   8  13  1   
 17   8  31  1   
 18   9  10  1   
 19   9  14  1   
 20   9  32  1   
 21  10  15  1   
 22  10  33  1   
 23  12  16  1   
 24  12  34  1   
 25  13  16  2   
 26  13  17  1   
 27  14  35  1   
 28  15  18  1   
 29  15  36  1   
 30  15  37  1   
 31  16  19  1   
 32  17  20  1   
 33  17  38  1   
 34  17  39  1   
 35  18  21  ar  
 36  18  22  ar  
 37  19  23  1   
 38  19  40  1   
 39  19  41  1   
 40  20  23  1   
 41  20  42  1   
 42  20  43  1   
 43  21  24  ar  
 44  22  25  ar  
 45  22  44  1   
 46  23  45  1   
 47  23  46  1   
 48  24  26  ar  
 49  24  47  1   
 50  25  26  ar  
 51  26  48  1   
@<TRIPOS>SUBSTRUCTURE
  1 ****   3 GROUP 4 **** **** 0

# MOE 2024.06 (io_trps.svl 2023.06)
