@<TRIPOS>MOLECULE
NONAME
34 35 1 0 0 
SMALL
USER_CHARGES


@<TRIPOS>ATOM
  1 F        0.7200    -0.0250    -0.1050 F     1 <1>  -0.3400 
  2 C       -0.0380    -1.0620     0.2810 C.3   1 <1>   0.4010 
  3 C        0.3150    -1.4690     1.7050 C.2   1 <1>   0.5690 
  4 C        0.2960    -2.3390    -0.5170 C.3   1 <1>   0.3400 
  5 C       -1.5100    -0.7410     0.0370 C.3   1 <1>   0.1400 
  6 O        0.0120    -0.8560     2.7000 O.2   1 <1>  -0.5700 
  7 N        0.9890    -2.6380     1.7320 N.am  1 <1>  -0.7300 
  8 F        0.9540    -2.0590    -1.6450 F     1 <1>  -0.3400 
  9 C       -1.0560    -2.9660    -0.8930 C.3   1 <1>   0.1400 
 10 C        1.1920    -3.2130     0.3870 C.3   1 <1>   0.1400 
 11 N       -2.1030    -1.9750    -0.5400 N.am  1 <1>  -0.6600 
 12 C       -3.4330    -2.2760    -0.5240 C.2   1 <1>   0.7800 
 13 O       -3.8390    -3.3660    -0.8730 O.2   1 <1>  -0.5700 
 14 O       -4.2570    -1.3190    -0.0950 O.3   1 <1>  -0.4300 
 15 C       -5.6600    -1.3950     0.0290 C.3   1 <1>   0.2800 
 16 C       -6.0860    -0.0280     0.5660 C.3   1 <1>  -0.2400 
 17 C       -6.3030    -1.6220    -1.3440 C.3   1 <1>  -0.2400 
 18 C       -6.0460    -2.4780     1.0430 C.3   1 <1>  -0.2400 
 19 H       -1.6070     0.0600    -0.6750 H     1 <1>   0.0800 
 20 H       -2.0070    -0.4780     0.9560 H     1 <1>   0.0800 
 21 H        1.3630    -3.0410     2.5960 H     1 <1>   0.3700 
 22 H       -1.2340    -3.8650    -0.3280 H     1 <1>   0.0800 
 23 H       -1.1030    -3.1940    -1.9450 H     1 <1>   0.0800 
 24 H        2.2280    -3.1150     0.1080 H     1 <1>   0.0800 
 25 H        0.8930    -4.2460     0.3710 H     1 <1>   0.0800 
 26 H       -7.1530     0.0080     0.6950 H     1 <1>   0.0800 
 27 H       -5.8020     0.7480    -0.1220 H     1 <1>   0.0800 
 28 H       -5.6230     0.1600     1.5180 H     1 <1>   0.0800 
 29 H       -7.3710    -1.5400    -1.2670 H     1 <1>   0.0800 
 30 H       -6.0790    -2.6040    -1.7200 H     1 <1>   0.0800 
 31 H       -5.9540    -0.8870    -2.0460 H     1 <1>   0.0800 
 32 H       -7.1020    -2.4390     1.2380 H     1 <1>   0.0800 
 33 H       -5.5220    -2.3270     1.9700 H     1 <1>   0.0800 
 34 H       -5.8230    -3.4590     0.6670 H     1 <1>   0.0800 
@<TRIPOS>BOND
  1   1   2  1   
  2   2   3  1   
  3   2   4  1   
  4   2   5  1   
  5   3   6  2   
  6   3   7  am  
  7   4   8  1   
  8   4   9  1   
  9   4  10  1   
 10   5  11  1   
 11   5  19  1   
 12   5  20  1   
 13   7  10  1   
 14   7  21  1   
 15   9  11  1   
 16   9  22  1   
 17   9  23  1   
 18  10  24  1   
 19  10  25  1   
 20  11  12  am  
 21  12  13  2   
 22  12  14  1   
 23  14  15  1   
 24  15  16  1   
 25  15  17  1   
 26  15  18  1   
 27  16  26  1   
 28  16  27  1   
 29  16  28  1   
 30  17  29  1   
 31  17  30  1   
 32  17  31  1   
 33  18  32  1   
 34  18  33  1   
 35  18  34  1   
@<TRIPOS>SUBSTRUCTURE
  1 ****  11 GROUP 4 **** **** 0

# MOE 2024.06 (io_trps.svl 2023.06)
