@<TRIPOS>MOLECULE
NONAME
53 56 1 0 0 
SMALL
USER_CHARGES


@<TRIPOS>ATOM
  1 CL       0.3240    -0.4190     0.4700 Cl    1 <1>  -0.1770 
  2 C        1.2930    -1.6510    -0.3190 C.ar  1 <1>   0.1770 
  3 C        0.7740    -2.9330    -0.5410 C.ar  1 <1>   0.1000 
  4 C        2.5730    -1.3080    -0.7080 C.ar  1 <1>  -0.1500 
  5 N       -0.5120    -3.3400    -0.1710 N.pl3 1 <1>  -0.8380 
  6 C        1.5980    -3.8570    -1.1710 C.ar  1 <1>  -0.1500 
  7 C        3.3740    -2.2480    -1.3340 C.ar  1 <1>  -0.1500 
  8 C       -1.6320    -2.7490    -0.9340 C.3   1 <1>   0.2090 
  9 C       -0.7590    -3.4920     1.2790 C.3   1 <1>   0.2090 
 10 C        2.8820    -3.5230    -1.5640 C.ar  1 <1>  -0.1500 
 11 C       -2.8240    -3.6930    -0.8140 C.3   1 <1>  -0.1600 
 12 C       -1.9310    -4.4530     1.4490 C.3   1 <1>  -0.1600 
 13 C       -3.1470    -3.9470     0.6670 C.3   1 <1>   0.4230 
 14 N       -4.2750    -4.9080     0.8350 N.4   1 <1>  -0.9590 
 15 C       -5.6010    -4.4530     0.3290 C.3   1 <1>   0.3430 
 16 C       -4.0770    -6.2910     0.2950 C.3   1 <1>   0.3430 
 17 C       -6.4400    -5.7300     0.3410 C.3   1 <1>   0.2000 
 18 C       -5.4510    -6.7700    -0.1940 C.3   1 <1>  -0.0800 
 19 O       -6.7470    -6.0140     1.6690 O.3   1 <1>  -0.6800 
 20 C       -5.7360    -8.2420     0.1620 C.3   1 <1>  -0.0170 
 21 C       -4.6110    -9.1280    -0.3470 C.ar  1 <1>  -0.1430 
 22 C       -4.4490    -9.4010    -1.6910 C.ar  1 <1>  -0.1500 
 23 C       -3.6880    -9.7000     0.5070 C.ar  1 <1>  -0.1500 
 24 C       -3.3900   -10.1920    -2.1060 C.ar  1 <1>   0.1600 
 25 C       -2.6650   -10.4770    -0.0110 C.ar  1 <1>   0.1600 
 26 N       -2.4910   -10.7260    -1.2980 N.ar  1 <1>  -0.6200 
 27 H        2.9390    -0.3140    -0.5220 H     1 <1>   0.1500 
 28 H        1.2200    -4.8470    -1.3500 H     1 <1>   0.1500 
 29 H        4.3740    -1.9910    -1.6410 H     1 <1>   0.1500 
 30 H       -1.8740    -1.7770    -0.5380 H     1 <1>   0.0800 
 31 H       -1.3460    -2.6360    -1.9670 H     1 <1>   0.0800 
 32 H        0.1220    -3.8870     1.7580 H     1 <1>   0.0800 
 33 H       -0.9850    -2.5330     1.7160 H     1 <1>   0.0800 
 34 H        3.5020    -4.2570    -2.0500 H     1 <1>   0.1500 
 35 H       -2.5650    -4.6050    -1.3190 H     1 <1>   0.0800 
 36 H       -3.6590    -3.2410    -1.3150 H     1 <1>   0.0800 
 37 H       -2.1650    -4.5280     2.4950 H     1 <1>   0.0800 
 38 H       -1.6150    -5.4170     1.0920 H     1 <1>   0.0800 
 39 H       -3.4360    -3.0030     1.1000 H     1 <1>   0.0800 
 40 H       -4.4340    -5.0380     1.8460 H     1 <1>   0.4500 
 41 H       -6.0380    -3.6930     0.9560 H     1 <1>   0.0800 
 42 H       -5.5130    -4.0900    -0.6800 H     1 <1>   0.0800 
 43 H       -3.3740    -6.3020    -0.5210 H     1 <1>   0.0800 
 44 H       -3.7090    -6.9380     1.0740 H     1 <1>   0.0800 
 45 H       -7.3500    -5.6440    -0.2290 H     1 <1>   0.0800 
 46 H       -5.4420    -6.6880    -1.2670 H     1 <1>   0.0800 
 47 H       -7.4760    -6.6680     1.7350 H     1 <1>   0.4000 
 48 H       -6.6650    -8.5560    -0.2820 H     1 <1>   0.0800 
 49 H       -5.8240    -8.3670     1.2280 H     1 <1>   0.0800 
 50 H       -5.1330    -9.0140    -2.4240 H     1 <1>   0.1500 
 51 H       -3.7480    -9.5580     1.5710 H     1 <1>   0.1500 
 52 H       -3.2770   -10.3970    -3.1580 H     1 <1>   0.1500 
 53 H       -1.9540   -10.9190     0.6670 H     1 <1>   0.1500 
@<TRIPOS>BOND
  1   1   2  1   
  2   2   3  ar  
  3   2   4  ar  
  4   3   5  1   
  5   3   6  ar  
  6   4   7  ar  
  7   4  27  1   
  8   5   8  1   
  9   5   9  1   
 10   6  10  ar  
 11   6  28  1   
 12   7  10  ar  
 13   7  29  1   
 14   8  11  1   
 15   8  30  1   
 16   8  31  1   
 17   9  12  1   
 18   9  32  1   
 19   9  33  1   
 20  10  34  1   
 21  11  13  1   
 22  11  35  1   
 23  11  36  1   
 24  12  13  1   
 25  12  37  1   
 26  12  38  1   
 27  13  14  1   
 28  13  39  1   
 29  14  15  1   
 30  14  16  1   
 31  14  40  1   
 32  15  17  1   
 33  15  41  1   
 34  15  42  1   
 35  16  18  1   
 36  16  43  1   
 37  16  44  1   
 38  17  18  1   
 39  17  19  1   
 40  17  45  1   
 41  18  20  1   
 42  18  46  1   
 43  19  47  1   
 44  20  21  1   
 45  20  48  1   
 46  20  49  1   
 47  21  22  ar  
 48  21  23  ar  
 49  22  24  ar  
 50  22  50  1   
 51  23  25  ar  
 52  23  51  1   
 53  24  26  ar  
 54  24  52  1   
 55  25  26  ar  
 56  25  53  1   
@<TRIPOS>SUBSTRUCTURE
  1 ****  11 GROUP 4 **** **** 0

# MOE 2024.06 (io_trps.svl 2023.06)
