@<TRIPOS>MOLECULE
NONAME
47 49 1 0 0 
SMALL
USER_CHARGES


@<TRIPOS>ATOM
  1 O        0.4480     3.4660    -1.8240 O.2   1 <1>  -0.5700 
  2 C        0.0440     2.8540    -0.8530 C.2   1 <1>   0.5440 
  3 N       -1.1370     2.1510    -0.9520 N.am  1 <1>  -0.6600 
  4 C        0.8030     2.8820     0.3780 C.ar  1 <1>   0.0860 
  5 C       -1.6030     1.1750     0.0670 C.3   1 <1>   0.1400 
  6 C       -2.1420     2.5310    -1.9840 C.3   1 <1>   0.1400 
  7 C        2.0720     2.3230     0.5100 C.ar  1 <1>  -0.1440 
  8 C        0.2480     3.4910     1.5020 C.ar  1 <1>   0.1600 
  9 C       -2.8240     1.7080     0.8350 C.3   1 <1>  -0.1600 
 10 C       -3.5790     2.4100    -1.4500 C.3   1 <1>  -0.1600 
 11 C        2.6750     2.4100     1.7480 C.ar  1 <1>  -0.1500 
 12 C        2.7750     1.6430    -0.6570 C.3   1 <1>  -0.0970 
 13 N        0.8110     3.5750     2.6980 N.ar  1 <1>  -0.6200 
 14 C       -3.6900     2.7310     0.0640 C.3   1 <1>   0.2800 
 15 C        2.0140     3.0340     2.7920 C.ar  1 <1>   0.1600 
 16 O       -3.1010     3.9840     0.3010 O.3   1 <1>  -0.5600 
 17 C       -5.1490     2.7190     0.6460 C.3   1 <1>   0.2000 
 18 C       -3.6770     5.1360    -0.2460 C.3   1 <1>   0.1200 
 19 O       -5.9710     1.8760    -0.1240 O.3   1 <1>  -0.6800 
 20 C       -5.7800     4.1370     0.8090 C.3   1 <1>   0.2800 
 21 C       -5.2140     5.0980    -0.2390 C.3   1 <1>  -0.1600 
 22 O       -5.4320     4.6290     2.0540 O.3   1 <1>  -0.6800 
 23 C       -7.3150     4.1530     0.7990 C.3   1 <1>  -0.2400 
 24 H       -1.8790     0.2700    -0.4480 H     1 <1>   0.0800 
 25 H       -0.8150     0.9230     0.7550 H     1 <1>   0.0800 
 26 H       -1.9680     3.5530    -2.2760 H     1 <1>   0.0800 
 27 H       -2.0110     1.9120    -2.8540 H     1 <1>   0.0800 
 28 H       -0.7300     3.9320     1.3940 H     1 <1>   0.1500 
 29 H       -2.5070     2.1450     1.7660 H     1 <1>   0.0800 
 30 H       -3.4250     0.8530     1.0860 H     1 <1>   0.0800 
 31 H       -3.9030     1.3970    -1.6150 H     1 <1>   0.0800 
 32 H       -4.2250     3.0370    -2.0330 H     1 <1>   0.0800 
 33 H        3.6550     2.0010     1.9140 H     1 <1>   0.1500 
 34 H        3.7040     1.2010    -0.3470 H     1 <1>   0.0800 
 35 H        2.9790     2.3650    -1.4290 H     1 <1>   0.0800 
 36 H        2.1490     0.8710    -1.0680 H     1 <1>   0.0800 
 37 H        2.4990     3.0930     3.7510 H     1 <1>   0.1500 
 38 H       -5.1290     2.2740     1.6250 H     1 <1>   0.0800 
 39 H       -3.3310     5.9600     0.3540 H     1 <1>   0.0800 
 40 H       -3.2980     5.2650    -1.2450 H     1 <1>   0.0800 
 41 H       -6.1000     2.2540    -1.0120 H     1 <1>   0.4000 
 42 H       -5.5490     4.7870    -1.2110 H     1 <1>   0.0800 
 43 H       -5.5960     6.0920    -0.0910 H     1 <1>   0.0800 
 44 H       -5.7830     5.5290     2.1670 H     1 <1>   0.4000 
 45 H       -7.6900     3.8510    -0.1610 H     1 <1>   0.0800 
 46 H       -7.6920     5.1380     1.0080 H     1 <1>   0.0800 
 47 H       -7.6920     3.4660     1.5360 H     1 <1>   0.0800 
@<TRIPOS>BOND
  1   1   2  2   
  2   2   3  am  
  3   2   4  1   
  4   3   5  1   
  5   3   6  1   
  6   4   7  ar  
  7   4   8  ar  
  8   5   9  1   
  9   5  24  1   
 10   5  25  1   
 11   6  10  1   
 12   6  26  1   
 13   6  27  1   
 14   7  11  ar  
 15   7  12  1   
 16   8  13  ar  
 17   8  28  1   
 18   9  14  1   
 19   9  29  1   
 20   9  30  1   
 21  10  14  1   
 22  10  31  1   
 23  10  32  1   
 24  11  15  ar  
 25  11  33  1   
 26  12  34  1   
 27  12  35  1   
 28  12  36  1   
 29  13  15  ar  
 30  14  16  1   
 31  14  17  1   
 32  15  37  1   
 33  16  18  1   
 34  17  19  1   
 35  17  20  1   
 36  17  38  1   
 37  18  21  1   
 38  18  39  1   
 39  18  40  1   
 40  19  41  1   
 41  20  21  1   
 42  20  22  1   
 43  20  23  1   
 44  21  42  1   
 45  21  43  1   
 46  22  44  1   
 47  23  45  1   
 48  23  46  1   
 49  23  47  1   
@<TRIPOS>SUBSTRUCTURE
  1 ****  16 GROUP 4 **** **** 0

# MOE 2024.06 (io_trps.svl 2023.06)
