@<TRIPOS>MOLECULE
NONAME
48 51 1 0 0 
SMALL
USER_CHARGES


@<TRIPOS>ATOM
  1 O       -0.4980     0.1090     0.9790 O.2   1 <1>  -0.5700 
  2 C       -1.5220     0.7640     0.9280 C.2   1 <1>   0.5440 
  3 N       -2.7330     0.1050     0.9320 N.am  1 <1>  -0.6600 
  4 C       -1.4580     2.2110     0.8520 C.ar  1 <1>   0.0860 
  5 C       -2.8410    -1.3770     1.1110 C.3   1 <1>   0.1400 
  6 C       -4.0220     0.7280     0.5000 C.3   1 <1>   0.1400 
  7 C       -0.9300     2.8880    -0.2580 C.ar  1 <1>  -0.1440 
  8 C       -1.9560     2.9730     1.9110 C.ar  1 <1>  -0.1500 
  9 C       -3.5040    -2.0310    -0.1160 C.3   1 <1>   0.3440 
 10 C       -4.6210    -0.0350    -0.7030 C.3   1 <1>   0.2950 
 11 C       -0.9170     4.2730    -0.2930 C.ar  1 <1>  -0.1500 
 12 C       -0.3630     2.1090    -1.4390 C.3   1 <1>  -0.0970 
 13 C       -1.9450     4.3540     1.8740 C.ar  1 <1>  -0.1500 
 14 O       -4.7250    -1.3970    -0.4040 O.3   1 <1>  -0.5600 
 15 C       -3.7420    -3.5170     0.1320 C.ar  1 <1>  -0.1440 
 16 C       -6.0220     0.4370    -1.1300 C.3   1 <1>  -0.1950 
 17 C       -1.4270     5.0020     0.7690 C.ar  1 <1>   0.0820 
 18 C       -2.7530    -4.4330    -0.1990 C.ar  1 <1>  -0.1500 
 19 C       -4.9240    -3.9790     0.6970 C.ar  1 <1>  -0.1500 
 20 C       -6.4980     1.8530    -1.0010 C.3   1 <1>  -0.2000 
 21 C       -7.1220     0.7670    -0.1680 C.3   1 <1>  -0.2000 
 22 O       -1.4210     6.3380     0.7390 O.3   1 <1>  -0.5330 
 23 C       -2.9400    -5.7850     0.0300 C.ar  1 <1>  -0.1500 
 24 C       -5.1130    -5.3310     0.9270 C.ar  1 <1>  -0.1500 
 25 C       -4.1210    -6.2350     0.5930 C.ar  1 <1>  -0.1500 
 26 H       -1.8720    -1.8180     1.2640 H     1 <1>   0.0800 
 27 H       -3.4340    -1.5870     1.9830 H     1 <1>   0.0800 
 28 H       -4.7120     0.7030     1.3240 H     1 <1>   0.0800 
 29 H       -3.8730     1.7540     0.2220 H     1 <1>   0.0800 
 30 H       -2.3550     2.4670     2.7720 H     1 <1>   0.1500 
 31 H       -2.8620    -1.9160    -0.9720 H     1 <1>   0.0800 
 32 H       -3.9580     0.0710    -1.5450 H     1 <1>   0.0800 
 33 H       -0.5110     4.7880    -1.1430 H     1 <1>   0.1500 
 34 H       -0.0780     2.7670    -2.2400 H     1 <1>   0.0800 
 35 H       -1.0930     1.4140    -1.8120 H     1 <1>   0.0800 
 36 H        0.5080     1.5590    -1.1270 H     1 <1>   0.0800 
 37 H       -2.3320     4.9330     2.6930 H     1 <1>   0.1500 
 38 H       -6.3220    -0.0760    -2.0290 H     1 <1>   0.1000 
 39 H       -1.8280    -4.0980    -0.6370 H     1 <1>   0.1500 
 40 H       -5.7040    -3.2840     0.9580 H     1 <1>   0.1500 
 41 H       -5.9060     2.5950    -0.4960 H     1 <1>   0.1000 
 42 H       -7.0750     2.2760    -1.8060 H     1 <1>   0.1000 
 43 H       -8.1180     0.4340    -0.4050 H     1 <1>   0.1000 
 44 H       -6.9290     0.7410     0.8900 H     1 <1>   0.1000 
 45 H       -1.0140     6.7120    -0.0630 H     1 <1>   0.4500 
 46 H       -2.1680    -6.4870    -0.2310 H     1 <1>   0.1500 
 47 H       -6.0330    -5.6770     1.3630 H     1 <1>   0.1500 
 48 H       -4.2680    -7.2860     0.7710 H     1 <1>   0.1500 
@<TRIPOS>BOND
  1   1   2  2   
  2   2   3  am  
  3   2   4  1   
  4   3   5  1   
  5   3   6  1   
  6   4   7  ar  
  7   4   8  ar  
  8   5   9  1   
  9   5  26  1   
 10   5  27  1   
 11   6  10  1   
 12   6  28  1   
 13   6  29  1   
 14   7  11  ar  
 15   7  12  1   
 16   8  13  ar  
 17   8  30  1   
 18   9  14  1   
 19   9  15  1   
 20   9  31  1   
 21  10  14  1   
 22  10  16  1   
 23  10  32  1   
 24  11  17  ar  
 25  11  33  1   
 26  12  34  1   
 27  12  35  1   
 28  12  36  1   
 29  13  17  ar  
 30  13  37  1   
 31  15  18  ar  
 32  15  19  ar  
 33  16  20  1   
 34  16  21  1   
 35  16  38  1   
 36  17  22  1   
 37  18  23  ar  
 38  18  39  1   
 39  19  24  ar  
 40  19  40  1   
 41  20  21  1   
 42  20  41  1   
 43  20  42  1   
 44  21  43  1   
 45  21  44  1   
 46  22  45  1   
 47  23  25  ar  
 48  23  46  1   
 49  24  25  ar  
 50  24  47  1   
 51  25  48  1   
@<TRIPOS>SUBSTRUCTURE
  1 ****   3 GROUP 4 **** **** 0

# MOE 2024.06 (io_trps.svl 2023.06)
