@<TRIPOS>MOLECULE
NONAME
46 48 1 0 0 
SMALL
USER_CHARGES


@<TRIPOS>ATOM
  1 O       -0.5320    -0.0270     0.0330 O.2   1 <1>  -0.5700 
  2 C       -1.6070     0.5380     0.1050 C.2   1 <1>   0.5440 
  3 N       -1.6430     1.8290     0.5900 N.am  1 <1>  -0.6600 
  4 C       -2.7960    -0.1660    -0.3080 C.ar  1 <1>   0.0860 
  5 C       -2.8520     2.4950     1.1610 C.3   1 <1>   0.1400 
  6 C       -0.3950     2.6240     0.7930 C.3   1 <1>   0.1400 
  7 C       -3.0540    -1.4490     0.1670 C.ar  1 <1>   0.1600 
  8 C       -3.7250     0.3710    -1.1930 C.ar  1 <1>  -0.1500 
  9 C       -2.9300     3.9590     0.6980 C.3   1 <1>   0.1200 
 10 C       -0.6080     4.0860     0.3630 C.3   1 <1>   0.1200 
 11 N       -4.1110    -2.1870    -0.1240 N.ar  1 <1>  -0.6200 
 12 C       -4.8260    -0.3870    -1.5110 C.ar  1 <1>  -0.1500 
 13 O       -1.7370     4.6320     0.9870 O.3   1 <1>  -0.5600 
 14 C       -4.9920    -1.6570    -0.9620 C.ar  1 <1>   0.4100 
 15 N       -6.1070    -2.3850    -1.3010 N.pl3 1 <1>  -0.8690 
 16 C       -6.3620    -3.8290    -1.0740 C.3   1 <1>   0.2890 
 17 C       -6.4320    -4.1690     0.4250 C.3   1 <1>  -0.0170 
 18 C       -5.3350    -4.6590    -1.8450 C.3   1 <1>  -0.2400 
 19 C       -7.0440    -5.5450     0.6590 C.ar  1 <1>  -0.1430 
 20 C       -8.4210    -5.7190     0.6490 C.ar  1 <1>   0.1600 
 21 C       -6.2390    -6.6430     0.8850 C.ar  1 <1>  -0.1500 
 22 N       -9.0430    -6.8730     0.8310 N.ar  1 <1>  -0.6200 
 23 C       -6.8690    -7.8530     1.0810 C.ar  1 <1>  -0.1500 
 24 C       -8.2520    -7.9120     1.0440 C.ar  1 <1>   0.1600 
 25 H       -2.7870     2.4750     2.2350 H     1 <1>   0.0800 
 26 H       -3.7510     1.9790     0.8790 H     1 <1>   0.0800 
 27 H        0.4150     2.2030     0.2230 H     1 <1>   0.0800 
 28 H       -0.1200     2.5940     1.8330 H     1 <1>   0.0800 
 29 H       -2.3290    -1.8830     0.8350 H     1 <1>   0.1500 
 30 H       -3.5730     1.3490    -1.6130 H     1 <1>   0.1500 
 31 H       -3.7250     4.4700     1.2110 H     1 <1>   0.0800 
 32 H       -3.1090     4.0150    -0.3620 H     1 <1>   0.0800 
 33 H       -0.7380     4.1480    -0.7030 H     1 <1>   0.0800 
 34 H        0.2430     4.6810     0.6430 H     1 <1>   0.0800 
 35 H       -5.5690    -0.0110    -2.1880 H     1 <1>   0.1500 
 36 H       -6.6700    -2.0020    -2.0590 H     1 <1>   0.4000 
 37 H       -7.3300    -4.0440    -1.4930 H     1 <1>   0.0800 
 38 H       -7.0320    -3.4290     0.9230 H     1 <1>   0.0800 
 39 H       -5.4500    -4.1420     0.8580 H     1 <1>   0.0800 
 40 H       -4.3540    -4.5360    -1.4230 H     1 <1>   0.0800 
 41 H       -5.3150    -4.3580    -2.8760 H     1 <1>   0.0800 
 42 H       -5.5950    -5.7000    -1.8010 H     1 <1>   0.0800 
 43 H       -9.0480    -4.8610     0.4790 H     1 <1>   0.1500 
 44 H       -5.1660    -6.5630     0.9060 H     1 <1>   0.1500 
 45 H       -6.2960    -8.7440     1.2610 H     1 <1>   0.1500 
 46 H       -8.7320    -8.8630     1.1980 H     1 <1>   0.1500 
@<TRIPOS>BOND
  1   1   2  2   
  2   2   3  am  
  3   2   4  1   
  4   3   5  1   
  5   3   6  1   
  6   4   7  ar  
  7   4   8  ar  
  8   5   9  1   
  9   5  25  1   
 10   5  26  1   
 11   6  10  1   
 12   6  27  1   
 13   6  28  1   
 14   7  11  ar  
 15   7  29  1   
 16   8  12  ar  
 17   8  30  1   
 18   9  13  1   
 19   9  31  1   
 20   9  32  1   
 21  10  13  1   
 22  10  33  1   
 23  10  34  1   
 24  11  14  ar  
 25  12  14  ar  
 26  12  35  1   
 27  14  15  1   
 28  15  16  1   
 29  15  36  1   
 30  16  17  1   
 31  16  18  1   
 32  16  37  1   
 33  17  19  1   
 34  17  38  1   
 35  17  39  1   
 36  18  40  1   
 37  18  41  1   
 38  18  42  1   
 39  19  20  ar  
 40  19  21  ar  
 41  20  22  ar  
 42  20  43  1   
 43  21  23  ar  
 44  21  44  1   
 45  22  24  ar  
 46  23  24  ar  
 47  23  45  1   
 48  24  46  1   
@<TRIPOS>SUBSTRUCTURE
  1 ****  11 GROUP 4 **** **** 0

# MOE 2024.06 (io_trps.svl 2023.06)
