@<TRIPOS>MOLECULE
NONAME
55 57 1 0 0 
SMALL
USER_CHARGES


@<TRIPOS>ATOM
  1 O        1.0000    -0.8480     0.4810 O.3   1 <1>  -0.3630 
  2 C        0.4690    -2.0960     0.5920 C.ar  1 <1>   0.0820 
  3 C        0.9200    -0.0760    -0.6960 C.3   1 <1>   0.2000 
  4 C        0.7110    -2.7620     1.7820 C.ar  1 <1>  -0.1500 
  5 C       -0.2840    -2.7220    -0.3980 C.ar  1 <1>  -0.1500 
  6 C        1.9750    -0.5710    -1.6880 C.3   1 <1>  -0.2400 
  7 C        1.1820     1.3740    -0.2960 C.3   1 <1>  -0.2400 
  8 C        0.2120    -4.0350     1.9890 C.ar  1 <1>  -0.1500 
  9 C       -0.7850    -3.9970    -0.1930 C.ar  1 <1>  -0.1500 
 10 C       -0.5370    -4.6610     1.0060 C.ar  1 <1>   0.0820 
 11 O       -0.9880    -5.9110     1.2890 O.3   1 <1>  -0.3630 
 12 C       -1.7580    -6.6360     0.3620 C.3   1 <1>   0.1200 
 13 C       -2.0830    -7.9890     1.0000 C.3   1 <1>   0.3430 
 14 N       -2.7930    -8.9220     0.0620 N.4   1 <1>  -0.9590 
 15 C       -4.2000    -8.4650    -0.2140 C.3   1 <1>   0.3430 
 16 C       -2.9030   -10.2750     0.7020 C.3   1 <1>   0.3430 
 17 C       -5.1160    -9.3640     0.6220 C.3   1 <1>   0.2000 
 18 C       -4.3760   -10.6950     0.6370 C.3   1 <1>  -0.0800 
 19 O       -5.1400    -8.8680     1.9190 O.3   1 <1>  -0.6800 
 20 C       -4.6830   -11.5460    -0.6130 C.3   1 <1>  -0.0170 
 21 C       -3.7320   -12.7280    -0.7110 C.ar  1 <1>  -0.1430 
 22 C       -3.7380   -13.7470     0.2210 C.ar  1 <1>  -0.1500 
 23 C       -2.8080   -12.8410    -1.7320 C.ar  1 <1>  -0.1500 
 24 C       -2.8320   -14.7880     0.1040 C.ar  1 <1>   0.1600 
 25 C       -1.9460   -13.9250    -1.7580 C.ar  1 <1>   0.1600 
 26 N       -1.9300   -14.8910    -0.8570 N.ar  1 <1>  -0.6200 
 27 H       -0.0740    -0.1530    -1.1000 H     1 <1>   0.0800 
 28 H        1.2920    -2.2740     2.5440 H     1 <1>   0.1500 
 29 H       -0.4900    -2.2340    -1.3310 H     1 <1>   0.1500 
 30 H        2.9570    -0.4940    -1.2550 H     1 <1>   0.0800 
 31 H        1.9480     0.0270    -2.5810 H     1 <1>   0.0800 
 32 H        1.7920    -1.5930    -1.9620 H     1 <1>   0.0800 
 33 H        2.1590     1.4710     0.1440 H     1 <1>   0.0800 
 34 H        0.4400     1.6970     0.4120 H     1 <1>   0.0800 
 35 H        1.1270     2.0110    -1.1600 H     1 <1>   0.0800 
 36 H        0.4040    -4.5440     2.9160 H     1 <1>   0.1500 
 37 H       -1.3600    -4.4460    -0.9790 H     1 <1>   0.1500 
 38 H       -2.6520    -6.0730     0.1610 H     1 <1>   0.0800 
 39 H       -1.1690    -6.7620    -0.5290 H     1 <1>   0.0800 
 40 H       -2.6940    -7.8260     1.8750 H     1 <1>   0.0800 
 41 H       -1.1560    -8.4400     1.3150 H     1 <1>   0.0800 
 42 H       -2.2610    -9.0030    -0.8140 H     1 <1>   0.4500 
 43 H       -4.3530    -7.4290     0.0400 H     1 <1>   0.0800 
 44 H       -4.4250    -8.6090    -1.2570 H     1 <1>   0.0800 
 45 H       -2.2620   -10.9950     0.2180 H     1 <1>   0.0800 
 46 H       -2.6170   -10.2060     1.7390 H     1 <1>   0.0800 
 47 H       -6.1240    -9.4100     0.2440 H     1 <1>   0.0800 
 48 H       -4.6320   -11.2720     1.5090 H     1 <1>   0.0800 
 49 H       -5.8480    -9.2880     2.4530 H     1 <1>   0.4000 
 50 H       -4.6030   -10.9550    -1.5090 H     1 <1>   0.0800 
 51 H       -5.6930   -11.9160    -0.5620 H     1 <1>   0.0800 
 52 H       -4.4370   -13.7520     1.0370 H     1 <1>   0.1500 
 53 H       -2.7460   -12.1090    -2.5160 H     1 <1>   0.1500 
 54 H       -2.8480   -15.5760     0.8380 H     1 <1>   0.1500 
 55 H       -1.2320   -14.0040    -2.5620 H     1 <1>   0.1500 
@<TRIPOS>BOND
  1   1   2  1   
  2   1   3  1   
  3   2   4  ar  
  4   2   5  ar  
  5   3   6  1   
  6   3   7  1   
  7   3  27  1   
  8   4   8  ar  
  9   4  28  1   
 10   5   9  ar  
 11   5  29  1   
 12   6  30  1   
 13   6  31  1   
 14   6  32  1   
 15   7  33  1   
 16   7  34  1   
 17   7  35  1   
 18   8  10  ar  
 19   8  36  1   
 20   9  10  ar  
 21   9  37  1   
 22  10  11  1   
 23  11  12  1   
 24  12  13  1   
 25  12  38  1   
 26  12  39  1   
 27  13  14  1   
 28  13  40  1   
 29  13  41  1   
 30  14  15  1   
 31  14  16  1   
 32  14  42  1   
 33  15  17  1   
 34  15  43  1   
 35  15  44  1   
 36  16  18  1   
 37  16  45  1   
 38  16  46  1   
 39  17  18  1   
 40  17  19  1   
 41  17  47  1   
 42  18  20  1   
 43  18  48  1   
 44  19  49  1   
 45  20  21  1   
 46  20  50  1   
 47  20  51  1   
 48  21  22  ar  
 49  21  23  ar  
 50  22  24  ar  
 51  22  52  1   
 52  23  25  ar  
 53  23  53  1   
 54  24  26  ar  
 55  24  54  1   
 56  25  26  ar  
 57  25  55  1   
@<TRIPOS>SUBSTRUCTURE
  1 ****  12 GROUP 4 **** **** 0

# MOE 2024.06 (io_trps.svl 2023.06)
