@<TRIPOS>MOLECULE
NONAME
47 49 1 0 0 
SMALL
USER_CHARGES


@<TRIPOS>ATOM
  1 O       -1.8550     0.0850    -0.4690 O.2   1 <1>  -0.5700 
  2 C       -1.9500     1.3000    -0.5750 C.2   1 <1>   0.7150 
  3 N       -2.7080     1.8070    -1.6150 N.am  1 <1>  -0.6600 
  4 C       -1.3220     2.1640     0.4090 C.2   1 <1>   0.1010 
  5 C       -3.3460     0.9070    -2.6160 C.3   1 <1>   0.1400 
  6 C       -3.2690     3.1810    -1.5810 C.3   1 <1>   0.1400 
  7 N       -0.4950     3.1610     0.1650 N.2   1 <1>  -0.5650 
  8 N       -1.5540     2.0230     1.7460 N.pl3 1 <1>   0.0480 
  9 C       -4.5390     0.1260    -2.0360 C.3   1 <1>   0.1400 
 10 C       -4.5550     3.2230    -0.7440 C.3   1 <1>  -0.1600 
 11 C       -0.1940     3.6540     1.3720 C.2   1 <1>   0.0770 
 12 C       -0.8320     2.9760     2.3480 C.2   1 <1>  -0.3020 
 13 C       -2.4700     1.0800     2.4150 C.3   1 <1>   0.0160 
 14 N       -5.2510     0.8280    -0.9130 N.am  1 <1>  -0.6600 
 15 C       -5.6470     2.2390    -1.1920 C.3   1 <1>   0.1400 
 16 C       -5.4790     0.2850     0.3340 C.2   1 <1>   0.5690 
 17 O       -5.9170     0.9690     1.2320 O.2   1 <1>  -0.5700 
 18 C       -5.1820    -1.1940     0.6380 C.3   1 <1>  -0.0190 
 19 C       -6.1610    -2.1370    -0.0890 C.3   1 <1>  -0.1600 
 20 C       -5.2230    -1.5390     2.1410 C.3   1 <1>  -0.1600 
 21 C       -5.8770    -3.6010     0.2640 C.3   1 <1>   0.1200 
 22 C       -4.9880    -3.0350     2.3670 C.3   1 <1>   0.1200 
 23 O       -5.9320    -3.7650     1.6460 O.3   1 <1>  -0.5600 
 24 H       -2.6120     0.2090    -2.9820 H     1 <1>   0.0800 
 25 H       -3.6780     1.4860    -3.4590 H     1 <1>   0.0800 
 26 H       -3.4760     3.5080    -2.5850 H     1 <1>   0.0800 
 27 H       -2.5500     3.8680    -1.1690 H     1 <1>   0.0800 
 28 H       -4.1580    -0.8210    -1.7080 H     1 <1>   0.0800 
 29 H       -5.2420    -0.0770    -2.8250 H     1 <1>   0.0800 
 30 H       -4.9550     4.2180    -0.8090 H     1 <1>   0.0800 
 31 H       -4.3200     3.0510     0.2910 H     1 <1>   0.0800 
 32 H        0.4780     4.4890     1.4850 H     1 <1>   0.1500 
 33 H       -0.8070     3.1260     3.4120 H     1 <1>   0.1500 
 34 H       -2.2380     0.0760     2.1080 H     1 <1>   0.0800 
 35 H       -3.4820     1.3170     2.1420 H     1 <1>   0.0800 
 36 H       -2.3600     1.1620     3.4800 H     1 <1>   0.0800 
 37 H       -5.8560     2.3620    -2.2400 H     1 <1>   0.0800 
 38 H       -6.5540     2.4580    -0.6530 H     1 <1>   0.0800 
 39 H       -4.1810    -1.4030     0.3080 H     1 <1>   0.0800 
 40 H       -6.0910    -2.0130    -1.1530 H     1 <1>   0.0800 
 41 H       -7.1710    -1.9010     0.2000 H     1 <1>   0.0800 
 42 H       -6.1830    -1.2770     2.5540 H     1 <1>   0.0800 
 43 H       -4.4770    -0.9770     2.6700 H     1 <1>   0.0800 
 44 H       -4.9020    -3.9060    -0.0790 H     1 <1>   0.0800 
 45 H       -6.6200    -4.2460    -0.1710 H     1 <1>   0.0800 
 46 H       -5.1070    -3.2840     3.4070 H     1 <1>   0.0800 
 47 H       -4.0040    -3.3330     2.0440 H     1 <1>   0.0800 
@<TRIPOS>BOND
  1   1   2  2   
  2   2   3  am  
  3   2   4  1   
  4   3   5  1   
  5   3   6  1   
  6   4   7  2   
  7   4   8  1   
  8   5   9  1   
  9   5  24  1   
 10   5  25  1   
 11   6  10  1   
 12   6  26  1   
 13   6  27  1   
 14   7  11  1   
 15   8  12  1   
 16   8  13  1   
 17   9  14  1   
 18   9  28  1   
 19   9  29  1   
 20  10  15  1   
 21  10  30  1   
 22  10  31  1   
 23  11  12  2   
 24  11  32  1   
 25  12  33  1   
 26  13  34  1   
 27  13  35  1   
 28  13  36  1   
 29  14  15  1   
 30  14  16  am  
 31  15  37  1   
 32  15  38  1   
 33  16  17  2   
 34  16  18  1   
 35  18  19  1   
 36  18  20  1   
 37  18  39  1   
 38  19  21  1   
 39  19  40  1   
 40  19  41  1   
 41  20  22  1   
 42  20  42  1   
 43  20  43  1   
 44  21  23  1   
 45  21  44  1   
 46  21  45  1   
 47  22  23  1   
 48  22  46  1   
 49  22  47  1   
@<TRIPOS>SUBSTRUCTURE
  1 ****  16 GROUP 4 **** **** 0

# MOE 2024.06 (io_trps.svl 2023.06)
