@<TRIPOS>MOLECULE
NONAME
46 47 1 0 0 
SMALL
USER_CHARGES


@<TRIPOS>ATOM
  1 F        1.8080     3.9960     0.0200 F     1 <1>  -0.3400 
  2 C        1.9020     3.5240     1.2590 C.3   1 <1>   0.9600 
  3 F        2.3530     4.5490     1.9790 F     1 <1>  -0.3400 
  4 O        2.9310     2.5380     1.2960 O.3   1 <1>  -0.3630 
  5 C        0.5000     3.1030     1.7930 C.3   1 <1>   0.6000 
  6 C        2.8980     1.4940     0.4400 C.ar  1 <1>   0.0830 
  7 F        0.5720     2.5060     2.9850 F     1 <1>  -0.3400 
  8 F       -0.1190     2.2130     1.0140 F     1 <1>  -0.3400 
  9 C        3.5650     1.5500    -0.7920 C.ar  1 <1>   0.0860 
 10 C        2.2180     0.3490     0.8320 C.ar  1 <1>  -0.1500 
 11 C        4.3670     2.6790    -1.2220 C.2   1 <1>   0.5440 
 12 C        3.4520     0.4390    -1.6300 C.ar  1 <1>  -0.1500 
 13 C        2.1400    -0.7410    -0.0120 C.ar  1 <1>  -0.1500 
 14 O        4.1360     3.1670    -2.3140 O.2   1 <1>  -0.5700 
 15 N        5.4370     3.1550    -0.4820 N.am  1 <1>  -0.6600 
 16 C        2.7520    -0.6910    -1.2520 C.ar  1 <1>  -0.1500 
 17 C        6.1280     4.4280    -0.8810 C.3   1 <1>   0.1400 
 18 C        6.1700     2.2840     0.4810 C.3   1 <1>   0.1400 
 19 C        5.6650     5.6630    -0.0810 C.3   1 <1>   0.2000 
 20 C        6.2810     2.9370     1.8580 C.3   1 <1>  -0.2400 
 21 O        4.3310     5.9540    -0.3750 O.3   1 <1>  -0.5600 
 22 C        6.5190     6.8980    -0.4170 C.3   1 <1>  -0.1600 
 23 C        3.7680     6.9790     0.3810 C.3   1 <1>   0.1200 
 24 C        6.0070     8.1410     0.3210 C.3   1 <1>  -0.1600 
 25 C        4.5000     8.2920     0.0850 C.3   1 <1>  -0.1600 
 26 H       -0.1510     3.9500     1.8910 H     1 <1>   0.0800 
 27 H        1.7450     0.3080     1.7980 H     1 <1>   0.1500 
 28 H        3.9290     0.4750    -2.5950 H     1 <1>   0.1500 
 29 H        1.6020    -1.6230     0.2900 H     1 <1>   0.1500 
 30 H        2.6840    -1.5330    -1.9200 H     1 <1>   0.1500 
 31 H        5.9720     4.6260    -1.9270 H     1 <1>   0.0800 
 32 H        7.1860     4.3020    -0.7420 H     1 <1>   0.0800 
 33 H        7.1550     2.0830     0.0940 H     1 <1>   0.0800 
 34 H        5.6690     1.3380     0.5860 H     1 <1>   0.0800 
 35 H        5.7320     5.4550     0.9710 H     1 <1>   0.0800 
 36 H        6.9580     3.7700     1.8300 H     1 <1>   0.0800 
 37 H        6.6650     2.2210     2.5620 H     1 <1>   0.0800 
 38 H        5.3150     3.2640     2.1970 H     1 <1>   0.0800 
 39 H        6.4810     7.0670    -1.4790 H     1 <1>   0.0800 
 40 H        7.5440     6.7160    -0.1470 H     1 <1>   0.0800 
 41 H        3.8390     6.7160     1.4230 H     1 <1>   0.0800 
 42 H        2.7300     7.0520     0.1070 H     1 <1>   0.0800 
 43 H        6.5260     9.0190    -0.0230 H     1 <1>   0.0800 
 44 H        6.1920     8.0310     1.3760 H     1 <1>   0.0800 
 45 H        4.1060     9.0740     0.7090 H     1 <1>   0.0800 
 46 H        4.3150     8.5620    -0.9410 H     1 <1>   0.0800 
@<TRIPOS>BOND
  1   1   2  1   
  2   2   3  1   
  3   2   4  1   
  4   2   5  1   
  5   4   6  1   
  6   5   7  1   
  7   5   8  1   
  8   5  26  1   
  9   6   9  ar  
 10   6  10  ar  
 11   9  11  1   
 12   9  12  ar  
 13  10  13  ar  
 14  10  27  1   
 15  11  14  2   
 16  11  15  am  
 17  12  16  ar  
 18  12  28  1   
 19  13  16  ar  
 20  13  29  1   
 21  15  17  1   
 22  15  18  1   
 23  16  30  1   
 24  17  19  1   
 25  17  31  1   
 26  17  32  1   
 27  18  20  1   
 28  18  33  1   
 29  18  34  1   
 30  19  21  1   
 31  19  22  1   
 32  19  35  1   
 33  20  36  1   
 34  20  37  1   
 35  20  38  1   
 36  21  23  1   
 37  22  24  1   
 38  22  39  1   
 39  22  40  1   
 40  23  25  1   
 41  23  41  1   
 42  23  42  1   
 43  24  25  1   
 44  24  43  1   
 45  24  44  1   
 46  25  45  1   
 47  25  46  1   
@<TRIPOS>SUBSTRUCTURE
  1 ****   4 GROUP 4 **** **** 0

# MOE 2024.06 (io_trps.svl 2023.06)
