@<TRIPOS>MOLECULE
NONAME
41 42 1 0 0 
SMALL
USER_CHARGES


@<TRIPOS>ATOM
  1 CL       0.7610     1.7710    -2.5620 Cl    1 <1>  -0.1770 
  2 C        1.8730     1.2940    -1.3030 C.ar  1 <1>   0.1770 
  3 C        2.1060    -0.0500    -1.0720 C.ar  1 <1>  -0.1440 
  4 C        2.4940     2.2770    -0.5520 C.ar  1 <1>  -0.1500 
  5 C        2.9880    -0.3750    -0.0570 C.ar  1 <1>   0.1900 
  6 C        1.4350    -1.1270    -1.8960 C.3   1 <1>   0.4860 
  7 C        3.3730     1.9180     0.4590 C.ar  1 <1>  -0.1500 
  8 F        3.2150    -1.6410     0.1750 F     1 <1>  -0.1900 
  9 C        3.6310     0.5800     0.7200 C.ar  1 <1>  -0.1440 
 10 N        0.3470    -1.7630    -1.1120 N.4   1 <1>  -0.9590 
 11 C        4.5950     0.1800     1.8280 C.3   1 <1>  -0.0970 
 12 C       -0.1470    -3.0070    -1.7600 C.3   1 <1>   0.5240 
 13 C       -0.7420    -0.8080    -0.7180 C.3   1 <1>   0.3430 
 14 C       -0.3760    -4.0340    -0.6600 C.2   1 <1>   0.0460 
 15 C       -1.6180    -1.3260     0.4330 C.3   1 <1>   0.1200 
 16 N        0.3830    -4.0030     0.4570 N.2   1 <1>  -0.5650 
 17 C       -1.2830    -5.0340    -0.5940 C.2   1 <1>  -0.3020 
 18 O       -2.5410    -0.3400     0.7370 O.3   1 <1>  -0.6800 
 19 C       -0.0640    -4.9860     1.1680 C.2   1 <1>   0.0060 
 20 N       -1.0820    -5.6550     0.5830 N.pl3 1 <1>   0.0330 
 21 C        0.4910    -5.3670     2.5250 C.3   1 <1>  -0.0600 
 22 H        2.2920     3.3140    -0.7550 H     1 <1>   0.1500 
 23 H        2.1740    -1.8690    -2.1580 H     1 <1>   0.0800 
 24 H        1.0410    -0.7080    -2.8060 H     1 <1>   0.0800 
 25 H        3.8530     2.6880     1.0410 H     1 <1>   0.1500 
 26 H        0.7750    -2.1360    -0.2390 H     1 <1>   0.4500 
 27 H        5.3980    -0.4110     1.4240 H     1 <1>   0.0800 
 28 H        4.0810    -0.4010     2.5720 H     1 <1>   0.0800 
 29 H        5.0180     1.0460     2.3050 H     1 <1>   0.0800 
 30 H        0.6020    -3.3980    -2.4280 H     1 <1>   0.0800 
 31 H       -1.0540    -2.8290    -2.3140 H     1 <1>   0.0800 
 32 H       -1.3680    -0.5960    -1.5690 H     1 <1>   0.0800 
 33 H       -0.3020     0.1180    -0.3890 H     1 <1>   0.0800 
 34 H       -1.0250    -1.5150     1.3110 H     1 <1>   0.0800 
 35 H       -2.1630    -2.2100     0.1520 H     1 <1>   0.0800 
 36 H       -2.0410    -5.3430    -1.2940 H     1 <1>   0.1500 
 37 H       -3.1000    -0.5960     1.5020 H     1 <1>   0.4000 
 38 H       -1.5800    -6.4680     0.9610 H     1 <1>   0.2700 
 39 H        1.3000    -4.7090     2.7890 H     1 <1>   0.0800 
 40 H        0.8640    -6.3740     2.5020 H     1 <1>   0.0800 
 41 H       -0.2750    -5.2880     3.2750 H     1 <1>   0.0800 
@<TRIPOS>BOND
  1   1   2  1   
  2   2   3  ar  
  3   2   4  ar  
  4   3   5  ar  
  5   3   6  1   
  6   4   7  ar  
  7   4  22  1   
  8   5   8  1   
  9   5   9  ar  
 10   6  10  1   
 11   6  23  1   
 12   6  24  1   
 13   7   9  ar  
 14   7  25  1   
 15   9  11  1   
 16  10  12  1   
 17  10  13  1   
 18  10  26  1   
 19  11  27  1   
 20  11  28  1   
 21  11  29  1   
 22  12  14  1   
 23  12  30  1   
 24  12  31  1   
 25  13  15  1   
 26  13  32  1   
 27  13  33  1   
 28  14  16  1   
 29  14  17  2   
 30  15  18  1   
 31  15  34  1   
 32  15  35  1   
 33  16  19  2   
 34  17  20  1   
 35  17  36  1   
 36  18  37  1   
 37  19  20  1   
 38  19  21  1   
 39  20  38  1   
 40  21  39  1   
 41  21  40  1   
 42  21  41  1   
@<TRIPOS>SUBSTRUCTURE
  1 ****  10 GROUP 4 **** **** 0

# MOE 2024.06 (io_trps.svl 2023.06)
