@<TRIPOS>MOLECULE
NONAME
44 46 1 0 0 
SMALL
USER_CHARGES


@<TRIPOS>ATOM
  1 O       -1.9450    -1.1540     0.7810 O.3   1 <1>  -0.5600 
  2 C       -2.1310    -0.0820     1.6590 C.3   1 <1>   0.1200 
  3 C       -1.5320    -0.9190    -0.5270 C.3   1 <1>   0.1200 
  4 C       -3.0510     1.0540     1.1480 C.3   1 <1>   0.4230 
  5 C       -2.6490    -0.2990    -1.3930 C.3   1 <1>  -0.0800 
  6 N       -2.4110     1.7950    -0.0030 N.4   1 <1>  -0.9590 
  7 C       -4.5140     0.6130     0.8870 C.3   1 <1>   0.2090 
  8 C       -4.0330    -0.9360    -1.2090 C.3   1 <1>   0.2090 
  9 C       -2.7510     1.2220    -1.3370 C.3   1 <1>   0.3430 
 10 C       -2.7540     3.2500     0.0280 C.3   1 <1>   0.2630 
 11 N       -4.7450    -0.6270     0.0700 N.pl3 1 <1>  -0.8380 
 12 C       -6.0170    -1.2180     0.1840 C.ar  1 <1>   0.4100 
 13 N       -7.0010    -0.3360     0.2750 N.ar  1 <1>  -0.6200 
 14 C       -6.2420    -2.6460     0.1760 C.ar  1 <1>   0.4100 
 15 C       -8.1980    -0.9030     0.3380 C.ar  1 <1>   0.1600 
 16 N       -7.4550    -3.1720     0.2330 N.ar  1 <1>  -0.6200 
 17 N       -5.1960    -3.5880     0.1200 N.pl3 1 <1>  -0.8380 
 18 C       -8.4160    -2.2650     0.3150 C.ar  1 <1>   0.1600 
 19 C       -5.4640    -4.9620    -0.3900 C.3   1 <1>   0.1290 
 20 C       -4.1580    -3.5340     1.1850 C.3   1 <1>   0.1290 
 21 H       -2.5620    -0.4980     2.5530 H     1 <1>   0.0800 
 22 H       -1.1630     0.3080     1.9170 H     1 <1>   0.0800 
 23 H       -0.6390    -0.3190    -0.5150 H     1 <1>   0.0800 
 24 H       -1.2760    -1.8840    -0.9330 H     1 <1>   0.0800 
 25 H       -3.1090     1.7530     1.9650 H     1 <1>   0.0800 
 26 H       -2.3780    -0.5220    -2.4090 H     1 <1>   0.0800 
 27 H       -1.3960     1.6900     0.1220 H     1 <1>   0.4500 
 28 H       -5.0560     1.4290     0.4430 H     1 <1>   0.0800 
 29 H       -4.9630     0.4380     1.8500 H     1 <1>   0.0800 
 30 H       -3.9180    -2.0020    -1.2970 H     1 <1>   0.0800 
 31 H       -4.6720    -0.6290    -2.0210 H     1 <1>   0.0800 
 32 H       -3.7550     1.5050    -1.6090 H     1 <1>   0.0800 
 33 H       -2.0840     1.6410    -2.0740 H     1 <1>   0.0800 
 34 H       -3.8150     3.3890    -0.1020 H     1 <1>   0.0800 
 35 H       -2.2400     3.7730    -0.7630 H     1 <1>   0.0800 
 36 H       -2.4620     3.6860     0.9700 H     1 <1>   0.0800 
 37 H       -9.0450    -0.2450     0.4110 H     1 <1>   0.1500 
 38 H       -9.4250    -2.6330     0.3680 H     1 <1>   0.1500 
 39 H       -4.5430    -5.4330    -0.6820 H     1 <1>   0.0800 
 40 H       -6.1160    -4.9140    -1.2460 H     1 <1>   0.0800 
 41 H       -5.9410    -5.5480     0.3770 H     1 <1>   0.0800 
 42 H       -3.1800    -3.5870     0.7400 H     1 <1>   0.0800 
 43 H       -4.2850    -4.3560     1.8670 H     1 <1>   0.0800 
 44 H       -4.2310    -2.6160     1.7410 H     1 <1>   0.0800 
@<TRIPOS>BOND
  1   1   2  1   
  2   1   3  1   
  3   2   4  1   
  4   2  21  1   
  5   2  22  1   
  6   3   5  1   
  7   3  23  1   
  8   3  24  1   
  9   4   6  1   
 10   4   7  1   
 11   4  25  1   
 12   5   8  1   
 13   5   9  1   
 14   5  26  1   
 15   6   9  1   
 16   6  10  1   
 17   6  27  1   
 18   7  11  1   
 19   7  28  1   
 20   7  29  1   
 21   8  11  1   
 22   8  30  1   
 23   8  31  1   
 24   9  32  1   
 25   9  33  1   
 26  10  34  1   
 27  10  35  1   
 28  10  36  1   
 29  11  12  1   
 30  12  13  ar  
 31  12  14  ar  
 32  13  15  ar  
 33  14  16  ar  
 34  14  17  1   
 35  15  18  ar  
 36  15  37  1   
 37  16  18  ar  
 38  17  19  1   
 39  17  20  1   
 40  18  38  1   
 41  19  39  1   
 42  19  40  1   
 43  19  41  1   
 44  20  42  1   
 45  20  43  1   
 46  20  44  1   
@<TRIPOS>SUBSTRUCTURE
  1 ****  11 GROUP 4 **** **** 0

# MOE 2024.06 (io_trps.svl 2023.06)
