@<TRIPOS>MOLECULE
NONAME
34 35 1 0 0 
SMALL
USER_CHARGES


@<TRIPOS>ATOM
  1 O        0.2360    -0.3750     1.1650 O.2   1 <1>  -0.5700 
  2 C        1.1770    -0.6740     0.4710 C.2   1 <1>   0.5690 
  3 N        2.1310     0.2120     0.0580 N.am  1 <1>  -0.4940 
  4 C        1.3330    -2.1190     0.0400 C.3   1 <1>  -0.0990 
  5 C        2.1990     1.6120     0.2700 C.2   1 <1>  -0.0880 
  6 C        0.0780    -2.9510     0.3430 C.3   1 <1>   0.0960 
  7 N        3.3410     2.2870     0.5790 N.pl3 1 <1>   0.3140 
  8 C        1.2180     2.5460     0.2060 C.2   1 <1>  -0.1810 
  9 N        0.2680    -4.3400    -0.1110 N.pl3 1 <1>   0.0480 
 10 N        3.1180     3.6120     0.7110 N.2   1 <1>  -0.7070 
 11 C        4.6830     1.7190     0.8240 C.3   1 <1>   0.0960 
 12 C        1.8490     3.7520     0.4900 C.2   1 <1>   0.1390 
 13 C       -0.2580     2.3860    -0.1070 C.3   1 <1>  -0.0590 
 14 C        0.0010    -4.8710    -1.3050 C.2   1 <1>   0.0370 
 15 C        0.7790    -5.3740     0.5590 C.2   1 <1>   0.0360 
 16 C        5.4470     1.5050    -0.4900 C.3   1 <1>  -0.2400 
 17 N        0.3260    -6.1150    -1.3600 N.2   1 <1>  -0.3380 
 18 N        0.8250    -6.4380    -0.1650 N.2   1 <1>  -0.3380 
 19 H        2.9110    -0.1830    -0.4660 H     1 <1>   0.3700 
 20 H        2.1750    -2.5370     0.5610 H     1 <1>   0.0800 
 21 H        1.5270    -2.1410    -1.0170 H     1 <1>   0.0800 
 22 H       -0.7770    -2.5320    -0.1580 H     1 <1>   0.0800 
 23 H       -0.1190    -2.9550     1.4020 H     1 <1>   0.0800 
 24 H        4.5720     0.7920     1.3540 H     1 <1>   0.0800 
 25 H        5.2230     2.4050     1.4520 H     1 <1>   0.0800 
 26 H        1.3480     4.7050     0.5250 H     1 <1>   0.1500 
 27 H       -0.4180     1.5170    -0.7170 H     1 <1>   0.0800 
 28 H       -0.6230     3.2490    -0.6330 H     1 <1>   0.0800 
 29 H       -0.8100     2.2720     0.8090 H     1 <1>   0.0800 
 30 H       -0.4320    -4.3160    -2.1170 H     1 <1>   0.1500 
 31 H        1.1110    -5.3130     1.5790 H     1 <1>   0.1500 
 32 H        4.9260     0.8160    -1.1290 H     1 <1>   0.0800 
 33 H        6.4260     1.1120    -0.2820 H     1 <1>   0.0800 
 34 H        5.5610     2.4460    -1.0010 H     1 <1>   0.0800 
@<TRIPOS>BOND
  1   1   2  2   
  2   2   3  am  
  3   2   4  1   
  4   3   5  1   
  5   3  19  1   
  6   4   6  1   
  7   4  20  1   
  8   4  21  1   
  9   5   7  1   
 10   5   8  2   
 11   6   9  1   
 12   6  22  1   
 13   6  23  1   
 14   7  10  1   
 15   7  11  1   
 16   8  12  1   
 17   8  13  1   
 18   9  14  1   
 19   9  15  1   
 20  10  12  2   
 21  11  16  1   
 22  11  24  1   
 23  11  25  1   
 24  12  26  1   
 25  13  27  1   
 26  13  28  1   
 27  13  29  1   
 28  14  17  2   
 29  14  30  1   
 30  15  18  2   
 31  15  31  1   
 32  16  32  1   
 33  16  33  1   
 34  16  34  1   
 35  17  18  1   
@<TRIPOS>SUBSTRUCTURE
  1 ****   2 GROUP 4 **** **** 0

# MOE 2024.06 (io_trps.svl 2023.06)
