@<TRIPOS>MOLECULE
NONAME
60 64 1 0 0 
SMALL
USER_CHARGES


@<TRIPOS>ATOM
  1 N       -0.1680    -0.7420    -1.4520 N.ar  1 <1>  -0.6200 
  2 C       -0.2450    -1.4380    -0.3490 C.ar  1 <1>   0.7200 
  3 C       -1.1000    -1.0040    -2.3120 C.ar  1 <1>   0.7200 
  4 N       -1.1670    -2.3390    -0.0820 N.ar  1 <1>  -0.6200 
  5 N        0.6820    -1.2700     0.6350 N.pl3 1 <1>  -0.6000 
  6 N       -2.0730    -1.8700    -2.1740 N.ar  1 <1>  -0.6200 
  7 N       -1.0640    -0.3240    -3.4550 N.pl3 1 <1>  -0.9000 
  8 C       -2.0430    -2.5060    -1.0340 C.ar  1 <1>   0.4770 
  9 C        1.7530    -0.3790     0.7790 C.ar  1 <1>   0.1000 
 10 C       -3.1780    -3.5060    -0.7820 C.3   1 <1>   0.4860 
 11 C        2.9000    -0.8080     1.4360 C.ar  1 <1>  -0.1500 
 12 C        1.7070     0.9320     0.3150 C.ar  1 <1>  -0.1500 
 13 N       -4.5250    -2.9040    -1.0940 N.4   1 <1>  -0.9590 
 14 C        3.9810     0.0370     1.6220 C.ar  1 <1>  -0.1430 
 15 C        2.7810     1.7830     0.4950 C.ar  1 <1>  -0.1500 
 16 C       -4.8590    -1.8130    -0.1130 C.3   1 <1>   0.3430 
 17 C       -5.6080    -3.9220    -1.1820 C.3   1 <1>   0.3430 
 18 C        3.9170     1.3370     1.1480 C.ar  1 <1>  -0.1500 
 19 C        5.2300    -0.4450     2.3390 C.3   1 <1>  -0.0970 
 20 C       -6.1530    -1.0770    -0.4970 C.3   1 <1>   0.1430 
 21 C       -6.9080    -3.2460    -1.6270 C.3   1 <1>  -0.1600 
 22 C       -6.4960    -0.1090     0.6090 C.ar  1 <1>   0.1670 
 23 C       -7.3060    -2.0840    -0.6970 C.3   1 <1>  -0.1600 
 24 C       -5.9740    -0.1380    -1.7210 C.3   1 <1>  -0.1600 
 25 N       -6.4950    -0.4120     1.8860 N.ar  1 <1>  -0.6200 
 26 C       -6.7970     1.1280     0.1290 C.ar  1 <1>  -0.1430 
 27 C       -6.6960     1.1810    -1.3750 C.3   1 <1>  -0.0160 
 28 C       -6.8350     0.5970     2.6800 C.ar  1 <1>   0.4770 
 29 C       -7.1300     2.0990     1.0400 C.ar  1 <1>   0.1600 
 30 N       -7.1520     1.8360     2.3310 N.ar  1 <1>  -0.6200 
 31 C       -6.8610     0.3070     4.1610 C.3   1 <1>  -0.0960 
 32 H        0.6010    -1.9750     1.3620 H     1 <1>   0.4000 
 33 H       -1.5120    -0.7190    -4.2780 H     1 <1>   0.4000 
 34 H       -0.2160     0.2160    -3.6290 H     1 <1>   0.4000 
 35 H       -3.1420    -3.8250     0.2450 H     1 <1>   0.0800 
 36 H       -3.0070    -4.3630    -1.4100 H     1 <1>   0.0800 
 37 H        2.9470    -1.8170     1.8010 H     1 <1>   0.1500 
 38 H        0.8280     1.2920    -0.1850 H     1 <1>   0.1500 
 39 H       -4.4100    -2.4540    -2.0160 H     1 <1>   0.4500 
 40 H        2.7350     2.7940     0.1300 H     1 <1>   0.1500 
 41 H       -4.0550    -1.0970    -0.0570 H     1 <1>   0.0800 
 42 H       -4.9900    -2.2370     0.8700 H     1 <1>   0.0800 
 43 H       -5.7560    -4.3830    -0.2190 H     1 <1>   0.0800 
 44 H       -5.3420    -4.6900    -1.8910 H     1 <1>   0.0800 
 45 H        4.7490     2.0050     1.2860 H     1 <1>   0.1500 
 46 H        5.2440    -1.5180     2.4030 H     1 <1>   0.0800 
 47 H        5.2590    -0.0370     3.3330 H     1 <1>   0.0800 
 48 H        6.1080    -0.1260     1.8060 H     1 <1>   0.0800 
 49 H       -7.6970    -3.9780    -1.6280 H     1 <1>   0.0800 
 50 H       -6.8010    -2.8970    -2.6390 H     1 <1>   0.0800 
 51 H       -8.1750    -1.5790    -1.0850 H     1 <1>   0.0800 
 52 H       -7.5800    -2.4900     0.2620 H     1 <1>   0.0800 
 53 H       -6.3560    -0.5570    -2.6350 H     1 <1>   0.0800 
 54 H       -4.9290     0.0850    -1.8590 H     1 <1>   0.0800 
 55 H       -7.6850     1.2000    -1.8020 H     1 <1>   0.0800 
 56 H       -6.1400     2.0400    -1.7080 H     1 <1>   0.0800 
 57 H       -7.3800     3.0950     0.7170 H     1 <1>   0.1500 
 58 H       -6.8960    -0.7520     4.3390 H     1 <1>   0.0800 
 59 H       -7.7280     0.7610     4.6040 H     1 <1>   0.0800 
 60 H       -5.9800     0.7140     4.6190 H     1 <1>   0.0800 
@<TRIPOS>BOND
  1   1   2  ar  
  2   1   3  ar  
  3   2   4  ar  
  4   2   5  1   
  5   3   6  ar  
  6   3   7  1   
  7   4   8  ar  
  8   5   9  1   
  9   5  32  1   
 10   6   8  ar  
 11   7  33  1   
 12   7  34  1   
 13   8  10  1   
 14   9  11  ar  
 15   9  12  ar  
 16  10  13  1   
 17  10  35  1   
 18  10  36  1   
 19  11  14  ar  
 20  11  37  1   
 21  12  15  ar  
 22  12  38  1   
 23  13  16  1   
 24  13  17  1   
 25  13  39  1   
 26  14  18  ar  
 27  14  19  1   
 28  15  18  ar  
 29  15  40  1   
 30  16  20  1   
 31  16  41  1   
 32  16  42  1   
 33  17  21  1   
 34  17  43  1   
 35  17  44  1   
 36  18  45  1   
 37  19  46  1   
 38  19  47  1   
 39  19  48  1   
 40  20  22  1   
 41  20  23  1   
 42  20  24  1   
 43  21  23  1   
 44  21  49  1   
 45  21  50  1   
 46  22  25  ar  
 47  22  26  ar  
 48  23  51  1   
 49  23  52  1   
 50  24  27  1   
 51  24  53  1   
 52  24  54  1   
 53  25  28  ar  
 54  26  27  1   
 55  26  29  ar  
 56  27  55  1   
 57  27  56  1   
 58  28  30  ar  
 59  28  31  1   
 60  29  30  ar  
 61  29  57  1   
 62  31  58  1   
 63  31  59  1   
 64  31  60  1   
@<TRIPOS>SUBSTRUCTURE
  1 ****   8 GROUP 4 **** **** 0

# MOE 2024.06 (io_trps.svl 2023.06)
