@<TRIPOS>MOLECULE
NONAME
51 53 1 0 0 
SMALL
USER_CHARGES


@<TRIPOS>ATOM
  1 F        0.0330    -2.9420     0.7040 F     1 <1>  -0.1900 
  2 C       -1.2540    -2.8220     0.9090 C.ar  1 <1>   0.1900 
  3 C       -2.1730    -3.1630    -0.0850 C.ar  1 <1>   0.0820 
  4 C       -1.6540    -2.3320     2.1370 C.ar  1 <1>  -0.1500 
  5 O       -1.8370    -3.6510    -1.3090 O.3   1 <1>  -0.3630 
  6 C       -3.5280    -2.9970     0.1820 C.ar  1 <1>  -0.1440 
  7 C       -3.0070    -2.1710     2.3870 C.ar  1 <1>  -0.1500 
  8 C       -0.8790    -4.6850    -1.4180 C.3   1 <1>   0.0400 
  9 C       -3.9370    -2.5010     1.4140 C.ar  1 <1>  -0.1500 
 10 C       -4.5430    -3.3960    -0.8770 C.3   1 <1>   0.4870 
 11 N       -5.1430    -4.7040    -0.5210 N.4   1 <1>  -0.9590 
 12 C       -4.0830    -5.7430    -0.3020 C.3   1 <1>   0.3430 
 13 C       -6.1070    -5.1970    -1.5330 C.3   1 <1>   0.3430 
 14 C       -4.6520    -7.1510    -0.0620 C.3   1 <1>  -0.1060 
 15 C       -6.9140    -6.3570    -0.9350 C.3   1 <1>  -0.1600 
 16 C       -4.4760    -7.9430    -1.3460 C.2   1 <1>   0.9060 
 17 C       -6.1730    -7.0970     0.1930 C.3   1 <1>   0.2000 
 18 C       -3.8810    -7.8380     1.0990 C.3   1 <1>  -0.0170 
 19 O       -4.1730    -7.3490    -2.3880 O.co2 1 <1>  -0.9000 
 20 O       -4.7380    -9.1450    -1.3320 O.co2 1 <1>  -0.9000 
 21 O       -6.4280    -6.3950     1.3720 O.3   1 <1>  -0.6800 
 22 C       -2.3720    -7.6240     1.0260 C.ar  1 <1>  -0.1440 
 23 C       -1.6120    -8.3230     0.1020 C.ar  1 <1>  -0.1500 
 24 C       -1.7440    -6.7310     1.8830 C.ar  1 <1>  -0.1500 
 25 C       -0.2430    -8.1300     0.0310 C.ar  1 <1>  -0.1500 
 26 C       -0.3750    -6.5360     1.8130 C.ar  1 <1>  -0.1500 
 27 C        0.3770    -7.2370     0.8870 C.ar  1 <1>  -0.1500 
 28 H       -0.9190    -2.0770     2.8800 H     1 <1>   0.1500 
 29 H       -3.3330    -1.7860     3.3400 H     1 <1>   0.1500 
 30 H       -1.0100    -5.1670    -2.3710 H     1 <1>   0.0800 
 31 H       -1.0360    -5.3990    -0.6310 H     1 <1>   0.0800 
 32 H        0.1080    -4.2640    -1.3590 H     1 <1>   0.0800 
 33 H       -4.9840    -2.3680     1.6290 H     1 <1>   0.1500 
 34 H       -4.0570    -3.4720    -1.8360 H     1 <1>   0.0800 
 35 H       -5.3100    -2.6440    -0.9440 H     1 <1>   0.0800 
 36 H       -5.6520    -4.6580     0.3750 H     1 <1>   0.4500 
 37 H       -3.4030    -5.7600    -1.1390 H     1 <1>   0.0800 
 38 H       -3.5060    -5.4590     0.5610 H     1 <1>   0.0800 
 39 H       -6.7760    -4.4110    -1.8420 H     1 <1>   0.0800 
 40 H       -5.5650    -5.5460    -2.4000 H     1 <1>   0.0800 
 41 H       -7.1080    -7.0520    -1.7330 H     1 <1>   0.0800 
 42 H       -7.8690    -6.0090    -0.5860 H     1 <1>   0.0800 
 43 H       -6.5780    -8.0920     0.3040 H     1 <1>   0.0800 
 44 H       -4.2210    -7.4590     2.0450 H     1 <1>   0.0800 
 45 H       -4.0870    -8.8960     1.1010 H     1 <1>   0.0800 
 46 H       -6.3830    -7.0120     2.1310 H     1 <1>   0.4000 
 47 H       -2.0840    -9.0240    -0.5700 H     1 <1>   0.1500 
 48 H       -2.3130    -6.1820     2.6130 H     1 <1>   0.1500 
 49 H        0.3340    -8.6790    -0.6930 H     1 <1>   0.1500 
 50 H        0.1060    -5.8420     2.4800 H     1 <1>   0.1500 
 51 H        1.4410    -7.0890     0.8320 H     1 <1>   0.1500 
@<TRIPOS>BOND
  1   1   2  1   
  2   2   3  ar  
  3   2   4  ar  
  4   3   5  1   
  5   3   6  ar  
  6   4   7  ar  
  7   4  28  1   
  8   5   8  1   
  9   6   9  ar  
 10   6  10  1   
 11   7   9  ar  
 12   7  29  1   
 13   8  30  1   
 14   8  31  1   
 15   8  32  1   
 16   9  33  1   
 17  10  11  1   
 18  10  34  1   
 19  10  35  1   
 20  11  12  1   
 21  11  13  1   
 22  11  36  1   
 23  12  14  1   
 24  12  37  1   
 25  12  38  1   
 26  13  15  1   
 27  13  39  1   
 28  13  40  1   
 29  14  16  1   
 30  14  17  1   
 31  14  18  1   
 32  15  17  1   
 33  15  41  1   
 34  15  42  1   
 35  16  19  ar  
 36  16  20  ar  
 37  17  21  1   
 38  17  43  1   
 39  18  22  1   
 40  18  44  1   
 41  18  45  1   
 42  21  46  1   
 43  22  23  ar  
 44  22  24  ar  
 45  23  25  ar  
 46  23  47  1   
 47  24  26  ar  
 48  24  48  1   
 49  25  27  ar  
 50  25  49  1   
 51  26  27  ar  
 52  26  50  1   
 53  27  51  1   
@<TRIPOS>SUBSTRUCTURE
  1 ****  12 GROUP 4 **** **** 0

# MOE 2024.06 (io_trps.svl 2023.06)
