@<TRIPOS>MOLECULE
NONAME
39 41 1 0 0 
SMALL
USER_CHARGES


@<TRIPOS>ATOM
  1 O       -0.5480    -0.0960    -2.3010 O.2   1 <1>  -0.5700 
  2 C       -1.2100     0.5990    -1.5670 C.2   1 <1>   0.5690 
  3 N       -2.2270     0.0710    -0.8150 N.am  1 <1>  -0.6600 
  4 C       -0.8930     2.0770    -1.5310 C.3   1 <1>   0.1570 
  5 C       -3.0730     0.8010     0.1650 C.3   1 <1>   0.1400 
  6 C       -2.5360    -1.3790    -0.7980 C.3   1 <1>   0.1400 
  7 N       -0.2600     2.4220    -0.2520 N.pl3 1 <1>   0.3140 
  8 C       -4.0610    -0.2450     0.6830 C.3   1 <1>   0.2000 
  9 C       -3.3790    -1.5930     0.4590 C.3   1 <1>  -0.0800 
 10 N       -0.8440     3.2640     0.6240 N.2   1 <1>  -0.7070 
 11 C        0.9300     1.9880     0.2110 C.2   1 <1>  -0.3020 
 12 O       -4.3380    -0.0670     2.0280 O.3   1 <1>  -0.6800 
 13 C       -4.3770    -2.7560     0.3450 C.3   1 <1>  -0.0170 
 14 C       -0.0100     3.3450     1.6150 C.2   1 <1>   0.1390 
 15 C        1.1220     2.5650     1.4150 C.2   1 <1>  -0.1500 
 16 C       -3.6570    -4.0750     0.1090 C.ar  1 <1>  -0.1440 
 17 C       -3.5320    -4.6300    -1.1490 C.ar  1 <1>  -0.1500 
 18 C       -3.0880    -4.7840     1.1470 C.ar  1 <1>  -0.1500 
 19 C       -2.8590    -5.8320    -1.3020 C.ar  1 <1>   0.1600 
 20 C       -2.4370    -5.9780     0.8860 C.ar  1 <1>   0.1600 
 21 N       -2.3080    -6.5180    -0.3150 N.ar  1 <1>  -0.6200 
 22 H       -1.7920     2.6500    -1.6450 H     1 <1>   0.0800 
 23 H       -0.2160     2.3230    -2.3260 H     1 <1>   0.0800 
 24 H       -2.4560     1.1650     0.9680 H     1 <1>   0.0800 
 25 H       -3.5900     1.6180    -0.3070 H     1 <1>   0.0800 
 26 H       -3.0940    -1.6240    -1.6850 H     1 <1>   0.0800 
 27 H       -1.6330    -1.9670    -0.7720 H     1 <1>   0.0800 
 28 H       -4.9850    -0.1770     0.1340 H     1 <1>   0.0800 
 29 H       -2.6970    -1.7860     1.2690 H     1 <1>   0.0800 
 30 H        1.5580     1.3050    -0.3340 H     1 <1>   0.1500 
 31 H       -3.5120    -0.0610     2.5490 H     1 <1>   0.4000 
 32 H       -5.0680    -2.5710    -0.4580 H     1 <1>   0.0800 
 33 H       -4.9500    -2.8230     1.2540 H     1 <1>   0.0800 
 34 H       -0.1840     3.9520     2.4890 H     1 <1>   0.1500 
 35 H        1.9530     2.4650     2.0900 H     1 <1>   0.1500 
 36 H       -3.9480    -4.1440    -2.0110 H     1 <1>   0.1500 
 37 H       -3.1450    -4.4190     2.1570 H     1 <1>   0.1500 
 38 H       -2.7700    -6.2500    -2.2900 H     1 <1>   0.1500 
 39 H       -1.9990    -6.5170     1.7090 H     1 <1>   0.1500 
@<TRIPOS>BOND
  1   1   2  2   
  2   2   3  am  
  3   2   4  1   
  4   3   5  1   
  5   3   6  1   
  6   4   7  1   
  7   4  22  1   
  8   4  23  1   
  9   5   8  1   
 10   5  24  1   
 11   5  25  1   
 12   6   9  1   
 13   6  26  1   
 14   6  27  1   
 15   7  10  1   
 16   7  11  1   
 17   8   9  1   
 18   8  12  1   
 19   8  28  1   
 20   9  13  1   
 21   9  29  1   
 22  10  14  2   
 23  11  15  2   
 24  11  30  1   
 25  12  31  1   
 26  13  16  1   
 27  13  32  1   
 28  13  33  1   
 29  14  15  1   
 30  14  34  1   
 31  15  35  1   
 32  16  17  ar  
 33  16  18  ar  
 34  17  19  ar  
 35  17  36  1   
 36  18  20  ar  
 37  18  37  1   
 38  19  21  ar  
 39  19  38  1   
 40  20  21  ar  
 41  20  39  1   
@<TRIPOS>SUBSTRUCTURE
  1 ****   6 GROUP 4 **** **** 0

# MOE 2024.06 (io_trps.svl 2023.06)
