@<TRIPOS>MOLECULE
NONAME
61 64 1 0 0 
SMALL
USER_CHARGES


@<TRIPOS>ATOM
  1 O        0.1240    -0.1630    -0.8780 O.2   1 <1>  -0.5700 
  2 C       -0.1140    -1.3530    -0.7790 C.2   1 <1>   0.5440 
  3 N       -1.4040    -1.7940    -0.9950 N.am  1 <1>  -0.6600 
  4 C        0.9720    -2.2620    -0.4580 C.ar  1 <1>   0.0860 
  5 C       -1.7480    -3.1960    -1.3590 C.3   1 <1>   0.1400 
  6 C       -2.5520    -0.8470    -1.0160 C.3   1 <1>   0.1400 
  7 C        0.8640    -3.1990     0.5680 C.ar  1 <1>  -0.1500 
  8 C        2.1700    -2.2200    -1.1690 C.ar  1 <1>  -0.1500 
  9 C       -2.8430    -3.7160    -0.4260 C.3   1 <1>  -0.1600 
 10 C       -3.6600    -1.3590    -0.0910 C.3   1 <1>  -0.1600 
 11 C        1.8920    -4.0750     0.8640 C.ar  1 <1>   0.0830 
 12 C        3.2090    -3.0880    -0.8830 C.ar  1 <1>  -0.1500 
 13 C       -4.0830    -2.7970    -0.4450 C.3   1 <1>  -0.0190 
 14 O        1.6750    -4.9530     1.8740 O.3   1 <1>  -0.3630 
 15 C        3.0740    -4.0190     0.1310 C.ar  1 <1>  -0.1500 
 16 C       -5.2030    -3.2880     0.4840 C.2   1 <1>   0.5690 
 17 C        2.6750    -5.8530     2.2950 C.3   1 <1>   0.0400 
 18 O       -4.8900    -3.9510     1.4460 O.2   1 <1>  -0.5700 
 19 N       -6.5220    -2.9900     0.2270 N.am  1 <1>  -0.6600 
 20 C       -7.6150    -3.5910     1.0520 C.3   1 <1>   0.1400 
 21 C       -7.0450    -2.1340    -0.8730 C.3   1 <1>   0.1400 
 22 C       -8.5270    -4.4920     0.1800 C.3   1 <1>   0.0000 
 23 C       -7.9360    -2.9750    -1.7930 C.3   1 <1>  -0.1600 
 24 C       -9.6760    -5.1200     0.9970 C.3   1 <1>   0.2000 
 25 C       -9.0670    -3.6690    -1.0110 C.3   1 <1>  -0.1600 
 26 C       -7.7590    -5.7430    -0.2820 C.3   1 <1>  -0.1600 
 27 O      -10.1790    -4.2720     1.9680 O.3   1 <1>  -0.6800 
 28 C       -9.1180    -6.3900     1.6450 C.3   1 <1>  -0.1600 
 29 C       -7.8180    -6.7140     0.8990 C.3   1 <1>  -0.1600 
 30 H       -2.1010    -3.2110    -2.3760 H     1 <1>   0.0800 
 31 H       -0.8860    -3.8360    -1.3040 H     1 <1>   0.0800 
 32 H       -2.2420     0.1310    -0.6900 H     1 <1>   0.0800 
 33 H       -2.9170    -0.7620    -2.0250 H     1 <1>   0.0800 
 34 H       -0.0400    -3.2430     1.1480 H     1 <1>   0.1500 
 35 H        2.2800    -1.4900    -1.9530 H     1 <1>   0.1500 
 36 H       -3.1260    -4.7090    -0.7260 H     1 <1>   0.0800 
 37 H       -2.4470    -3.7800     0.5730 H     1 <1>   0.0800 
 38 H       -3.3040    -1.3290     0.9250 H     1 <1>   0.0800 
 39 H       -4.5050    -0.6980    -0.1550 H     1 <1>   0.0800 
 40 H        4.1230    -3.0350    -1.4480 H     1 <1>   0.1500 
 41 H       -4.4550    -2.8140    -1.4510 H     1 <1>   0.0800 
 42 H        3.8920    -4.6840     0.3340 H     1 <1>   0.1500 
 43 H        2.2830    -6.4270     3.1160 H     1 <1>   0.0800 
 44 H        3.5350    -5.2930     2.6180 H     1 <1>   0.0800 
 45 H        2.9230    -6.5070     1.4780 H     1 <1>   0.0800 
 46 H       -7.2090    -4.1600     1.8690 H     1 <1>   0.0800 
 47 H       -8.1940    -2.7870     1.4730 H     1 <1>   0.0800 
 48 H       -7.6270    -1.3370    -0.4420 H     1 <1>   0.0800 
 49 H       -6.2530    -1.6850    -1.4420 H     1 <1>   0.0800 
 50 H       -8.3640    -2.3400    -2.5490 H     1 <1>   0.0800 
 51 H       -7.3300    -3.7110    -2.2920 H     1 <1>   0.0800 
 52 H      -10.4870    -5.3820     0.3380 H     1 <1>   0.0800 
 53 H       -9.6310    -4.2990    -1.6760 H     1 <1>   0.0800 
 54 H       -9.7380    -2.9170    -0.6320 H     1 <1>   0.0800 
 55 H       -8.2650    -6.1900    -1.1210 H     1 <1>   0.0800 
 56 H       -6.7440    -5.5350    -0.5700 H     1 <1>   0.0800 
 57 H       -9.5450    -4.1990     2.7060 H     1 <1>   0.4000 
 58 H       -8.9120    -6.2500     2.6920 H     1 <1>   0.0800 
 59 H       -9.8250    -7.1930     1.5270 H     1 <1>   0.0800 
 60 H       -6.9750    -6.5380     1.5470 H     1 <1>   0.0800 
 61 H       -7.7900    -7.7380     0.5680 H     1 <1>   0.0800 
@<TRIPOS>BOND
  1   1   2  2   
  2   2   3  am  
  3   2   4  1   
  4   3   5  1   
  5   3   6  1   
  6   4   7  ar  
  7   4   8  ar  
  8   5   9  1   
  9   5  30  1   
 10   5  31  1   
 11   6  10  1   
 12   6  32  1   
 13   6  33  1   
 14   7  11  ar  
 15   7  34  1   
 16   8  12  ar  
 17   8  35  1   
 18   9  13  1   
 19   9  36  1   
 20   9  37  1   
 21  10  13  1   
 22  10  38  1   
 23  10  39  1   
 24  11  14  1   
 25  11  15  ar  
 26  12  15  ar  
 27  12  40  1   
 28  13  16  1   
 29  13  41  1   
 30  14  17  1   
 31  15  42  1   
 32  16  18  2   
 33  16  19  am  
 34  17  43  1   
 35  17  44  1   
 36  17  45  1   
 37  19  20  1   
 38  19  21  1   
 39  20  22  1   
 40  20  46  1   
 41  20  47  1   
 42  21  23  1   
 43  21  48  1   
 44  21  49  1   
 45  22  24  1   
 46  22  25  1   
 47  22  26  1   
 48  23  25  1   
 49  23  50  1   
 50  23  51  1   
 51  24  27  1   
 52  24  28  1   
 53  24  52  1   
 54  25  53  1   
 55  25  54  1   
 56  26  29  1   
 57  26  55  1   
 58  26  56  1   
 59  27  57  1   
 60  28  29  1   
 61  28  58  1   
 62  28  59  1   
 63  29  60  1   
 64  29  61  1   
@<TRIPOS>SUBSTRUCTURE
  1 ****   9 GROUP 4 **** **** 0

# MOE 2024.06 (io_trps.svl 2023.06)
