@<TRIPOS>MOLECULE
NONAME
50 52 1 0 0 
SMALL
USER_CHARGES


@<TRIPOS>ATOM
  1 O       -1.8390     1.1780     0.4610 O.2   1 <1>  -0.5700 
  2 C       -1.2770     2.2050     0.7400 C.2   1 <1>   0.5690 
  3 N       -1.7680     3.3910     0.3180 N.am  1 <1>  -0.7300 
  4 C        0.0230     2.1730     1.5530 C.3   1 <1>   0.1810 
  5 C       -1.1680     4.6950     0.6870 C.3   1 <1>   0.3640 
  6 O        0.3560     3.4200     2.1260 O.3   1 <1>  -0.5600 
  7 C       -1.1340     5.6100    -0.5310 C.ar  1 <1>  -0.1440 
  8 C        0.2670     4.5230     1.2410 C.3   1 <1>   0.2610 
  9 C       -0.8150     5.1300    -1.7950 C.ar  1 <1>   0.1600 
 10 C       -1.3840     6.9610    -0.3840 C.ar  1 <1>  -0.1500 
 11 C        0.7280     5.8260     1.9170 C.2   1 <1>   0.5690 
 12 N       -0.7150     5.8710    -2.8870 N.ar  1 <1>  -0.6200 
 13 C       -1.2870     7.7470    -1.5100 C.ar  1 <1>  -0.1500 
 14 O       -0.0560     6.3990     2.6420 O.2   1 <1>  -0.5700 
 15 N        1.9710     6.3620     1.6810 N.am  1 <1>  -0.6600 
 16 C       -0.9530     7.1610    -2.7190 C.ar  1 <1>   0.1600 
 17 C        2.2990     7.7240     2.2190 C.3   1 <1>   0.3200 
 18 C        3.0450     5.7050     0.8870 C.3   1 <1>   0.1400 
 19 C        1.9400     8.8250     1.2330 C.2   1 <1>   0.2980 
 20 C        2.9300     6.1000    -0.5850 C.3   1 <1>  -0.2400 
 21 O        0.6760     9.0720     0.9960 O.3   1 <1>  -0.0190 
 22 N        2.7680     9.5510     0.5920 N.2   1 <1>  -0.5650 
 23 N        0.7000    10.0300     0.1210 N.2   1 <1>  -0.4100 
 24 C        1.9230    10.3000    -0.1090 C.2   1 <1>   0.3350 
 25 C        2.4040    11.3630    -1.0950 C.3   1 <1>   0.1010 
 26 C        3.1950    10.7290    -2.2480 C.3   1 <1>  -0.2400 
 27 C        3.2500    12.4360    -0.3940 C.3   1 <1>  -0.2400 
 28 H       -2.6650     3.4030    -0.1710 H     1 <1>   0.3700 
 29 H        0.8320     1.8650     0.9170 H     1 <1>   0.0800 
 30 H       -0.0770     1.4620     2.3530 H     1 <1>   0.0800 
 31 H       -1.7900     5.1390     1.4460 H     1 <1>   0.0800 
 32 H        0.9110     4.3100     0.4110 H     1 <1>   0.0800 
 33 H       -0.6220     4.0780    -1.9220 H     1 <1>   0.1500 
 34 H       -1.6320     7.3990     0.5700 H     1 <1>   0.1500 
 35 H       -1.4590     8.8060    -1.4500 H     1 <1>   0.1500 
 36 H       -0.8770     7.7880    -3.5910 H     1 <1>   0.1500 
 37 H        1.7680     7.8980     3.1390 H     1 <1>   0.0800 
 38 H        3.3490     7.7810     2.4390 H     1 <1>   0.0800 
 39 H        4.0100     5.9970     1.2660 H     1 <1>   0.0800 
 40 H        2.9730     4.6360     0.9900 H     1 <1>   0.0800 
 41 H        3.1380     7.1460    -0.7140 H     1 <1>   0.0800 
 42 H        1.9490     5.8910    -0.9720 H     1 <1>   0.0800 
 43 H        3.6470     5.5480    -1.1640 H     1 <1>   0.0800 
 44 H        1.5330    11.8420    -1.5090 H     1 <1>   0.0800 
 45 H        4.0830    10.2500    -1.8740 H     1 <1>   0.0800 
 46 H        3.4790    11.4770    -2.9660 H     1 <1>   0.0800 
 47 H        2.5910     9.9890    -2.7420 H     1 <1>   0.0800 
 48 H        4.1400    11.9980     0.0240 H     1 <1>   0.0800 
 49 H        2.6840    12.8850     0.4030 H     1 <1>   0.0800 
 50 H        3.5340    13.2050    -1.0890 H     1 <1>   0.0800 
@<TRIPOS>BOND
  1   1   2  2   
  2   2   3  am  
  3   2   4  1   
  4   3   5  1   
  5   3  28  1   
  6   4   6  1   
  7   4  29  1   
  8   4  30  1   
  9   5   7  1   
 10   5   8  1   
 11   5  31  1   
 12   6   8  1   
 13   7   9  ar  
 14   7  10  ar  
 15   8  11  1   
 16   8  32  1   
 17   9  12  ar  
 18   9  33  1   
 19  10  13  ar  
 20  10  34  1   
 21  11  14  2   
 22  11  15  am  
 23  12  16  ar  
 24  13  16  ar  
 25  13  35  1   
 26  15  17  1   
 27  15  18  1   
 28  16  36  1   
 29  17  19  1   
 30  17  37  1   
 31  17  38  1   
 32  18  20  1   
 33  18  39  1   
 34  18  40  1   
 35  19  21  1   
 36  19  22  2   
 37  20  41  1   
 38  20  42  1   
 39  20  43  1   
 40  21  23  1   
 41  22  24  1   
 42  23  24  2   
 43  24  25  1   
 44  25  26  1   
 45  25  27  1   
 46  25  44  1   
 47  26  45  1   
 48  26  46  1   
 49  26  47  1   
 50  27  48  1   
 51  27  49  1   
 52  27  50  1   
@<TRIPOS>SUBSTRUCTURE
  1 ****  11 GROUP 4 **** **** 0

# MOE 2024.06 (io_trps.svl 2023.06)
