@<TRIPOS>MOLECULE
NONAME
38 39 1 0 0 
SMALL
USER_CHARGES


@<TRIPOS>ATOM
  1 S       -1.4980    -0.3180    -0.2330 S.3   1 <1>  -0.0800 
  2 C       -0.4510     1.0050     0.1400 C.2   1 <1>   0.1980 
  3 C       -0.4760    -1.2910     0.7670 C.2   1 <1>   0.1980 
  4 N        0.5030     0.6830     0.9130 N.2   1 <1>  -0.3380 
  5 C       -0.7580     2.3650    -0.4680 C.3   1 <1>   0.5230 
  6 N        0.4900    -0.6340     1.2690 N.2   1 <1>  -0.3380 
  7 C       -0.8170    -2.7550     0.9350 C.3   1 <1>  -0.0600 
  8 N        0.3790     3.3420    -0.3070 N.4   1 <1>  -0.9590 
  9 C       -0.0590     4.7470    -0.5560 C.3   1 <1>   0.4230 
 10 C        1.5650     2.8660    -1.0920 C.3   1 <1>   0.5240 
 11 C        1.1080     5.7340    -0.5650 C.3   1 <1>  -0.2400 
 12 C       -1.0350     5.1660     0.5450 C.3   1 <1>  -0.2400 
 13 C        2.8420     3.1800    -0.3420 C.2   1 <1>  -0.1810 
 14 C        3.2180     2.6850     0.9040 C.2   1 <1>   0.1390 
 15 C        3.8740     3.9740    -0.7120 C.2   1 <1>  -0.3020 
 16 N        4.3640     3.1520     1.2860 N.2   1 <1>  -0.7070 
 17 N        4.7780     3.9430     0.2860 N.pl3 1 <1>   0.3140 
 18 C        6.0700     4.6370     0.3460 C.3   1 <1>   0.0160 
 19 H       -1.6420     2.7380     0.0180 H     1 <1>   0.0800 
 20 H       -0.9850     2.2390    -1.5130 H     1 <1>   0.0800 
 21 H       -1.7930    -2.8570     1.3720 H     1 <1>   0.0800 
 22 H       -0.0970    -3.2250     1.5800 H     1 <1>   0.0800 
 23 H       -0.8030    -3.2480    -0.0200 H     1 <1>   0.0800 
 24 H        0.6870     3.2830     0.6740 H     1 <1>   0.4500 
 25 H       -0.5590     4.8080    -1.5110 H     1 <1>   0.0800 
 26 H        1.5840     3.3320    -2.0630 H     1 <1>   0.0800 
 27 H        1.5210     1.7980    -1.2310 H     1 <1>   0.0800 
 28 H        1.6880     5.6600     0.3380 H     1 <1>   0.0800 
 29 H        0.7340     6.7400    -0.6350 H     1 <1>   0.0800 
 30 H        1.7370     5.5820    -1.4210 H     1 <1>   0.0800 
 31 H       -0.5920     5.0480     1.5190 H     1 <1>   0.0800 
 32 H       -1.9600     4.6220     0.5010 H     1 <1>   0.0800 
 33 H       -1.2890     6.2050     0.4270 H     1 <1>   0.0800 
 34 H        2.6540     1.9920     1.5080 H     1 <1>   0.1500 
 35 H        4.0260     4.5500    -1.6070 H     1 <1>   0.1500 
 36 H        6.1540     5.3210    -0.4760 H     1 <1>   0.0800 
 37 H        6.8580     3.9090     0.2990 H     1 <1>   0.0800 
 38 H        6.1340     5.1720     1.2750 H     1 <1>   0.0800 
@<TRIPOS>BOND
  1   1   2  1   
  2   1   3  1   
  3   2   4  2   
  4   2   5  1   
  5   3   6  2   
  6   3   7  1   
  7   4   6  1   
  8   5   8  1   
  9   5  19  1   
 10   5  20  1   
 11   7  21  1   
 12   7  22  1   
 13   7  23  1   
 14   8   9  1   
 15   8  10  1   
 16   8  24  1   
 17   9  11  1   
 18   9  12  1   
 19   9  25  1   
 20  10  13  1   
 21  10  26  1   
 22  10  27  1   
 23  11  28  1   
 24  11  29  1   
 25  11  30  1   
 26  12  31  1   
 27  12  32  1   
 28  12  33  1   
 29  13  14  1   
 30  13  15  2   
 31  14  16  2   
 32  14  34  1   
 33  15  17  1   
 34  15  35  1   
 35  16  17  1   
 36  17  18  1   
 37  18  36  1   
 38  18  37  1   
 39  18  38  1   
@<TRIPOS>SUBSTRUCTURE
  1 ****  10 GROUP 4 **** **** 0

# MOE 2024.06 (io_trps.svl 2023.06)
