@<TRIPOS>MOLECULE
NONAME
46 48 1 0 0 
SMALL
USER_CHARGES


@<TRIPOS>ATOM
  1 O       -0.1820    -2.5160    -1.6410 O.2   1 <1>  -0.5700 
  2 C       -0.4910    -2.9650    -0.5540 C.2   1 <1>   0.5440 
  3 N        0.5090    -3.2580     0.3350 N.am  1 <1>  -0.7300 
  4 C       -1.8790    -3.1930    -0.2210 C.ar  1 <1>   0.0860 
  5 C        1.9520    -3.0670     0.0930 C.3   1 <1>   0.1400 
  6 C       -2.8480    -3.2420    -1.2210 C.ar  1 <1>   0.1600 
  7 C       -2.3320    -3.3760     1.0830 C.ar  1 <1>  -0.1500 
  8 C        2.6980    -4.2890     0.6150 C.3   1 <1>  -0.2400 
  9 N       -4.1400    -3.4590    -1.0470 N.ar  1 <1>  -0.6200 
 10 C       -3.6730    -3.5990     1.2820 C.ar  1 <1>  -0.1500 
 11 C       -4.5580    -3.6350     0.2030 C.ar  1 <1>   0.4100 
 12 N       -5.9080    -3.8640     0.3830 N.pl3 1 <1>  -0.8380 
 13 C       -6.7270    -4.5450    -0.6760 C.3   1 <1>   0.3900 
 14 C       -6.5980    -3.7650     1.6980 C.3   1 <1>   0.1290 
 15 C       -7.0660    -5.9800    -0.2780 C.2   1 <1>   0.1080 
 16 N       -8.2530    -6.3760     0.0920 N.2   1 <1>  -0.7070 
 17 C       -6.1490    -7.0280    -0.2620 C.2   1 <1>  -0.1810 
 18 N       -8.1120    -7.6930     0.3480 N.pl3 1 <1>   0.3000 
 19 C       -6.8450    -8.1030     0.1440 C.2   1 <1>  -0.3320 
 20 C       -4.6700    -7.0470    -0.5980 C.3   1 <1>   0.0210 
 21 C       -6.2790    -9.4990     0.3160 C.3   1 <1>   0.0200 
 22 C       -4.1950    -8.5000    -0.7910 C.3   1 <1>  -0.1600 
 23 C       -4.7390    -9.4370     0.3080 C.3   1 <1>  -0.1600 
 24 H        0.2750    -3.6910     1.2280 H     1 <1>   0.3700 
 25 H        2.2850    -2.1790     0.6040 H     1 <1>   0.0800 
 26 H        2.1400    -2.9440    -0.9610 H     1 <1>   0.0800 
 27 H       -2.5230    -3.0920    -2.2370 H     1 <1>   0.1500 
 28 H       -1.6570    -3.3400     1.9180 H     1 <1>   0.1500 
 29 H        2.5450    -4.4030     1.6730 H     1 <1>   0.0800 
 30 H        3.7520    -4.1690     0.4360 H     1 <1>   0.0800 
 31 H        2.3660    -5.1730     0.1020 H     1 <1>   0.0800 
 32 H       -4.0440    -3.7540     2.2750 H     1 <1>   0.1500 
 33 H       -6.2140    -4.5660    -1.6190 H     1 <1>   0.0800 
 34 H       -7.6410    -3.9970    -0.8200 H     1 <1>   0.0800 
 35 H       -6.1800    -2.9650     2.2820 H     1 <1>   0.0800 
 36 H       -6.4980    -4.6950     2.2310 H     1 <1>   0.0800 
 37 H       -7.6460    -3.5650     1.5490 H     1 <1>   0.0800 
 38 H       -8.8960    -8.2780     0.6590 H     1 <1>   0.2700 
 39 H       -4.1310    -6.5900     0.2120 H     1 <1>   0.0800 
 40 H       -4.4850    -6.4750    -1.4900 H     1 <1>   0.0800 
 41 H       -6.6200   -10.1160    -0.4970 H     1 <1>   0.0800 
 42 H       -6.6180    -9.9310     1.2410 H     1 <1>   0.0800 
 43 H       -3.1200    -8.5240    -0.7970 H     1 <1>   0.0800 
 44 H       -4.5390    -8.8510    -1.7490 H     1 <1>   0.0800 
 45 H       -4.3430   -10.4280     0.1730 H     1 <1>   0.0800 
 46 H       -4.4030    -9.0750     1.2640 H     1 <1>   0.0800 
@<TRIPOS>BOND
  1   1   2  2   
  2   2   3  am  
  3   2   4  1   
  4   3   5  1   
  5   3  24  1   
  6   4   6  ar  
  7   4   7  ar  
  8   5   8  1   
  9   5  25  1   
 10   5  26  1   
 11   6   9  ar  
 12   6  27  1   
 13   7  10  ar  
 14   7  28  1   
 15   8  29  1   
 16   8  30  1   
 17   8  31  1   
 18   9  11  ar  
 19  10  11  ar  
 20  10  32  1   
 21  11  12  1   
 22  12  13  1   
 23  12  14  1   
 24  13  15  1   
 25  13  33  1   
 26  13  34  1   
 27  14  35  1   
 28  14  36  1   
 29  14  37  1   
 30  15  16  2   
 31  15  17  1   
 32  16  18  1   
 33  17  19  2   
 34  17  20  1   
 35  18  19  1   
 36  18  38  1   
 37  19  21  1   
 38  20  22  1   
 39  20  39  1   
 40  20  40  1   
 41  21  23  1   
 42  21  41  1   
 43  21  42  1   
 44  22  23  1   
 45  22  43  1   
 46  22  44  1   
 47  23  45  1   
 48  23  46  1   
@<TRIPOS>SUBSTRUCTURE
  1 ****  11 GROUP 4 **** **** 0

# MOE 2024.06 (io_trps.svl 2023.06)
