@<TRIPOS>MOLECULE
NONAME
39 41 1 0 0 
SMALL
USER_CHARGES


@<TRIPOS>ATOM
  1 O       -0.1620     0.6030    -0.4510 O.3   1 <1>  -0.3630 
  2 C       -0.0750     1.8600    -0.0210 C.ar  1 <1>   0.3920 
  3 C       -1.3590    -0.1510    -0.4100 C.3   1 <1>   0.0400 
  4 N       -1.1600     2.4490     0.4770 N.ar  1 <1>  -0.6200 
  5 C        1.1490     2.4870    -0.1190 C.ar  1 <1>  -0.1500 
  6 C       -1.0030     3.6830     0.8840 C.ar  1 <1>   0.7710 
  7 C        1.2780     3.7890     0.3130 C.ar  1 <1>   0.4610 
  8 N        0.1660     4.3470     0.8140 N.ar  1 <1>  -0.1790 
  9 N       -2.0800     4.2840     1.3950 N.pl3 1 <1>  -0.9000 
 10 N        2.4290     4.5170     0.2810 N.pl3 1 <1>  -0.8380 
 11 C        2.4460     6.1300     0.2300 C.3   1 <1>   0.2090 
 12 C        3.8450     3.7530     0.1670 C.3   1 <1>   0.2090 
 13 C        3.7270     6.8120    -0.4340 C.3   1 <1>  -0.0800 
 14 C        5.1510     4.5920     0.5450 C.3   1 <1>  -0.0800 
 15 C        4.4720     5.7210     0.0510 C.3   1 <1>  -0.1600 
 16 C        5.0710     7.7160    -0.3030 C.3   1 <1>  -0.1600 
 17 C        6.5420     5.3200     0.1250 C.3   1 <1>  -0.1600 
 18 C        6.5300     6.9480    -0.1700 C.3   1 <1>  -0.1600 
 19 H       -1.1580    -1.1270    -0.8140 H     1 <1>   0.0800 
 20 H       -2.1070     0.3460    -1.0020 H     1 <1>   0.0800 
 21 H       -1.6840    -0.2360     0.6120 H     1 <1>   0.0800 
 22 H        1.9770     1.9500    -0.5400 H     1 <1>   0.1500 
 23 H        0.2300     5.2740     1.2000 H     1 <1>   0.4570 
 24 H       -2.1700     5.2320     1.7600 H     1 <1>   0.4000 
 25 H       -2.9490     3.7410     1.4310 H     1 <1>   0.4000 
 26 H        1.5810     6.4730    -0.3120 H     1 <1>   0.0800 
 27 H        2.3570     6.5010     1.2380 H     1 <1>   0.0800 
 28 H        3.8210     2.8800     0.7990 H     1 <1>   0.0800 
 29 H        3.9540     3.3960    -0.8450 H     1 <1>   0.0800 
 30 H        3.5010     6.7930    -1.4940 H     1 <1>   0.0800 
 31 H        5.1970     4.5010     1.6240 H     1 <1>   0.0800 
 32 H        4.5640     6.1630     1.0600 H     1 <1>   0.0800 
 33 H        4.7420     5.4920    -0.9960 H     1 <1>   0.0800 
 34 H        5.1190     8.3790    -1.1500 H     1 <1>   0.0800 
 35 H        4.9560     8.3550     0.5580 H     1 <1>   0.0800 
 36 H        7.2720     5.1260     0.8930 H     1 <1>   0.0800 
 37 H        6.9160     4.8280    -0.7580 H     1 <1>   0.0800 
 38 H        7.0870     7.4360     0.6120 H     1 <1>   0.0800 
 39 H        7.0820     7.1190    -1.0790 H     1 <1>   0.0800 
@<TRIPOS>BOND
  1   1   2  1   
  2   1   3  1   
  3   2   4  ar  
  4   2   5  ar  
  5   3  19  1   
  6   3  20  1   
  7   3  21  1   
  8   4   6  ar  
  9   5   7  ar  
 10   5  22  1   
 11   6   8  ar  
 12   6   9  1   
 13   7   8  ar  
 14   7  10  1   
 15   8  23  1   
 16   9  24  1   
 17   9  25  1   
 18  10  11  1   
 19  10  12  1   
 20  11  13  1   
 21  11  26  1   
 22  11  27  1   
 23  12  14  1   
 24  12  28  1   
 25  12  29  1   
 26  13  15  1   
 27  13  16  1   
 28  13  30  1   
 29  14  15  1   
 30  14  17  1   
 31  14  31  1   
 32  15  32  1   
 33  15  33  1   
 34  16  18  1   
 35  16  34  1   
 36  16  35  1   
 37  17  18  1   
 38  17  36  1   
 39  17  37  1   
 40  18  38  1   
 41  18  39  1   
@<TRIPOS>SUBSTRUCTURE
  1 ****  10 GROUP 4 **** **** 0

# MOE 2024.06 (io_trps.svl 2023.06)
