@<TRIPOS>MOLECULE
NONAME
61 64 1 0 0 
SMALL
USER_CHARGES


@<TRIPOS>ATOM
  1 O       -1.9520    -0.9720    -1.4860 O.3   1 <1>  -0.3630 
  2 C       -2.6680    -1.0620    -0.3340 C.ar  1 <1>   0.0830 
  3 C       -0.7610    -1.7050    -1.6640 C.3   1 <1>   0.0400 
  4 C       -3.8370    -0.3250    -0.2670 C.ar  1 <1>  -0.1500 
  5 C       -2.2870    -1.8430     0.7540 C.ar  1 <1>  -0.1500 
  6 C       -4.6390    -0.3460     0.8650 C.ar  1 <1>   0.1000 
  7 C       -3.0780    -1.8720     1.8900 C.ar  1 <1>  -0.1500 
  8 N       -5.8060     0.4170     0.8960 N.pl3 1 <1>  -0.8380 
  9 C       -4.2430    -1.1290     1.9450 C.ar  1 <1>  -0.1500 
 10 C       -5.6460     1.8630     1.1170 C.3   1 <1>   0.2090 
 11 C       -7.0300    -0.1660     1.4710 C.3   1 <1>   0.2090 
 12 C       -6.8020     2.5680     0.4140 C.3   1 <1>  -0.1600 
 13 C       -8.2210     0.4880     0.7780 C.3   1 <1>  -0.1600 
 14 C       -8.1660     2.0240     0.8790 C.3   1 <1>   0.4230 
 15 N       -9.2690     2.6270     0.0570 N.4   1 <1>  -0.9590 
 16 C      -10.6300     2.1480     0.4870 C.3   1 <1>   0.3430 
 17 C       -9.2530     4.1230     0.0350 C.3   1 <1>   0.3430 
 18 C      -11.7460     2.6200    -0.4690 C.3   1 <1>   0.0000 
 19 C      -10.3080     4.6570    -0.9360 C.3   1 <1>  -0.1600 
 20 C      -13.1010     2.1140     0.0510 C.3   1 <1>   0.2000 
 21 C      -11.7160     4.1550    -0.5840 C.3   1 <1>  -0.1600 
 22 C      -11.6310     1.9190    -1.8340 C.3   1 <1>  -0.1600 
 23 O      -13.1020     2.1170     1.4470 O.3   1 <1>  -0.5600 
 24 C      -13.2610     0.6880    -0.4930 C.3   1 <1>  -0.1600 
 25 C      -12.2290     0.5290    -1.6180 C.3   1 <1>  -0.1600 
 26 C      -14.3670     2.0200     2.0290 C.3   1 <1>   0.0400 
 27 H       -0.3790    -1.4860    -2.6450 H     1 <1>   0.0800 
 28 H       -0.9830    -2.7540    -1.5830 H     1 <1>   0.0800 
 29 H       -0.0490    -1.4010    -0.9170 H     1 <1>   0.0800 
 30 H       -4.1300     0.2700    -1.1100 H     1 <1>   0.1500 
 31 H       -1.3870    -2.4270     0.7360 H     1 <1>   0.1500 
 32 H       -2.7850    -2.4730     2.7320 H     1 <1>   0.1500 
 33 H       -4.8440    -1.1520     2.8340 H     1 <1>   0.1500 
 34 H       -5.6500     2.0710     2.1740 H     1 <1>   0.0800 
 35 H       -4.7040     2.1940     0.7090 H     1 <1>   0.0800 
 36 H       -7.0400    -1.2310     1.2980 H     1 <1>   0.0800 
 37 H       -7.0560     0.0120     2.5330 H     1 <1>   0.0800 
 38 H       -6.6830     2.4200    -0.6450 H     1 <1>   0.0800 
 39 H       -6.7080     3.6140     0.6340 H     1 <1>   0.0800 
 40 H       -9.1030     0.1000     1.2500 H     1 <1>   0.0800 
 41 H       -8.2120     0.1820    -0.2530 H     1 <1>   0.0800 
 42 H       -8.3020     2.2990     1.9130 H     1 <1>   0.0800 
 43 H       -9.1290     2.3030    -0.9060 H     1 <1>   0.4500 
 44 H      -10.6630     1.0740     0.5240 H     1 <1>   0.0800 
 45 H      -10.8420     2.5170     1.4770 H     1 <1>   0.0800 
 46 H       -9.4510     4.5030     1.0250 H     1 <1>   0.0800 
 47 H       -8.2880     4.4840    -0.2800 H     1 <1>   0.0800 
 48 H      -10.3010     5.7330    -0.9000 H     1 <1>   0.0800 
 49 H      -10.0500     4.3710    -1.9410 H     1 <1>   0.0800 
 50 H      -13.8950     2.7460    -0.3130 H     1 <1>   0.0800 
 51 H      -12.4210     4.4920    -1.3260 H     1 <1>   0.0800 
 52 H      -12.0140     4.5820     0.3590 H     1 <1>   0.0800 
 53 H      -12.2370     2.4400    -2.5570 H     1 <1>   0.0800 
 54 H      -10.6270     1.8650    -2.2150 H     1 <1>   0.0800 
 55 H      -13.0860    -0.0460     0.2750 H     1 <1>   0.0800 
 56 H      -14.2560     0.5610    -0.8830 H     1 <1>   0.0800 
 57 H      -11.4620    -0.1610    -1.3090 H     1 <1>   0.0800 
 58 H      -12.6830     0.1540    -2.5200 H     1 <1>   0.0800 
 59 H      -14.2480     2.0330     3.0980 H     1 <1>   0.0800 
 60 H      -14.8340     1.0970     1.7300 H     1 <1>   0.0800 
 61 H      -14.9670     2.8610     1.7230 H     1 <1>   0.0800 
@<TRIPOS>BOND
  1   1   2  1   
  2   1   3  1   
  3   2   4  ar  
  4   2   5  ar  
  5   3  27  1   
  6   3  28  1   
  7   3  29  1   
  8   4   6  ar  
  9   4  30  1   
 10   5   7  ar  
 11   5  31  1   
 12   6   8  1   
 13   6   9  ar  
 14   7   9  ar  
 15   7  32  1   
 16   8  10  1   
 17   8  11  1   
 18   9  33  1   
 19  10  12  1   
 20  10  34  1   
 21  10  35  1   
 22  11  13  1   
 23  11  36  1   
 24  11  37  1   
 25  12  14  1   
 26  12  38  1   
 27  12  39  1   
 28  13  14  1   
 29  13  40  1   
 30  13  41  1   
 31  14  15  1   
 32  14  42  1   
 33  15  16  1   
 34  15  17  1   
 35  15  43  1   
 36  16  18  1   
 37  16  44  1   
 38  16  45  1   
 39  17  19  1   
 40  17  46  1   
 41  17  47  1   
 42  18  20  1   
 43  18  21  1   
 44  18  22  1   
 45  19  21  1   
 46  19  48  1   
 47  19  49  1   
 48  20  23  1   
 49  20  24  1   
 50  20  50  1   
 51  21  51  1   
 52  21  52  1   
 53  22  25  1   
 54  22  53  1   
 55  22  54  1   
 56  23  26  1   
 57  24  25  1   
 58  24  55  1   
 59  24  56  1   
 60  25  57  1   
 61  25  58  1   
 62  26  59  1   
 63  26  60  1   
 64  26  61  1   
@<TRIPOS>SUBSTRUCTURE
  1 ****  13 GROUP 4 **** **** 0

# MOE 2024.06 (io_trps.svl 2023.06)
