@<TRIPOS>MOLECULE
NONAME
48 51 1 0 0 
SMALL
USER_CHARGES


@<TRIPOS>ATOM
  1 O        0.9350    -0.0490     1.9680 O.2   1 <1>  -0.5700 
  2 C        1.5660    -0.9320     1.4300 C.2   1 <1>   0.9370 
  3 N        2.7360    -0.6120     0.7260 N.pl3 1 <1>  -0.5760 
  4 C        1.1430    -2.2790     1.4940 C.2   1 <1>  -0.1360 
  5 C        3.4440    -1.5990     0.1180 C.cat 1 <1>   0.7390 
  6 C        3.1770     0.6880     0.6470 C.2   1 <1>   0.1910 
  7 C        1.8500    -3.2470     0.8820 C.2   1 <1>   0.2030 
  8 N        2.9940    -2.8750     0.2070 N.pl3 1 <1>  -0.6450 
  9 C        4.6240    -1.2890    -0.5940 C.2   1 <1>  -0.1680 
 10 C        4.3140     1.0100    -0.0350 C.2   1 <1>  -0.1500 
 11 C        1.4710    -4.7320     0.8970 C.3   1 <1>   0.2480 
 12 C        5.0570     0.0100    -0.6690 C.2   1 <1>  -0.1500 
 13 C        5.4420    -2.3780    -1.2900 C.3   1 <1>  -0.1020 
 14 N        0.0450    -4.9430     1.2160 N.3   1 <1>  -0.8100 
 15 C       -0.8620    -4.5730     0.0970 C.3   1 <1>   0.1100 
 16 C       -0.2130    -6.3630     1.5270 C.3   1 <1>   0.1100 
 17 C       -1.8160    -5.7520    -0.1150 C.3   1 <1>   0.2000 
 18 C       -0.9950    -6.9500     0.3450 C.3   1 <1>  -0.0800 
 19 O       -2.8930    -5.6040     0.7390 O.3   1 <1>  -0.6800 
 20 C       -0.1000    -7.4680    -0.8040 C.3   1 <1>  -0.0170 
 21 C        0.9750    -8.4380    -0.3410 C.ar  1 <1>   0.1670 
 22 N        2.1840    -7.9320    -0.1290 N.ar  1 <1>  -0.6200 
 23 C        0.6590    -9.7850    -0.1660 C.ar  1 <1>   0.1600 
 24 C        3.0430    -8.8630     0.2600 C.ar  1 <1>   0.1600 
 25 N        1.5170   -10.7090     0.2290 N.ar  1 <1>  -0.6200 
 26 C        2.7200   -10.2040     0.4330 C.ar  1 <1>   0.1600 
 27 H        0.2460    -2.4740     2.0510 H     1 <1>   0.1500 
 28 H        2.6050     1.4650     1.1360 H     1 <1>   0.1500 
 29 H        3.5560    -3.5920    -0.2610 H     1 <1>   0.4500 
 30 H        4.6520     2.0320    -0.0920 H     1 <1>   0.1500 
 31 H        2.0780    -5.2200     1.6410 H     1 <1>   0.0800 
 32 H        1.6980    -5.1820    -0.0540 H     1 <1>   0.0800 
 33 H        5.9530     0.2870    -1.2020 H     1 <1>   0.1500 
 34 H        4.8520    -2.8760    -2.0390 H     1 <1>   0.0800 
 35 H        5.7980    -3.1000    -0.5760 H     1 <1>   0.0800 
 36 H        6.3020    -1.9550    -1.7810 H     1 <1>   0.0800 
 37 H       -1.4080    -3.6720     0.3200 H     1 <1>   0.0800 
 38 H       -0.3010    -4.4190    -0.8080 H     1 <1>   0.0800 
 39 H        0.6840    -6.9130     1.7530 H     1 <1>   0.0800 
 40 H       -0.8370    -6.4020     2.4040 H     1 <1>   0.0800 
 41 H       -2.1890    -5.8320    -1.1220 H     1 <1>   0.0800 
 42 H       -1.6300    -7.7540     0.6760 H     1 <1>   0.0800 
 43 H       -2.5610    -5.3700     1.6290 H     1 <1>   0.4000 
 44 H        0.3810    -6.6510    -1.3090 H     1 <1>   0.0800 
 45 H       -0.7210    -7.9590    -1.5320 H     1 <1>   0.0800 
 46 H       -0.3470   -10.1110    -0.3600 H     1 <1>   0.1500 
 47 H        4.0550    -8.5550     0.4520 H     1 <1>   0.1500 
 48 H        3.4900   -10.8850     0.7540 H     1 <1>   0.1500 
@<TRIPOS>BOND
  1   1   2  2   
  2   2   3  1   
  3   2   4  1   
  4   3   5  ar  
  5   3   6  1   
  6   4   7  2   
  7   4  27  1   
  8   5   8  ar  
  9   5   9  1   
 10   6  10  2   
 11   6  28  1   
 12   7   8  1   
 13   7  11  1   
 14   8  29  1   
 15   9  12  2   
 16   9  13  1   
 17  10  12  1   
 18  10  30  1   
 19  11  14  1   
 20  11  31  1   
 21  11  32  1   
 22  12  33  1   
 23  13  34  1   
 24  13  35  1   
 25  13  36  1   
 26  14  15  1   
 27  14  16  1   
 28  15  17  1   
 29  15  37  1   
 30  15  38  1   
 31  16  18  1   
 32  16  39  1   
 33  16  40  1   
 34  17  18  1   
 35  17  19  1   
 36  17  41  1   
 37  18  20  1   
 38  18  42  1   
 39  19  43  1   
 40  20  21  1   
 41  20  44  1   
 42  20  45  1   
 43  21  22  ar  
 44  21  23  ar  
 45  22  24  ar  
 46  23  25  ar  
 47  23  46  1   
 48  24  26  ar  
 49  24  47  1   
 50  25  26  ar  
 51  26  48  1   
@<TRIPOS>SUBSTRUCTURE
  1 ****  11 GROUP 4 **** **** 0

# MOE 2024.06 (io_trps.svl 2023.06)
