@<TRIPOS>MOLECULE
NONAME
49 52 1 0 0 
SMALL
USER_CHARGES


@<TRIPOS>ATOM
  1 O        1.2630    -0.3820    -2.1610 O.2   1 <1>  -0.5700 
  2 C        1.8500    -0.5900    -1.1130 C.2   1 <1>   0.7160 
  3 N        2.6790     0.4190    -0.6500 N.am  1 <1>  -0.6600 
  4 C        1.6860    -1.8740    -0.4310 C.2   1 <1>   0.2030 
  5 C        3.0010     0.5740     0.8140 C.3   1 <1>   0.2200 
  6 C        3.3150     1.3420    -1.6400 C.3   1 <1>   0.1400 
  7 N        2.4170    -2.3550     0.5660 N.2   1 <1>  -0.7070 
  8 C        0.7110    -2.8080    -0.7930 C.2   1 <1>  -0.1500 
  9 C        2.9030     2.0330     1.2900 C.3   1 <1>   0.1200 
 10 C        4.3820    -0.0320     1.1620 C.3   1 <1>   0.3430 
 11 C        4.6160     2.0140    -1.1630 C.3   1 <1>  -0.0800 
 12 N        1.9120    -3.5760     0.8100 N.pl3 1 <1>   0.3000 
 13 C        0.8720    -3.8880     0.0080 C.2   1 <1>  -0.2050 
 14 O        4.1140     2.7030     1.1070 O.3   1 <1>  -0.5600 
 15 N        5.2590    -0.2080    -0.0360 N.4   1 <1>  -0.9590 
 16 C        4.3620     3.1650    -0.1780 C.3   1 <1>   0.1200 
 17 C        5.7290     1.0590    -0.6880 C.3   1 <1>   0.3430 
 18 C        0.1450    -5.1290     0.0680 C.ar  1 <1>   0.0530 
 19 C        6.4500    -1.1110     0.2610 C.3   1 <1>   0.2370 
 20 C        0.7960    -6.3480     0.2520 C.ar  1 <1>  -0.1500 
 21 C       -1.2420    -5.1430    -0.0550 C.ar  1 <1>  -0.1500 
 22 C        7.3520    -1.4430    -0.9350 C.2   1 <1>   0.9060 
 23 C        0.0870    -7.5330     0.3230 C.ar  1 <1>  -0.1500 
 24 C       -1.9560    -6.3250     0.0140 C.ar  1 <1>  -0.1500 
 25 O        8.0850    -0.5500    -1.3740 O.co2 1 <1>  -0.9000 
 26 O        7.2440    -2.5520    -1.4570 O.co2 1 <1>  -0.9000 
 27 C       -1.2920    -7.5240     0.2060 C.ar  1 <1>  -0.1500 
 28 H        2.2560     0.0430     1.3800 H     1 <1>   0.0800 
 29 H        3.5310     0.7820    -2.5350 H     1 <1>   0.0800 
 30 H        2.5970     2.0980    -1.9100 H     1 <1>   0.0800 
 31 H       -0.0130    -2.6710    -1.5770 H     1 <1>   0.1500 
 32 H        2.7100     2.0430     2.3480 H     1 <1>   0.0800 
 33 H        2.1060     2.5620     0.7970 H     1 <1>   0.0800 
 34 H        4.2120    -0.9970     1.6100 H     1 <1>   0.0800 
 35 H        4.8750     0.5850     1.8940 H     1 <1>   0.0800 
 36 H        5.0170     2.4990    -2.0350 H     1 <1>   0.0800 
 37 H        2.2790    -4.2010     1.5390 H     1 <1>   0.2700 
 38 H        4.6900    -0.7050    -0.7390 H     1 <1>   0.4500 
 39 H        3.5370     3.7820    -0.4940 H     1 <1>   0.0800 
 40 H        5.2390     3.7880    -0.1180 H     1 <1>   0.0800 
 41 H        6.3880     1.5850    -0.0180 H     1 <1>   0.0800 
 42 H        6.3140     0.7930    -1.5550 H     1 <1>   0.0800 
 43 H        7.0750    -0.6490     1.0020 H     1 <1>   0.0800 
 44 H        6.1000    -2.0490     0.6500 H     1 <1>   0.0800 
 45 H        1.8670    -6.3750     0.3280 H     1 <1>   0.1500 
 46 H       -1.7650    -4.2150    -0.2020 H     1 <1>   0.1500 
 47 H        0.6050    -8.4660     0.4650 H     1 <1>   0.1500 
 48 H       -3.0280    -6.3140    -0.0810 H     1 <1>   0.1500 
 49 H       -1.8460    -8.4460     0.2600 H     1 <1>   0.1500 
@<TRIPOS>BOND
  1   1   2  2   
  2   2   3  am  
  3   2   4  1   
  4   3   5  1   
  5   3   6  1   
  6   4   7  2   
  7   4   8  1   
  8   5   9  1   
  9   5  10  1   
 10   5  28  1   
 11   6  11  1   
 12   6  29  1   
 13   6  30  1   
 14   7  12  1   
 15   8  13  2   
 16   8  31  1   
 17   9  14  1   
 18   9  32  1   
 19   9  33  1   
 20  10  15  1   
 21  10  34  1   
 22  10  35  1   
 23  11  16  1   
 24  11  17  1   
 25  11  36  1   
 26  12  13  1   
 27  12  37  1   
 28  13  18  1   
 29  14  16  1   
 30  15  17  1   
 31  15  19  1   
 32  15  38  1   
 33  16  39  1   
 34  16  40  1   
 35  17  41  1   
 36  17  42  1   
 37  18  20  ar  
 38  18  21  ar  
 39  19  22  1   
 40  19  43  1   
 41  19  44  1   
 42  20  23  ar  
 43  20  45  1   
 44  21  24  ar  
 45  21  46  1   
 46  22  25  ar  
 47  22  26  ar  
 48  23  27  ar  
 49  23  47  1   
 50  24  27  ar  
 51  24  48  1   
 52  27  49  1   
@<TRIPOS>SUBSTRUCTURE
  1 ****   7 GROUP 4 **** **** 0

# MOE 2024.06 (io_trps.svl 2023.06)
