@<TRIPOS>MOLECULE
NONAME
35 37 1 0 0 
SMALL
USER_CHARGES


@<TRIPOS>ATOM
  1 S       -0.8870    -0.5950     2.7910 S.3   1 <1>   0.1810 
  2 N        0.4620     0.0180     1.9650 N.2   1 <1>  -0.2210 
  3 C       -1.9760    -0.0970     1.5490 C.2   1 <1>  -0.1400 
  4 N        0.1190     0.5380     0.8700 N.2   1 <1>  -0.2270 
  5 C       -1.2340     0.4880     0.6060 C.2   1 <1>   0.0460 
  6 C       -3.4490    -0.3840     1.7150 C.3   1 <1>   0.3200 
  7 C       -1.7140     1.0800    -0.7040 C.3   1 <1>  -0.0590 
  8 N       -3.7130    -1.7510     1.2260 N.am  1 <1>  -0.7300 
  9 C       -4.3350    -2.0240     0.0560 C.2   1 <1>   0.5690 
 10 O       -4.8090    -1.1580    -0.6350 O.2   1 <1>  -0.5700 
 11 C       -4.4400    -3.4600    -0.4000 C.3   1 <1>  -0.0990 
 12 C       -5.8930    -3.9450    -0.3320 C.3   1 <1>   0.0200 
 13 C       -5.9880    -5.4100    -0.7060 C.2   1 <1>   0.2980 
 14 O       -5.8490    -5.7510    -1.9600 O.3   1 <1>  -0.0190 
 15 N       -6.1850    -6.3640     0.1040 N.2   1 <1>  -0.5650 
 16 N       -5.9670    -7.0420    -1.9500 N.2   1 <1>  -0.4100 
 17 C       -6.1690    -7.4090    -0.7330 C.2   1 <1>   0.5150 
 18 C       -6.3580    -8.7640    -0.2610 C.2   1 <1>   0.1410 
 19 O       -6.3190    -9.7990    -1.0960 O.3   1 <1>  -0.2800 
 20 C       -6.5890    -9.2340     0.9960 C.2   1 <1>  -0.1500 
 21 C       -6.5180   -10.9040    -0.4090 C.2   1 <1>  -0.0100 
 22 C       -6.6930   -10.6230     0.8990 C.2   1 <1>  -0.1500 
 23 H       -4.0240     0.3290     1.1480 H     1 <1>   0.0800 
 24 H       -3.7370    -0.2990     2.7490 H     1 <1>   0.0800 
 25 H       -2.7750     0.9490    -0.8190 H     1 <1>   0.0800 
 26 H       -1.2190     0.5920    -1.5240 H     1 <1>   0.0800 
 27 H       -1.4850     2.1290    -0.7360 H     1 <1>   0.0800 
 28 H       -3.2460    -2.4950     1.7450 H     1 <1>   0.3700 
 29 H       -3.8190    -4.0850     0.2150 H     1 <1>   0.0800 
 30 H       -4.0830    -3.5240    -1.4120 H     1 <1>   0.0800 
 31 H       -6.5080    -3.3670    -0.9990 H     1 <1>   0.0800 
 32 H       -6.2710    -3.8160     0.6670 H     1 <1>   0.0800 
 33 H       -6.6790    -8.6580     1.9000 H     1 <1>   0.1500 
 34 H       -6.5190   -11.8470    -0.9290 H     1 <1>   0.1500 
 35 H       -6.8750   -11.3000     1.7150 H     1 <1>   0.1500 
@<TRIPOS>BOND
  1   1   2  1   
  2   1   3  1   
  3   2   4  2   
  4   3   5  2   
  5   3   6  1   
  6   4   5  1   
  7   5   7  1   
  8   6   8  1   
  9   6  23  1   
 10   6  24  1   
 11   7  25  1   
 12   7  26  1   
 13   7  27  1   
 14   8   9  am  
 15   8  28  1   
 16   9  10  2   
 17   9  11  1   
 18  11  12  1   
 19  11  29  1   
 20  11  30  1   
 21  12  13  1   
 22  12  31  1   
 23  12  32  1   
 24  13  14  1   
 25  13  15  2   
 26  14  16  1   
 27  15  17  1   
 28  16  17  2   
 29  17  18  1   
 30  18  19  1   
 31  18  20  2   
 32  19  21  1   
 33  20  22  1   
 34  20  33  1   
 35  21  22  2   
 36  21  34  1   
 37  22  35  1   
@<TRIPOS>SUBSTRUCTURE
  1 ****  11 GROUP 4 **** **** 0

# MOE 2024.06 (io_trps.svl 2023.06)
