@<TRIPOS>MOLECULE
NONAME
46 49 1 0 0 
SMALL
USER_CHARGES


@<TRIPOS>ATOM
  1 O       -0.5330    -0.3440     0.1110 O.2   1 <1>  -0.5700 
  2 C       -1.5340     0.3370     0.0030 C.2   1 <1>   0.5440 
  3 N       -1.3950     1.7070    -0.0840 N.am  1 <1>  -0.6600 
  4 C       -2.8200    -0.3140    -0.0400 C.ar  1 <1>   0.0860 
  5 C       -0.0900     2.3800     0.1900 C.3   1 <1>   0.1400 
  6 C       -2.4150     2.6350    -0.6590 C.3   1 <1>   0.1400 
  7 C       -3.0370    -1.3800    -0.9090 C.ar  1 <1>   0.1600 
  8 C       -3.8860     0.0630     0.7710 C.ar  1 <1>  -0.1500 
  9 C       -0.3080     3.6860     0.9730 C.3   1 <1>   0.1200 
 10 C       -2.5080     3.9200     0.1800 C.3   1 <1>   0.1200 
 11 N       -4.1690    -2.0480    -1.0520 N.ar  1 <1>  -0.6200 
 12 C       -5.0690    -0.6240     0.6410 C.ar  1 <1>  -0.1500 
 13 O       -1.2450     4.5050     0.3290 O.3   1 <1>  -0.5600 
 14 C       -5.1740    -1.6660    -0.2760 C.ar  1 <1>   0.4100 
 15 N       -6.3520    -2.3430    -0.4030 N.pl3 1 <1>  -0.8690 
 16 C       -6.4470    -3.6470    -1.1220 C.3   1 <1>   0.3890 
 17 C       -7.7390    -4.3860    -0.7860 C.2   1 <1>   0.2980 
 18 O       -8.8920    -3.8000    -1.0770 O.3   1 <1>  -0.2800 
 19 N       -7.8390    -5.5390    -0.2350 N.2   1 <1>  -0.5650 
 20 C       -9.8230    -4.6460    -0.6830 C.ar  1 <1>   0.1400 
 21 C       -9.1860    -5.7410    -0.1520 C.ar  1 <1>   0.2270 
 22 C      -11.2050    -4.5460    -0.7460 C.ar  1 <1>  -0.1500 
 23 C       -9.9330    -6.8070     0.3500 C.ar  1 <1>  -0.1430 
 24 C      -11.9480    -5.6000    -0.2490 C.ar  1 <1>  -0.1500 
 25 C      -11.3130    -6.7220     0.2950 C.ar  1 <1>  -0.1500 
 26 C       -9.2270    -8.0180     0.9380 C.3   1 <1>  -0.0970 
 27 H        0.3990     2.5990    -0.7420 H     1 <1>   0.0800 
 28 H        0.5540     1.7320     0.7590 H     1 <1>   0.0800 
 29 H       -3.3810     2.1680    -0.7130 H     1 <1>   0.0800 
 30 H       -2.1220     2.8970    -1.6610 H     1 <1>   0.0800 
 31 H       -2.2080    -1.6910    -1.5230 H     1 <1>   0.1500 
 32 H       -3.7740     0.8660     1.4790 H     1 <1>   0.1500 
 33 H        0.6140     4.2340     1.0430 H     1 <1>   0.0800 
 34 H       -0.6610     3.4740     1.9670 H     1 <1>   0.0800 
 35 H       -2.9070     3.7100     1.1570 H     1 <1>   0.0800 
 36 H       -3.1450     4.6370    -0.3070 H     1 <1>   0.0800 
 37 H       -5.9210    -0.3690     1.2420 H     1 <1>   0.1500 
 38 H       -7.0670    -2.2250     0.3170 H     1 <1>   0.4000 
 39 H       -5.6110    -4.2680    -0.8500 H     1 <1>   0.0800 
 40 H       -6.4060    -3.4690    -2.1820 H     1 <1>   0.0800 
 41 H      -11.6630    -3.6710    -1.1700 H     1 <1>   0.1500 
 42 H      -13.0230    -5.5640    -0.2780 H     1 <1>   0.1500 
 43 H      -11.9200    -7.5260     0.6730 H     1 <1>   0.1500 
 44 H       -8.6120    -7.7130     1.7660 H     1 <1>   0.0800 
 45 H       -8.5970    -8.4680     0.1910 H     1 <1>   0.0800 
 46 H       -9.9340    -8.7500     1.2820 H     1 <1>   0.0800 
@<TRIPOS>BOND
  1   1   2  2   
  2   2   3  am  
  3   2   4  1   
  4   3   5  1   
  5   3   6  1   
  6   4   7  ar  
  7   4   8  ar  
  8   5   9  1   
  9   5  27  1   
 10   5  28  1   
 11   6  10  1   
 12   6  29  1   
 13   6  30  1   
 14   7  11  ar  
 15   7  31  1   
 16   8  12  ar  
 17   8  32  1   
 18   9  13  1   
 19   9  33  1   
 20   9  34  1   
 21  10  13  1   
 22  10  35  1   
 23  10  36  1   
 24  11  14  ar  
 25  12  14  ar  
 26  12  37  1   
 27  14  15  1   
 28  15  16  1   
 29  15  38  1   
 30  16  17  1   
 31  16  39  1   
 32  16  40  1   
 33  17  18  1   
 34  17  19  2   
 35  18  20  1   
 36  19  21  1   
 37  20  21  ar  
 38  20  22  ar  
 39  21  23  ar  
 40  22  24  ar  
 41  22  41  1   
 42  23  25  ar  
 43  23  26  1   
 44  24  25  ar  
 45  24  42  1   
 46  25  43  1   
 47  26  44  1   
 48  26  45  1   
 49  26  46  1   
@<TRIPOS>SUBSTRUCTURE
  1 ****  14 GROUP 4 **** **** 0

# MOE 2024.06 (io_trps.svl 2023.06)
