@<TRIPOS>MOLECULE
NONAME
54 56 1 0 0 
SMALL
USER_CHARGES


@<TRIPOS>ATOM
  1 F       -5.0360     1.3860     2.0570 F     1 <1>  -0.1900 
  2 C       -4.0830     1.6730     1.2020 C.ar  1 <1>   0.1900 
  3 C       -3.9190     0.8660     0.0780 C.ar  1 <1>   0.1170 
  4 C       -3.2880     2.7700     1.4650 C.ar  1 <1>  -0.1500 
  5 N       -4.7670    -0.2400    -0.1250 N.am  1 <1>  -0.5470 
  6 C       -2.8940     1.2110    -0.7980 C.ar  1 <1>  -0.1500 
  7 C       -2.2790     3.0890     0.5730 C.ar  1 <1>  -0.1500 
  8 C       -5.0050    -1.0670    -1.1830 C.2   1 <1>   0.5690 
  9 C       -2.0820     2.3110    -0.5600 C.ar  1 <1>  -0.1440 
 10 O       -4.4330    -1.0050    -2.2440 O.2   1 <1>  -0.5700 
 11 C       -6.0870    -2.1310    -0.9780 C.3   1 <1>   0.1710 
 12 C       -0.9730     2.6630    -1.5350 C.3   1 <1>  -0.0970 
 13 N       -6.9910    -1.8540     0.1820 N.3   1 <1>  -0.8100 
 14 C       -7.6500    -3.1030     0.6200 C.3   1 <1>   0.1100 
 15 C       -7.9440    -0.7700    -0.1430 C.3   1 <1>   0.1100 
 16 C       -8.5260    -2.9360     1.8730 C.3   1 <1>   0.1400 
 17 C       -8.4110    -0.0780     1.1440 C.3   1 <1>  -0.1600 
 18 N       -9.7640    -2.1610     1.5640 N.am  1 <1>  -0.6600 
 19 C       -9.6610    -0.6920     1.7920 C.3   1 <1>   0.1400 
 20 C      -10.8040    -2.7080     0.8350 C.2   1 <1>   0.7160 
 21 O      -11.6520    -1.9760     0.3580 O.2   1 <1>  -0.5700 
 22 C      -10.8770    -4.1270     0.5910 C.2   1 <1>  -0.0860 
 23 C      -10.8530    -4.8440    -0.5690 C.2   1 <1>  -0.3320 
 24 C      -10.9870    -5.1120     1.5730 C.2   1 <1>   0.1390 
 25 N      -10.9320    -6.1460    -0.2410 N.pl3 1 <1>   0.3140 
 26 C      -10.7650    -4.3120    -1.9920 C.3   1 <1>  -0.0600 
 27 N      -11.0030    -6.3120     1.0890 N.2   1 <1>  -0.7070 
 28 C      -10.9610    -7.3000    -1.1490 C.3   1 <1>   0.0160 
 29 H       -3.4560     3.3610     2.3470 H     1 <1>   0.1500 
 30 H       -5.4190    -0.4370     0.6450 H     1 <1>   0.3700 
 31 H       -2.7260     0.6150    -1.6760 H     1 <1>   0.1500 
 32 H       -1.6490     3.9410     0.7610 H     1 <1>   0.1500 
 33 H       -5.5740    -3.0630    -0.8200 H     1 <1>   0.0800 
 34 H       -6.6640    -2.2210    -1.8810 H     1 <1>   0.0800 
 35 H       -1.1820     2.2560    -2.5080 H     1 <1>   0.0800 
 36 H       -0.0400     2.2610    -1.1850 H     1 <1>   0.0800 
 37 H       -0.8810     3.7300    -1.6280 H     1 <1>   0.0800 
 38 H       -6.8860    -3.8230     0.8580 H     1 <1>   0.0800 
 39 H       -8.2410    -3.5110    -0.1820 H     1 <1>   0.0800 
 40 H       -8.7800    -1.1450    -0.7100 H     1 <1>   0.0800 
 41 H       -7.4510    -0.0270    -0.7470 H     1 <1>   0.0800 
 42 H       -7.9590    -2.4420     2.6430 H     1 <1>   0.0800 
 43 H       -8.7890    -3.9070     2.2470 H     1 <1>   0.0800 
 44 H       -8.6430     0.9460     0.9140 H     1 <1>   0.0800 
 45 H       -7.6040    -0.0560     1.8550 H     1 <1>   0.0800 
 46 H      -10.5300    -0.1970     1.3930 H     1 <1>   0.0800 
 47 H       -9.6480    -0.5000     2.8510 H     1 <1>   0.0800 
 48 H      -11.0500    -4.8990     2.6270 H     1 <1>   0.1500 
 49 H      -10.7220    -3.2370    -1.9880 H     1 <1>   0.0800 
 50 H      -11.6330    -4.6100    -2.5520 H     1 <1>   0.0800 
 51 H       -9.8840    -4.6880    -2.4790 H     1 <1>   0.0800 
 52 H      -10.0840    -7.2860    -1.7670 H     1 <1>   0.0800 
 53 H      -11.8430    -7.2450    -1.7580 H     1 <1>   0.0800 
 54 H      -10.9800    -8.2040    -0.5690 H     1 <1>   0.0800 
@<TRIPOS>BOND
  1   1   2  1   
  2   2   3  ar  
  3   2   4  ar  
  4   3   5  1   
  5   3   6  ar  
  6   4   7  ar  
  7   4  29  1   
  8   5   8  am  
  9   5  30  1   
 10   6   9  ar  
 11   6  31  1   
 12   7   9  ar  
 13   7  32  1   
 14   8  10  2   
 15   8  11  1   
 16   9  12  1   
 17  11  13  1   
 18  11  33  1   
 19  11  34  1   
 20  12  35  1   
 21  12  36  1   
 22  12  37  1   
 23  13  14  1   
 24  13  15  1   
 25  14  16  1   
 26  14  38  1   
 27  14  39  1   
 28  15  17  1   
 29  15  40  1   
 30  15  41  1   
 31  16  18  1   
 32  16  42  1   
 33  16  43  1   
 34  17  19  1   
 35  17  44  1   
 36  17  45  1   
 37  18  19  1   
 38  18  20  am  
 39  19  46  1   
 40  19  47  1   
 41  20  21  2   
 42  20  22  1   
 43  22  23  2   
 44  22  24  1   
 45  23  25  1   
 46  23  26  1   
 47  24  27  2   
 48  24  48  1   
 49  25  27  1   
 50  25  28  1   
 51  26  49  1   
 52  26  50  1   
 53  26  51  1   
 54  28  52  1   
 55  28  53  1   
 56  28  54  1   
@<TRIPOS>SUBSTRUCTURE
  1 ****  13 GROUP 4 **** **** 0

# MOE 2024.06 (io_trps.svl 2023.06)
