@<TRIPOS>MOLECULE
NONAME
59 61 1 0 0 
SMALL
USER_CHARGES


@<TRIPOS>ATOM
  1 O       -2.8380     0.3500     2.5690 O.2   1 <1>  -0.5700 
  2 C       -2.5790     0.7450     1.4500 C.2   1 <1>   0.5440 
  3 N       -2.5280    -0.1620     0.4190 N.am  1 <1>  -0.6600 
  4 C       -2.3210     2.1530     1.2220 C.ar  1 <1>   0.0860 
  5 C       -2.4170    -1.6310     0.6830 C.3   1 <1>   0.3640 
  6 C       -2.8280     0.2280    -0.9940 C.3   1 <1>   0.1400 
  7 C       -1.1590     2.5680     0.5750 C.ar  1 <1>  -0.1500 
  8 C       -3.2190     3.1300     1.6470 C.ar  1 <1>  -0.1500 
  9 C       -0.9620    -2.0660     0.4530 C.ar  1 <1>  -0.1430 
 10 C       -3.5000    -2.3980    -0.1220 C.3   1 <1>   0.2000 
 11 C       -2.8190    -0.9680    -1.9610 C.3   1 <1>   0.1200 
 12 C       -0.9060     3.9130     0.3380 C.ar  1 <1>   0.0830 
 13 C       -2.9780     4.4720     1.4160 C.ar  1 <1>  -0.1500 
 14 C       -0.5690    -2.9660    -0.5310 C.ar  1 <1>  -0.1500 
 15 C        0.0160    -1.5360     1.2820 C.ar  1 <1>  -0.1500 
 16 O       -3.5970    -2.0400    -1.4960 O.3   1 <1>  -0.5600 
 17 C       -4.8840    -2.1850     0.5130 C.3   1 <1>   0.1200 
 18 O        0.2000     4.3810    -0.2940 O.3   1 <1>  -0.3630 
 19 C       -1.8240     4.8600     0.7600 C.ar  1 <1>  -0.1500 
 20 C        0.7590    -3.3230    -0.7000 C.ar  1 <1>   0.0830 
 21 C        1.3480    -1.8750     1.1250 C.ar  1 <1>  -0.1500 
 22 O       -5.8510    -2.7560    -0.3000 O.3   1 <1>  -0.6800 
 23 C        1.2730     3.5580    -0.6980 C.3   1 <1>   0.2000 
 24 O        0.9870    -4.2160    -1.7040 O.3   1 <1>  -0.3630 
 25 C        1.7430    -2.7630     0.1290 C.ar  1 <1>   0.0830 
 26 C        2.1400     3.2330     0.5210 C.3   1 <1>  -0.2400 
 27 C        2.0670     4.3410    -1.7410 C.3   1 <1>  -0.2400 
 28 C        1.9880    -5.2030    -1.5800 C.3   1 <1>   0.0400 
 29 O        3.0580    -3.0790    -0.0640 O.3   1 <1>  -0.3630 
 30 C        4.0900    -2.5040     0.7080 C.3   1 <1>   0.0400 
 31 H       -2.6160    -1.8260     1.7220 H     1 <1>   0.0800 
 32 H       -3.7970     0.6950    -1.0300 H     1 <1>   0.0800 
 33 H       -2.1030     0.9460    -1.3340 H     1 <1>   0.0800 
 34 H       -0.4630     1.8100     0.2710 H     1 <1>   0.1500 
 35 H       -4.1130     2.8260     2.1650 H     1 <1>   0.1500 
 36 H       -3.2820    -3.4500    -0.0780 H     1 <1>   0.0800 
 37 H       -1.8130    -1.3130    -2.1160 H     1 <1>   0.0800 
 38 H       -3.2140    -0.6710    -2.9160 H     1 <1>   0.0800 
 39 H       -3.6840     5.2140     1.7490 H     1 <1>   0.1500 
 40 H       -1.2850    -3.4140    -1.1950 H     1 <1>   0.1500 
 41 H       -0.2630    -0.8470     2.0630 H     1 <1>   0.1500 
 42 H       -5.1000    -1.1340     0.6040 H     1 <1>   0.0800 
 43 H       -4.9440    -2.6400     1.4860 H     1 <1>   0.0800 
 44 H       -1.6260     5.9010     0.5740 H     1 <1>   0.1500 
 45 H        2.0580    -1.4290     1.7940 H     1 <1>   0.1500 
 46 H       -5.5680    -2.6120    -1.2300 H     1 <1>   0.4000 
 47 H        0.8800     2.6670    -1.1540 H     1 <1>   0.0800 
 48 H        2.5100     4.1390     0.9650 H     1 <1>   0.0800 
 49 H        2.9780     2.6300     0.2220 H     1 <1>   0.0800 
 50 H        1.5780     2.6860     1.2550 H     1 <1>   0.0800 
 51 H        2.4440     5.2550    -1.3170 H     1 <1>   0.0800 
 52 H        1.4380     4.5730    -2.5810 H     1 <1>   0.0800 
 53 H        2.8970     3.7540    -2.0900 H     1 <1>   0.0800 
 54 H        1.7520    -6.0060    -2.2550 H     1 <1>   0.0800 
 55 H        2.0050    -5.5630    -0.5670 H     1 <1>   0.0800 
 56 H        2.9360    -4.7710    -1.8480 H     1 <1>   0.0800 
 57 H        5.0270    -2.8950     0.3530 H     1 <1>   0.0800 
 58 H        3.9490    -2.7750     1.7390 H     1 <1>   0.0800 
 59 H        4.0690    -1.4360     0.5800 H     1 <1>   0.0800 
@<TRIPOS>BOND
  1   1   2  2   
  2   2   3  am  
  3   2   4  1   
  4   3   5  1   
  5   3   6  1   
  6   4   7  ar  
  7   4   8  ar  
  8   5   9  1   
  9   5  10  1   
 10   5  31  1   
 11   6  11  1   
 12   6  32  1   
 13   6  33  1   
 14   7  12  ar  
 15   7  34  1   
 16   8  13  ar  
 17   8  35  1   
 18   9  14  ar  
 19   9  15  ar  
 20  10  16  1   
 21  10  17  1   
 22  10  36  1   
 23  11  16  1   
 24  11  37  1   
 25  11  38  1   
 26  12  18  1   
 27  12  19  ar  
 28  13  19  ar  
 29  13  39  1   
 30  14  20  ar  
 31  14  40  1   
 32  15  21  ar  
 33  15  41  1   
 34  17  22  1   
 35  17  42  1   
 36  17  43  1   
 37  18  23  1   
 38  19  44  1   
 39  20  24  1   
 40  20  25  ar  
 41  21  25  ar  
 42  21  45  1   
 43  22  46  1   
 44  23  26  1   
 45  23  27  1   
 46  23  47  1   
 47  24  28  1   
 48  25  29  1   
 49  26  48  1   
 50  26  49  1   
 51  26  50  1   
 52  27  51  1   
 53  27  52  1   
 54  27  53  1   
 55  28  54  1   
 56  28  55  1   
 57  28  56  1   
 58  29  30  1   
 59  30  57  1   
 60  30  58  1   
 61  30  59  1   
@<TRIPOS>SUBSTRUCTURE
  1 ****   3 GROUP 4 **** **** 0

# MOE 2024.06 (io_trps.svl 2023.06)
