@<TRIPOS>MOLECULE
NONAME
49 50 1 0 0 
SMALL
USER_CHARGES


@<TRIPOS>ATOM
  1 S        0.0370     0.6390     0.3220 S.o2  1 <1>   1.3330 
  2 O       -0.5770     0.7750    -0.9750 O.2   1 <1>  -0.6500 
  3 O        0.6380    -0.6060     0.7290 O.2   1 <1>  -0.6500 
  4 N        1.3420     1.7540     0.4340 N.am  1 <1>  -0.7570 
  5 C       -1.0920     1.1630     1.6230 C.3   1 <1>  -0.0550 
  6 C        1.5090     3.0310    -0.0780 C.ar  1 <1>   0.1990 
  7 C       -1.7150     2.5620     1.4540 C.3   1 <1>  -0.2400 
  8 C        2.6660     3.7290     0.2480 C.ar  1 <1>  -0.1500 
  9 C        0.5820     3.6670    -0.8990 C.ar  1 <1>  -0.1500 
 10 C        2.8880     5.0090    -0.2220 C.ar  1 <1>  -0.1500 
 11 C        0.8050     4.9470    -1.3670 C.ar  1 <1>  -0.1500 
 12 C        1.9650     5.6560    -1.0470 C.ar  1 <1>   0.0860 
 13 C        2.1820     6.9980    -1.5520 C.2   1 <1>   0.5440 
 14 O        1.2430     7.7230    -1.8190 O.2   1 <1>  -0.5700 
 15 N        3.4440     7.4860    -1.7250 N.am  1 <1>  -0.7300 
 16 C        3.7840     8.8430    -2.1750 C.3   1 <1>   0.3200 
 17 C        4.6180     9.4830    -1.0880 C.2   1 <1>  -0.3320 
 18 N        4.1340     9.9220     0.0940 N.pl3 1 <1>   0.0480 
 19 C        5.9460     9.7330    -1.0770 C.2   1 <1>   0.0770 
 20 C        5.2180    10.4020     0.7450 C.2   1 <1>   0.0360 
 21 C        2.7410     9.8950     0.6010 C.3   1 <1>   0.0960 
 22 N        6.3220    10.3070     0.0790 N.2   1 <1>  -0.5650 
 23 C        1.8960    11.0580     0.0480 C.3   1 <1>  -0.0800 
 24 C        2.4210    12.4270     0.5050 C.3   1 <1>  -0.2400 
 25 C        0.4360    10.8920     0.4880 C.3   1 <1>  -0.2400 
 26 H        2.1530     1.2730     0.8120 H     1 <1>   0.4200 
 27 H       -0.5760     1.1310     2.5630 H     1 <1>   0.0800 
 28 H       -1.8910     0.4480     1.6780 H     1 <1>   0.0800 
 29 H       -0.9530     3.3200     1.4910 H     1 <1>   0.0800 
 30 H       -2.4200     2.7500     2.2450 H     1 <1>   0.0800 
 31 H       -2.2300     2.6290     0.5110 H     1 <1>   0.0800 
 32 H        3.3980     3.2630     0.8810 H     1 <1>   0.1500 
 33 H       -0.3230     3.1670    -1.1870 H     1 <1>   0.1500 
 34 H        3.7910     5.5190     0.0650 H     1 <1>   0.1500 
 35 H        0.0700     5.4160    -1.9990 H     1 <1>   0.1500 
 36 H        4.2540     6.9180    -1.4770 H     1 <1>   0.3700 
 37 H        2.8980     9.4220    -2.3690 H     1 <1>   0.0800 
 38 H        4.3520     8.7800    -3.0880 H     1 <1>   0.0800 
 39 H        6.6670     9.5250    -1.8500 H     1 <1>   0.1500 
 40 H        5.1460    10.8260     1.7310 H     1 <1>   0.1500 
 41 H        2.7650     9.9400     1.6750 H     1 <1>   0.0800 
 42 H        2.2950     8.9600     0.3210 H     1 <1>   0.0800 
 43 H        1.9180    11.0190    -1.0270 H     1 <1>   0.0800 
 44 H        2.4370    12.4920     1.5790 H     1 <1>   0.0800 
 45 H        1.7920    13.2120     0.1250 H     1 <1>   0.0800 
 46 H        3.4170    12.5950     0.1340 H     1 <1>   0.0800 
 47 H        0.3520    10.9200     1.5600 H     1 <1>   0.0800 
 48 H        0.0470     9.9520     0.1340 H     1 <1>   0.0800 
 49 H       -0.1700    11.6800     0.0750 H     1 <1>   0.0800 
@<TRIPOS>BOND
  1   1   2  2   
  2   1   3  2   
  3   1   4  am  
  4   1   5  1   
  5   4   6  1   
  6   4  26  1   
  7   5   7  1   
  8   5  27  1   
  9   5  28  1   
 10   6   8  ar  
 11   6   9  ar  
 12   7  29  1   
 13   7  30  1   
 14   7  31  1   
 15   8  10  ar  
 16   8  32  1   
 17   9  11  ar  
 18   9  33  1   
 19  10  12  ar  
 20  10  34  1   
 21  11  12  ar  
 22  11  35  1   
 23  12  13  1   
 24  13  14  2   
 25  13  15  am  
 26  15  16  1   
 27  15  36  1   
 28  16  17  1   
 29  16  37  1   
 30  16  38  1   
 31  17  18  1   
 32  17  19  2   
 33  18  20  1   
 34  18  21  1   
 35  19  22  1   
 36  19  39  1   
 37  20  22  2   
 38  20  40  1   
 39  21  23  1   
 40  21  41  1   
 41  21  42  1   
 42  23  24  1   
 43  23  25  1   
 44  23  43  1   
 45  24  44  1   
 46  24  45  1   
 47  24  46  1   
 48  25  47  1   
 49  25  48  1   
 50  25  49  1   
@<TRIPOS>SUBSTRUCTURE
  1 ****  12 GROUP 4 **** **** 0

# MOE 2024.06 (io_trps.svl 2023.06)
