@<TRIPOS>MOLECULE
NONAME
53 55 1 0 0 
SMALL
USER_CHARGES


@<TRIPOS>ATOM
  1 O       -0.4030     0.3580    -0.2870 O.2   1 <1>  -0.5700 
  2 C       -1.4360     0.9880    -0.4640 C.2   1 <1>   0.7160 
  3 N       -2.6180     0.2640    -0.5010 N.am  1 <1>  -0.6600 
  4 C       -1.3650     2.4440    -0.6170 C.2   1 <1>   0.2030 
  5 C       -3.9780     0.8700    -0.3740 C.3   1 <1>   0.1400 
  6 C       -2.6440    -1.2170    -0.7060 C.3   1 <1>   0.1400 
  7 N       -2.2510     3.2390    -1.2080 N.2   1 <1>  -0.7070 
  8 C       -0.2890     3.2210    -0.1570 C.2   1 <1>  -0.1810 
  9 C       -4.8770     0.0520     0.5820 C.3   1 <1>   0.2000 
 10 C       -3.6030    -1.9050     0.2870 C.3   1 <1>   0.2000 
 11 N       -1.7480     4.4820    -1.1240 N.pl3 1 <1>   0.3000 
 12 C       -0.5600     4.4870    -0.4970 C.2   1 <1>  -0.3320 
 13 C        0.9820     2.8270     0.5820 C.3   1 <1>   0.3010 
 14 O       -4.8630    -1.3030     0.2240 O.3   1 <1>  -0.5600 
 15 C       -6.3500     0.5200     0.6280 C.3   1 <1>  -0.0800 
 16 C       -3.8120    -3.3960    -0.0090 C.3   1 <1>  -0.1600 
 17 C        0.3750     5.6340    -0.1750 C.3   1 <1>   0.0200 
 18 O        1.5930     3.9790     1.1190 O.3   1 <1>  -0.5600 
 19 C       -7.0800     0.3980    -0.7210 C.3   1 <1>  -0.2400 
 20 C       -6.4790     1.9580     1.1540 C.3   1 <1>  -0.2400 
 21 C       -2.5320    -4.2300     0.1650 C.3   1 <1>  -0.1600 
 22 C        1.7470     5.0520     0.2250 C.3   1 <1>   0.1200 
 23 C       -2.8160    -5.7220    -0.0440 C.3   1 <1>  -0.1600 
 24 C       -1.5420    -6.5550     0.1250 C.3   1 <1>  -0.2400 
 25 H       -3.9050     1.8680     0.0150 H     1 <1>   0.0800 
 26 H       -4.4260     0.9220    -1.3490 H     1 <1>   0.0800 
 27 H       -2.9700    -1.4230    -1.7100 H     1 <1>   0.0800 
 28 H       -1.6590    -1.6300    -0.5900 H     1 <1>   0.0800 
 29 H       -4.4720     0.1250     1.5770 H     1 <1>   0.0800 
 30 H       -3.2270    -1.7910     1.2890 H     1 <1>   0.0800 
 31 H       -2.2330     5.3030    -1.5060 H     1 <1>   0.2700 
 32 H        1.6760     2.3470    -0.0850 H     1 <1>   0.0800 
 33 H        0.7580     2.1630     1.3990 H     1 <1>   0.0800 
 34 H       -6.8530    -0.1220     1.3320 H     1 <1>   0.0800 
 35 H       -4.5620    -3.7680     0.6680 H     1 <1>   0.0800 
 36 H       -4.1810    -3.5080    -1.0130 H     1 <1>   0.0800 
 37 H       -0.0220     6.2110     0.6420 H     1 <1>   0.0800 
 38 H        0.4940     6.2800    -1.0270 H     1 <1>   0.0800 
 39 H       -6.6710     1.0720    -1.4500 H     1 <1>   0.0800 
 40 H       -8.1240     0.6250    -0.5980 H     1 <1>   0.0800 
 41 H       -7.0000    -0.6070    -1.0980 H     1 <1>   0.0800 
 42 H       -6.0540     2.6640     0.4630 H     1 <1>   0.0800 
 43 H       -5.9800     2.0570     2.1020 H     1 <1>   0.0800 
 44 H       -7.5170     2.2080     1.2940 H     1 <1>   0.0800 
 45 H       -1.7860    -3.9140    -0.5440 H     1 <1>   0.0800 
 46 H       -2.1380    -4.0790     1.1560 H     1 <1>   0.0800 
 47 H        2.3460     5.8030     0.7090 H     1 <1>   0.0800 
 48 H        2.2720     4.6910    -0.6430 H     1 <1>   0.0800 
 49 H       -3.5530    -6.0540     0.6670 H     1 <1>   0.0800 
 50 H       -3.2130    -5.8790    -1.0330 H     1 <1>   0.0800 
 51 H       -1.1400    -6.4290     1.1150 H     1 <1>   0.0800 
 52 H       -0.7980    -6.2570    -0.5920 H     1 <1>   0.0800 
 53 H       -1.7630    -7.5970    -0.0240 H     1 <1>   0.0800 
@<TRIPOS>BOND
  1   1   2  2   
  2   2   3  am  
  3   2   4  1   
  4   3   5  1   
  5   3   6  1   
  6   4   7  2   
  7   4   8  1   
  8   5   9  1   
  9   5  25  1   
 10   5  26  1   
 11   6  10  1   
 12   6  27  1   
 13   6  28  1   
 14   7  11  1   
 15   8  12  2   
 16   8  13  1   
 17   9  14  1   
 18   9  15  1   
 19   9  29  1   
 20  10  14  1   
 21  10  16  1   
 22  10  30  1   
 23  11  12  1   
 24  11  31  1   
 25  12  17  1   
 26  13  18  1   
 27  13  32  1   
 28  13  33  1   
 29  15  19  1   
 30  15  20  1   
 31  15  34  1   
 32  16  21  1   
 33  16  35  1   
 34  16  36  1   
 35  17  22  1   
 36  17  37  1   
 37  17  38  1   
 38  18  22  1   
 39  19  39  1   
 40  19  40  1   
 41  19  41  1   
 42  20  42  1   
 43  20  43  1   
 44  20  44  1   
 45  21  23  1   
 46  21  45  1   
 47  21  46  1   
 48  22  47  1   
 49  22  48  1   
 50  23  24  1   
 51  23  49  1   
 52  23  50  1   
 53  24  51  1   
 54  24  52  1   
 55  24  53  1   
@<TRIPOS>SUBSTRUCTURE
  1 ****   3 GROUP 4 **** **** 0

# MOE 2024.06 (io_trps.svl 2023.06)
