@<TRIPOS>MOLECULE
NONAME
58 61 1 0 0 
SMALL
USER_CHARGES


@<TRIPOS>ATOM
  1 O       -2.4010    -1.4620    -0.5030 O.3   1 <1>  -0.5600 
  2 C       -1.2100    -1.7520    -1.1680 C.3   1 <1>   0.1200 
  3 C       -3.1250    -2.5950    -0.1130 C.3   1 <1>   0.1200 
  4 C       -0.2670    -2.5600    -0.2560 C.3   1 <1>   0.2090 
  5 C       -2.2970    -3.4620     0.8510 C.3   1 <1>   0.2090 
  6 N       -0.9440    -3.8000     0.2630 N.pl3 1 <1>  -0.8380 
  7 C       -0.4850    -5.0820     0.2290 C.ar  1 <1>   0.7710 
  8 N       -1.2430    -6.0550     0.7100 N.ar  1 <1>  -0.6200 
  9 N        0.7290    -5.3360    -0.2900 N.ar  1 <1>  -0.1790 
 10 C       -0.8090    -7.2980     0.6350 C.ar  1 <1>   0.4100 
 11 C        1.2360    -6.5890    -0.3610 C.ar  1 <1>   0.2180 
 12 N       -1.6320    -8.2830     1.0790 N.pl3 1 <1>  -0.8380 
 13 C        0.4610    -7.5950     0.1080 C.ar  1 <1>  -0.1500 
 14 C        2.6270    -6.7970    -0.9470 C.3   1 <1>  -0.0170 
 15 C       -2.6790    -8.0290     2.1130 C.3   1 <1>   0.2090 
 16 C       -1.8040    -9.5830     0.3730 C.3   1 <1>   0.2090 
 17 C        3.7150    -6.1070    -0.1150 C.3   1 <1>  -0.2400 
 18 C       -4.0520    -8.0160     1.4420 C.3   1 <1>  -0.1600 
 19 C       -3.1760    -9.6090    -0.3070 C.3   1 <1>  -0.1600 
 20 C       -4.3160    -9.3280     0.6850 C.3   1 <1>   0.1000 
 21 C       -5.6550    -9.2930    -0.0490 C.2   1 <1>   0.0060 
 22 N       -6.1500    -8.2420    -0.6110 N.2   1 <1>  -0.3380 
 23 N       -6.4650   -10.3500    -0.1990 N.pl3 1 <1>   0.0480 
 24 N       -7.3190    -8.5900    -1.1450 N.2   1 <1>  -0.3380 
 25 C       -7.4910    -9.8410    -0.8930 C.2   1 <1>   0.0060 
 26 C       -6.2860   -11.7330     0.2960 C.3   1 <1>   0.0160 
 27 C       -8.7150   -10.6250    -1.3310 C.3   1 <1>   0.3000 
 28 O       -9.3880   -11.0720    -0.2040 O.3   1 <1>  -0.6800 
 29 H       -0.7550    -0.8150    -1.4400 H     1 <1>   0.0800 
 30 H       -1.4410    -2.2970    -2.0670 H     1 <1>   0.0800 
 31 H       -3.3970    -3.1560    -0.9910 H     1 <1>   0.0800 
 32 H       -4.0250    -2.2600     0.3710 H     1 <1>   0.0800 
 33 H        0.0150    -1.9360     0.5770 H     1 <1>   0.0800 
 34 H        0.6230    -2.7930    -0.8090 H     1 <1>   0.0800 
 35 H       -2.8710    -4.3420     1.0820 H     1 <1>   0.0800 
 36 H       -2.1590    -2.9200     1.7710 H     1 <1>   0.0800 
 37 H        1.2540    -4.5330    -0.6050 H     1 <1>   0.4570 
 38 H        0.7900    -8.6160     0.1050 H     1 <1>   0.1500 
 39 H        2.6540    -6.4280    -1.9590 H     1 <1>   0.0800 
 40 H        2.8430    -7.8520    -0.9870 H     1 <1>   0.0800 
 41 H       -2.5060    -7.0900     2.6100 H     1 <1>   0.0800 
 42 H       -2.6390    -8.8060     2.8570 H     1 <1>   0.0800 
 43 H       -1.7270   -10.3870     1.0860 H     1 <1>   0.0800 
 44 H       -1.0430    -9.7210    -0.3740 H     1 <1>   0.0800 
 45 H        3.5910    -5.0390    -0.1050 H     1 <1>   0.0800 
 46 H        4.6850    -6.3250    -0.5300 H     1 <1>   0.0800 
 47 H        3.7000    -6.4690     0.9000 H     1 <1>   0.0800 
 48 H       -4.0900    -7.1830     0.7610 H     1 <1>   0.0800 
 49 H       -4.8150    -7.8670     2.1830 H     1 <1>   0.0800 
 50 H       -3.3260   -10.5660    -0.7720 H     1 <1>   0.0800 
 51 H       -3.1920    -8.8630    -1.0830 H     1 <1>   0.0800 
 52 H       -4.3390   -10.1200     1.4130 H     1 <1>   0.0800 
 53 H       -5.2810   -12.0580     0.1030 H     1 <1>   0.0800 
 54 H       -6.9710   -12.3940    -0.2020 H     1 <1>   0.0800 
 55 H       -6.4800   -11.7560     1.3530 H     1 <1>   0.0800 
 56 H       -8.4360   -11.4770    -1.9250 H     1 <1>   0.0800 
 57 H       -9.3800    -9.9960    -1.8970 H     1 <1>   0.0800 
 58 H       -9.6010   -10.2970     0.3530 H     1 <1>   0.4000 
@<TRIPOS>BOND
  1   1   2  1   
  2   1   3  1   
  3   2   4  1   
  4   2  29  1   
  5   2  30  1   
  6   3   5  1   
  7   3  31  1   
  8   3  32  1   
  9   4   6  1   
 10   4  33  1   
 11   4  34  1   
 12   5   6  1   
 13   5  35  1   
 14   5  36  1   
 15   6   7  1   
 16   7   8  ar  
 17   7   9  ar  
 18   8  10  ar  
 19   9  11  ar  
 20   9  37  1   
 21  10  12  1   
 22  10  13  ar  
 23  11  13  ar  
 24  11  14  1   
 25  12  15  1   
 26  12  16  1   
 27  13  38  1   
 28  14  17  1   
 29  14  39  1   
 30  14  40  1   
 31  15  18  1   
 32  15  41  1   
 33  15  42  1   
 34  16  19  1   
 35  16  43  1   
 36  16  44  1   
 37  17  45  1   
 38  17  46  1   
 39  17  47  1   
 40  18  20  1   
 41  18  48  1   
 42  18  49  1   
 43  19  20  1   
 44  19  50  1   
 45  19  51  1   
 46  20  21  1   
 47  20  52  1   
 48  21  22  2   
 49  21  23  1   
 50  22  24  1   
 51  23  25  1   
 52  23  26  1   
 53  24  25  2   
 54  25  27  1   
 55  26  53  1   
 56  26  54  1   
 57  26  55  1   
 58  27  28  1   
 59  27  56  1   
 60  27  57  1   
 61  28  58  1   
@<TRIPOS>SUBSTRUCTURE
  1 ****  12 GROUP 4 **** **** 0

# MOE 2024.06 (io_trps.svl 2023.06)
