@<TRIPOS>MOLECULE
NONAME
50 52 1 0 0 
SMALL
USER_CHARGES


@<TRIPOS>ATOM
  1 O        0.0340     0.6490    -1.1180 O.2   1 <1>  -0.5700 
  2 C        0.0050     1.7670    -0.6580 C.2   1 <1>   0.5690 
  3 N       -1.1650     2.3700    -0.2780 N.am  1 <1>  -0.6600 
  4 C        1.3290     2.5240    -0.5340 C.3   1 <1>   0.1810 
  5 C       -1.1740     3.7660     0.2770 C.3   1 <1>   0.3640 
  6 C       -2.4670     1.6410    -0.2540 C.3   1 <1>   0.0600 
  7 O        1.2690     3.6020     0.3660 O.3   1 <1>  -0.5600 
  8 C       -2.2560     4.5990    -0.4280 C.ar  1 <1>  -0.1430 
  9 C        0.1880     4.4840     0.1330 C.3   1 <1>   0.2610 
 10 C       -3.2110     5.3380     0.2720 C.ar  1 <1>  -0.1430 
 11 C       -2.2720     4.6260    -1.8190 C.ar  1 <1>  -0.1500 
 12 C        0.2410     5.6830     1.0940 C.2   1 <1>   0.5690 
 13 C       -4.1410     6.0920    -0.4300 C.ar  1 <1>  -0.1500 
 14 C       -3.2850     5.3550     1.7940 C.3   1 <1>  -0.0960 
 15 C       -3.2030     5.3780    -2.5090 C.ar  1 <1>  -0.1500 
 16 O        0.1730     5.4630     2.2840 O.2   1 <1>  -0.5700 
 17 N        0.3500     6.9720     0.6280 N.am  1 <1>  -0.6600 
 18 C       -4.1390     6.1150    -1.8120 C.ar  1 <1>  -0.1500 
 19 C        0.7350     8.0750     1.5520 C.3   1 <1>   0.3210 
 20 C        0.1480     7.3870    -0.7900 C.3   1 <1>   0.0600 
 21 C        2.0250     8.7100     1.0660 C.2   1 <1>  -0.1810 
 22 C        3.2430     8.0550     0.9320 C.2   1 <1>   0.1390 
 23 C        2.2740     9.9770     0.6700 C.2   1 <1>  -0.3020 
 24 N        4.1750     8.8410     0.4860 N.2   1 <1>  -0.7070 
 25 N        3.5760    10.0320     0.3270 N.pl3 1 <1>   0.3140 
 26 C        4.3160    11.2000    -0.1610 C.3   1 <1>   0.0160 
 27 H        1.6200     2.9000    -1.4970 H     1 <1>   0.0800 
 28 H        2.0890     1.8500    -0.1820 H     1 <1>   0.0800 
 29 H       -1.3900     3.6830     1.3260 H     1 <1>   0.0800 
 30 H       -2.9140     1.7220     0.7210 H     1 <1>   0.0800 
 31 H       -2.3230     0.5980    -0.4790 H     1 <1>   0.0800 
 32 H       -3.1360     2.0590    -0.9850 H     1 <1>   0.0800 
 33 H        0.2960     4.8340    -0.8740 H     1 <1>   0.0800 
 34 H       -1.5560     4.0490    -2.3790 H     1 <1>   0.1500 
 35 H       -4.8810     6.6680     0.0970 H     1 <1>   0.1500 
 36 H       -4.1520     5.8930     2.1330 H     1 <1>   0.0800 
 37 H       -2.4170     5.8360     2.2060 H     1 <1>   0.0800 
 38 H       -3.3510     4.3530     2.1790 H     1 <1>   0.0800 
 39 H       -3.2030     5.3860    -3.5850 H     1 <1>   0.1500 
 40 H       -4.8680     6.7040    -2.3420 H     1 <1>   0.1500 
 41 H       -0.0500     8.8090     1.5760 H     1 <1>   0.0800 
 42 H        0.8820     7.7100     2.5540 H     1 <1>   0.0800 
 43 H       -0.1430     8.4220    -0.8350 H     1 <1>   0.0800 
 44 H       -0.6310     6.8040    -1.2490 H     1 <1>   0.0800 
 45 H        1.0660     7.2630    -1.3390 H     1 <1>   0.0800 
 46 H        3.4010     7.0150     1.1650 H     1 <1>   0.1500 
 47 H        1.6150    10.8230     0.6140 H     1 <1>   0.1500 
 48 H        3.6300    11.9930    -0.3890 H     1 <1>   0.0800 
 49 H        4.8600    10.9220    -1.0430 H     1 <1>   0.0800 
 50 H        5.0030    11.5160     0.6010 H     1 <1>   0.0800 
@<TRIPOS>BOND
  1   1   2  2   
  2   2   3  am  
  3   2   4  1   
  4   3   5  1   
  5   3   6  1   
  6   4   7  1   
  7   4  27  1   
  8   4  28  1   
  9   5   8  1   
 10   5   9  1   
 11   5  29  1   
 12   6  30  1   
 13   6  31  1   
 14   6  32  1   
 15   7   9  1   
 16   8  10  ar  
 17   8  11  ar  
 18   9  12  1   
 19   9  33  1   
 20  10  13  ar  
 21  10  14  1   
 22  11  15  ar  
 23  11  34  1   
 24  12  16  2   
 25  12  17  am  
 26  13  18  ar  
 27  13  35  1   
 28  14  36  1   
 29  14  37  1   
 30  14  38  1   
 31  15  18  ar  
 32  15  39  1   
 33  17  19  1   
 34  17  20  1   
 35  18  40  1   
 36  19  21  1   
 37  19  41  1   
 38  19  42  1   
 39  20  43  1   
 40  20  44  1   
 41  20  45  1   
 42  21  22  1   
 43  21  23  2   
 44  22  24  2   
 45  22  46  1   
 46  23  25  1   
 47  23  47  1   
 48  24  25  1   
 49  25  26  1   
 50  26  48  1   
 51  26  49  1   
 52  26  50  1   
@<TRIPOS>SUBSTRUCTURE
  1 ****  12 GROUP 4 **** **** 0

# MOE 2024.06 (io_trps.svl 2023.06)
