@<TRIPOS>MOLECULE
NONAME
56 59 1 0 0 
SMALL
USER_CHARGES


@<TRIPOS>ATOM
  1 O        0.1680     1.7400    -0.6120 O.2   1 <1>  -0.5700 
  2 C       -0.3060     2.8540    -0.6210 C.2   1 <1>   0.5690 
  3 N       -1.2170     3.2920     0.3080 N.am  1 <1>  -0.5090 
  4 C        0.1840     3.8040    -1.7190 C.3   1 <1>   0.1810 
  5 C       -1.7150     4.7030     0.2880 C.3   1 <1>   0.3640 
  6 C       -1.5370     2.5160     1.5320 C.3   1 <1>   0.0490 
  7 O       -0.6060     4.9620    -1.8740 O.3   1 <1>  -0.5600 
  8 C       -3.1940     4.7400    -0.1010 C.ar  1 <1>  -0.1440 
  9 C       -0.9090     5.6250    -0.6590 C.3   1 <1>   0.2610 
 10 C       -1.9990     1.0970     1.4080 C.3   1 <1>  -0.2000 
 11 C       -2.9590     2.1570     1.8410 C.3   1 <1>  -0.2000 
 12 C       -4.1040     5.4060     0.7090 C.ar  1 <1>  -0.1500 
 13 C       -3.6520     4.1210    -1.2580 C.ar  1 <1>  -0.1500 
 14 C        0.3420     6.2170     0.0120 C.2   1 <1>   0.5690 
 15 C       -5.4440     5.4510     0.3680 C.ar  1 <1>  -0.1500 
 16 C       -4.9920     4.1640    -1.6010 C.ar  1 <1>  -0.1500 
 17 O        0.8020     5.6430     0.9750 O.2   1 <1>  -0.5700 
 18 N        0.9120     7.3740    -0.4750 N.am  1 <1>  -0.5090 
 19 C       -5.8990     4.8340    -0.7850 C.ar  1 <1>   0.0820 
 20 C        2.0130     8.0580     0.2560 C.3   1 <1>   0.0540 
 21 C        0.5710     7.9790    -1.7940 C.3   1 <1>   0.0600 
 22 O       -7.2270     4.9240    -1.0440 O.3   1 <1>  -0.3620 
 23 C        1.6680     8.6280     1.5990 C.3   1 <1>  -0.2000 
 24 C        1.8850     9.5460     0.4410 C.3   1 <1>  -0.2000 
 25 C        3.3650     7.3290     0.0810 C.3   1 <1>   0.2150 
 26 C       -7.7960     4.3020    -2.1740 C.3   1 <1>   0.0400 
 27 O        4.4470     8.1280     0.4730 O.3   1 <1>  -0.5600 
 28 C        5.0860     8.7980    -0.5670 C.3   1 <1>   0.0400 
 29 H        0.1840     3.2820    -2.6580 H     1 <1>   0.0800 
 30 H        1.1920     4.1050    -1.4970 H     1 <1>   0.0800 
 31 H       -1.6300     5.0970     1.2860 H     1 <1>   0.0800 
 32 H       -0.8750     2.7550     2.3490 H     1 <1>   0.1000 
 33 H       -1.5430     6.4530    -0.9140 H     1 <1>   0.0800 
 34 H       -2.0980     0.6740     0.4240 H     1 <1>   0.1000 
 35 H       -1.6560     0.3820     2.1340 H     1 <1>   0.1000 
 36 H       -3.2840     2.1550     2.8660 H     1 <1>   0.1000 
 37 H       -3.7500     2.4100     1.1580 H     1 <1>   0.1000 
 38 H       -3.7800     5.8910     1.6140 H     1 <1>   0.1500 
 39 H       -2.9630     3.5970    -1.8970 H     1 <1>   0.1500 
 40 H       -6.1490     5.9650     0.9960 H     1 <1>   0.1500 
 41 H       -5.3080     3.6730    -2.5010 H     1 <1>   0.1500 
 42 H        1.4480     8.4290    -2.2260 H     1 <1>   0.0800 
 43 H       -0.1800     8.7380    -1.6600 H     1 <1>   0.0800 
 44 H        0.2060     7.2360    -2.4800 H     1 <1>   0.0800 
 45 H        0.6740     8.4770     1.9800 H     1 <1>   0.1000 
 46 H        2.4150     8.6050     2.3720 H     1 <1>   0.1000 
 47 H        2.7600    10.1690     0.4810 H     1 <1>   0.1000 
 48 H        1.0280    10.0710     0.0580 H     1 <1>   0.1000 
 49 H        3.5020     7.0230    -0.9410 H     1 <1>   0.0800 
 50 H        3.3730     6.4540     0.7060 H     1 <1>   0.0800 
 51 H       -8.8530     4.5000    -2.1670 H     1 <1>   0.0800 
 52 H       -7.6220     3.2420    -2.1140 H     1 <1>   0.0800 
 53 H       -7.3530     4.7160    -3.0620 H     1 <1>   0.0800 
 54 H        5.8410     9.4340    -0.1390 H     1 <1>   0.0800 
 55 H        4.3700     9.3940    -1.1050 H     1 <1>   0.0800 
 56 H        5.5470     8.0770    -1.2200 H     1 <1>   0.0800 
@<TRIPOS>BOND
  1   1   2  2   
  2   2   3  am  
  3   2   4  1   
  4   3   5  1   
  5   3   6  1   
  6   4   7  1   
  7   4  29  1   
  8   4  30  1   
  9   5   8  1   
 10   5   9  1   
 11   5  31  1   
 12   6  10  1   
 13   6  11  1   
 14   6  32  1   
 15   7   9  1   
 16   8  12  ar  
 17   8  13  ar  
 18   9  14  1   
 19   9  33  1   
 20  10  11  1   
 21  10  34  1   
 22  10  35  1   
 23  11  36  1   
 24  11  37  1   
 25  12  15  ar  
 26  12  38  1   
 27  13  16  ar  
 28  13  39  1   
 29  14  17  2   
 30  14  18  am  
 31  15  19  ar  
 32  15  40  1   
 33  16  19  ar  
 34  16  41  1   
 35  18  20  1   
 36  18  21  1   
 37  19  22  1   
 38  20  23  1   
 39  20  24  1   
 40  20  25  1   
 41  21  42  1   
 42  21  43  1   
 43  21  44  1   
 44  22  26  1   
 45  23  24  1   
 46  23  45  1   
 47  23  46  1   
 48  24  47  1   
 49  24  48  1   
 50  25  27  1   
 51  25  49  1   
 52  25  50  1   
 53  26  51  1   
 54  26  52  1   
 55  26  53  1   
 56  27  28  1   
 57  28  54  1   
 58  28  55  1   
 59  28  56  1   
@<TRIPOS>SUBSTRUCTURE
  1 ****   9 GROUP 4 **** **** 0

# MOE 2024.06 (io_trps.svl 2023.06)
