@<TRIPOS>MOLECULE
NONAME
46 48 1 0 0 
SMALL
USER_CHARGES


@<TRIPOS>ATOM
  1 F        0.5010    -1.9410    -1.4440 F     1 <1>  -0.3400 
  2 C       -0.4220    -2.0460    -0.5000 C.3   1 <1>   1.3000 
  3 F       -0.2330    -3.2030     0.1260 F     1 <1>  -0.3400 
  4 F       -0.2310    -1.0640     0.3710 F     1 <1>  -0.3400 
  5 O       -1.7120    -1.9860    -1.0750 O.3   1 <1>  -0.3630 
  6 C       -2.7680    -2.1040    -0.2440 C.ar  1 <1>   0.0830 
  7 C       -3.3200    -3.3540    -0.0110 C.ar  1 <1>  -0.1500 
  8 C       -3.3080    -0.9780     0.3540 C.ar  1 <1>  -0.1500 
  9 C       -4.4140    -3.4860     0.8330 C.ar  1 <1>  -0.1440 
 10 C       -4.3920    -1.1070     1.2020 C.ar  1 <1>  -0.1500 
 11 C       -4.9410    -2.3550     1.4430 C.ar  1 <1>  -0.1500 
 12 C       -5.0310    -4.8480     1.0790 C.3   1 <1>   0.4870 
 13 N       -5.6690    -5.2770    -0.1950 N.4   1 <1>  -0.9590 
 14 C       -7.1540    -5.3330    -0.1110 C.3   1 <1>   0.4230 
 15 C       -5.0680    -6.5610    -0.6780 C.3   1 <1>   0.2630 
 16 C       -7.7840    -5.6770    -1.4590 C.3   1 <1>  -0.1600 
 17 C       -7.7630    -3.9760     0.2380 C.3   1 <1>  -0.1600 
 18 C       -9.2060    -5.1070    -1.3990 C.3   1 <1>  -0.0800 
 19 C       -9.1920    -4.0210    -0.3130 C.3   1 <1>  -0.0800 
 20 C      -10.2690    -6.1320    -0.9750 C.3   1 <1>  -0.1600 
 21 C      -10.2460    -4.4340     0.7270 C.3   1 <1>  -0.1600 
 22 C      -11.1800    -5.3640    -0.0310 C.3   1 <1>   0.2000 
 23 O      -11.8080    -6.2270     0.8390 O.3   1 <1>  -0.6800 
 24 H       -2.8770    -4.2080    -0.4930 H     1 <1>   0.1500 
 25 H       -2.8840    -0.0070     0.1600 H     1 <1>   0.1500 
 26 H       -4.8070    -0.2320     1.6750 H     1 <1>   0.1500 
 27 H       -5.7820    -2.4260     2.1130 H     1 <1>   0.1500 
 28 H       -5.7590    -4.7890     1.8720 H     1 <1>   0.0800 
 29 H       -4.2610    -5.5420     1.3740 H     1 <1>   0.0800 
 30 H       -5.4410    -4.5290    -0.8660 H     1 <1>   0.4500 
 31 H       -7.4700    -6.0620     0.6200 H     1 <1>   0.0800 
 32 H       -5.3060    -7.3650    -0.0010 H     1 <1>   0.0800 
 33 H       -3.9960    -6.4710    -0.7450 H     1 <1>   0.0800 
 34 H       -5.4490    -6.8100    -1.6550 H     1 <1>   0.0800 
 35 H       -7.2550    -5.1740    -2.2500 H     1 <1>   0.0800 
 36 H       -7.7900    -6.7360    -1.6500 H     1 <1>   0.0800 
 37 H       -7.7550    -3.7820     1.2960 H     1 <1>   0.0800 
 38 H       -7.2330    -3.1930    -0.2750 H     1 <1>   0.0800 
 39 H       -9.4840    -4.6760    -2.3480 H     1 <1>   0.0800 
 40 H       -9.4670    -3.0690    -0.7390 H     1 <1>   0.0800 
 41 H       -9.8160    -6.9560    -0.4530 H     1 <1>   0.0800 
 42 H      -10.8190    -6.5010    -1.8240 H     1 <1>   0.0800 
 43 H      -10.7790    -3.5800     1.1070 H     1 <1>   0.0800 
 44 H       -9.7880    -4.9660     1.5420 H     1 <1>   0.0800 
 45 H      -11.9270    -4.8080    -0.5750 H     1 <1>   0.0800 
 46 H      -11.1600    -6.7530     1.3400 H     1 <1>   0.4000 
@<TRIPOS>BOND
  1   1   2  1   
  2   2   3  1   
  3   2   4  1   
  4   2   5  1   
  5   5   6  1   
  6   6   7  ar  
  7   6   8  ar  
  8   7   9  ar  
  9   7  24  1   
 10   8  10  ar  
 11   8  25  1   
 12   9  11  ar  
 13   9  12  1   
 14  10  11  ar  
 15  10  26  1   
 16  11  27  1   
 17  12  13  1   
 18  12  28  1   
 19  12  29  1   
 20  13  14  1   
 21  13  15  1   
 22  13  30  1   
 23  14  16  1   
 24  14  17  1   
 25  14  31  1   
 26  15  32  1   
 27  15  33  1   
 28  15  34  1   
 29  16  18  1   
 30  16  35  1   
 31  16  36  1   
 32  17  19  1   
 33  17  37  1   
 34  17  38  1   
 35  18  19  1   
 36  18  20  1   
 37  18  39  1   
 38  19  21  1   
 39  19  40  1   
 40  20  22  1   
 41  20  41  1   
 42  20  42  1   
 43  21  22  1   
 44  21  43  1   
 45  21  44  1   
 46  22  23  1   
 47  22  45  1   
 48  23  46  1   
@<TRIPOS>SUBSTRUCTURE
  1 ****   9 GROUP 4 **** **** 0

# MOE 2024.06 (io_trps.svl 2023.06)
