@<TRIPOS>MOLECULE
NONAME
31 33 1 0 0 
SMALL
USER_CHARGES


@<TRIPOS>ATOM
  1 O       -0.1000     0.3380     0.2100 O.2   1 <1>  -0.5700 
  2 C       -0.5350     1.4680     0.1430 C.2   1 <1>   0.7150 
  3 N        0.3580     2.4910     0.0820 N.am  1 <1>  -0.7300 
  4 C       -1.9340     1.7800     0.1010 C.2   1 <1>  -0.2370 
  5 C       -0.0300     3.8870    -0.2540 C.3   1 <1>   0.1400 
  6 N       -2.3500     3.0860     0.1410 N.pl3 1 <1>   0.0480 
  7 C       -3.0520     0.9840     0.0120 C.2   1 <1>  -0.1500 
  8 C       -1.4320     4.2340     0.2860 C.3   1 <1>   0.0960 
  9 C       -3.6990     3.0740     0.0720 C.2   1 <1>  -0.3320 
 10 C       -4.1480     1.8400    -0.0060 C.2   1 <1>  -0.1810 
 11 C       -4.8230     4.0490     0.0420 C.3   1 <1>   0.0200 
 12 C       -5.6360     1.8690    -0.0550 C.3   1 <1>   0.0210 
 13 C       -6.2670     3.3490    -0.0420 C.3   1 <1>   0.0000 
 14 C       -6.9380     4.7970    -0.1200 C.3   1 <1>  -0.2400 
 15 C       -7.7270     2.7000    -0.0370 C.3   1 <1>  -0.2400 
 16 H        1.3380     2.2140     0.0070 H     1 <1>   0.3700 
 17 H       -0.0280     3.9960    -1.3260 H     1 <1>   0.0800 
 18 H        0.6920     4.5720     0.1540 H     1 <1>   0.0800 
 19 H       -3.0810    -0.0910    -0.0340 H     1 <1>   0.1500 
 20 H       -1.8350     5.0820    -0.2360 H     1 <1>   0.0800 
 21 H       -1.3640     4.4750     1.3310 H     1 <1>   0.0800 
 22 H       -4.6190     4.6420    -0.8350 H     1 <1>   0.0800 
 23 H       -4.7390     4.6620     0.9250 H     1 <1>   0.0800 
 24 H       -5.9200     1.3100     0.8220 H     1 <1>   0.0800 
 25 H       -5.9300     1.3270    -0.9380 H     1 <1>   0.0800 
 26 H       -6.3440     5.6440    -0.4250 H     1 <1>   0.0800 
 27 H       -7.3120     5.0650     0.8550 H     1 <1>   0.0800 
 28 H       -7.7580     4.8540    -0.8190 H     1 <1>   0.0800 
 29 H       -7.8540     1.6820     0.2950 H     1 <1>   0.0800 
 30 H       -8.1210     2.7110    -1.0400 H     1 <1>   0.0800 
 31 H       -8.4280     3.2150     0.6020 H     1 <1>   0.0800 
@<TRIPOS>BOND
  1   1   2  2   
  2   2   3  am  
  3   2   4  1   
  4   3   5  1   
  5   3  16  1   
  6   4   6  1   
  7   4   7  2   
  8   5   8  1   
  9   5  17  1   
 10   5  18  1   
 11   6   8  1   
 12   6   9  1   
 13   7  10  1   
 14   7  19  1   
 15   8  20  1   
 16   8  21  1   
 17   9  10  2   
 18   9  11  1   
 19  10  12  1   
 20  11  13  1   
 21  11  22  1   
 22  11  23  1   
 23  12  13  1   
 24  12  24  1   
 25  12  25  1   
 26  13  14  1   
 27  13  15  1   
 28  14  26  1   
 29  14  27  1   
 30  14  28  1   
 31  15  29  1   
 32  15  30  1   
 33  15  31  1   
@<TRIPOS>SUBSTRUCTURE
  1 ****   9 GROUP 4 **** **** 0

# MOE 2024.06 (io_trps.svl 2023.06)
