@<TRIPOS>MOLECULE
NONAME
44 45 1 0 0 
SMALL
USER_CHARGES


@<TRIPOS>ATOM
  1 O        0.4020    -0.2560     1.5280 O.2   1 <1>  -0.5700 
  2 C        1.4060    -0.6720     1.0000 C.2   1 <1>   0.5690 
  3 N        2.4970     0.1060     0.7220 N.am  1 <1>  -0.4940 
  4 C        1.4750    -2.1440     0.6190 C.3   1 <1>  -0.0190 
  5 C        2.7070     1.4860     0.9640 C.2   1 <1>  -0.0880 
  6 C        0.1440    -2.5660    -0.0270 C.3   1 <1>   0.0960 
  7 C        1.8310    -3.0130     1.8420 C.3   1 <1>  -0.2400 
  8 N        3.8280     2.1890     0.6270 N.pl3 1 <1>   0.3140 
  9 C        1.8730     2.3720     1.5590 C.2   1 <1>  -0.1500 
 10 N        0.2340    -3.9190    -0.6070 N.pl3 1 <1>   0.3140 
 11 N        3.7210     3.4880     0.9990 N.2   1 <1>  -0.7070 
 12 C        5.0760     1.7070    -0.0380 C.3   1 <1>   0.1760 
 13 C        2.5520     3.5810     1.5510 C.2   1 <1>   0.1390 
 14 N        1.0670    -4.1990    -1.6280 N.2   1 <1>  -0.7070 
 15 C       -0.4540    -5.0120    -0.2240 C.2   1 <1>  -0.3020 
 16 C        4.8050     1.1010    -1.4360 C.3   1 <1>  -0.1600 
 17 C        5.8340     0.7450     0.9030 C.3   1 <1>  -0.1600 
 18 C        0.8850    -5.4620    -1.8680 C.2   1 <1>   0.1390 
 19 C       -0.0580    -6.0280    -1.0190 C.2   1 <1>  -0.1500 
 20 C        3.9820     2.0200    -2.3510 C.3   1 <1>  -0.2400 
 21 C        7.2390     0.3770     0.4040 C.3   1 <1>  -0.2400 
 22 H        3.2670    -0.3810     0.2680 H     1 <1>   0.3700 
 23 H        2.2490    -2.2580    -0.1200 H     1 <1>   0.0800 
 24 H       -0.1080    -1.8860    -0.8200 H     1 <1>   0.0800 
 25 H       -0.6470    -2.5470     0.7010 H     1 <1>   0.0800 
 26 H        1.0590    -2.9420     2.5890 H     1 <1>   0.0800 
 27 H        2.7560    -2.6820     2.2780 H     1 <1>   0.0800 
 28 H        1.9430    -4.0450     1.5560 H     1 <1>   0.0800 
 29 H        0.8920     2.1990     1.9620 H     1 <1>   0.1500 
 30 H        5.6930     2.5770    -0.1790 H     1 <1>   0.0800 
 31 H        2.1600     4.5000     1.9560 H     1 <1>   0.1500 
 32 H       -1.1720    -5.0070     0.5750 H     1 <1>   0.1500 
 33 H        4.3120     0.1510    -1.3460 H     1 <1>   0.0800 
 34 H        5.7480     0.9210    -1.9210 H     1 <1>   0.0800 
 35 H        5.2690    -0.1570     1.0490 H     1 <1>   0.0800 
 36 H        5.9380     1.2280     1.8610 H     1 <1>   0.0800 
 37 H        1.4090    -6.0000    -2.6410 H     1 <1>   0.1500 
 38 H       -0.3800    -7.0540    -1.0220 H     1 <1>   0.1500 
 39 H        2.9870     2.1620    -1.9630 H     1 <1>   0.0800 
 40 H        3.9000     1.5880    -3.3330 H     1 <1>   0.0800 
 41 H        4.4540     2.9830    -2.4400 H     1 <1>   0.0800 
 42 H        7.1920    -0.2090    -0.4970 H     1 <1>   0.0800 
 43 H        7.7510    -0.2030     1.1520 H     1 <1>   0.0800 
 44 H        7.8170     1.2650     0.2130 H     1 <1>   0.0800 
@<TRIPOS>BOND
  1   1   2  2   
  2   2   3  am  
  3   2   4  1   
  4   3   5  1   
  5   3  22  1   
  6   4   6  1   
  7   4   7  1   
  8   4  23  1   
  9   5   8  1   
 10   5   9  2   
 11   6  10  1   
 12   6  24  1   
 13   6  25  1   
 14   7  26  1   
 15   7  27  1   
 16   7  28  1   
 17   8  11  1   
 18   8  12  1   
 19   9  13  1   
 20   9  29  1   
 21  10  14  1   
 22  10  15  1   
 23  11  13  2   
 24  12  16  1   
 25  12  17  1   
 26  12  30  1   
 27  13  31  1   
 28  14  18  2   
 29  15  19  2   
 30  15  32  1   
 31  16  20  1   
 32  16  33  1   
 33  16  34  1   
 34  17  21  1   
 35  17  35  1   
 36  17  36  1   
 37  18  19  1   
 38  18  37  1   
 39  19  38  1   
 40  20  39  1   
 41  20  40  1   
 42  20  41  1   
 43  21  42  1   
 44  21  43  1   
 45  21  44  1   
@<TRIPOS>SUBSTRUCTURE
  1 ****   3 GROUP 4 **** **** 0

# MOE 2024.06 (io_trps.svl 2023.06)
