@<TRIPOS>MOLECULE
NONAME
50 52 1 0 0 
SMALL
USER_CHARGES


@<TRIPOS>ATOM
  1 CL       0.6690    -0.4210     0.2550 Cl    1 <1>  -0.1770 
  2 C        0.3930    -2.1360     0.4120 C.ar  1 <1>   0.1770 
  3 C        0.9890    -3.0020    -0.4830 C.ar  1 <1>  -0.1500 
  4 C       -0.4180    -2.6000     1.4330 C.ar  1 <1>  -0.1500 
  5 C        0.7480    -4.3530    -0.3290 C.ar  1 <1>   0.1900 
  6 C       -0.6450    -3.9620     1.5660 C.ar  1 <1>  -0.1500 
  7 F        1.3220    -5.1700    -1.1720 F     1 <1>  -0.1900 
  8 C       -0.0650    -4.8600     0.6780 C.ar  1 <1>  -0.1440 
  9 C       -0.3130    -6.3570     0.8160 C.3   1 <1>   0.2540 
 10 N       -1.2960    -6.8350    -0.1790 N.3   1 <1>  -0.8100 
 11 C       -1.4390    -8.3180    -0.1460 C.3   1 <1>   0.3330 
 12 C       -2.6030    -6.1700    -0.0410 C.3   1 <1>   0.1100 
 13 C       -0.0950    -8.9430    -0.5340 C.ar  1 <1>  -0.1430 
 14 C       -2.5760    -8.8250    -1.0890 C.3   1 <1>   0.2000 
 15 C       -3.5900    -6.7010    -1.0860 C.3   1 <1>   0.1200 
 16 C        0.4980    -9.8930     0.2880 C.ar  1 <1>  -0.1500 
 17 C        0.5490    -8.5710    -1.7060 C.ar  1 <1>  -0.1500 
 18 O       -3.7540    -8.0750    -0.9200 O.3   1 <1>  -0.5600 
 19 C       -3.0010   -10.2910    -0.8700 C.3   1 <1>   0.1200 
 20 C        1.7040   -10.4750    -0.0600 C.ar  1 <1>   0.0830 
 21 C        1.7620    -9.1380    -2.0560 C.ar  1 <1>  -0.1500 
 22 O       -1.9460   -11.1940    -0.9550 O.3   1 <1>  -0.6800 
 23 O        2.2020   -11.4260     0.7660 O.3   1 <1>  -0.3630 
 24 C        2.3530   -10.0820    -1.2350 C.ar  1 <1>   0.0830 
 25 C        2.1520   -12.7460     0.2740 C.3   1 <1>   0.0400 
 26 O        3.5520   -10.5870    -1.6190 O.3   1 <1>  -0.3630 
 27 C        4.6510   -10.2920    -0.7850 C.3   1 <1>   0.0400 
 28 H        1.6200    -2.6380    -1.2720 H     1 <1>   0.1500 
 29 H       -0.8650    -1.8990     2.1160 H     1 <1>   0.1500 
 30 H       -1.2770    -4.3190     2.3620 H     1 <1>   0.1500 
 31 H       -0.6640    -6.5830     1.8080 H     1 <1>   0.0800 
 32 H        0.6270    -6.8630     0.6790 H     1 <1>   0.0800 
 33 H       -1.6910    -8.6200     0.8570 H     1 <1>   0.0800 
 34 H       -3.0050    -6.3320     0.9440 H     1 <1>   0.0800 
 35 H       -2.4920    -5.1110    -0.1940 H     1 <1>   0.0800 
 36 H       -2.2670    -8.7030    -2.1120 H     1 <1>   0.0800 
 37 H       -3.2330    -6.5060    -2.0820 H     1 <1>   0.0800 
 38 H       -4.5520    -6.2380    -0.9600 H     1 <1>   0.0800 
 39 H        0.0200   -10.2050     1.1990 H     1 <1>   0.1500 
 40 H        0.1090    -7.8220    -2.3440 H     1 <1>   0.1500 
 41 H       -3.7230   -10.5670    -1.6180 H     1 <1>   0.0800 
 42 H       -3.4440   -10.4060     0.1030 H     1 <1>   0.0800 
 43 H        2.2590    -8.8430    -2.9620 H     1 <1>   0.1500 
 44 H       -1.2800   -10.9040    -1.6120 H     1 <1>   0.4000 
 45 H        2.5160   -13.4060     1.0400 H     1 <1>   0.0800 
 46 H        2.7710   -12.8210    -0.6020 H     1 <1>   0.0800 
 47 H        1.1310   -12.9870     0.0320 H     1 <1>   0.0800 
 48 H        5.5450   -10.6300    -1.2770 H     1 <1>   0.0800 
 49 H        4.5350   -10.8030     0.1530 H     1 <1>   0.0800 
 50 H        4.6940    -9.2290    -0.6300 H     1 <1>   0.0800 
@<TRIPOS>BOND
  1   1   2  1   
  2   2   3  ar  
  3   2   4  ar  
  4   3   5  ar  
  5   3  28  1   
  6   4   6  ar  
  7   4  29  1   
  8   5   7  1   
  9   5   8  ar  
 10   6   8  ar  
 11   6  30  1   
 12   8   9  1   
 13   9  10  1   
 14   9  31  1   
 15   9  32  1   
 16  10  11  1   
 17  10  12  1   
 18  11  13  1   
 19  11  14  1   
 20  11  33  1   
 21  12  15  1   
 22  12  34  1   
 23  12  35  1   
 24  13  16  ar  
 25  13  17  ar  
 26  14  18  1   
 27  14  19  1   
 28  14  36  1   
 29  15  18  1   
 30  15  37  1   
 31  15  38  1   
 32  16  20  ar  
 33  16  39  1   
 34  17  21  ar  
 35  17  40  1   
 36  19  22  1   
 37  19  41  1   
 38  19  42  1   
 39  20  23  1   
 40  20  24  ar  
 41  21  24  ar  
 42  21  43  1   
 43  22  44  1   
 44  23  25  1   
 45  24  26  1   
 46  25  45  1   
 47  25  46  1   
 48  25  47  1   
 49  26  27  1   
 50  27  48  1   
 51  27  49  1   
 52  27  50  1   
@<TRIPOS>SUBSTRUCTURE
  1 ****  13 GROUP 4 **** **** 0

# MOE 2024.06 (io_trps.svl 2023.06)
