@<TRIPOS>MOLECULE
NONAME
39 40 1 0 0 
SMALL
USER_CHARGES


@<TRIPOS>ATOM
  1 O        0.2140     0.6270     0.4260 O.3   1 <1>  -0.6800 
  2 C       -0.0100     1.9720     0.6570 C.3   1 <1>   0.2000 
  3 C       -1.2140     2.4450    -0.1790 C.3   1 <1>  -0.0800 
  4 C        1.2780     2.7250     0.2720 C.3   1 <1>   0.3430 
  5 C       -1.3100     3.9860    -0.1200 C.3   1 <1>  -0.1600 
  6 C       -2.5200     1.7700     0.2780 C.3   1 <1>   0.1200 
  7 N        1.1110     4.2210     0.3320 N.4   1 <1>  -0.9590 
  8 C       -0.0100     4.6610    -0.5530 C.3   1 <1>   0.3430 
  9 O       -3.5660     2.2730    -0.4730 O.3   1 <1>  -0.6800 
 10 C        2.4130     4.8690    -0.0470 C.3   1 <1>   0.3430 
 11 C        2.4470     6.3810     0.2100 C.3   1 <1>   0.0960 
 12 N        3.7630     6.9060    -0.1910 N.pl3 1 <1>   0.3140 
 13 N        4.6230     6.1630    -0.9110 N.2   1 <1>  -0.7070 
 14 C        4.2720     8.1300     0.0740 C.2   1 <1>  -0.3320 
 15 C        5.6580     6.9270    -1.0870 C.2   1 <1>   0.1390 
 16 C        5.4960     8.1710    -0.4920 C.2   1 <1>  -0.1500 
 17 C        3.5730     9.2280     0.8600 C.3   1 <1>  -0.0600 
 18 H       -0.5370     0.0720     0.7190 H     1 <1>   0.4000 
 19 H       -0.2010     2.0960     1.7100 H     1 <1>   0.0800 
 20 H       -1.0380     2.1600    -1.2030 H     1 <1>   0.0800 
 21 H        1.5470     2.4380    -0.7310 H     1 <1>   0.0800 
 22 H        2.0690     2.4170     0.9360 H     1 <1>   0.0800 
 23 H       -1.5790     4.3090     0.8700 H     1 <1>   0.0800 
 24 H       -2.0890     4.3200    -0.7850 H     1 <1>   0.0800 
 25 H       -2.7250     1.9750     1.3160 H     1 <1>   0.0800 
 26 H       -2.4810     0.7060     0.1200 H     1 <1>   0.0800 
 27 H        0.8800     4.4690     1.3030 H     1 <1>   0.4500 
 28 H       -0.1320     5.7310    -0.5000 H     1 <1>   0.0800 
 29 H        0.2060     4.3960    -1.5760 H     1 <1>   0.0800 
 30 H       -4.4080     1.8200    -0.2600 H     1 <1>   0.4000 
 31 H        3.2150     4.4190     0.5160 H     1 <1>   0.0800 
 32 H        2.6120     4.6920    -1.0930 H     1 <1>   0.0800 
 33 H        2.3070     6.5890     1.2530 H     1 <1>   0.0800 
 34 H        1.7030     6.8890    -0.3740 H     1 <1>   0.0800 
 35 H        6.5380     6.6250    -1.6330 H     1 <1>   0.1500 
 36 H        6.2140     8.9720    -0.5030 H     1 <1>   0.1500 
 37 H        4.2020    10.1010     0.9090 H     1 <1>   0.0800 
 38 H        3.3700     8.9030     1.8640 H     1 <1>   0.0800 
 39 H        2.6500     9.5050     0.3820 H     1 <1>   0.0800 
@<TRIPOS>BOND
  1   1   2  1   
  2   1  18  1   
  3   2   3  1   
  4   2   4  1   
  5   2  19  1   
  6   3   5  1   
  7   3   6  1   
  8   3  20  1   
  9   4   7  1   
 10   4  21  1   
 11   4  22  1   
 12   5   8  1   
 13   5  23  1   
 14   5  24  1   
 15   6   9  1   
 16   6  25  1   
 17   6  26  1   
 18   7   8  1   
 19   7  10  1   
 20   7  27  1   
 21   8  28  1   
 22   8  29  1   
 23   9  30  1   
 24  10  11  1   
 25  10  31  1   
 26  10  32  1   
 27  11  12  1   
 28  11  33  1   
 29  11  34  1   
 30  12  13  1   
 31  12  14  1   
 32  13  15  2   
 33  14  16  2   
 34  14  17  1   
 35  15  16  1   
 36  15  35  1   
 37  16  36  1   
 38  17  37  1   
 39  17  38  1   
 40  17  39  1   
@<TRIPOS>SUBSTRUCTURE
  1 ****   7 GROUP 4 **** **** 0

# MOE 2024.06 (io_trps.svl 2023.06)
