@<TRIPOS>MOLECULE
NONAME
48 50 1 0 0 
SMALL
USER_CHARGES


@<TRIPOS>ATOM
  1 O       -1.3890     1.0140    -0.9660 O.3   1 <1>  -0.3630 
  2 C       -1.6920     1.1620     0.3560 C.ar  1 <1>   0.3920 
  3 C       -1.9500    -0.0350    -1.7310 C.3   1 <1>   0.0400 
  4 N       -2.5040     0.2630     0.8960 N.ar  1 <1>  -0.6200 
  5 C       -1.1250     2.2620     1.0720 C.ar  1 <1>   0.4100 
  6 C       -2.7340     0.5050     2.1780 C.ar  1 <1>   0.1600 
  7 N       -1.3740     2.4690     2.3610 N.ar  1 <1>  -0.6200 
  8 N       -0.2690     3.1880     0.4660 N.pl3 1 <1>  -0.8380 
  9 C       -2.1910     1.5660     2.8790 C.ar  1 <1>   0.1600 
 10 C       -0.0460     4.5330     1.0520 C.3   1 <1>   0.4330 
 11 C        0.9570     2.7060    -0.2080 C.3   1 <1>   0.2090 
 12 C       -1.2140     5.4780     0.7620 C.ar  1 <1>  -0.1430 
 13 C        1.2550     5.0120     0.4170 C.3   1 <1>  -0.1600 
 14 C        2.0320     3.7300     0.1350 C.3   1 <1>  -0.1600 
 15 C       -1.6200     6.3900     1.7240 C.ar  1 <1>  -0.1500 
 16 C       -1.8910     5.4340    -0.4480 C.ar  1 <1>  -0.1500 
 17 C       -2.6800     7.2450     1.4810 C.ar  1 <1>  -0.1500 
 18 C       -2.9520     6.2850    -0.6950 C.ar  1 <1>  -0.1500 
 19 C       -3.3500     7.2010     0.2670 C.ar  1 <1>  -0.1430 
 20 C       -4.5070     8.1390    -0.0060 C.3   1 <1>   0.4860 
 21 N       -4.0440     9.1920    -0.9540 N.4   1 <1>  -0.9590 
 22 C       -2.9910    10.0600    -0.3380 C.3   1 <1>   0.2630 
 23 C       -5.1840    10.0010    -1.4790 C.3   1 <1>   0.2630 
 24 H       -1.5830     0.0470    -2.7380 H     1 <1>   0.0800 
 25 H       -3.0210     0.0600    -1.7190 H     1 <1>   0.0800 
 26 H       -1.6520    -0.9760    -1.3030 H     1 <1>   0.0800 
 27 H       -3.3880    -0.1760     2.6920 H     1 <1>   0.1500 
 28 H       -2.4380     1.6790     3.9190 H     1 <1>   0.1500 
 29 H        0.1030     4.4380     2.1150 H     1 <1>   0.0800 
 30 H        0.7830     2.6850    -1.2700 H     1 <1>   0.0800 
 31 H        1.2280     1.7210     0.1320 H     1 <1>   0.0800 
 32 H        1.7870     5.6820     1.0670 H     1 <1>   0.0800 
 33 H        1.0370     5.5160    -0.5070 H     1 <1>   0.0800 
 34 H        2.7420     3.8460    -0.6650 H     1 <1>   0.0800 
 35 H        2.5480     3.4090     1.0230 H     1 <1>   0.0800 
 36 H       -1.1120     6.4270     2.6730 H     1 <1>   0.1500 
 37 H       -1.5920     4.7180    -1.1960 H     1 <1>   0.1500 
 38 H       -2.9750     7.9350     2.2540 H     1 <1>   0.1500 
 39 H       -3.4600     6.2090    -1.6410 H     1 <1>   0.1500 
 40 H       -4.8490     8.5830     0.9140 H     1 <1>   0.0800 
 41 H       -5.3190     7.5780    -0.4390 H     1 <1>   0.0800 
 42 H       -3.5990     8.6820    -1.7330 H     1 <1>   0.4500 
 43 H       -3.3850    10.5790     0.5200 H     1 <1>   0.0800 
 44 H       -2.6390    10.7870    -1.0520 H     1 <1>   0.0800 
 45 H       -2.1510     9.4600    -0.0220 H     1 <1>   0.0800 
 46 H       -5.6680    10.5330    -0.6760 H     1 <1>   0.0800 
 47 H       -5.9080     9.3630    -1.9580 H     1 <1>   0.0800 
 48 H       -4.8300    10.7190    -2.2020 H     1 <1>   0.0800 
@<TRIPOS>BOND
  1   1   2  1   
  2   1   3  1   
  3   2   4  ar  
  4   2   5  ar  
  5   3  24  1   
  6   3  25  1   
  7   3  26  1   
  8   4   6  ar  
  9   5   7  ar  
 10   5   8  1   
 11   6   9  ar  
 12   6  27  1   
 13   7   9  ar  
 14   8  10  1   
 15   8  11  1   
 16   9  28  1   
 17  10  12  1   
 18  10  13  1   
 19  10  29  1   
 20  11  14  1   
 21  11  30  1   
 22  11  31  1   
 23  12  15  ar  
 24  12  16  ar  
 25  13  14  1   
 26  13  32  1   
 27  13  33  1   
 28  14  34  1   
 29  14  35  1   
 30  15  17  ar  
 31  15  36  1   
 32  16  18  ar  
 33  16  37  1   
 34  17  19  ar  
 35  17  38  1   
 36  18  19  ar  
 37  18  39  1   
 38  19  20  1   
 39  20  21  1   
 40  20  40  1   
 41  20  41  1   
 42  21  22  1   
 43  21  23  1   
 44  21  42  1   
 45  22  43  1   
 46  22  44  1   
 47  22  45  1   
 48  23  46  1   
 49  23  47  1   
 50  23  48  1   
@<TRIPOS>SUBSTRUCTURE
  1 ****  12 GROUP 4 **** **** 0

# MOE 2024.06 (io_trps.svl 2023.06)
