@<TRIPOS>MOLECULE
NONAME
49 51 1 0 0 
SMALL
USER_CHARGES


@<TRIPOS>ATOM
  1 F       -3.0300    -3.6260    -2.9290 F     1 <1>  -0.3400 
  2 C       -4.0000    -2.7400    -2.7330 C.3   1 <1>   1.1640 
  3 F       -4.9610    -3.0420    -3.5970 F     1 <1>  -0.3400 
  4 F       -3.5100    -1.5660    -3.1160 F     1 <1>  -0.3400 
  5 C       -4.5210    -2.7190    -1.2870 C.ar  1 <1>  -0.1440 
  6 C       -4.3490    -3.8120    -0.4430 C.ar  1 <1>  -0.1500 
  7 C       -5.1840    -1.6010    -0.7920 C.ar  1 <1>  -0.1500 
  8 C       -4.8180    -3.7820     0.8580 C.ar  1 <1>  -0.1500 
  9 C       -5.6540    -1.5730     0.5100 C.ar  1 <1>  -0.1500 
 10 C       -5.4750    -2.6640     1.3440 C.ar  1 <1>  -0.1430 
 11 C       -5.9820    -2.6400     2.7840 C.3   1 <1>   0.0450 
 12 C       -6.7730    -3.8860     3.1730 C.2   1 <1>   0.5690 
 13 O       -6.2670    -4.6030     4.0060 O.2   1 <1>  -0.5700 
 14 N       -7.9990    -4.1860     2.6200 N.am  1 <1>  -0.6600 
 15 C       -8.6820    -3.3190     1.6110 C.3   1 <1>   0.2200 
 16 C       -8.6900    -5.4490     3.0350 C.3   1 <1>   0.0600 
 17 C       -8.6750    -3.9240     0.2110 C.3   1 <1>  -0.1600 
 18 C      -10.1560    -3.0520     1.9080 C.3   1 <1>  -0.1600 
 19 C       -9.7950    -3.1830    -0.5340 C.3   1 <1>  -0.0800 
 20 C      -10.7510    -2.6410     0.5550 C.3   1 <1>  -0.0800 
 21 C      -10.4650    -4.0490    -1.6180 C.3   1 <1>   0.1400 
 22 C      -12.2120    -3.0920     0.3790 C.3   1 <1>  -0.0990 
 23 N      -11.7640    -3.4510    -2.0200 N.am  1 <1>  -0.6600 
 24 C      -12.6340    -2.9840    -1.0720 C.2   1 <1>   0.5690 
 25 C      -12.0780    -3.4390    -3.4730 C.3   1 <1>   0.0600 
 26 O      -13.7090    -2.5020    -1.3350 O.2   1 <1>  -0.5700 
 27 H       -3.8430    -4.6990    -0.7890 H     1 <1>   0.1500 
 28 H       -5.3370    -0.7390    -1.4200 H     1 <1>   0.1500 
 29 H       -4.6670    -4.6390     1.4950 H     1 <1>   0.1500 
 30 H       -6.1560    -0.6910     0.8680 H     1 <1>   0.1500 
 31 H       -6.5900    -1.7740     2.9640 H     1 <1>   0.0800 
 32 H       -5.1310    -2.5630     3.4360 H     1 <1>   0.0800 
 33 H       -8.1980    -2.3610     1.5510 H     1 <1>   0.0800 
 34 H       -9.2590    -5.8630     2.2230 H     1 <1>   0.0800 
 35 H       -9.3490    -5.2430     3.8600 H     1 <1>   0.0800 
 36 H       -7.9710    -6.1880     3.3470 H     1 <1>   0.0800 
 37 H       -7.7230    -3.7860    -0.2700 H     1 <1>   0.0800 
 38 H       -8.8980    -4.9730     0.2600 H     1 <1>   0.0800 
 39 H      -10.6450    -3.9430     2.2550 H     1 <1>   0.0800 
 40 H      -10.2730    -2.2760     2.6430 H     1 <1>   0.0800 
 41 H       -9.3540    -2.3340    -1.0290 H     1 <1>   0.0800 
 42 H      -10.7310    -1.5650     0.4880 H     1 <1>   0.0800 
 43 H      -10.6530    -5.0390    -1.2400 H     1 <1>   0.0800 
 44 H       -9.8120    -4.1300    -2.4700 H     1 <1>   0.0800 
 45 H      -12.8610    -2.4900     0.9870 H     1 <1>   0.0800 
 46 H      -12.3310    -4.1180     0.6730 H     1 <1>   0.0800 
 47 H      -11.3390    -2.8610    -4.0000 H     1 <1>   0.0800 
 48 H      -13.0460    -3.0000    -3.6460 H     1 <1>   0.0800 
 49 H      -12.0830    -4.4450    -3.8530 H     1 <1>   0.0800 
@<TRIPOS>BOND
  1   1   2  1   
  2   2   3  1   
  3   2   4  1   
  4   2   5  1   
  5   5   6  ar  
  6   5   7  ar  
  7   6   8  ar  
  8   6  27  1   
  9   7   9  ar  
 10   7  28  1   
 11   8  10  ar  
 12   8  29  1   
 13   9  10  ar  
 14   9  30  1   
 15  10  11  1   
 16  11  12  1   
 17  11  31  1   
 18  11  32  1   
 19  12  13  2   
 20  12  14  am  
 21  14  15  1   
 22  14  16  1   
 23  15  17  1   
 24  15  18  1   
 25  15  33  1   
 26  16  34  1   
 27  16  35  1   
 28  16  36  1   
 29  17  19  1   
 30  17  37  1   
 31  17  38  1   
 32  18  20  1   
 33  18  39  1   
 34  18  40  1   
 35  19  20  1   
 36  19  21  1   
 37  19  41  1   
 38  20  22  1   
 39  20  42  1   
 40  21  23  1   
 41  21  43  1   
 42  21  44  1   
 43  22  24  1   
 44  22  45  1   
 45  22  46  1   
 46  23  24  am  
 47  23  25  1   
 48  24  26  2   
 49  25  47  1   
 50  25  48  1   
 51  25  49  1   
@<TRIPOS>SUBSTRUCTURE
  1 ****  17 GROUP 4 **** **** 0

# MOE 2024.06 (io_trps.svl 2023.06)
