@<TRIPOS>MOLECULE
NONAME
34 35 1 0 0 
SMALL
USER_CHARGES


@<TRIPOS>ATOM
  1 O        0.1550    -0.1000     1.0170 O.2   1 <1>  -0.5700 
  2 C        1.1730    -0.6440     0.6330 C.2   1 <1>   0.7160 
  3 N        2.2310     0.0870     0.1710 N.am  1 <1>  -0.4930 
  4 C        1.2810    -2.0790     0.6300 C.2   1 <1>  -0.0860 
  5 C        2.4200     1.4920     0.1290 C.2   1 <1>   0.0630 
  6 C        0.2970    -2.9910     0.2730 C.2   1 <1>   0.1080 
  7 C        2.3040    -2.9040     0.9460 C.2   1 <1>  -0.0400 
  8 C        3.4840     2.1760    -0.4660 C.2   1 <1>   0.1080 
  9 C        1.6460     2.4680     0.6450 C.2   1 <1>  -0.3020 
 10 N        0.7470    -4.1870     0.3640 N.2   1 <1>  -0.4100 
 11 C       -1.1190    -2.6210    -0.1610 C.3   1 <1>   0.0210 
 12 O        1.9930    -4.1650     0.7750 O.3   1 <1>  -0.0190 
 13 C        3.6940    -2.5970     1.4720 C.3   1 <1>  -0.0600 
 14 N        3.3810     3.4610    -0.3300 N.2   1 <1>  -0.7070 
 15 C        4.6450     1.5390    -1.1970 C.3   1 <1>  -0.0590 
 16 N        2.2400     3.6430     0.3560 N.pl3 1 <1>   0.3140 
 17 C       -1.8680    -3.7670    -0.8550 C.3   1 <1>  -0.2400 
 18 C        1.7570     4.9790     0.7190 C.3   1 <1>   0.0160 
 19 H        2.9790    -0.4610    -0.2450 H     1 <1>   0.3700 
 20 H        0.7230     2.3870     1.1890 H     1 <1>   0.1500 
 21 H       -1.0710    -1.7830    -0.8330 H     1 <1>   0.0800 
 22 H       -1.6710    -2.3110     0.7090 H     1 <1>   0.0800 
 23 H        3.8080    -1.5530     1.6950 H     1 <1>   0.0800 
 24 H        4.4320    -2.8890     0.7470 H     1 <1>   0.0800 
 25 H        3.8630    -3.1540     2.3760 H     1 <1>   0.0800 
 26 H        4.2800     0.9240    -1.9980 H     1 <1>   0.0800 
 27 H        5.2230     0.9430    -0.5150 H     1 <1>   0.0800 
 28 H        5.2770     2.3040    -1.6090 H     1 <1>   0.0800 
 29 H       -1.3260    -4.0900    -1.7260 H     1 <1>   0.0800 
 30 H       -2.8480    -3.4420    -1.1540 H     1 <1>   0.0800 
 31 H       -1.9700    -4.6020    -0.1840 H     1 <1>   0.0800 
 32 H        0.6900     5.0140     0.6060 H     1 <1>   0.0800 
 33 H        2.2140     5.7040     0.0710 H     1 <1>   0.0800 
 34 H        2.0270     5.1830     1.7370 H     1 <1>   0.0800 
@<TRIPOS>BOND
  1   1   2  2   
  2   2   3  am  
  3   2   4  1   
  4   3   5  1   
  5   3  19  1   
  6   4   6  1   
  7   4   7  2   
  8   5   8  1   
  9   5   9  2   
 10   6  10  2   
 11   6  11  1   
 12   7  12  1   
 13   7  13  1   
 14   8  14  2   
 15   8  15  1   
 16   9  16  1   
 17   9  20  1   
 18  10  12  1   
 19  11  17  1   
 20  11  21  1   
 21  11  22  1   
 22  13  23  1   
 23  13  24  1   
 24  13  25  1   
 25  14  16  1   
 26  15  26  1   
 27  15  27  1   
 28  15  28  1   
 29  16  18  1   
 30  17  29  1   
 31  17  30  1   
 32  17  31  1   
 33  18  32  1   
 34  18  33  1   
 35  18  34  1   
@<TRIPOS>SUBSTRUCTURE
  1 ****   2 GROUP 4 **** **** 0

# MOE 2024.06 (io_trps.svl 2023.06)
