@<TRIPOS>MOLECULE
NONAME
40 40 1 0 0 
SMALL
USER_CHARGES


@<TRIPOS>ATOM
  1 O        1.8720     0.7280    -1.9350 O.2   1 <1>  -0.5700 
  2 C        1.5870     1.0000    -0.7940 C.2   1 <1>   0.5690 
  3 N        1.8000     0.1800     0.2740 N.am  1 <1>  -0.5470 
  4 C        0.9060     2.3310    -0.5340 C.3   1 <1>   0.1570 
  5 C        2.2490    -1.1490     0.3420 C.ar  1 <1>   0.1170 
  6 N       -0.4260     2.1970     0.1280 N.4   1 <1>  -0.0180 
  7 C        1.4410    -2.0870     0.9910 C.ar  1 <1>  -0.1440 
  8 C        3.4770    -1.5580    -0.1910 C.ar  1 <1>  -0.1440 
  9 O       -0.2140     1.6610     1.3580 O.2   1 <1>  -0.7500 
 10 C       -1.0840     3.5230     0.3250 C.3   1 <1>   0.0960 
 11 C       -1.3060     1.2580    -0.6400 C.3   1 <1>   0.0960 
 12 C        1.8420    -3.4090     1.0740 C.ar  1 <1>  -0.1500 
 13 C        0.1090    -1.6830     1.6160 C.3   1 <1>  -0.0970 
 14 C        3.8570    -2.8870    -0.1010 C.ar  1 <1>  -0.1500 
 15 C        4.4410    -0.5910    -0.8660 C.3   1 <1>  -0.0970 
 16 C       -0.2250     4.5540     1.0770 C.3   1 <1>  -0.2400 
 17 C       -2.6810     1.0100     0.0010 C.3   1 <1>  -0.2400 
 18 C        3.0440    -3.8120     0.5260 C.ar  1 <1>  -0.1500 
 19 H        1.2310     0.4870     1.0830 H     1 <1>   0.3700 
 20 H        0.7810     2.8330    -1.4730 H     1 <1>   0.0800 
 21 H        1.5420     2.9230     0.0940 H     1 <1>   0.0800 
 22 H       -1.9860     3.3560     0.8860 H     1 <1>   0.0800 
 23 H       -1.3570     3.9200    -0.6350 H     1 <1>   0.0800 
 24 H       -0.7920     0.3170    -0.7260 H     1 <1>   0.0800 
 25 H       -1.4420     1.6480    -1.6320 H     1 <1>   0.0800 
 26 H        1.2210    -4.1360     1.5670 H     1 <1>   0.1500 
 27 H       -0.5480    -1.2920     0.8610 H     1 <1>   0.0800 
 28 H        0.2640    -0.9250     2.3640 H     1 <1>   0.0800 
 29 H       -0.3730    -2.5220     2.0820 H     1 <1>   0.0800 
 30 H        4.7930    -3.2120    -0.5190 H     1 <1>   0.1500 
 31 H        4.4090     0.3720    -0.3890 H     1 <1>   0.0800 
 32 H        4.1770    -0.4780    -1.9010 H     1 <1>   0.0800 
 33 H        5.4500    -0.9550    -0.8070 H     1 <1>   0.0800 
 34 H        0.0950     4.1520     2.0220 H     1 <1>   0.0800 
 35 H       -0.8150     5.4310     1.2720 H     1 <1>   0.0800 
 36 H        0.6310     4.8510     0.5000 H     1 <1>   0.0800 
 37 H       -2.5640     0.6590     1.0110 H     1 <1>   0.0800 
 38 H       -3.2010     0.2530    -0.5580 H     1 <1>   0.0800 
 39 H       -3.2820     1.9000    -0.0030 H     1 <1>   0.0800 
 40 H        3.3480    -4.8420     0.5900 H     1 <1>   0.1500 
@<TRIPOS>BOND
  1   1   2  2   
  2   2   3  am  
  3   2   4  1   
  4   3   5  1   
  5   3  19  1   
  6   4   6  1   
  7   4  20  1   
  8   4  21  1   
  9   5   7  ar  
 10   5   8  ar  
 11   6   9  2   
 12   6  10  1   
 13   6  11  1   
 14   7  12  ar  
 15   7  13  1   
 16   8  14  ar  
 17   8  15  1   
 18  10  16  1   
 19  10  22  1   
 20  10  23  1   
 21  11  17  1   
 22  11  24  1   
 23  11  25  1   
 24  12  18  ar  
 25  12  26  1   
 26  13  27  1   
 27  13  28  1   
 28  13  29  1   
 29  14  18  ar  
 30  14  30  1   
 31  15  31  1   
 32  15  32  1   
 33  15  33  1   
 34  16  34  1   
 35  16  35  1   
 36  16  36  1   
 37  17  37  1   
 38  17  38  1   
 39  17  39  1   
 40  18  40  1   
@<TRIPOS>SUBSTRUCTURE
  1 ****   3 GROUP 4 **** **** 0

# MOE 2024.06 (io_trps.svl 2023.06)
