@<TRIPOS>MOLECULE
NONAME
66 70 1 0 0 
SMALL
USER_CHARGES


@<TRIPOS>ATOM
  1 O       -0.2740     0.1400     0.7990 O.2   1 <1>  -0.5700 
  2 C       -0.5420    -0.3870    -0.2560 C.2   1 <1>   0.5690 
  3 N        0.4250    -0.9040    -1.0630 N.am  1 <1>  -0.7300 
  4 C       -2.0260    -0.4870    -0.6730 C.3   1 <1>   0.4040 
  5 C        1.8740    -0.8650    -0.7750 C.3   1 <1>   0.2200 
  6 N       -3.0260    -0.6390     0.4550 N.4   1 <1>  -0.9590 
  7 C        2.5570    -0.0790    -1.9020 C.3   1 <1>  -0.1600 
  8 C        2.3530    -2.3130    -0.6170 C.3   1 <1>  -0.1600 
  9 C       -3.1470     0.6180     1.2660 C.3   1 <1>   0.3430 
 10 C       -2.7190    -1.8000     1.3370 C.3   1 <1>   0.3430 
 11 C        4.0020     0.3100    -1.5510 C.3   1 <1>  -0.1600 
 12 C        3.8660    -2.4760    -0.3930 C.3   1 <1>  -0.1600 
 13 C       -4.3370     0.5200     2.2400 C.3   1 <1>   0.1430 
 14 C       -3.8610    -1.9990     2.3390 C.3   1 <1>  -0.1600 
 15 C        5.0600    -0.7460    -1.9050 C.3   1 <1>  -0.1600 
 16 C        4.6810    -2.2150    -1.6680 C.3   1 <1>  -0.1600 
 17 C       -5.6430     0.4780     1.4600 C.ar  1 <1>   0.1670 
 18 C       -4.1740    -0.7230     3.1440 C.3   1 <1>  -0.1600 
 19 C       -4.5060     1.8030     3.0940 C.3   1 <1>  -0.1600 
 20 N       -5.8810    -0.2710     0.4060 N.ar  1 <1>  -0.6200 
 21 C       -6.5580     1.3440     1.9740 C.ar  1 <1>  -0.1440 
 22 C       -6.0180     2.0880     3.1700 C.3   1 <1>  -0.0170 
 23 C       -7.1030    -0.1390    -0.1320 C.ar  1 <1>   0.6200 
 24 C       -7.7820     1.4220     1.3600 C.ar  1 <1>   0.1600 
 25 N       -8.0580     0.6880     0.3060 N.ar  1 <1>  -0.6200 
 26 C       -7.3950    -0.9540    -1.2960 C.ar  1 <1>   0.0000 
 27 C       -8.0200    -0.4150    -2.4210 C.ar  1 <1>  -0.1500 
 28 C       -7.0560    -2.3080    -1.3390 C.ar  1 <1>  -0.1500 
 29 C       -8.2810    -1.1830    -3.5410 C.ar  1 <1>  -0.1500 
 30 C       -7.3150    -3.0830    -2.4560 C.ar  1 <1>  -0.1500 
 31 C       -7.9270    -2.5200    -3.5610 C.ar  1 <1>  -0.1500 
 32 H        0.2100    -1.3320    -1.9650 H     1 <1>   0.3700 
 33 H       -2.1220    -1.3290    -1.3360 H     1 <1>   0.0800 
 34 H       -2.2680     0.3970    -1.2380 H     1 <1>   0.0800 
 35 H        2.0390    -0.3460     0.1550 H     1 <1>   0.0800 
 36 H       -3.9800    -0.7870     0.0660 H     1 <1>   0.4500 
 37 H        2.0090     0.8370    -2.0420 H     1 <1>   0.0800 
 38 H        2.5320    -0.6270    -2.8280 H     1 <1>   0.0800 
 39 H        2.0660    -2.8880    -1.4800 H     1 <1>   0.0800 
 40 H        1.8510    -2.7320     0.2370 H     1 <1>   0.0800 
 41 H       -3.3020     1.4600     0.6120 H     1 <1>   0.0800 
 42 H       -2.2410     0.7840     1.8250 H     1 <1>   0.0800 
 43 H       -1.7970    -1.6180     1.8680 H     1 <1>   0.0800 
 44 H       -2.6000    -2.6950     0.7470 H     1 <1>   0.0800 
 45 H        4.0660     0.5420    -0.5020 H     1 <1>   0.0800 
 46 H        4.2540     1.2140    -2.0800 H     1 <1>   0.0800 
 47 H        4.0420    -3.4950    -0.0940 H     1 <1>   0.0800 
 48 H        4.2060    -1.8470     0.4130 H     1 <1>   0.0800 
 49 H       -3.5940    -2.7890     3.0190 H     1 <1>   0.0800 
 50 H       -4.7410    -2.3250     1.8110 H     1 <1>   0.0800 
 51 H        5.9480    -0.5230    -1.3380 H     1 <1>   0.0800 
 52 H        5.3220    -0.6370    -2.9440 H     1 <1>   0.0800 
 53 H        4.1430    -2.5890    -2.5220 H     1 <1>   0.0800 
 54 H        5.5950    -2.7820    -1.6110 H     1 <1>   0.0800 
 55 H       -5.0680    -0.8750     3.7250 H     1 <1>   0.0800 
 56 H       -3.3640    -0.5520     3.8330 H     1 <1>   0.0800 
 57 H       -4.0370     2.6340     2.5960 H     1 <1>   0.0800 
 58 H       -4.0740     1.7130     4.0760 H     1 <1>   0.0800 
 59 H       -6.2280     3.1430     3.1150 H     1 <1>   0.0800 
 60 H       -6.4410     1.6790     4.0720 H     1 <1>   0.0800 
 61 H       -8.5410     2.0910     1.7310 H     1 <1>   0.1500 
 62 H       -8.3070     0.6230    -2.4150 H     1 <1>   0.1500 
 63 H       -6.5900    -2.7610    -0.4820 H     1 <1>   0.1500 
 64 H       -8.7640    -0.7430    -4.3960 H     1 <1>   0.1500 
 65 H       -7.0460    -4.1250    -2.4660 H     1 <1>   0.1500 
 66 H       -8.1320    -3.1200    -4.4310 H     1 <1>   0.1500 
@<TRIPOS>BOND
  1   1   2  2   
  2   2   3  am  
  3   2   4  1   
  4   3   5  1   
  5   3  32  1   
  6   4   6  1   
  7   4  33  1   
  8   4  34  1   
  9   5   7  1   
 10   5   8  1   
 11   5  35  1   
 12   6   9  1   
 13   6  10  1   
 14   6  36  1   
 15   7  11  1   
 16   7  37  1   
 17   7  38  1   
 18   8  12  1   
 19   8  39  1   
 20   8  40  1   
 21   9  13  1   
 22   9  41  1   
 23   9  42  1   
 24  10  14  1   
 25  10  43  1   
 26  10  44  1   
 27  11  15  1   
 28  11  45  1   
 29  11  46  1   
 30  12  16  1   
 31  12  47  1   
 32  12  48  1   
 33  13  17  1   
 34  13  18  1   
 35  13  19  1   
 36  14  18  1   
 37  14  49  1   
 38  14  50  1   
 39  15  16  1   
 40  15  51  1   
 41  15  52  1   
 42  16  53  1   
 43  16  54  1   
 44  17  20  ar  
 45  17  21  ar  
 46  18  55  1   
 47  18  56  1   
 48  19  22  1   
 49  19  57  1   
 50  19  58  1   
 51  20  23  ar  
 52  21  22  1   
 53  21  24  ar  
 54  22  59  1   
 55  22  60  1   
 56  23  25  ar  
 57  23  26  1   
 58  24  25  ar  
 59  24  61  1   
 60  26  27  ar  
 61  26  28  ar  
 62  27  29  ar  
 63  27  62  1   
 64  28  30  ar  
 65  28  63  1   
 66  29  31  ar  
 67  29  64  1   
 68  30  31  ar  
 69  30  65  1   
 70  31  66  1   
@<TRIPOS>SUBSTRUCTURE
  1 ****   6 GROUP 4 **** **** 0

# MOE 2024.06 (io_trps.svl 2023.06)
