@<TRIPOS>MOLECULE
NONAME
54 57 1 0 0 
SMALL
USER_CHARGES


@<TRIPOS>ATOM
  1 O        2.4200     2.2550    -1.3070 O.3   1 <1>  -0.0190 
  2 N        3.4490     1.4890    -1.1050 N.2   1 <1>  -0.4100 
  3 C        1.7160     2.4200    -0.2200 C.2   1 <1>  -0.0400 
  4 C        3.3960     1.1360     0.1300 C.2   1 <1>   0.1080 
  5 C        2.2960     1.7110     0.7600 C.2   1 <1>  -0.1500 
  6 C        0.4930     3.3170    -0.2410 C.3   1 <1>   0.0200 
  7 C        4.3990     0.2180     0.7950 C.3   1 <1>  -0.0590 
  8 C        0.8230     4.6560    -0.9300 C.3   1 <1>  -0.0800 
  9 C       -0.2540     5.7340    -0.8420 C.3   1 <1>   0.2000 
 10 C        2.0800     5.3270    -0.3670 C.3   1 <1>   0.3430 
 11 O       -0.7040     5.8250     0.4810 O.3   1 <1>  -0.5600 
 12 C        0.5450     6.9990    -1.1550 C.3   1 <1>   0.3430 
 13 N        1.8790     6.8030    -0.5010 N.4   1 <1>  -0.9590 
 14 C       -2.0680     5.5880     0.6600 C.3   1 <1>   0.0400 
 15 C        1.9090     7.4590     0.8360 C.3   1 <1>   0.4860 
 16 C        1.7680     8.9570     0.6470 C.ar  1 <1>  -0.1440 
 17 C        2.7610     9.6720    -0.0040 C.ar  1 <1>  -0.1500 
 18 C        0.6470     9.6210     1.1200 C.ar  1 <1>  -0.1500 
 19 C        2.6450    11.0420    -0.1930 C.ar  1 <1>  -0.1440 
 20 C        0.5240    10.9860     0.9370 C.ar  1 <1>  -0.1500 
 21 C        1.5170    11.6930     0.2830 C.ar  1 <1>  -0.1500 
 22 C        3.7350    11.8280    -0.9210 C.3   1 <1>   0.2390 
 23 N        5.0950    11.4100    -0.5100 N.pl3 1 <1>   0.3140 
 24 N        5.7820    10.4490    -1.1670 N.2   1 <1>  -0.7070 
 25 C        5.8170    11.9060     0.5150 C.2   1 <1>  -0.3020 
 26 C        6.9210    10.3710    -0.5480 C.2   1 <1>   0.1390 
 27 C        7.0010    11.2580     0.5180 C.2   1 <1>  -0.1500 
 28 H        2.0170     1.5890     1.7910 H     1 <1>   0.1500 
 29 H       -0.2980     2.8210    -0.7740 H     1 <1>   0.0800 
 30 H        0.1670     3.4730     0.7730 H     1 <1>   0.0800 
 31 H        4.8320     0.7030     1.6500 H     1 <1>   0.0800 
 32 H        5.1830    -0.0330     0.1040 H     1 <1>   0.0800 
 33 H        3.9110    -0.6870     1.1090 H     1 <1>   0.0800 
 34 H        1.0090     4.4550    -1.9710 H     1 <1>   0.0800 
 35 H       -1.0760     5.5830    -1.5220 H     1 <1>   0.0800 
 36 H        2.9560     4.9970    -0.9040 H     1 <1>   0.0800 
 37 H        2.1900     5.0620     0.6720 H     1 <1>   0.0800 
 38 H        0.0360     7.8810    -0.8020 H     1 <1>   0.0800 
 39 H        0.6780     7.0750    -2.2210 H     1 <1>   0.0800 
 40 H        2.6160     7.2350    -1.0730 H     1 <1>   0.4500 
 41 H       -2.2900     5.6650     1.7110 H     1 <1>   0.0800 
 42 H       -2.3110     4.5980     0.3140 H     1 <1>   0.0800 
 43 H       -2.6350     6.3270     0.1190 H     1 <1>   0.0800 
 44 H        1.1030     7.0880     1.4480 H     1 <1>   0.0800 
 45 H        2.8420     7.2490     1.3320 H     1 <1>   0.0800 
 46 H        3.6380     9.1630    -0.3670 H     1 <1>   0.1500 
 47 H       -0.1350     9.0880     1.6350 H     1 <1>   0.1500 
 48 H       -0.3460    11.5040     1.3060 H     1 <1>   0.1500 
 49 H        1.4020    12.7560     0.1500 H     1 <1>   0.1500 
 50 H        3.6350    12.8790    -0.7240 H     1 <1>   0.0800 
 51 H        3.6450    11.6730    -1.9800 H     1 <1>   0.0800 
 52 H        5.4570    12.6760     1.1720 H     1 <1>   0.1500 
 53 H        7.7090     9.6940    -0.8340 H     1 <1>   0.1500 
 54 H        7.8390    11.3790     1.1820 H     1 <1>   0.1500 
@<TRIPOS>BOND
  1   1   2  1   
  2   1   3  1   
  3   2   4  2   
  4   3   5  2   
  5   3   6  1   
  6   4   5  1   
  7   4   7  1   
  8   5  28  1   
  9   6   8  1   
 10   6  29  1   
 11   6  30  1   
 12   7  31  1   
 13   7  32  1   
 14   7  33  1   
 15   8   9  1   
 16   8  10  1   
 17   8  34  1   
 18   9  11  1   
 19   9  12  1   
 20   9  35  1   
 21  10  13  1   
 22  10  36  1   
 23  10  37  1   
 24  11  14  1   
 25  12  13  1   
 26  12  38  1   
 27  12  39  1   
 28  13  15  1   
 29  13  40  1   
 30  14  41  1   
 31  14  42  1   
 32  14  43  1   
 33  15  16  1   
 34  15  44  1   
 35  15  45  1   
 36  16  17  ar  
 37  16  18  ar  
 38  17  19  ar  
 39  17  46  1   
 40  18  20  ar  
 41  18  47  1   
 42  19  21  ar  
 43  19  22  1   
 44  20  21  ar  
 45  20  48  1   
 46  21  49  1   
 47  22  23  1   
 48  22  50  1   
 49  22  51  1   
 50  23  24  1   
 51  23  25  1   
 52  24  26  2   
 53  25  27  2   
 54  25  52  1   
 55  26  27  1   
 56  26  53  1   
 57  27  54  1   
@<TRIPOS>SUBSTRUCTURE
  1 ****  13 GROUP 4 **** **** 0

# MOE 2024.06 (io_trps.svl 2023.06)
