@<TRIPOS>MOLECULE
NONAME
57 60 1 0 0 
SMALL
USER_CHARGES


@<TRIPOS>ATOM
  1 O       -0.3410     0.3910    -0.3080 O.2   1 <1>  -0.5700 
  2 C       -1.0840     1.0470     0.3800 C.2   1 <1>   0.5690 
  3 N       -2.4500     0.9770     0.1870 N.am  1 <1>  -0.6600 
  4 C       -0.4220     1.9660     1.4270 C.3   1 <1>   0.4150 
  5 C       -3.4900     1.5740     1.0950 C.3   1 <1>   0.1400 
  6 C       -2.9990     0.2920    -1.0320 C.3   1 <1>   0.1400 
  7 N        0.4050     3.0570     0.8080 N.pl3 1 <1>  -0.7640 
  8 C       -4.8970     0.9270     0.9770 C.3   1 <1>   0.4230 
  9 C       -4.0540    -0.7810    -0.6930 C.3   1 <1>   0.3430 
 10 C       -0.0470     4.0780     0.0730 C.cat 1 <1>   0.7830 
 11 C        1.7790     3.0910     0.7850 C.2   1 <1>   0.2000 
 12 N       -4.8270    -0.5340     0.5880 N.4   1 <1>  -0.9590 
 13 C       -5.8320     1.7040     0.0220 C.3   1 <1>   0.1200 
 14 N        0.9970     4.7640    -0.3830 N.pl3 1 <1>  -0.7000 
 15 C       -1.4320     4.3800    -0.1980 C.ar  1 <1>   0.0170 
 16 C        2.1460     4.1590     0.0470 C.2   1 <1>   0.2000 
 17 C       -6.2240    -1.0930     0.5510 C.3   1 <1>   0.4230 
 18 O       -7.0990     1.1120     0.0090 O.3   1 <1>  -0.5600 
 19 C       -2.2100     5.0890     0.7190 C.ar  1 <1>  -0.1500 
 20 C       -2.0370     3.9670    -1.3850 C.ar  1 <1>  -0.1500 
 21 C       -7.1410    -0.2400    -0.3630 C.3   1 <1>   0.1200 
 22 C       -6.2030    -2.5810     0.1640 C.3   1 <1>  -0.1600 
 23 C       -3.5380     5.3720     0.4600 C.ar  1 <1>  -0.1500 
 24 C       -3.3650     4.2490    -1.6470 C.ar  1 <1>  -0.1500 
 25 C       -7.5390    -3.2810     0.4570 C.3   1 <1>  -0.1600 
 26 C       -4.1180     4.9520    -0.7240 C.ar  1 <1>  -0.1500 
 27 C       -7.4520    -4.7760     0.1360 C.3   1 <1>  -0.2400 
 28 H        0.2110     1.3550     2.0460 H     1 <1>   0.0800 
 29 H       -1.1640     2.4100     2.0620 H     1 <1>   0.0800 
 30 H       -3.1700     1.4580     2.1150 H     1 <1>   0.0800 
 31 H       -3.5710     2.6300     0.9040 H     1 <1>   0.0800 
 32 H       -3.4440     1.0340    -1.6710 H     1 <1>   0.0800 
 33 H       -2.2170    -0.1720    -1.6080 H     1 <1>   0.0800 
 34 H       -5.3540     1.0020     1.9500 H     1 <1>   0.0800 
 35 H       -3.5560    -1.7340    -0.6220 H     1 <1>   0.0800 
 36 H       -4.7350    -0.8460    -1.5250 H     1 <1>   0.0800 
 37 H        2.4090     2.3660     1.2780 H     1 <1>   0.1500 
 38 H       -4.3160    -1.0200     1.3350 H     1 <1>   0.4500 
 39 H       -5.4550     1.7340    -0.9840 H     1 <1>   0.0800 
 40 H       -5.9560     2.7160     0.3670 H     1 <1>   0.0800 
 41 H        0.9290     5.5970    -0.9750 H     1 <1>   0.4500 
 42 H        3.1380     4.5110    -0.1960 H     1 <1>   0.1500 
 43 H       -6.6360    -1.0320     1.5460 H     1 <1>   0.0800 
 44 H       -1.7720     5.4360     1.6410 H     1 <1>   0.1500 
 45 H       -1.4620     3.4230    -2.1170 H     1 <1>   0.1500 
 46 H       -8.1630    -0.5620    -0.2700 H     1 <1>   0.0800 
 47 H       -6.8550    -0.3220    -1.3970 H     1 <1>   0.0800 
 48 H       -5.9820    -2.6950    -0.8840 H     1 <1>   0.0800 
 49 H       -5.4370    -3.0810     0.7310 H     1 <1>   0.0800 
 50 H       -4.1240     5.9320     1.1720 H     1 <1>   0.1500 
 51 H       -3.8140     3.9380    -2.5770 H     1 <1>   0.1500 
 52 H       -7.7980    -3.1650     1.4970 H     1 <1>   0.0800 
 53 H       -8.3310    -2.8520    -0.1330 H     1 <1>   0.0800 
 54 H       -5.1500     5.1880    -0.9330 H     1 <1>   0.1500 
 55 H       -6.6950    -5.2530     0.7330 H     1 <1>   0.0800 
 56 H       -7.2220    -4.9310    -0.9040 H     1 <1>   0.0800 
 57 H       -8.3950    -5.2510     0.3460 H     1 <1>   0.0800 
@<TRIPOS>BOND
  1   1   2  2   
  2   2   3  am  
  3   2   4  1   
  4   3   5  1   
  5   3   6  1   
  6   4   7  1   
  7   4  28  1   
  8   4  29  1   
  9   5   8  1   
 10   5  30  1   
 11   5  31  1   
 12   6   9  1   
 13   6  32  1   
 14   6  33  1   
 15   7  10  ar  
 16   7  11  1   
 17   8  12  1   
 18   8  13  1   
 19   8  34  1   
 20   9  12  1   
 21   9  35  1   
 22   9  36  1   
 23  10  14  ar  
 24  10  15  1   
 25  11  16  2   
 26  11  37  1   
 27  12  17  1   
 28  12  38  1   
 29  13  18  1   
 30  13  39  1   
 31  13  40  1   
 32  14  16  1   
 33  14  41  1   
 34  15  19  ar  
 35  15  20  ar  
 36  16  42  1   
 37  17  21  1   
 38  17  22  1   
 39  17  43  1   
 40  18  21  1   
 41  19  23  ar  
 42  19  44  1   
 43  20  24  ar  
 44  20  45  1   
 45  21  46  1   
 46  21  47  1   
 47  22  25  1   
 48  22  48  1   
 49  22  49  1   
 50  23  26  ar  
 51  23  50  1   
 52  24  26  ar  
 53  24  51  1   
 54  25  27  1   
 55  25  52  1   
 56  25  53  1   
 57  26  54  1   
 58  27  55  1   
 59  27  56  1   
 60  27  57  1   
@<TRIPOS>SUBSTRUCTURE
  1 ****   3 GROUP 4 **** **** 0

# MOE 2024.06 (io_trps.svl 2023.06)
