@<TRIPOS>MOLECULE
NONAME
46 49 1 0 0 
SMALL
USER_CHARGES


@<TRIPOS>ATOM
  1 CL       0.8560     0.6000    -0.8430 Cl    1 <1>  -0.1770 
  2 C        0.7430     2.1390    -0.0170 C.ar  1 <1>   0.1770 
  3 C        1.8700     2.7780     0.4940 C.ar  1 <1>  -0.1440 
  4 C       -0.5180     2.6940     0.1040 C.ar  1 <1>  -0.1500 
  5 C        1.6950     4.0020     1.1280 C.ar  1 <1>  -0.1500 
  6 C        3.2800     2.2030     0.3860 C.3   1 <1>   0.3640 
  7 C       -0.6740     3.9110     0.7410 C.ar  1 <1>  -0.1500 
  8 C        0.4340     4.5630     1.2510 C.ar  1 <1>  -0.1500 
  9 N        3.3340     0.8900     1.0700 N.am  1 <1>  -0.7300 
 10 C        3.7990     2.1490    -1.0750 C.3   1 <1>   0.2610 
 11 C        3.9130    -0.2050     0.5300 C.2   1 <1>   0.5690 
 12 O        4.8600     1.2130    -1.2210 O.3   1 <1>  -0.5600 
 13 C        4.2000     3.5680    -1.4950 C.2   1 <1>   0.5690 
 14 O        3.9550    -1.2430     1.1410 O.2   1 <1>  -0.5700 
 15 C        4.5090    -0.1100    -0.8770 C.3   1 <1>   0.1810 
 16 O        3.4120     4.1910    -2.1690 O.2   1 <1>  -0.5700 
 17 N        5.3750     4.1470    -1.0820 N.am  1 <1>  -0.6600 
 18 C        5.7330     5.5500    -1.4080 C.3   1 <1>   0.1400 
 19 C        6.5180     3.4730    -0.4110 C.3   1 <1>   0.1400 
 20 C        7.2340     5.6290    -1.1330 C.3   1 <1>  -0.0800 
 21 C        7.4370     4.6210     0.0070 C.3   1 <1>  -0.0800 
 22 C        7.7690     7.0470    -0.8620 C.3   1 <1>  -0.0220 
 23 C        7.0030     5.1580     1.3920 C.3   1 <1>  -0.0220 
 24 C        7.6590     7.4560     0.5950 C.2   1 <1>  -0.2880 
 25 C        7.3240     6.6270     1.5840 C.2   1 <1>  -0.2880 
 26 H       -1.3690     2.1750    -0.3010 H     1 <1>   0.1500 
 27 H        2.5380     4.5380     1.5300 H     1 <1>   0.1500 
 28 H        3.9400     2.8560     0.9300 H     1 <1>   0.0800 
 29 H       -1.6530     4.3500     0.8370 H     1 <1>   0.1500 
 30 H        0.3150     5.5140     1.7430 H     1 <1>   0.1500 
 31 H        2.8820     0.8050     1.9810 H     1 <1>   0.3700 
 32 H        3.0110     1.8350    -1.7330 H     1 <1>   0.0800 
 33 H        3.7960    -0.4730    -1.5950 H     1 <1>   0.0800 
 34 H        5.3970    -0.7120    -0.9310 H     1 <1>   0.0800 
 35 H        5.5020     5.7800    -2.4350 H     1 <1>   0.0800 
 36 H        5.1900     6.2140    -0.7570 H     1 <1>   0.0800 
 37 H        6.1990     2.8810     0.4300 H     1 <1>   0.0800 
 38 H        7.0160     2.8390    -1.1250 H     1 <1>   0.0800 
 39 H        7.7290     5.2570    -2.0130 H     1 <1>   0.0800 
 40 H        8.4640     4.3050     0.0530 H     1 <1>   0.0800 
 41 H        8.8090     7.0850    -1.1350 H     1 <1>   0.0800 
 42 H        7.2440     7.7550    -1.4790 H     1 <1>   0.0800 
 43 H        5.9410     5.0410     1.5270 H     1 <1>   0.0800 
 44 H        7.4940     4.5820     2.1560 H     1 <1>   0.0800 
 45 H        7.8870     8.4960     0.7600 H     1 <1>   0.1500 
 46 H        7.2460     6.9480     2.6100 H     1 <1>   0.1500 
@<TRIPOS>BOND
  1   1   2  1   
  2   2   3  ar  
  3   2   4  ar  
  4   3   5  ar  
  5   3   6  1   
  6   4   7  ar  
  7   4  26  1   
  8   5   8  ar  
  9   5  27  1   
 10   6   9  1   
 11   6  10  1   
 12   6  28  1   
 13   7   8  ar  
 14   7  29  1   
 15   8  30  1   
 16   9  11  am  
 17   9  31  1   
 18  10  12  1   
 19  10  13  1   
 20  10  32  1   
 21  11  14  2   
 22  11  15  1   
 23  12  15  1   
 24  13  16  2   
 25  13  17  am  
 26  15  33  1   
 27  15  34  1   
 28  17  18  1   
 29  17  19  1   
 30  18  20  1   
 31  18  35  1   
 32  18  36  1   
 33  19  21  1   
 34  19  37  1   
 35  19  38  1   
 36  20  21  1   
 37  20  22  1   
 38  20  39  1   
 39  21  23  1   
 40  21  40  1   
 41  22  24  1   
 42  22  41  1   
 43  22  42  1   
 44  23  25  1   
 45  23  43  1   
 46  23  44  1   
 47  24  25  2   
 48  24  45  1   
 49  25  46  1   
@<TRIPOS>SUBSTRUCTURE
  1 ****  13 GROUP 4 **** **** 0

# MOE 2024.06 (io_trps.svl 2023.06)
