@<TRIPOS>MOLECULE
NONAME
39 41 1 0 0 
SMALL
USER_CHARGES


@<TRIPOS>ATOM
  1 O       -0.8330     0.4660     1.7340 O.2   1 <1>  -0.5700 
  2 C       -1.5730     0.8930     0.8790 C.2   1 <1>   0.6300 
  3 N       -2.4740     0.0760     0.2530 N.am  1 <1>  -0.6600 
  4 C       -1.4990     2.3830     0.5210 C.3   1 <1>  -0.0950 
  5 C       -3.4930     0.4740    -0.7490 C.3   1 <1>   0.1400 
  6 C       -2.6090    -1.3620     0.5850 C.3   1 <1>   0.1400 
  7 C       -1.2090     2.8040    -0.8920 C.3   1 <1>  -0.2000 
  8 C       -0.1580     2.9570     0.1680 C.3   1 <1>  -0.2000 
  9 C       -2.4310     3.2440     1.3840 C.3   1 <1>  -0.1450 
 10 C       -4.5520    -0.6220    -0.6550 C.3   1 <1>   0.2000 
 11 C       -3.7410    -1.8780    -0.3130 C.3   1 <1>  -0.0800 
 12 O       -5.3960    -0.3130     0.4020 O.3   1 <1>  -0.6800 
 13 C       -4.5560    -3.0280     0.3070 C.3   1 <1>   0.0200 
 14 C       -3.7470    -4.3010     0.4950 C.2   1 <1>  -0.0400 
 15 O       -4.2960    -5.3030     1.1290 O.3   1 <1>  -0.0190 
 16 C       -2.5080    -4.6770     0.1360 C.2   1 <1>  -0.1500 
 17 N       -3.4940    -6.3240     1.2180 N.2   1 <1>  -0.4100 
 18 C       -2.4080    -5.9750     0.6280 C.2   1 <1>   0.1080 
 19 C       -1.1910    -6.8630     0.4930 C.3   1 <1>  -0.0590 
 20 H       -3.9070     1.4470    -0.5500 H     1 <1>   0.0800 
 21 H       -3.0440     0.4650    -1.7260 H     1 <1>   0.0800 
 22 H       -1.6820    -1.8780     0.4010 H     1 <1>   0.0800 
 23 H       -2.8640    -1.4590     1.6270 H     1 <1>   0.0800 
 24 H       -1.0480     2.0540    -1.6470 H     1 <1>   0.1000 
 25 H       -1.6750     3.6910    -1.2830 H     1 <1>   0.1000 
 26 H        0.0950     3.9440     0.5130 H     1 <1>   0.1000 
 27 H        0.6910     2.2950     0.1640 H     1 <1>   0.1000 
 28 H       -2.3380     4.2840     1.1300 H     1 <1>   0.0800 
 29 H       -2.1750     3.1220     2.4220 H     1 <1>   0.0800 
 30 H       -3.4530     2.9450     1.2460 H     1 <1>   0.0800 
 31 H       -5.1430    -0.7210    -1.5490 H     1 <1>   0.0800 
 32 H       -3.2970    -2.2310    -1.2270 H     1 <1>   0.0800 
 33 H       -4.8510    -0.0890     1.1840 H     1 <1>   0.4000 
 34 H       -5.3970    -3.2520    -0.3250 H     1 <1>   0.0800 
 35 H       -4.9430    -2.7300     1.2660 H     1 <1>   0.0800 
 36 H       -1.7440    -4.1470    -0.4000 H     1 <1>   0.1500 
 37 H       -0.3430    -6.3930     0.9540 H     1 <1>   0.0800 
 38 H       -0.9810    -7.0380    -0.5460 H     1 <1>   0.0800 
 39 H       -1.3710    -7.8070     0.9750 H     1 <1>   0.0800 
@<TRIPOS>BOND
  1   1   2  2   
  2   2   3  am  
  3   2   4  1   
  4   3   5  1   
  5   3   6  1   
  6   4   7  1   
  7   4   8  1   
  8   4   9  1   
  9   5  10  1   
 10   5  20  1   
 11   5  21  1   
 12   6  11  1   
 13   6  22  1   
 14   6  23  1   
 15   7   8  1   
 16   7  24  1   
 17   7  25  1   
 18   8  26  1   
 19   8  27  1   
 20   9  28  1   
 21   9  29  1   
 22   9  30  1   
 23  10  11  1   
 24  10  12  1   
 25  10  31  1   
 26  11  13  1   
 27  11  32  1   
 28  12  33  1   
 29  13  14  1   
 30  13  34  1   
 31  13  35  1   
 32  14  15  1   
 33  14  16  2   
 34  15  17  1   
 35  16  18  1   
 36  16  36  1   
 37  17  18  2   
 38  18  19  1   
 39  19  37  1   
 40  19  38  1   
 41  19  39  1   
@<TRIPOS>SUBSTRUCTURE
  1 ****   6 GROUP 4 **** **** 0

# MOE 2024.06 (io_trps.svl 2023.06)
