@<TRIPOS>MOLECULE
NONAME
51 53 1 0 0 
SMALL
USER_CHARGES


@<TRIPOS>ATOM
  1 O       -0.4220     0.0760    -0.6040 O.2   1 <1>  -0.5700 
  2 C       -0.3100     1.2810    -0.4760 C.2   1 <1>   0.6900 
  3 N       -1.4230     2.0810    -0.4990 N.am  1 <1>  -0.6600 
  4 N        0.9130     1.8700    -0.3360 N.am  1 <1>  -0.5470 
  5 C       -2.7150     1.5230    -0.9930 C.3   1 <1>   0.1400 
  6 C       -1.4640     3.4370     0.1230 C.3   1 <1>   0.1400 
  7 C        2.1920     1.3240    -0.1550 C.ar  1 <1>   0.1170 
  8 C       -3.6590     2.6490    -1.4220 C.3   1 <1>  -0.1600 
  9 C       -2.8320     3.6630     0.7650 C.3   1 <1>  -0.1600 
 10 C        3.3020     2.0680    -0.5390 C.ar  1 <1>  -0.1500 
 11 C        2.4020     0.0720     0.4160 C.ar  1 <1>  -0.1500 
 12 C       -3.9580     3.6630    -0.2910 C.3   1 <1>   0.2800 
 13 C        4.5860     1.5820    -0.3630 C.ar  1 <1>  -0.1500 
 14 C        3.6820    -0.4200     0.5930 C.ar  1 <1>  -0.1500 
 15 O       -3.9380     4.9140    -0.9230 O.3   1 <1>  -0.5600 
 16 C       -5.3300     3.3800     0.3740 C.3   1 <1>  -0.1600 
 17 C        4.7830     0.3270     0.2070 C.ar  1 <1>   0.0820 
 18 C       -4.6420     5.9870    -0.3600 C.3   1 <1>   0.1200 
 19 C       -6.4920     4.1810    -0.2260 C.3   1 <1>   0.2800 
 20 O        6.0060    -0.2280     0.4170 O.3   1 <1>  -0.3630 
 21 C       -6.1480     5.6980    -0.1870 C.3   1 <1>   0.2000 
 22 O       -6.6600     3.7980    -1.5430 O.3   1 <1>  -0.6800 
 23 C       -7.8220     3.8270     0.4530 C.3   1 <1>  -0.2400 
 24 C        7.1830     0.4410     0.0240 C.3   1 <1>   0.0400 
 25 O       -6.5350     6.2720     1.0290 O.3   1 <1>  -0.6800 
 26 H        0.8820     2.8660    -0.5200 H     1 <1>   0.3700 
 27 H       -2.5250     0.8720    -1.8300 H     1 <1>   0.0800 
 28 H       -3.1650     0.9360    -0.2100 H     1 <1>   0.0800 
 29 H       -0.7020     3.5210     0.8780 H     1 <1>   0.0800 
 30 H       -1.2900     4.1840    -0.6350 H     1 <1>   0.0800 
 31 H       -4.5680     2.2140    -1.7910 H     1 <1>   0.0800 
 32 H       -3.1970     3.1540    -2.2520 H     1 <1>   0.0800 
 33 H       -2.8300     4.5870     1.3110 H     1 <1>   0.0800 
 34 H       -2.9930     2.8730     1.4760 H     1 <1>   0.0800 
 35 H        3.1620     3.0360    -0.9820 H     1 <1>   0.1500 
 36 H        1.5620    -0.5230     0.7250 H     1 <1>   0.1500 
 37 H        5.4150     2.1880    -0.6750 H     1 <1>   0.1500 
 38 H        3.8340    -1.3890     1.0320 H     1 <1>   0.1500 
 39 H       -5.5450     2.3270     0.3530 H     1 <1>   0.0800 
 40 H       -5.2650     3.6420     1.4140 H     1 <1>   0.0800 
 41 H       -4.1840     6.2240     0.5830 H     1 <1>   0.0800 
 42 H       -4.5170     6.8270    -1.0200 H     1 <1>   0.0800 
 43 H       -6.7060     6.2060    -0.9540 H     1 <1>   0.0800 
 44 H       -6.9680     2.8760    -1.5840 H     1 <1>   0.4000 
 45 H       -7.7760     4.0320     1.5070 H     1 <1>   0.0800 
 46 H       -8.0540     2.7850     0.3300 H     1 <1>   0.0800 
 47 H       -8.6160     4.4200     0.0360 H     1 <1>   0.0800 
 48 H        8.0210    -0.1860     0.2720 H     1 <1>   0.0800 
 49 H        7.2510     1.3710     0.5590 H     1 <1>   0.0800 
 50 H        7.1520     0.6060    -1.0390 H     1 <1>   0.0800 
 51 H       -6.1040     5.8130     1.7740 H     1 <1>   0.4000 
@<TRIPOS>BOND
  1   1   2  2   
  2   2   3  am  
  3   2   4  am  
  4   3   5  1   
  5   3   6  1   
  6   4   7  1   
  7   4  26  1   
  8   5   8  1   
  9   5  27  1   
 10   5  28  1   
 11   6   9  1   
 12   6  29  1   
 13   6  30  1   
 14   7  10  ar  
 15   7  11  ar  
 16   8  12  1   
 17   8  31  1   
 18   8  32  1   
 19   9  12  1   
 20   9  33  1   
 21   9  34  1   
 22  10  13  ar  
 23  10  35  1   
 24  11  14  ar  
 25  11  36  1   
 26  12  15  1   
 27  12  16  1   
 28  13  17  ar  
 29  13  37  1   
 30  14  17  ar  
 31  14  38  1   
 32  15  18  1   
 33  16  19  1   
 34  16  39  1   
 35  16  40  1   
 36  17  20  1   
 37  18  21  1   
 38  18  41  1   
 39  18  42  1   
 40  19  21  1   
 41  19  22  1   
 42  19  23  1   
 43  20  24  1   
 44  21  25  1   
 45  21  43  1   
 46  22  44  1   
 47  23  45  1   
 48  23  46  1   
 49  23  47  1   
 50  24  48  1   
 51  24  49  1   
 52  24  50  1   
 53  25  51  1   
@<TRIPOS>SUBSTRUCTURE
  1 ****   3 GROUP 4 **** **** 0

# MOE 2024.06 (io_trps.svl 2023.06)
