@<TRIPOS>MOLECULE
NONAME
46 47 1 0 0 
SMALL
USER_CHARGES


@<TRIPOS>ATOM
  1 O        2.1580     0.6970    -0.8160 O.2   1 <1>  -0.5700 
  2 C        2.5570    -0.1370    -0.0250 C.2   1 <1>   0.5440 
  3 N        3.4060     0.2710     0.9680 N.am  1 <1>  -0.7300 
  4 C        2.1400    -1.5250    -0.1260 C.ar  1 <1>   0.0860 
  5 C        3.8090     1.6790     1.1870 C.3   1 <1>   0.1400 
  6 C        0.8950    -1.8580    -0.6540 C.ar  1 <1>  -0.1500 
  7 C        2.9580    -2.5760     0.2960 C.ar  1 <1>  -0.1500 
  8 C        4.9480     2.0390     0.2360 C.3   1 <1>  -0.0990 
  9 C        0.4680    -3.1700    -0.7510 C.ar  1 <1>   0.0830 
 10 C        2.5450    -3.8930     0.2060 C.ar  1 <1>  -0.1500 
 11 C        5.1330     3.5340     0.2160 C.2   1 <1>   0.5690 
 12 O       -0.7650    -3.3740    -1.2760 O.3   1 <1>  -0.3630 
 13 C        1.3000    -4.1960    -0.3150 C.ar  1 <1>  -0.1500 
 14 O        5.9550     4.0390     0.9420 O.2   1 <1>  -0.5700 
 15 N        4.3550     4.2670    -0.6190 N.am  1 <1>  -0.7300 
 16 C       -1.2870    -4.6720    -1.4490 C.3   1 <1>   0.0400 
 17 C        4.3920     5.7470    -0.7010 C.3   1 <1>   0.1400 
 18 C        5.5450     6.2030    -1.5970 C.3   1 <1>   0.0200 
 19 C        5.9390     7.6250    -1.2490 C.2   1 <1>   0.0060 
 20 N        5.5630     8.6530    -1.9380 N.2   1 <1>  -0.5650 
 21 N        6.7130     7.9360    -0.1780 N.pl3 1 <1>   0.0480 
 22 C        6.1170     9.6930    -1.2900 C.2   1 <1>   0.0770 
 23 C        6.8200     9.2760    -0.2150 C.2   1 <1>  -0.3020 
 24 C        7.3070     7.0350     0.8300 C.3   1 <1>   0.0160 
 25 H        3.6750    -0.3920     1.6960 H     1 <1>   0.3700 
 26 H        4.1160     1.8220     2.2090 H     1 <1>   0.0800 
 27 H        2.9610     2.3160     0.9970 H     1 <1>   0.0800 
 28 H        0.2420    -1.0750    -0.9980 H     1 <1>   0.1500 
 29 H        3.9350    -2.3630     0.6910 H     1 <1>   0.1500 
 30 H        4.7200     1.7080    -0.7600 H     1 <1>   0.0800 
 31 H        5.8590     1.5700     0.5580 H     1 <1>   0.0800 
 32 H        3.1930    -4.6860     0.5380 H     1 <1>   0.1500 
 33 H        1.0000    -5.2240    -0.3740 H     1 <1>   0.1500 
 34 H        3.6670     3.7930    -1.2130 H     1 <1>   0.3700 
 35 H       -2.2640    -4.5830    -1.8900 H     1 <1>   0.0800 
 36 H       -1.3630    -5.1490    -0.4880 H     1 <1>   0.0800 
 37 H       -0.6390    -5.2250    -2.1060 H     1 <1>   0.0800 
 38 H        4.5280     6.1410     0.2910 H     1 <1>   0.0800 
 39 H        3.4580     6.1240    -1.0820 H     1 <1>   0.0800 
 40 H        5.2400     6.1580    -2.6270 H     1 <1>   0.0800 
 41 H        6.3990     5.5630    -1.4690 H     1 <1>   0.0800 
 42 H        5.9780    10.7030    -1.6370 H     1 <1>   0.1500 
 43 H        7.3750     9.8480     0.5040 H     1 <1>   0.1500 
 44 H        7.7920     6.2120     0.3380 H     1 <1>   0.0800 
 45 H        6.5340     6.6580     1.4730 H     1 <1>   0.0800 
 46 H        8.0280     7.5740     1.4150 H     1 <1>   0.0800 
@<TRIPOS>BOND
  1   1   2  2   
  2   2   3  am  
  3   2   4  1   
  4   3   5  1   
  5   3  25  1   
  6   4   6  ar  
  7   4   7  ar  
  8   5   8  1   
  9   5  26  1   
 10   5  27  1   
 11   6   9  ar  
 12   6  28  1   
 13   7  10  ar  
 14   7  29  1   
 15   8  11  1   
 16   8  30  1   
 17   8  31  1   
 18   9  12  1   
 19   9  13  ar  
 20  10  13  ar  
 21  10  32  1   
 22  11  14  2   
 23  11  15  am  
 24  12  16  1   
 25  13  33  1   
 26  15  17  1   
 27  15  34  1   
 28  16  35  1   
 29  16  36  1   
 30  16  37  1   
 31  17  18  1   
 32  17  38  1   
 33  17  39  1   
 34  18  19  1   
 35  18  40  1   
 36  18  41  1   
 37  19  20  2   
 38  19  21  1   
 39  20  22  1   
 40  21  23  1   
 41  21  24  1   
 42  22  23  2   
 43  22  42  1   
 44  23  43  1   
 45  24  44  1   
 46  24  45  1   
 47  24  46  1   
@<TRIPOS>SUBSTRUCTURE
  1 ****   8 GROUP 4 **** **** 0

# MOE 2024.06 (io_trps.svl 2023.06)
