@<TRIPOS>MOLECULE
NONAME
52 55 1 0 0 
SMALL
USER_CHARGES


@<TRIPOS>ATOM
  1 O       -5.6840    -0.9520    -4.0490 O.2   1 <1>  -0.5200 
  2 N       -6.4350    -1.6970    -3.3920 N.pl3 1 <1>   0.8360 
  3 O       -7.5300    -2.0460    -3.8700 O.2   1 <1>  -0.5200 
  4 C       -5.9710    -2.2680    -2.2020 C.2   1 <1>   0.2190 
  5 C       -6.5880    -1.8320    -0.9970 C.2   1 <1>   0.6160 
  6 C       -4.9720    -3.2020    -2.1680 C.2   1 <1>  -0.1500 
  7 O       -7.4520    -0.9600    -0.9830 O.2   1 <1>  -0.5700 
  8 N       -6.1780    -2.3980     0.2060 N.am  1 <1>  -0.4690 
  9 C       -4.5920    -3.7700    -0.9360 C.2   1 <1>  -0.1500 
 10 C       -5.2000    -3.3870     0.2220 C.2   1 <1>  -0.0290 
 11 C       -6.7940    -1.8620     1.4670 C.3   1 <1>   0.1400 
 12 C       -4.8540    -4.0990     1.5360 C.3   1 <1>   0.0580 
 13 C       -6.5680    -2.7470     2.7050 C.3   1 <1>  -0.0800 
 14 C       -5.7400    -5.3520     1.6700 C.3   1 <1>   0.1400 
 15 C       -5.0980    -3.1840     2.7430 C.3   1 <1>  -0.1600 
 16 C       -7.5160    -3.9690     2.7360 C.3   1 <1>   0.1400 
 17 N       -7.1770    -4.9450     1.6560 N.am  1 <1>  -0.6600 
 18 C       -7.9620    -5.2420     0.5670 C.2   1 <1>   0.5690 
 19 O       -7.6250    -6.0780    -0.2400 O.2   1 <1>  -0.5700 
 20 C       -9.2730    -4.5060     0.3280 C.3   1 <1>  -0.0990 
 21 C       -9.7570    -4.5700    -1.1280 C.3   1 <1>  -0.0170 
 22 C      -10.9800    -3.6880    -1.3090 C.ar  1 <1>  -0.1440 
 23 C      -10.8340    -2.3730    -1.7230 C.ar  1 <1>  -0.1500 
 24 C      -12.2500    -4.1850    -1.0570 C.ar  1 <1>  -0.1500 
 25 C      -11.9460    -1.5650    -1.8800 C.ar  1 <1>  -0.1500 
 26 C      -13.3640    -3.3780    -1.2140 C.ar  1 <1>  -0.1500 
 27 C      -13.2160    -2.0570    -1.6280 C.ar  1 <1>   0.0820 
 28 O      -14.2530    -1.2000    -1.8070 O.3   1 <1>  -0.3620 
 29 C      -15.5860    -1.6160    -1.6230 C.3   1 <1>   0.0400 
 30 H       -4.4790    -3.5290    -3.0680 H     1 <1>   0.1500 
 31 H       -3.8310    -4.5320    -0.9440 H     1 <1>   0.1500 
 32 H       -6.3640    -0.8930     1.6500 H     1 <1>   0.0800 
 33 H       -7.8510    -1.7180     1.3220 H     1 <1>   0.0800 
 34 H       -3.8220    -4.4050     1.5250 H     1 <1>   0.0800 
 35 H       -6.7800    -2.1500     3.5750 H     1 <1>   0.0800 
 36 H       -5.5250    -5.8660     2.5900 H     1 <1>   0.0800 
 37 H       -5.5270    -6.0280     0.8590 H     1 <1>   0.0800 
 38 H       -4.8870    -3.7100     3.6570 H     1 <1>   0.0800 
 39 H       -4.4500    -2.3260     2.6890 H     1 <1>   0.0800 
 40 H       -8.5390    -3.6470     2.6640 H     1 <1>   0.0800 
 41 H       -7.4090    -4.4700     3.6830 H     1 <1>   0.0800 
 42 H      -10.0240    -4.9200     0.9740 H     1 <1>   0.0800 
 43 H       -9.1450    -3.4710     0.5740 H     1 <1>   0.0800 
 44 H       -9.9930    -5.5860    -1.3920 H     1 <1>   0.0800 
 45 H       -8.9720    -4.2370    -1.7860 H     1 <1>   0.0800 
 46 H       -9.8560    -1.9690    -1.9270 H     1 <1>   0.1500 
 47 H      -12.3730    -5.2040    -0.7380 H     1 <1>   0.1500 
 48 H      -11.8320    -0.5460    -2.2010 H     1 <1>   0.1500 
 49 H      -14.3320    -3.7930    -1.0110 H     1 <1>   0.1500 
 50 H      -16.2290    -0.7810    -1.8360 H     1 <1>   0.0800 
 51 H      -15.7170    -1.9270    -0.6020 H     1 <1>   0.0800 
 52 H      -15.7960    -2.4230    -2.3030 H     1 <1>   0.0800 
@<TRIPOS>BOND
  1   1   2  2   
  2   2   3  2   
  3   2   4  1   
  4   4   5  1   
  5   4   6  2   
  6   5   7  2   
  7   5   8  am  
  8   6   9  1   
  9   6  30  1   
 10   8  10  1   
 11   8  11  1   
 12   9  10  2   
 13   9  31  1   
 14  10  12  1   
 15  11  13  1   
 16  11  32  1   
 17  11  33  1   
 18  12  14  1   
 19  12  15  1   
 20  12  34  1   
 21  13  15  1   
 22  13  16  1   
 23  13  35  1   
 24  14  17  1   
 25  14  36  1   
 26  14  37  1   
 27  15  38  1   
 28  15  39  1   
 29  16  17  1   
 30  16  40  1   
 31  16  41  1   
 32  17  18  am  
 33  18  19  2   
 34  18  20  1   
 35  20  21  1   
 36  20  42  1   
 37  20  43  1   
 38  21  22  1   
 39  21  44  1   
 40  21  45  1   
 41  22  23  ar  
 42  22  24  ar  
 43  23  25  ar  
 44  23  46  1   
 45  24  26  ar  
 46  24  47  1   
 47  25  27  ar  
 48  25  48  1   
 49  26  27  ar  
 50  26  49  1   
 51  27  28  1   
 52  28  29  1   
 53  29  50  1   
 54  29  51  1   
 55  29  52  1   
@<TRIPOS>SUBSTRUCTURE
  1 ****  20 GROUP 4 **** **** 0

# MOE 2024.06 (io_trps.svl 2023.06)
