@<TRIPOS>MOLECULE
NONAME
41 43 1 0 0 
SMALL
USER_CHARGES


@<TRIPOS>ATOM
  1 S       -0.2540     0.2280    -0.5270 S.3   1 <1>  -0.0800 
  2 C       -0.4540     1.4220     0.7540 C.2   1 <1>   0.3250 
  3 C       -1.1540    -0.9320     0.3980 C.2   1 <1>  -0.1400 
  4 N       -1.1070     0.9490     1.7600 N.2   1 <1>  -0.5650 
  5 C        0.1400     2.7290     0.6090 C.ar  1 <1>   0.0530 
  6 C       -1.5020    -0.3550     1.5590 C.2   1 <1>   0.0770 
  7 C       -1.3660    -2.2910    -0.2350 C.3   1 <1>   0.5230 
  8 C        0.0200     3.5160    -0.5480 C.ar  1 <1>   0.0820 
  9 C        0.8700     3.2530     1.6770 C.ar  1 <1>  -0.1500 
 10 N       -2.2870    -3.1050     0.6060 N.4   1 <1>  -0.9590 
 11 O       -0.7340     3.0380    -1.5700 O.3   1 <1>  -0.3620 
 12 C        0.6460     4.7590    -0.6190 C.ar  1 <1>  -0.1500 
 13 C        1.4830     4.4880     1.6040 C.ar  1 <1>  -0.1500 
 14 C       -2.3640    -4.5500     0.1390 C.3   1 <1>   0.3170 
 15 C       -3.6950    -2.6500     0.5040 C.3   1 <1>   0.3430 
 16 C       -0.9440     3.7540    -2.7670 C.3   1 <1>   0.0400 
 17 C        1.3760     5.2410     0.4500 C.ar  1 <1>  -0.1500 
 18 C       -2.2320    -4.7290    -1.3940 C.2   1 <1>   0.9060 
 19 C       -3.7340    -5.0500     0.6390 C.3   1 <1>  -0.1600 
 20 C       -4.4790    -3.8080     1.1190 C.3   1 <1>   0.2000 
 21 O       -2.9600    -4.0350    -2.1160 O.co2 1 <1>  -0.9000 
 22 O       -1.3320    -5.4450    -1.8290 O.co2 1 <1>  -0.9000 
 23 O       -4.3380    -3.7370     2.5010 O.3   1 <1>  -0.6800 
 24 H       -2.0650    -0.8180     2.3520 H     1 <1>   0.1500 
 25 H       -0.4170    -2.7930    -0.3330 H     1 <1>   0.0800 
 26 H       -1.7820    -2.1720    -1.2240 H     1 <1>   0.0800 
 27 H        0.9540     2.6740     2.5810 H     1 <1>   0.1500 
 28 H       -2.0160    -3.0940     1.5940 H     1 <1>   0.4500 
 29 H        0.5750     5.3710    -1.4980 H     1 <1>   0.1500 
 30 H        2.0440     4.8650     2.4430 H     1 <1>   0.1500 
 31 H       -1.5730    -5.1260     0.5850 H     1 <1>   0.0800 
 32 H       -3.8720    -1.7270     1.0290 H     1 <1>   0.0800 
 33 H       -3.9680    -2.5420    -0.5350 H     1 <1>   0.0800 
 34 H       -1.5760     3.1620    -3.4040 H     1 <1>   0.0800 
 35 H        0.0040     3.9200    -3.2460 H     1 <1>   0.0800 
 36 H       -1.4300     4.6860    -2.5360 H     1 <1>   0.0800 
 37 H        1.8560     6.2030     0.3890 H     1 <1>   0.1500 
 38 H       -3.6170    -5.7900     1.4100 H     1 <1>   0.0800 
 39 H       -4.2680    -5.5030    -0.1790 H     1 <1>   0.0800 
 40 H       -5.5250    -3.7920     0.8620 H     1 <1>   0.0800 
 41 H       -4.8750    -4.4310     2.9360 H     1 <1>   0.4000 
@<TRIPOS>BOND
  1   1   2  1   
  2   1   3  1   
  3   2   4  2   
  4   2   5  1   
  5   3   6  2   
  6   3   7  1   
  7   4   6  1   
  8   5   8  ar  
  9   5   9  ar  
 10   6  24  1   
 11   7  10  1   
 12   7  25  1   
 13   7  26  1   
 14   8  11  1   
 15   8  12  ar  
 16   9  13  ar  
 17   9  27  1   
 18  10  14  1   
 19  10  15  1   
 20  10  28  1   
 21  11  16  1   
 22  12  17  ar  
 23  12  29  1   
 24  13  17  ar  
 25  13  30  1   
 26  14  18  1   
 27  14  19  1   
 28  14  31  1   
 29  15  20  1   
 30  15  32  1   
 31  15  33  1   
 32  16  34  1   
 33  16  35  1   
 34  16  36  1   
 35  17  37  1   
 36  18  21  ar  
 37  18  22  ar  
 38  19  20  1   
 39  19  38  1   
 40  19  39  1   
 41  20  23  1   
 42  20  40  1   
 43  23  41  1   
@<TRIPOS>SUBSTRUCTURE
  1 ****   3 GROUP 4 **** **** 0

# MOE 2024.06 (io_trps.svl 2023.06)
