@<TRIPOS>MOLECULE
NONAME
42 45 1 0 0 
SMALL
USER_CHARGES


@<TRIPOS>ATOM
  1 O       -1.0390     3.7930     2.6810 O.2   1 <1>  -0.5700 
  2 C       -0.7760     3.3770     1.5690 C.2   1 <1>   0.7150 
  3 N       -1.7950     3.2200     0.6540 N.am  1 <1>  -0.6600 
  4 C        0.5880     3.0690     1.2320 C.2   1 <1>  -0.2370 
  5 C       -3.1670     3.7440     0.9770 C.3   1 <1>   0.1400 
  6 C       -1.6860     2.2830    -0.5050 C.3   1 <1>   0.1400 
  7 N        1.1790     3.4430     0.0560 N.pl3 1 <1>   0.0330 
  8 C        1.5340     2.4080     1.9710 C.2   1 <1>  -0.1500 
  9 C       -4.0390     3.9040    -0.2830 C.3   1 <1>   0.1440 
 10 C       -3.0180     1.5700    -0.7610 C.3   1 <1>  -0.1600 
 11 C        2.4610     3.0060     0.0560 C.2   1 <1>  -0.3020 
 12 C        2.7110     2.3620     1.2270 C.2   1 <1>  -0.1500 
 13 C       -5.3780     4.4940     0.1330 C.ar  1 <1>   0.1670 
 14 C       -4.1890     2.5410    -1.0130 C.3   1 <1>  -0.1600 
 15 C       -3.4700     5.0170    -1.2120 C.3   1 <1>  -0.1600 
 16 N       -6.3360     3.8480     0.7620 N.ar  1 <1>  -0.6200 
 17 C       -5.4780     5.8100    -0.2050 C.ar  1 <1>  -0.1430 
 18 C       -4.2350     6.3130    -0.8900 C.3   1 <1>  -0.0160 
 19 C       -7.4100     4.5770     1.0270 C.ar  1 <1>   0.4770 
 20 C       -6.6380     6.4710     0.1180 C.ar  1 <1>   0.1600 
 21 N       -7.6220     5.8550     0.7390 N.ar  1 <1>  -0.6200 
 22 C       -8.5310     3.8620     1.7420 C.3   1 <1>  -0.0970 
 23 H       -3.0810     4.6920     1.4790 H     1 <1>   0.0800 
 24 H       -3.6480     3.0600     1.6560 H     1 <1>   0.0800 
 25 H       -0.9270     1.5450    -0.3080 H     1 <1>   0.0800 
 26 H       -1.4020     2.8370    -1.3820 H     1 <1>   0.0800 
 27 H        0.7190     3.9840    -0.6840 H     1 <1>   0.2700 
 28 H        1.4000     1.9950     2.9570 H     1 <1>   0.1500 
 29 H       -3.2390     0.9640     0.1010 H     1 <1>   0.0800 
 30 H       -2.9160     0.9040    -1.5990 H     1 <1>   0.0800 
 31 H        3.1350     3.1750    -0.7660 H     1 <1>   0.1500 
 32 H        3.6310     1.9020     1.5440 H     1 <1>   0.1500 
 33 H       -4.3130     2.6950    -2.0700 H     1 <1>   0.0800 
 34 H       -5.0860     2.0500    -0.6750 H     1 <1>   0.0800 
 35 H       -3.6620     4.7740    -2.2420 H     1 <1>   0.0800 
 36 H       -2.4100     5.1560    -1.0940 H     1 <1>   0.0800 
 37 H       -4.4670     6.8690    -1.7820 H     1 <1>   0.0800 
 38 H       -3.6720     6.9280    -0.2090 H     1 <1>   0.0800 
 39 H       -6.7620     7.5100    -0.1310 H     1 <1>   0.1500 
 40 H       -8.1260     3.1850     2.4700 H     1 <1>   0.0800 
 41 H       -9.1090     3.3080     1.0270 H     1 <1>   0.0800 
 42 H       -9.1680     4.5700     2.2390 H     1 <1>   0.0800 
@<TRIPOS>BOND
  1   1   2  2   
  2   2   3  am  
  3   2   4  1   
  4   3   5  1   
  5   3   6  1   
  6   4   7  1   
  7   4   8  2   
  8   5   9  1   
  9   5  23  1   
 10   5  24  1   
 11   6  10  1   
 12   6  25  1   
 13   6  26  1   
 14   7  11  1   
 15   7  27  1   
 16   8  12  1   
 17   8  28  1   
 18   9  13  1   
 19   9  14  1   
 20   9  15  1   
 21  10  14  1   
 22  10  29  1   
 23  10  30  1   
 24  11  12  2   
 25  11  31  1   
 26  12  32  1   
 27  13  16  ar  
 28  13  17  ar  
 29  14  33  1   
 30  14  34  1   
 31  15  18  1   
 32  15  35  1   
 33  15  36  1   
 34  16  19  ar  
 35  17  18  1   
 36  17  20  ar  
 37  18  37  1   
 38  18  38  1   
 39  19  21  ar  
 40  19  22  1   
 41  20  21  ar  
 42  20  39  1   
 43  22  40  1   
 44  22  41  1   
 45  22  42  1   
@<TRIPOS>SUBSTRUCTURE
  1 ****   5 GROUP 4 **** **** 0

# MOE 2024.06 (io_trps.svl 2023.06)
