@<TRIPOS>MOLECULE
NONAME
52 53 1 0 0 
SMALL
USER_CHARGES


@<TRIPOS>ATOM
  1 O        0.3790     3.1820    -1.9510 O.2   1 <1>  -0.5700 
  2 C       -0.3770     4.0150    -1.5070 C.2   1 <1>   0.5690 
  3 N       -1.3900     3.7010    -0.6400 N.am  1 <1>  -0.6600 
  4 C       -0.1260     5.4700    -1.9260 C.3   1 <1>   0.1810 
  5 C       -2.3290     4.7730    -0.1670 C.3   1 <1>   0.3640 
  6 C       -1.4700     2.3470    -0.0230 C.3   1 <1>   0.2200 
  7 O       -1.1340     6.3920    -1.5590 O.3   1 <1>  -0.5600 
  8 C       -3.6540     4.7280    -0.9370 C.ar  1 <1>  -0.1440 
  9 C       -1.7100     6.1860    -0.2760 C.3   1 <1>   0.2610 
 10 C       -2.8940     1.7900    -0.0430 C.3   1 <1>  -0.2400 
 11 C       -0.9090     2.4010     1.3970 C.3   1 <1>  -0.2400 
 12 C       -4.8470     4.8560    -0.2380 C.ar  1 <1>  -0.1500 
 13 C       -3.7000     4.5690    -2.3160 C.ar  1 <1>  -0.1500 
 14 C       -0.7250     6.4820     0.8640 C.2   1 <1>   0.5690 
 15 C       -6.0610     4.8250    -0.9030 C.ar  1 <1>  -0.1500 
 16 C       -4.9120     4.5370    -2.9820 C.ar  1 <1>  -0.1500 
 17 O       -0.8830     5.9520     1.9400 O.2   1 <1>  -0.5700 
 18 N        0.2860     7.3640     0.6240 N.am  1 <1>  -0.7300 
 19 C       -6.0940     4.6650    -2.2770 C.ar  1 <1>  -0.1500 
 20 C        1.4240     7.7470     1.4660 C.3   1 <1>   0.3000 
 21 C        2.2800     8.7520     0.6660 C.3   1 <1>  -0.1600 
 22 C        0.9040     8.4320     2.7320 C.3   1 <1>  -0.2400 
 23 C        2.2300     6.4950     1.8250 C.3   1 <1>  -0.2400 
 24 C        2.8050     8.2620    -0.6970 C.3   1 <1>  -0.2400 
 25 H       -0.0280     5.5100    -2.9950 H     1 <1>   0.0800 
 26 H        0.8010     5.7910    -1.4920 H     1 <1>   0.0800 
 27 H       -2.5590     4.5920     0.8660 H     1 <1>   0.0800 
 28 H       -0.8560     1.6690    -0.5940 H     1 <1>   0.0800 
 29 H       -2.5060     6.9020    -0.1810 H     1 <1>   0.0800 
 30 H       -3.5420     2.3440     0.6100 H     1 <1>   0.0800 
 31 H       -2.8840     0.7680     0.2870 H     1 <1>   0.0800 
 32 H       -3.2840     1.8160    -1.0450 H     1 <1>   0.0800 
 33 H       -1.5180     3.0090     2.0410 H     1 <1>   0.0800 
 34 H        0.0900     2.7980     1.3810 H     1 <1>   0.0800 
 35 H       -0.8690     1.4090     1.8090 H     1 <1>   0.0800 
 36 H       -4.8430     4.9800     0.8310 H     1 <1>   0.1500 
 37 H       -2.7910     4.4680    -2.8810 H     1 <1>   0.1500 
 38 H       -6.9800     4.9240    -0.3530 H     1 <1>   0.1500 
 39 H       -4.9330     4.4120    -4.0510 H     1 <1>   0.1500 
 40 H        0.3200     7.7780    -0.3090 H     1 <1>   0.3700 
 41 H       -7.0370     4.6410    -2.7950 H     1 <1>   0.1500 
 42 H        1.7050     9.6480     0.5090 H     1 <1>   0.0800 
 43 H        3.1260     9.0320     1.2690 H     1 <1>   0.0800 
 44 H        1.7270     8.7780     3.3300 H     1 <1>   0.0800 
 45 H        0.3290     7.7460     3.3280 H     1 <1>   0.0800 
 46 H        0.2860     9.2740     2.4800 H     1 <1>   0.0800 
 47 H        3.1320     6.7710     2.3400 H     1 <1>   0.0800 
 48 H        2.4920     5.9390     0.9450 H     1 <1>   0.0800 
 49 H        1.6620     5.8550     2.4760 H     1 <1>   0.0800 
 50 H        1.9980     8.0130    -1.3620 H     1 <1>   0.0800 
 51 H        3.4380     7.4010    -0.5800 H     1 <1>   0.0800 
 52 H        3.3870     9.0400    -1.1590 H     1 <1>   0.0800 
@<TRIPOS>BOND
  1   1   2  2   
  2   2   3  am  
  3   2   4  1   
  4   3   5  1   
  5   3   6  1   
  6   4   7  1   
  7   4  25  1   
  8   4  26  1   
  9   5   8  1   
 10   5   9  1   
 11   5  27  1   
 12   6  10  1   
 13   6  11  1   
 14   6  28  1   
 15   7   9  1   
 16   8  12  ar  
 17   8  13  ar  
 18   9  14  1   
 19   9  29  1   
 20  10  30  1   
 21  10  31  1   
 22  10  32  1   
 23  11  33  1   
 24  11  34  1   
 25  11  35  1   
 26  12  15  ar  
 27  12  36  1   
 28  13  16  ar  
 29  13  37  1   
 30  14  17  2   
 31  14  18  am  
 32  15  19  ar  
 33  15  38  1   
 34  16  19  ar  
 35  16  39  1   
 36  18  20  1   
 37  18  40  1   
 38  19  41  1   
 39  20  21  1   
 40  20  22  1   
 41  20  23  1   
 42  21  24  1   
 43  21  42  1   
 44  21  43  1   
 45  22  44  1   
 46  22  45  1   
 47  22  46  1   
 48  23  47  1   
 49  23  48  1   
 50  23  49  1   
 51  24  50  1   
 52  24  51  1   
 53  24  52  1   
@<TRIPOS>SUBSTRUCTURE
  1 ****   9 GROUP 4 **** **** 0

# MOE 2024.06 (io_trps.svl 2023.06)
