@<TRIPOS>MOLECULE
NONAME
45 46 1 0 0 
SMALL
USER_CHARGES


@<TRIPOS>ATOM
  1 S        1.2190     0.4800     0.9970 S.o2  1 <1>   1.3330 
  2 O        1.1210    -0.9590     1.1020 O.2   1 <1>  -0.6500 
  3 O        1.5280     1.2620     2.1750 O.2   1 <1>  -0.6500 
  4 N       -0.2450     1.0510     0.3560 N.am  1 <1>  -0.8490 
  5 C        2.4120     0.8930    -0.2720 C.3   1 <1>  -0.0550 
  6 C       -1.2280     1.3480     1.4020 C.3   1 <1>   0.1160 
  7 C       -0.8360     0.1540    -0.6420 C.3   1 <1>   0.1160 
  8 C        3.8570     0.5560     0.1300 C.3   1 <1>  -0.0800 
  9 C        4.8680     1.0120    -0.8990 C.3   1 <1>   0.2200 
 10 C        4.1760    -0.9280     0.2430 C.3   1 <1>   0.1200 
 11 N        5.1710     2.4410    -0.6880 N.am  1 <1>  -0.7300 
 12 C        6.0530     0.0850    -0.6460 C.3   1 <1>   0.1200 
 13 O        5.5520    -1.0310     0.0370 O.3   1 <1>  -0.5600 
 14 C        4.5800     3.4490    -1.3930 C.2   1 <1>   0.5440 
 15 O        4.1130     3.1880    -2.4850 O.2   1 <1>  -0.5700 
 16 C        4.4850     4.7880    -0.8440 C.ar  1 <1>   0.0860 
 17 C        4.2370     5.0340     0.5170 C.ar  1 <1>   0.0820 
 18 C        4.6170     5.8910    -1.6890 C.ar  1 <1>  -0.1500 
 19 O        4.0800     3.9750     1.3510 O.3   1 <1>  -0.3630 
 20 C        4.1450     6.3410     0.9890 C.ar  1 <1>  -0.1500 
 21 C        4.5230     7.1850    -1.2160 C.ar  1 <1>  -0.1500 
 22 C        3.3720     4.0700     2.5700 C.3   1 <1>   0.0400 
 23 C        4.2870     7.4120     0.1270 C.ar  1 <1>  -0.1500 
 24 H        2.1670     0.3840    -1.1830 H     1 <1>   0.0800 
 25 H        2.3490     1.9470    -0.4630 H     1 <1>   0.0800 
 26 H       -2.1350     1.7280     0.9650 H     1 <1>   0.0800 
 27 H       -0.8390     2.0980     2.0710 H     1 <1>   0.0800 
 28 H       -1.4500     0.4600     1.9700 H     1 <1>   0.0800 
 29 H       -1.7160     0.6050    -1.0680 H     1 <1>   0.0800 
 30 H       -1.1070    -0.7870    -0.1900 H     1 <1>   0.0800 
 31 H       -0.1340    -0.0330    -1.4360 H     1 <1>   0.0800 
 32 H        4.0800     1.0090     1.0820 H     1 <1>   0.0800 
 33 H        4.5040     0.8430    -1.9000 H     1 <1>   0.0800 
 34 H        3.6840    -1.4990    -0.5260 H     1 <1>   0.0800 
 35 H        3.9320    -1.3320     1.2120 H     1 <1>   0.0800 
 36 H        5.4210     2.6770     0.2770 H     1 <1>   0.3700 
 37 H        6.7900     0.5500    -0.0160 H     1 <1>   0.0800 
 38 H        6.5000    -0.2450    -1.5670 H     1 <1>   0.0800 
 39 H        4.7950     5.7200    -2.7370 H     1 <1>   0.1500 
 40 H        3.9660     6.5430     2.0280 H     1 <1>   0.1500 
 41 H        4.6300     8.0170    -1.8920 H     1 <1>   0.1500 
 42 H        3.2420     3.0760     2.9600 H     1 <1>   0.0800 
 43 H        2.4100     4.5130     2.3820 H     1 <1>   0.0800 
 44 H        3.9420     4.6600     3.2650 H     1 <1>   0.0800 
 45 H        4.2150     8.4200     0.4980 H     1 <1>   0.1500 
@<TRIPOS>BOND
  1   1   2  2   
  2   1   3  2   
  3   1   4  am  
  4   1   5  1   
  5   4   6  1   
  6   4   7  1   
  7   5   8  1   
  8   5  24  1   
  9   5  25  1   
 10   6  26  1   
 11   6  27  1   
 12   6  28  1   
 13   7  29  1   
 14   7  30  1   
 15   7  31  1   
 16   8   9  1   
 17   8  10  1   
 18   8  32  1   
 19   9  11  1   
 20   9  12  1   
 21   9  33  1   
 22  10  13  1   
 23  10  34  1   
 24  10  35  1   
 25  11  14  am  
 26  11  36  1   
 27  12  13  1   
 28  12  37  1   
 29  12  38  1   
 30  14  15  2   
 31  14  16  1   
 32  16  17  ar  
 33  16  18  ar  
 34  17  19  1   
 35  17  20  ar  
 36  18  21  ar  
 37  18  39  1   
 38  19  22  1   
 39  20  23  ar  
 40  20  40  1   
 41  21  23  ar  
 42  21  41  1   
 43  22  42  1   
 44  22  43  1   
 45  22  44  1   
 46  23  45  1   
@<TRIPOS>SUBSTRUCTURE
  1 ****   5 GROUP 4 **** **** 0

# MOE 2024.06 (io_trps.svl 2023.06)
