@<TRIPOS>MOLECULE
NONAME
55 58 1 0 0 
SMALL
USER_CHARGES


@<TRIPOS>ATOM
  1 O        3.6500     0.2900     1.3880 O.2   1 <1>  -0.5700 
  2 C        2.8360    -0.3700     0.7610 C.2   1 <1>   0.5440 
  3 N        2.4510     0.1600    -0.4480 N.am  1 <1>  -0.6600 
  4 C        2.4450    -1.6970     1.1990 C.ar  1 <1>   0.0860 
  5 C        2.9740    -0.4530    -1.7100 C.3   1 <1>   0.1400 
  6 C        1.9610     1.5630    -0.5630 C.3   1 <1>   0.1400 
  7 C        1.2810    -2.3440     0.7210 C.ar  1 <1>   0.0000 
  8 C        3.2270    -2.4030     2.1050 C.ar  1 <1>  -0.1500 
  9 C        4.4850    -0.1750    -1.8800 C.3   1 <1>   0.3430 
 10 C        3.1020     2.5970    -0.5920 C.3   1 <1>  -0.1600 
 11 C        0.9840    -3.6480     1.1170 C.ar  1 <1>  -0.1520 
 12 C        0.2280    -1.9630    -0.1420 C.2   1 <1>  -0.1500 
 13 C        2.9170    -3.7020     2.5080 C.ar  1 <1>  -0.1500 
 14 N        4.9140     1.0150    -1.0740 N.4   1 <1>  -0.9590 
 15 C        4.2690     2.2730    -1.5290 C.3   1 <1>   0.3430 
 16 N       -0.1790    -4.0480     0.5030 N.pl3 1 <1>   0.0480 
 17 C        1.8020    -4.3340     2.0150 C.ar  1 <1>  -0.1500 
 18 C       -0.6240    -3.0080    -0.2560 C.2   1 <1>  -0.3020 
 19 C        6.3960     1.1030    -0.9130 C.3   1 <1>   0.3430 
 20 C       -0.8460    -5.3510     0.6640 C.3   1 <1>   0.0160 
 21 C        6.7800     1.8790     0.3500 C.3   1 <1>   0.0960 
 22 N        8.2460     1.9390     0.4380 N.pl3 1 <1>   0.3140 
 23 N        9.0060     1.9160    -0.6720 N.2   1 <1>  -0.7070 
 24 C        9.0040     2.0280     1.5530 C.2   1 <1>  -0.3320 
 25 C       10.2280     1.9920    -0.2400 C.2   1 <1>   0.1390 
 26 C       10.2900     2.0640     1.1450 C.2   1 <1>  -0.1500 
 27 C        8.4750     2.0810     2.9780 C.3   1 <1>  -0.0600 
 28 H        2.4360    -0.0560    -2.5530 H     1 <1>   0.0800 
 29 H        2.8050    -1.5170    -1.6960 H     1 <1>   0.0800 
 30 H        1.3180     1.7750     0.2760 H     1 <1>   0.0800 
 31 H        1.3630     1.6530    -1.4540 H     1 <1>   0.0800 
 32 H        4.1090    -1.9430     2.5160 H     1 <1>   0.1500 
 33 H        4.7210    -0.0360    -2.9220 H     1 <1>   0.0800 
 34 H        5.0230    -1.0430    -1.5360 H     1 <1>   0.0800 
 35 H        3.4760     2.7370     0.4070 H     1 <1>   0.0800 
 36 H        2.6820     3.5410    -0.8900 H     1 <1>   0.0800 
 37 H        0.1280    -1.0030    -0.6120 H     1 <1>   0.1500 
 38 H        3.5590    -4.2060     3.2110 H     1 <1>   0.1500 
 39 H        4.4950     0.8300    -0.1330 H     1 <1>   0.4500 
 40 H        4.9800     3.0830    -1.4990 H     1 <1>   0.0800 
 41 H        3.9170     2.1720    -2.5430 H     1 <1>   0.0800 
 42 H        1.5570    -5.3370     2.3170 H     1 <1>   0.1500 
 43 H       -1.5320    -3.0700    -0.8300 H     1 <1>   0.1500 
 44 H        6.8320     1.5790    -1.7760 H     1 <1>   0.0800 
 45 H        6.8110     0.1110    -0.8310 H     1 <1>   0.0800 
 46 H       -0.1720    -6.1320     0.3640 H     1 <1>   0.0800 
 47 H       -1.7280    -5.3830     0.0520 H     1 <1>   0.0800 
 48 H       -1.1190    -5.4830     1.6940 H     1 <1>   0.0800 
 49 H        6.3980     1.3820     1.2220 H     1 <1>   0.0800 
 50 H        6.4100     2.8860     0.3090 H     1 <1>   0.0800 
 51 H       11.0900     2.0000    -0.8870 H     1 <1>   0.1500 
 52 H       11.1880     2.1340     1.7330 H     1 <1>   0.1500 
 53 H        7.8280     2.9310     3.1070 H     1 <1>   0.0800 
 54 H        9.2930     2.1710     3.6710 H     1 <1>   0.0800 
 55 H        7.9310     1.1830     3.2120 H     1 <1>   0.0800 
@<TRIPOS>BOND
  1   1   2  2   
  2   2   3  am  
  3   2   4  1   
  4   3   5  1   
  5   3   6  1   
  6   4   7  ar  
  7   4   8  ar  
  8   5   9  1   
  9   5  28  1   
 10   5  29  1   
 11   6  10  1   
 12   6  30  1   
 13   6  31  1   
 14   7  11  ar  
 15   7  12  1   
 16   8  13  ar  
 17   8  32  1   
 18   9  14  1   
 19   9  33  1   
 20   9  34  1   
 21  10  15  1   
 22  10  35  1   
 23  10  36  1   
 24  11  16  1   
 25  11  17  ar  
 26  12  18  2   
 27  12  37  1   
 28  13  17  ar  
 29  13  38  1   
 30  14  15  1   
 31  14  19  1   
 32  14  39  1   
 33  15  40  1   
 34  15  41  1   
 35  16  18  1   
 36  16  20  1   
 37  17  42  1   
 38  18  43  1   
 39  19  21  1   
 40  19  44  1   
 41  19  45  1   
 42  20  46  1   
 43  20  47  1   
 44  20  48  1   
 45  21  22  1   
 46  21  49  1   
 47  21  50  1   
 48  22  23  1   
 49  22  24  1   
 50  23  25  2   
 51  24  26  2   
 52  24  27  1   
 53  25  26  1   
 54  25  51  1   
 55  26  52  1   
 56  27  53  1   
 57  27  54  1   
 58  27  55  1   
@<TRIPOS>SUBSTRUCTURE
  1 ****   2 GROUP 4 **** **** 0

# MOE 2024.06 (io_trps.svl 2023.06)
