@<TRIPOS>MOLECULE
NONAME
57 60 1 0 0 
SMALL
USER_CHARGES


@<TRIPOS>ATOM
  1 O        0.5880    -0.9120    -1.0650 O.2   1 <1>  -0.5700 
  2 C        1.5070    -1.1070    -0.3040 C.2   1 <1>   0.5690 
  3 N        2.2860    -0.1300     0.2280 N.am  1 <1>  -0.4930 
  4 C        1.8250    -2.5550     0.0620 C.3   1 <1>  -0.0190 
  5 C        2.3410     1.2600    -0.0320 C.2   1 <1>   0.0630 
  6 C        2.2260    -3.3570    -1.1910 C.3   1 <1>  -0.1600 
  7 C        0.6240    -3.2210     0.7610 C.3   1 <1>  -0.1600 
  8 C        3.5500     1.9600     0.0200 C.2   1 <1>   0.3720 
  9 C        1.4110     2.1910    -0.3400 C.2   1 <1>  -0.3320 
 10 C        2.4270    -4.8390    -0.8880 C.3   1 <1>   0.3430 
 11 C        0.8580    -4.7060     1.0220 C.3   1 <1>   0.3430 
 12 N        3.4100     3.2180    -0.2520 N.2   1 <1>  -0.7070 
 13 N        4.7840     1.3570     0.3370 N.pl3 1 <1>  -0.8210 
 14 N        2.0850     3.3600    -0.4860 N.pl3 1 <1>   0.3140 
 15 C       -0.0970     2.0560    -0.4960 C.3   1 <1>  -0.0600 
 16 N        1.1950    -5.3900    -0.2610 N.4   1 <1>  -0.9590 
 17 C        5.7190     1.3960    -0.8210 C.3   1 <1>   0.2090 
 18 C        5.4530     2.0360     1.4850 C.3   1 <1>   0.2090 
 19 C        1.5250     4.6680    -0.8470 C.3   1 <1>   0.0160 
 20 C        1.2810    -6.8710    -0.0920 C.3   1 <1>   0.5230 
 21 C        7.0830     1.7520    -0.2510 C.3   1 <1>  -0.1600 
 22 C        6.7510     2.6230     0.9480 C.3   1 <1>  -0.1600 
 23 C       -0.1110    -7.4580     0.0610 C.2   1 <1>  -0.0400 
 24 O       -0.7920    -7.2250     1.1680 O.3   1 <1>  -0.2800 
 25 C       -0.8310    -8.2330    -0.7800 C.2   1 <1>  -0.1500 
 26 C       -1.9530    -7.8400     1.0610 C.2   1 <1>  -0.0100 
 27 C       -2.0420    -8.4820    -0.1220 C.2   1 <1>  -0.1500 
 28 H        3.1440    -0.4120     0.7060 H     1 <1>   0.3700 
 29 H        2.6560    -2.5580     0.7460 H     1 <1>   0.0800 
 30 H        3.1370    -2.9510    -1.5960 H     1 <1>   0.0800 
 31 H        1.4690    -3.2530    -1.9500 H     1 <1>   0.0800 
 32 H       -0.2620    -3.1080     0.1590 H     1 <1>   0.0800 
 33 H        0.4350    -2.7240     1.6970 H     1 <1>   0.0800 
 34 H        3.2650    -4.9610    -0.2200 H     1 <1>   0.0800 
 35 H        2.6440    -5.3630    -1.8060 H     1 <1>   0.0800 
 36 H       -0.0360    -5.1290     1.4510 H     1 <1>   0.0800 
 37 H        1.6630    -4.8300     1.7280 H     1 <1>   0.0800 
 38 H       -0.4420     1.1490    -0.0350 H     1 <1>   0.0800 
 39 H       -0.3590     2.0320    -1.5380 H     1 <1>   0.0800 
 40 H       -0.6030     2.8770    -0.0210 H     1 <1>   0.0800 
 41 H        0.4030    -5.2220    -0.8970 H     1 <1>   0.4500 
 42 H        5.4130     2.1520    -1.5260 H     1 <1>   0.0800 
 43 H        5.7420     0.4420    -1.3180 H     1 <1>   0.0800 
 44 H        5.6680     1.2990     2.2390 H     1 <1>   0.0800 
 45 H        4.8330     2.8040     1.9170 H     1 <1>   0.0800 
 46 H        0.9170     4.5610    -1.7250 H     1 <1>   0.0800 
 47 H        2.3280     5.3530    -1.0450 H     1 <1>   0.0800 
 48 H        0.9330     5.0330    -0.0290 H     1 <1>   0.0800 
 49 H        1.8780    -7.1200     0.7690 H     1 <1>   0.0800 
 50 H        1.7390    -7.3100    -0.9630 H     1 <1>   0.0800 
 51 H        7.6970     2.2600    -0.9720 H     1 <1>   0.0800 
 52 H        7.5780     0.8520     0.0700 H     1 <1>   0.0800 
 53 H        7.5290     2.6270     1.6890 H     1 <1>   0.0800 
 54 H        6.5620     3.6330     0.6250 H     1 <1>   0.0800 
 55 H       -0.5800    -8.6120    -1.7560 H     1 <1>   0.1500 
 56 H       -2.6600    -7.7740     1.8720 H     1 <1>   0.1500 
 57 H       -2.8570    -9.0720    -0.5070 H     1 <1>   0.1500 
@<TRIPOS>BOND
  1   1   2  2   
  2   2   3  am  
  3   2   4  1   
  4   3   5  1   
  5   3  28  1   
  6   4   6  1   
  7   4   7  1   
  8   4  29  1   
  9   5   8  1   
 10   5   9  2   
 11   6  10  1   
 12   6  30  1   
 13   6  31  1   
 14   7  11  1   
 15   7  32  1   
 16   7  33  1   
 17   8  12  2   
 18   8  13  1   
 19   9  14  1   
 20   9  15  1   
 21  10  16  1   
 22  10  34  1   
 23  10  35  1   
 24  11  16  1   
 25  11  36  1   
 26  11  37  1   
 27  12  14  1   
 28  13  17  1   
 29  13  18  1   
 30  14  19  1   
 31  15  38  1   
 32  15  39  1   
 33  15  40  1   
 34  16  20  1   
 35  16  41  1   
 36  17  21  1   
 37  17  42  1   
 38  17  43  1   
 39  18  22  1   
 40  18  44  1   
 41  18  45  1   
 42  19  46  1   
 43  19  47  1   
 44  19  48  1   
 45  20  23  1   
 46  20  49  1   
 47  20  50  1   
 48  21  22  1   
 49  21  51  1   
 50  21  52  1   
 51  22  53  1   
 52  22  54  1   
 53  23  24  1   
 54  23  25  2   
 55  24  26  1   
 56  25  27  1   
 57  25  55  1   
 58  26  27  2   
 59  26  56  1   
 60  27  57  1   
@<TRIPOS>SUBSTRUCTURE
  1 ****   2 GROUP 4 **** **** 0

# MOE 2024.06 (io_trps.svl 2023.06)
