@<TRIPOS>MOLECULE
NONAME
50 52 1 0 0 
SMALL
USER_CHARGES


@<TRIPOS>ATOM
  1 O        2.1830    -1.7940     1.7070 O.2   1 <1>  -0.5700 
  2 C        2.1500    -1.8220     0.4990 C.2   1 <1>   0.5690 
  3 N        2.1810    -0.6860    -0.2480 N.am  1 <1>  -0.7300 
  4 C        2.0630    -3.1790    -0.2140 C.3   1 <1>   0.1710 
  5 C        2.2180     0.6820     0.2910 C.3   1 <1>   0.2200 
  6 N        0.6890    -3.6750    -0.5030 N.3   1 <1>  -0.8100 
  7 C        0.8880     1.3720    -0.0290 C.3   1 <1>  -0.1600 
  8 C        3.3990     1.4300    -0.3340 C.3   1 <1>  -0.1600 
  9 C       -0.0560    -3.8960     0.7520 C.3   1 <1>   0.2530 
 10 C       -0.0420    -2.8090    -1.4380 C.3   1 <1>   0.0300 
 11 C        0.9050     2.8420     0.4170 C.3   1 <1>  -0.1600 
 12 C        3.4210     2.9000     0.1110 C.3   1 <1>  -0.1600 
 13 C       -1.3240    -4.7010     0.4920 C.ar  1 <1>  -0.1440 
 14 C        2.0900     3.5960    -0.2040 C.3   1 <1>  -0.1600 
 15 C       -1.2650    -6.0740     0.2390 C.ar  1 <1>  -0.0230 
 16 C       -2.5540    -4.0590     0.5170 C.ar  1 <1>  -0.1500 
 17 N       -0.0290    -6.7760     0.1990 N.pl3 1 <1>   0.5930 
 18 C       -2.4500    -6.7720     0.0250 C.ar  1 <1>  -0.1500 
 19 C       -3.7230    -4.7650     0.2950 C.ar  1 <1>  -0.1500 
 20 N        0.4020    -7.5830     1.2040 N.2   1 <1>  -0.7070 
 21 C        0.8470    -6.8270    -0.8330 C.2   1 <1>  -0.3020 
 22 C       -3.6710    -6.1240     0.0490 C.ar  1 <1>  -0.1500 
 23 C        1.5160    -8.0960     0.7850 C.2   1 <1>   0.1390 
 24 C        1.8490    -7.6600    -0.4910 C.2   1 <1>  -0.1500 
 25 H        2.1230    -0.7480    -1.2630 H     1 <1>   0.3700 
 26 H        2.5670    -3.9060     0.3990 H     1 <1>   0.0800 
 27 H        2.6100    -3.1170    -1.1370 H     1 <1>   0.0800 
 28 H        2.3490     0.6490     1.3610 H     1 <1>   0.0800 
 29 H        0.0920     0.8570     0.4800 H     1 <1>   0.0800 
 30 H        0.7040     1.3300    -1.0870 H     1 <1>   0.0800 
 31 H        3.3270     1.3920    -1.4060 H     1 <1>   0.0800 
 32 H        4.3180     0.9560    -0.0350 H     1 <1>   0.0800 
 33 H       -0.3010    -2.9510     1.2070 H     1 <1>   0.0800 
 34 H        0.5610    -4.4390     1.4500 H     1 <1>   0.0800 
 35 H        0.5440    -2.6480    -2.3260 H     1 <1>   0.0800 
 36 H       -0.2670    -1.8600    -0.9820 H     1 <1>   0.0800 
 37 H       -0.9650    -3.2810    -1.7300 H     1 <1>   0.0800 
 38 H        0.9790     2.8870     1.4900 H     1 <1>   0.0800 
 39 H       -0.0160     3.3180     0.1290 H     1 <1>   0.0800 
 40 H        4.2250     3.4170    -0.3860 H     1 <1>   0.0800 
 41 H        3.6050     2.9490     1.1710 H     1 <1>   0.0800 
 42 H        2.1120     4.6040     0.1730 H     1 <1>   0.0800 
 43 H        1.9590     3.6480    -1.2720 H     1 <1>   0.0800 
 44 H       -2.6060    -3.0020     0.7120 H     1 <1>   0.1500 
 45 H       -2.4100    -7.8320    -0.1590 H     1 <1>   0.1500 
 46 H       -4.6720    -4.2570     0.3160 H     1 <1>   0.1500 
 47 H        0.6900    -6.2550    -1.7280 H     1 <1>   0.1500 
 48 H       -4.5780    -6.6770    -0.1190 H     1 <1>   0.1500 
 49 H        2.1080    -8.7830     1.3680 H     1 <1>   0.1500 
 50 H        2.7220    -7.9430    -1.0520 H     1 <1>   0.1500 
@<TRIPOS>BOND
  1   1   2  2   
  2   2   3  am  
  3   2   4  1   
  4   3   5  1   
  5   3  25  1   
  6   4   6  1   
  7   4  26  1   
  8   4  27  1   
  9   5   7  1   
 10   5   8  1   
 11   5  28  1   
 12   6   9  1   
 13   6  10  1   
 14   7  11  1   
 15   7  29  1   
 16   7  30  1   
 17   8  12  1   
 18   8  31  1   
 19   8  32  1   
 20   9  13  1   
 21   9  33  1   
 22   9  34  1   
 23  10  35  1   
 24  10  36  1   
 25  10  37  1   
 26  11  14  1   
 27  11  38  1   
 28  11  39  1   
 29  12  14  1   
 30  12  40  1   
 31  12  41  1   
 32  13  15  ar  
 33  13  16  ar  
 34  14  42  1   
 35  14  43  1   
 36  15  17  1   
 37  15  18  ar  
 38  16  19  ar  
 39  16  44  1   
 40  17  20  1   
 41  17  21  1   
 42  18  22  ar  
 43  18  45  1   
 44  19  22  ar  
 45  19  46  1   
 46  20  23  2   
 47  21  24  2   
 48  21  47  1   
 49  22  48  1   
 50  23  24  1   
 51  23  49  1   
 52  24  50  1   
@<TRIPOS>SUBSTRUCTURE
  1 ****   6 GROUP 4 **** **** 0

# MOE 2024.06 (io_trps.svl 2023.06)
