@<TRIPOS>MOLECULE
NONAME
41 42 1 0 0 
SMALL
USER_CHARGES


@<TRIPOS>ATOM
  1 S       -0.2060    -0.6200     0.4900 S.o2  1 <1>   1.0900 
  2 O       -1.0210    -0.7840     1.6700 O.2   1 <1>  -0.6500 
  3 O       -0.1340     0.6430    -0.2120 O.2   1 <1>  -0.6500 
  4 C        1.4600    -1.1280     0.8040 C.3   1 <1>  -0.0550 
  5 C       -0.5560    -1.8710    -0.7280 C.3   1 <1>  -0.0550 
  6 C        1.9000    -1.7590    -0.5040 C.3   1 <1>   0.2000 
  7 C        0.7350    -2.6770    -0.9640 C.3   1 <1>   0.1900 
  8 O        2.1020    -0.7480    -1.4400 O.3   1 <1>  -0.6800 
  9 N        0.6400    -3.9460    -0.1890 N.3   1 <1>  -0.8100 
 10 C       -0.3190    -4.8950    -0.7910 C.3   1 <1>   0.1100 
 11 C        1.9340    -4.6330     0.0120 C.3   1 <1>   0.0300 
 12 C       -1.0390    -5.6660     0.3180 C.3   1 <1>  -0.1600 
 13 C       -2.0510    -6.6480    -0.2720 C.3   1 <1>   0.1200 
 14 O       -2.6620    -7.3420     0.7910 O.3   1 <1>  -0.3630 
 15 C       -3.6050    -8.2910     0.5680 C.ar  1 <1>   0.0830 
 16 C       -4.1480    -8.8990     1.6940 C.ar  1 <1>  -0.1500 
 17 C       -4.0380    -8.6690    -0.7040 C.ar  1 <1>  -0.1500 
 18 C       -5.1170    -9.8800     1.5660 C.ar  1 <1>  -0.1500 
 19 C       -5.0070    -9.6490    -0.8430 C.ar  1 <1>  -0.1500 
 20 C       -5.5280   -10.2350     0.2950 C.ar  1 <1>   0.1900 
 21 F       -6.4420   -11.1600     0.1650 F     1 <1>  -0.1900 
 22 H        2.0950    -0.3130     1.0940 H     1 <1>   0.0800 
 23 H        1.4700    -1.8780     1.5720 H     1 <1>   0.0800 
 24 H       -1.3650    -2.4920    -0.3990 H     1 <1>   0.0800 
 25 H       -0.8420    -1.3940    -1.6450 H     1 <1>   0.0800 
 26 H        2.8350    -2.2820    -0.4160 H     1 <1>   0.0800 
 27 H        0.8610    -2.9150    -2.0080 H     1 <1>   0.0800 
 28 H        1.4600    -0.0070    -1.3320 H     1 <1>   0.4000 
 29 H       -1.0580    -4.3750    -1.3760 H     1 <1>   0.0800 
 30 H        0.1920    -5.5760    -1.4520 H     1 <1>   0.0800 
 31 H        1.7820    -5.6030     0.4530 H     1 <1>   0.0800 
 32 H        2.5570    -4.0750     0.6880 H     1 <1>   0.0800 
 33 H        2.4450    -4.7580    -0.9280 H     1 <1>   0.0800 
 34 H       -1.5540    -4.9690     0.9540 H     1 <1>   0.0800 
 35 H       -0.3270    -6.2170     0.9050 H     1 <1>   0.0800 
 36 H       -1.5600    -7.3660    -0.9050 H     1 <1>   0.0800 
 37 H       -2.8170    -6.1250    -0.8190 H     1 <1>   0.0800 
 38 H       -3.8040    -8.5970     2.6670 H     1 <1>   0.1500 
 39 H       -3.6360    -8.2170    -1.5910 H     1 <1>   0.1500 
 40 H       -5.5450   -10.3580     2.4270 H     1 <1>   0.1500 
 41 H       -5.3560    -9.9560    -1.8120 H     1 <1>   0.1500 
@<TRIPOS>BOND
  1   1   2  2   
  2   1   3  2   
  3   1   4  1   
  4   1   5  1   
  5   4   6  1   
  6   4  22  1   
  7   4  23  1   
  8   5   7  1   
  9   5  24  1   
 10   5  25  1   
 11   6   7  1   
 12   6   8  1   
 13   6  26  1   
 14   7   9  1   
 15   7  27  1   
 16   8  28  1   
 17   9  10  1   
 18   9  11  1   
 19  10  12  1   
 20  10  29  1   
 21  10  30  1   
 22  11  31  1   
 23  11  32  1   
 24  11  33  1   
 25  12  13  1   
 26  12  34  1   
 27  12  35  1   
 28  13  14  1   
 29  13  36  1   
 30  13  37  1   
 31  14  15  1   
 32  15  16  ar  
 33  15  17  ar  
 34  16  18  ar  
 35  16  38  1   
 36  17  19  ar  
 37  17  39  1   
 38  18  20  ar  
 39  18  40  1   
 40  19  20  ar  
 41  19  41  1   
 42  20  21  1   
@<TRIPOS>SUBSTRUCTURE
  1 ****  12 GROUP 4 **** **** 0

# MOE 2024.06 (io_trps.svl 2023.06)
