@<TRIPOS>MOLECULE
NONAME
49 51 1 0 0 
SMALL
USER_CHARGES


@<TRIPOS>ATOM
  1 S        3.4950    -1.5090    -1.3520 S.3   1 <1>  -0.0800 
  2 C        1.9770    -0.8050    -0.8590 C.2   1 <1>   0.1980 
  3 C        2.8840    -3.0680    -0.9070 C.2   1 <1>  -0.1100 
  4 N        1.1330    -1.6510    -0.4220 N.2   1 <1>  -0.5650 
  5 C        1.8440     0.7020    -1.0060 C.3   1 <1>   0.0200 
  6 C        1.6210    -2.9710    -0.4330 C.2   1 <1>   0.1410 
  7 C        0.4620     1.2210    -0.5800 C.3   1 <1>  -0.1600 
  8 C        0.8350    -4.1190     0.0300 C.2   1 <1>   0.7160 
  9 C        0.3520     2.7410    -0.7380 C.3   1 <1>  -0.2400 
 10 O        1.3510    -5.2250    -0.0110 O.2   1 <1>  -0.5700 
 11 N       -0.4770    -4.0530     0.4810 N.am  1 <1>  -0.6600 
 12 C       -1.1030    -5.2480     1.1340 C.3   1 <1>   0.1400 
 13 C       -1.4450    -3.0610    -0.1020 C.3   1 <1>   0.1400 
 14 C       -2.0980    -5.8020     0.1050 C.3   1 <1>   0.4230 
 15 C       -2.9270    -3.3950     0.1680 C.3   1 <1>  -0.1600 
 16 N       -2.4750    -7.2480     0.1890 N.4   1 <1>  -0.9590 
 17 C       -3.3440    -4.9010     0.0990 C.3   1 <1>  -0.1060 
 18 C       -3.2650    -7.6570    -1.0060 C.3   1 <1>   0.3430 
 19 C       -1.3430    -8.1710     0.4690 C.3   1 <1>   0.2630 
 20 C       -4.2280    -5.2110     1.3220 C.2   1 <1>   0.9060 
 21 C       -4.1130    -5.2300    -1.2010 C.3   1 <1>  -0.1600 
 22 C       -4.4670    -6.7300    -1.2440 C.3   1 <1>  -0.1600 
 23 O       -5.2600    -4.5630     1.4830 O.co2 1 <1>  -0.9000 
 24 O       -3.9140    -6.1370     2.0870 O.co2 1 <1>  -0.9000 
 25 H        3.5250    -3.9210    -1.0360 H     1 <1>   0.1500 
 26 H        2.6030     1.1710    -0.4060 H     1 <1>   0.0800 
 27 H        2.0220     0.9610    -2.0350 H     1 <1>   0.0800 
 28 H       -0.2960     0.7440    -1.1780 H     1 <1>   0.0800 
 29 H        0.2850     0.9550     0.4480 H     1 <1>   0.0800 
 30 H        0.5010     3.0270    -1.7650 H     1 <1>   0.0800 
 31 H        1.0860     3.2380    -0.1280 H     1 <1>   0.0800 
 32 H       -0.6250     3.0720    -0.4320 H     1 <1>   0.0800 
 33 H       -0.3540    -5.9700     1.3960 H     1 <1>   0.0800 
 34 H       -1.6050    -4.9480     2.0390 H     1 <1>   0.0800 
 35 H       -1.2420    -2.0870     0.3100 H     1 <1>   0.0800 
 36 H       -1.2850    -3.0070    -1.1660 H     1 <1>   0.0800 
 37 H       -1.6090    -5.6750    -0.8460 H     1 <1>   0.0800 
 38 H       -3.1340    -3.0300     1.1610 H     1 <1>   0.0800 
 39 H       -3.5510    -2.8080    -0.4820 H     1 <1>   0.0800 
 40 H       -3.1250    -7.2360     1.0220 H     1 <1>   0.4500 
 41 H       -2.6270    -7.6290    -1.8750 H     1 <1>   0.0800 
 42 H       -3.6180    -8.6670    -0.8800 H     1 <1>   0.0800 
 43 H       -0.5880    -8.0800    -0.2950 H     1 <1>   0.0800 
 44 H       -1.6940    -9.1890     0.5000 H     1 <1>   0.0800 
 45 H       -0.9020    -7.9360     1.4240 H     1 <1>   0.0800 
 46 H       -5.0220    -4.6510    -1.2370 H     1 <1>   0.0800 
 47 H       -3.5170    -4.9680    -2.0580 H     1 <1>   0.0800 
 48 H       -4.9080    -6.9640    -2.1970 H     1 <1>   0.0800 
 49 H       -5.2150    -6.9420    -0.4970 H     1 <1>   0.0800 
@<TRIPOS>BOND
  1   1   2  1   
  2   1   3  1   
  3   2   4  2   
  4   2   5  1   
  5   3   6  2   
  6   3  25  1   
  7   4   6  1   
  8   5   7  1   
  9   5  26  1   
 10   5  27  1   
 11   6   8  1   
 12   7   9  1   
 13   7  28  1   
 14   7  29  1   
 15   8  10  2   
 16   8  11  am  
 17   9  30  1   
 18   9  31  1   
 19   9  32  1   
 20  11  12  1   
 21  11  13  1   
 22  12  14  1   
 23  12  33  1   
 24  12  34  1   
 25  13  15  1   
 26  13  35  1   
 27  13  36  1   
 28  14  16  1   
 29  14  17  1   
 30  14  37  1   
 31  15  17  1   
 32  15  38  1   
 33  15  39  1   
 34  16  18  1   
 35  16  19  1   
 36  16  40  1   
 37  17  20  1   
 38  17  21  1   
 39  18  22  1   
 40  18  41  1   
 41  18  42  1   
 42  19  43  1   
 43  19  44  1   
 44  19  45  1   
 45  20  23  ar  
 46  20  24  ar  
 47  21  22  1   
 48  21  46  1   
 49  21  47  1   
 50  22  48  1   
 51  22  49  1   
@<TRIPOS>SUBSTRUCTURE
  1 ****  11 GROUP 4 **** **** 0

# MOE 2024.06 (io_trps.svl 2023.06)
