@<TRIPOS>MOLECULE
NONAME
51 53 1 0 0 
SMALL
USER_CHARGES


@<TRIPOS>ATOM
  1 O       -1.2230    -0.0990     0.5650 O.2   1 <1>  -0.5700 
  2 C       -1.8490     0.7850     0.0050 C.2   1 <1>   0.5440 
  3 N       -2.9530     0.4070    -0.7290 N.am  1 <1>  -0.6600 
  4 C       -1.4620     2.1760     0.1530 C.ar  1 <1>   0.0860 
  5 C       -3.1000    -1.0180    -1.1230 C.3   1 <1>   0.1400 
  6 C       -4.2520     1.1110    -0.5530 C.3   1 <1>   0.1400 
  7 C       -0.9440     2.6550     1.3550 C.ar  1 <1>  -0.1500 
  8 C       -1.5950     3.0880    -0.8990 C.ar  1 <1>  -0.1500 
  9 C       -3.8500    -1.7620     0.0040 C.3   1 <1>   0.4230 
 10 C       -5.0370     0.3960     0.5560 C.3   1 <1>  -0.1600 
 11 C       -0.5960     3.9830     1.4990 C.ar  1 <1>   0.0830 
 12 C       -1.2450     4.4200    -0.7600 C.ar  1 <1>  -0.1500 
 13 N       -3.8740    -3.2750    -0.1620 N.4   1 <1>  -0.9590 
 14 C       -5.2440    -1.1270     0.2950 C.3   1 <1>   0.0000 
 15 O       -0.1080     4.4170     2.6730 O.3   1 <1>  -0.5330 
 16 C       -0.7410     4.8850     0.4500 C.ar  1 <1>   0.0830 
 17 C       -4.9150    -3.9640     0.6690 C.3   1 <1>   0.3430 
 18 C       -3.9300    -3.7720    -1.5750 C.3   1 <1>   0.2630 
 19 C       -5.8460    -1.7760     1.5780 C.3   1 <1>  -0.1600 
 20 C       -6.1940    -1.3420    -0.9180 C.3   1 <1>   0.1200 
 21 O       -0.3770     6.1770     0.6730 O.3   1 <1>  -0.3630 
 22 C       -5.2440    -3.1520     1.9200 C.3   1 <1>  -0.1600 
 23 O       -7.3660    -0.6160    -0.7860 O.3   1 <1>  -0.6800 
 24 C       -0.4610     7.1510    -0.3440 C.3   1 <1>   0.0400 
 25 H       -3.6270    -1.0670    -2.0580 H     1 <1>   0.0800 
 26 H       -2.1230    -1.4490    -1.2600 H     1 <1>   0.0800 
 27 H       -4.0920     2.1390    -0.2730 H     1 <1>   0.0800 
 28 H       -4.8030     1.1030    -1.4790 H     1 <1>   0.0800 
 29 H       -0.8100     1.9840     2.1860 H     1 <1>   0.1500 
 30 H       -1.9760     2.7410    -1.8430 H     1 <1>   0.1500 
 31 H       -3.2650    -1.5700     0.8890 H     1 <1>   0.0800 
 32 H       -4.4890     0.5370     1.4730 H     1 <1>   0.0800 
 33 H       -5.9820     0.8930     0.6870 H     1 <1>   0.0800 
 34 H       -1.3690     5.0770    -1.6010 H     1 <1>   0.1500 
 35 H       -2.9640    -3.5740     0.2220 H     1 <1>   0.4500 
 36 H        0.1010     5.3700     2.6060 H     1 <1>   0.4500 
 37 H       -5.8180    -4.0840     0.0940 H     1 <1>   0.0800 
 38 H       -4.5670    -4.9450     0.9510 H     1 <1>   0.0800 
 39 H       -4.8400    -3.4490    -2.0540 H     1 <1>   0.0800 
 40 H       -3.8970    -4.8500    -1.5930 H     1 <1>   0.0800 
 41 H       -3.0910    -3.4010    -2.1410 H     1 <1>   0.0800 
 42 H       -5.6930    -1.1380     2.4330 H     1 <1>   0.0800 
 43 H       -6.9130    -1.8790     1.4740 H     1 <1>   0.0800 
 44 H       -6.4670    -2.3760    -1.0270 H     1 <1>   0.0800 
 45 H       -5.7410    -1.0120    -1.8350 H     1 <1>   0.0800 
 46 H       -5.9440    -3.7020     2.5260 H     1 <1>   0.0800 
 47 H       -4.3490    -3.0290     2.5070 H     1 <1>   0.0800 
 48 H       -7.8920    -0.8980    -0.0110 H     1 <1>   0.4000 
 49 H       -0.1120     8.0850     0.0570 H     1 <1>   0.0800 
 50 H       -1.4880     7.2470    -0.6520 H     1 <1>   0.0800 
 51 H        0.1630     6.8510    -1.1680 H     1 <1>   0.0800 
@<TRIPOS>BOND
  1   1   2  2   
  2   2   3  am  
  3   2   4  1   
  4   3   5  1   
  5   3   6  1   
  6   4   7  ar  
  7   4   8  ar  
  8   5   9  1   
  9   5  25  1   
 10   5  26  1   
 11   6  10  1   
 12   6  27  1   
 13   6  28  1   
 14   7  11  ar  
 15   7  29  1   
 16   8  12  ar  
 17   8  30  1   
 18   9  13  1   
 19   9  14  1   
 20   9  31  1   
 21  10  14  1   
 22  10  32  1   
 23  10  33  1   
 24  11  15  1   
 25  11  16  ar  
 26  12  16  ar  
 27  12  34  1   
 28  13  17  1   
 29  13  18  1   
 30  13  35  1   
 31  14  19  1   
 32  14  20  1   
 33  15  36  1   
 34  16  21  1   
 35  17  22  1   
 36  17  37  1   
 37  17  38  1   
 38  18  39  1   
 39  18  40  1   
 40  18  41  1   
 41  19  22  1   
 42  19  42  1   
 43  19  43  1   
 44  20  23  1   
 45  20  44  1   
 46  20  45  1   
 47  21  24  1   
 48  22  46  1   
 49  22  47  1   
 50  23  48  1   
 51  24  49  1   
 52  24  50  1   
 53  24  51  1   
@<TRIPOS>SUBSTRUCTURE
  1 ****   3 GROUP 4 **** **** 0

# MOE 2024.06 (io_trps.svl 2023.06)
