@<TRIPOS>MOLECULE
NONAME
43 45 1 0 0 
SMALL
USER_CHARGES


@<TRIPOS>ATOM
  1 CL      -2.6850    -1.5620    -3.9170 Cl    1 <1>  -0.1770 
  2 C       -2.8990    -1.9190    -2.2180 C.ar  1 <1>   0.1770 
  3 C       -2.8840    -0.9110    -1.2680 C.ar  1 <1>   0.1900 
  4 C       -3.0860    -3.2300    -1.8220 C.ar  1 <1>  -0.1500 
  5 F       -2.7080     0.3330    -1.6370 F     1 <1>  -0.1900 
  6 C       -3.0530    -1.1840     0.0770 C.ar  1 <1>  -0.1500 
  7 C       -3.2600    -3.5250    -0.4770 C.ar  1 <1>   0.0820 
  8 C       -3.2410    -2.5000     0.4730 C.ar  1 <1>  -0.1500 
  9 O       -3.4430    -4.8320    -0.1680 O.3   1 <1>  -0.3630 
 10 C       -3.6600    -5.2550     1.1720 C.3   1 <1>   0.1810 
 11 C       -3.8690    -6.7650     1.2630 C.2   1 <1>   0.5690 
 12 O       -3.2090    -7.3760     2.0710 O.2   1 <1>  -0.5700 
 13 N       -4.7980    -7.4060     0.4870 N.am  1 <1>  -0.6600 
 14 C       -5.7030    -6.7840    -0.5140 C.3   1 <1>   0.1400 
 15 C       -4.9910    -8.8770     0.5110 C.3   1 <1>   0.1400 
 16 C       -6.7870    -7.8350    -0.7410 C.3   1 <1>   0.2000 
 17 C       -6.0400    -9.1630    -0.5710 C.3   1 <1>  -0.0800 
 18 O       -7.7330    -7.7010     0.2640 O.3   1 <1>  -0.6800 
 19 C       -6.9270   -10.3860    -0.2720 C.3   1 <1>  -0.0170 
 20 C       -6.0950   -11.6570    -0.2070 C.ar  1 <1>  -0.1430 
 21 C       -5.6580   -12.1880     0.9890 C.ar  1 <1>  -0.1500 
 22 C       -5.7310   -12.3440    -1.3480 C.ar  1 <1>  -0.1500 
 23 C       -4.8960   -13.3450     0.9880 C.ar  1 <1>   0.1600 
 24 C       -4.9660   -13.4940    -1.2390 C.ar  1 <1>   0.1600 
 25 N       -4.5380   -14.0100    -0.0990 N.ar  1 <1>  -0.6200 
 26 H       -3.0950    -4.0180    -2.5530 H     1 <1>   0.1500 
 27 H       -3.0350    -0.3820     0.7930 H     1 <1>   0.1500 
 28 H       -3.3680    -2.7030     1.5200 H     1 <1>   0.1500 
 29 H       -2.7980    -4.9830     1.7530 H     1 <1>   0.0800 
 30 H       -4.5310    -4.7540     1.5520 H     1 <1>   0.0800 
 31 H       -6.1160    -5.8520    -0.1680 H     1 <1>   0.0800 
 32 H       -5.1530    -6.6200    -1.4250 H     1 <1>   0.0800 
 33 H       -4.0640    -9.3870     0.3080 H     1 <1>   0.0800 
 34 H       -5.3480    -9.1660     1.4850 H     1 <1>   0.0800 
 35 H       -7.2810    -7.7370    -1.6930 H     1 <1>   0.0800 
 36 H       -5.5070    -9.3530    -1.4860 H     1 <1>   0.0800 
 37 H       -7.2710    -7.6780     1.1260 H     1 <1>   0.4000 
 38 H       -7.6700   -10.4860    -1.0440 H     1 <1>   0.0800 
 39 H       -7.4500   -10.2540     0.6600 H     1 <1>   0.0800 
 40 H       -5.9000   -11.7160     1.9240 H     1 <1>   0.1500 
 41 H       -6.0340   -11.9980    -2.3180 H     1 <1>   0.1500 
 42 H       -4.5620   -13.7440     1.9310 H     1 <1>   0.1500 
 43 H       -4.6910   -14.0170    -2.1390 H     1 <1>   0.1500 
@<TRIPOS>BOND
  1   1   2  1   
  2   2   3  ar  
  3   2   4  ar  
  4   3   5  1   
  5   3   6  ar  
  6   4   7  ar  
  7   4  26  1   
  8   6   8  ar  
  9   6  27  1   
 10   7   8  ar  
 11   7   9  1   
 12   8  28  1   
 13   9  10  1   
 14  10  11  1   
 15  10  29  1   
 16  10  30  1   
 17  11  12  2   
 18  11  13  am  
 19  13  14  1   
 20  13  15  1   
 21  14  16  1   
 22  14  31  1   
 23  14  32  1   
 24  15  17  1   
 25  15  33  1   
 26  15  34  1   
 27  16  17  1   
 28  16  18  1   
 29  16  35  1   
 30  17  19  1   
 31  17  36  1   
 32  18  37  1   
 33  19  20  1   
 34  19  38  1   
 35  19  39  1   
 36  20  21  ar  
 37  20  22  ar  
 38  21  23  ar  
 39  21  40  1   
 40  22  24  ar  
 41  22  41  1   
 42  23  25  ar  
 43  23  42  1   
 44  24  25  ar  
 45  24  43  1   
@<TRIPOS>SUBSTRUCTURE
  1 ****  13 GROUP 4 **** **** 0

# MOE 2024.06 (io_trps.svl 2023.06)
