@<TRIPOS>MOLECULE
NONAME
50 52 1 0 0 
SMALL
USER_CHARGES


@<TRIPOS>ATOM
  1 S        0.5390     0.2210    -0.4120 S.o2  1 <1>   1.3330 
  2 O        1.8750     0.3980    -0.9360 O.2   1 <1>  -0.6500 
  3 O       -0.5450    -0.0720    -1.3230 O.2   1 <1>  -0.6500 
  4 N        0.5860    -1.0100     0.7560 N.am  1 <1>  -0.8490 
  5 C        0.1170     1.6760     0.5420 C.3   1 <1>  -0.0550 
  6 C       -0.7390    -1.5330     1.1060 C.3   1 <1>   0.1160 
  7 C        1.4680    -2.1130     0.3620 C.3   1 <1>   0.1160 
  8 C        0.0420     2.9550    -0.3170 C.3   1 <1>  -0.0800 
  9 C       -0.5510     4.1690     0.3980 C.3   1 <1>   0.2000 
 10 C        1.4120     3.4360    -0.8270 C.3   1 <1>   0.1100 
 11 O       -0.0820     4.2030     1.6990 O.3   1 <1>  -0.6800 
 12 C        0.0970     5.3290    -0.3450 C.3   1 <1>   0.1100 
 13 N        1.4810     4.8780    -0.5490 N.3   1 <1>  -0.8100 
 14 C        2.2310     5.6290    -1.5850 C.3   1 <1>   0.2900 
 15 C        2.4270     7.1070    -1.2550 C.2   1 <1>   0.2980 
 16 O        1.4040     7.9140    -1.3760 O.3   1 <1>  -0.0190 
 17 N        3.5110     7.6580    -0.8870 N.2   1 <1>  -0.5650 
 18 N        1.8740     9.0740    -1.0450 N.2   1 <1>  -0.4100 
 19 C        3.1180     8.9290    -0.7500 C.2   1 <1>   0.4620 
 20 C        4.0190     9.9870    -0.3210 C.ar  1 <1>   0.0540 
 21 C        5.3520     9.7320     0.0040 C.ar  1 <1>  -0.1500 
 22 C        3.5850    11.3100    -0.2160 C.ar  1 <1>  -0.1500 
 23 C        6.2060    10.7420     0.4110 C.ar  1 <1>  -0.1500 
 24 C        4.4340    12.3230     0.1900 C.ar  1 <1>  -0.1500 
 25 C        5.7520    12.0450     0.5080 C.ar  1 <1>  -0.1440 
 26 C        6.6870    13.1550     0.9530 C.3   1 <1>  -0.0970 
 27 H       -0.8360     1.5240     1.0090 H     1 <1>   0.0800 
 28 H        0.8420     1.8100     1.3220 H     1 <1>   0.0800 
 29 H       -0.6540    -2.2470     1.9070 H     1 <1>   0.0800 
 30 H       -1.1920    -2.0130     0.2540 H     1 <1>   0.0800 
 31 H       -1.3800    -0.7330     1.4340 H     1 <1>   0.0800 
 32 H        1.4890    -2.8670     1.1300 H     1 <1>   0.0800 
 33 H        2.4720    -1.7500     0.2210 H     1 <1>   0.0800 
 34 H        1.1270    -2.5540    -0.5600 H     1 <1>   0.0800 
 35 H       -0.5730     2.7520    -1.1760 H     1 <1>   0.0800 
 36 H       -1.6270     4.1950     0.4080 H     1 <1>   0.0800 
 37 H        1.4990     3.2330    -1.8820 H     1 <1>   0.0800 
 38 H        2.2220     2.9430    -0.3140 H     1 <1>   0.0800 
 39 H        0.8660     4.4550     1.6430 H     1 <1>   0.4000 
 40 H        0.0510     6.2410     0.2260 H     1 <1>   0.0800 
 41 H       -0.3930     5.4710    -1.2940 H     1 <1>   0.0800 
 42 H        3.2060     5.1860    -1.6870 H     1 <1>   0.0800 
 43 H        1.7280     5.5480    -2.5320 H     1 <1>   0.0800 
 44 H        5.7280     8.7260    -0.0620 H     1 <1>   0.1500 
 45 H        2.5640    11.5500    -0.4570 H     1 <1>   0.1500 
 46 H        7.2280    10.5070     0.6510 H     1 <1>   0.1500 
 47 H        4.0630    13.3310     0.2580 H     1 <1>   0.1500 
 48 H        7.4320    12.7710     1.6270 H     1 <1>   0.0800 
 49 H        6.1390    13.9290     1.4590 H     1 <1>   0.0800 
 50 H        7.1790    13.5800     0.0970 H     1 <1>   0.0800 
@<TRIPOS>BOND
  1   1   2  2   
  2   1   3  2   
  3   1   4  am  
  4   1   5  1   
  5   4   6  1   
  6   4   7  1   
  7   5   8  1   
  8   5  27  1   
  9   5  28  1   
 10   6  29  1   
 11   6  30  1   
 12   6  31  1   
 13   7  32  1   
 14   7  33  1   
 15   7  34  1   
 16   8   9  1   
 17   8  10  1   
 18   8  35  1   
 19   9  11  1   
 20   9  12  1   
 21   9  36  1   
 22  10  13  1   
 23  10  37  1   
 24  10  38  1   
 25  11  39  1   
 26  12  13  1   
 27  12  40  1   
 28  12  41  1   
 29  13  14  1   
 30  14  15  1   
 31  14  42  1   
 32  14  43  1   
 33  15  16  1   
 34  15  17  2   
 35  16  18  1   
 36  17  19  1   
 37  18  19  2   
 38  19  20  1   
 39  20  21  ar  
 40  20  22  ar  
 41  21  23  ar  
 42  21  44  1   
 43  22  24  ar  
 44  22  45  1   
 45  23  25  ar  
 46  23  46  1   
 47  24  25  ar  
 48  24  47  1   
 49  25  26  1   
 50  26  48  1   
 51  26  49  1   
 52  26  50  1   
@<TRIPOS>SUBSTRUCTURE
  1 ****  13 GROUP 4 **** **** 0

# MOE 2024.06 (io_trps.svl 2023.06)
