@<TRIPOS>MOLECULE
NONAME
47 49 1 0 0 
SMALL
USER_CHARGES


@<TRIPOS>ATOM
  1 CL       2.4140     0.6570     2.8920 Cl    1 <1>  -0.1770 
  2 C        2.7180    -0.5300     1.6500 C.ar  1 <1>   0.1770 
  3 C        2.6380    -1.8740     1.9680 C.ar  1 <1>  -0.1500 
  4 C        3.0330    -0.1110     0.3730 C.ar  1 <1>  -0.1500 
  5 C        2.8730    -2.8410     0.9980 C.ar  1 <1>  -0.1440 
  6 C        3.2690    -1.0620    -0.6010 C.ar  1 <1>  -0.1500 
  7 C        3.1940    -2.4140    -0.2970 C.ar  1 <1>   0.0830 
  8 C        2.7770    -4.2990     1.4490 C.3   1 <1>   0.4870 
  9 O        3.3910    -3.2650    -1.3260 O.3   1 <1>  -0.3630 
 10 N        1.9090    -5.1520     0.5930 N.4   1 <1>  -0.9590 
 11 C        4.6380    -3.9570    -1.4290 C.3   1 <1>   0.0140 
 12 C        0.7700    -4.5230    -0.1230 C.3   1 <1>   0.3430 
 13 C        1.4670    -6.4170     1.2150 C.3   1 <1>   0.3430 
 14 C        4.5070    -5.3670    -0.8930 C.2   1 <1>   0.9060 
 15 C       -0.3770    -5.5400    -0.0740 C.3   1 <1>   0.2000 
 16 C        0.2510    -6.8530     0.3990 C.3   1 <1>  -0.0800 
 17 O        3.6030    -6.0920    -1.3300 O.co2 1 <1>  -0.9000 
 18 O        5.1120    -5.6890     0.1290 O.co2 1 <1>  -0.9000 
 19 O       -1.3110    -5.1280     0.8710 O.3   1 <1>  -0.6800 
 20 C        0.6770    -7.7580    -0.7740 C.3   1 <1>  -0.0170 
 21 C        1.3930    -9.0000    -0.2660 C.ar  1 <1>   0.1670 
 22 N        0.6830    -9.8020     0.5160 N.ar  1 <1>  -0.6200 
 23 C        2.7170    -9.2270    -0.6110 C.ar  1 <1>  -0.1500 
 24 C        1.3160   -10.8780     0.9570 C.ar  1 <1>   0.1600 
 25 C        3.3640   -10.3470    -0.1360 C.ar  1 <1>  -0.1500 
 26 C        2.6330   -11.1930     0.6690 C.ar  1 <1>  -0.1500 
 27 H        2.3940    -2.1420     2.9800 H     1 <1>   0.1500 
 28 H        3.0910     0.9400     0.1500 H     1 <1>   0.1500 
 29 H        3.5100    -0.7620    -1.6060 H     1 <1>   0.1500 
 30 H        2.3820    -4.3090     2.4490 H     1 <1>   0.0800 
 31 H        3.7650    -4.7230     1.5030 H     1 <1>   0.0800 
 32 H        2.5520    -5.4790    -0.1720 H     1 <1>   0.4500 
 33 H        4.9060    -4.0040    -2.4660 H     1 <1>   0.0800 
 34 H        5.3910    -3.4220    -0.8810 H     1 <1>   0.0800 
 35 H        0.4720    -3.5970     0.3380 H     1 <1>   0.0800 
 36 H        1.0610    -4.3360    -1.1450 H     1 <1>   0.0800 
 37 H        2.2540    -7.1550     1.1920 H     1 <1>   0.0800 
 38 H        1.1720    -6.2410     2.2350 H     1 <1>   0.0800 
 39 H       -0.8830    -5.6240    -1.0210 H     1 <1>   0.0800 
 40 H       -0.4340    -7.4110     1.0160 H     1 <1>   0.0800 
 41 H       -0.9630    -5.1970     1.7800 H     1 <1>   0.4000 
 42 H        1.3140    -7.2220    -1.4550 H     1 <1>   0.0800 
 43 H       -0.1940    -8.0710    -1.3220 H     1 <1>   0.0800 
 44 H        3.2480    -8.5340    -1.2410 H     1 <1>   0.1500 
 45 H        0.7540   -11.5480     1.5860 H     1 <1>   0.1500 
 46 H        4.3930   -10.5430    -0.3850 H     1 <1>   0.1500 
 47 H        3.0770   -12.0850     1.0690 H     1 <1>   0.1500 
@<TRIPOS>BOND
  1   1   2  1   
  2   2   3  ar  
  3   2   4  ar  
  4   3   5  ar  
  5   3  27  1   
  6   4   6  ar  
  7   4  28  1   
  8   5   7  ar  
  9   5   8  1   
 10   6   7  ar  
 11   6  29  1   
 12   7   9  1   
 13   8  10  1   
 14   8  30  1   
 15   8  31  1   
 16   9  11  1   
 17  10  12  1   
 18  10  13  1   
 19  10  32  1   
 20  11  14  1   
 21  11  33  1   
 22  11  34  1   
 23  12  15  1   
 24  12  35  1   
 25  12  36  1   
 26  13  16  1   
 27  13  37  1   
 28  13  38  1   
 29  14  17  ar  
 30  14  18  ar  
 31  15  16  1   
 32  15  19  1   
 33  15  39  1   
 34  16  20  1   
 35  16  40  1   
 36  19  41  1   
 37  20  21  1   
 38  20  42  1   
 39  20  43  1   
 40  21  22  ar  
 41  21  23  ar  
 42  22  24  ar  
 43  23  25  ar  
 44  23  44  1   
 45  24  26  ar  
 46  24  45  1   
 47  25  26  ar  
 48  25  46  1   
 49  26  47  1   
@<TRIPOS>SUBSTRUCTURE
  1 ****  10 GROUP 4 **** **** 0

# MOE 2024.06 (io_trps.svl 2023.06)
