@<TRIPOS>MOLECULE
NONAME
57 61 1 0 0 
SMALL
USER_CHARGES


@<TRIPOS>ATOM
  1 O        0.1140    -0.4350    -0.3910 O.2   1 <1>  -0.5700 
  2 C       -0.2490     0.6360     0.0360 C.2   1 <1>   0.5690 
  3 N       -1.5730     1.0020     0.0580 N.am  1 <1>  -0.6600 
  4 C        0.8340     1.5620     0.5540 C.3   1 <1>  -0.0990 
  5 C       -2.0890     2.3410     0.5090 C.3   1 <1>   0.1400 
  6 C       -2.6440     0.0090    -0.2490 C.3   1 <1>   0.1400 
  7 C        1.3240     2.5040    -0.5490 C.3   1 <1>   0.0210 
  8 C       -3.1010     2.9390    -0.4890 C.3   1 <1>   0.1440 
  9 C       -3.6480     0.5810    -1.2560 C.3   1 <1>  -0.1600 
 10 C        1.9630     3.7350     0.0530 C.2   1 <1>   0.1080 
 11 C       -3.6160     4.2440     0.0910 C.ar  1 <1>   0.1660 
 12 C       -4.2260     1.9240    -0.7780 C.3   1 <1>  -0.1600 
 13 C       -2.4080     3.4200    -1.7900 C.3   1 <1>  -0.1600 
 14 N        1.2650     4.7750     0.3980 N.2   1 <1>  -0.7070 
 15 C        3.3180     3.9040     0.3170 C.2   1 <1>  -0.1810 
 16 N       -4.5010     4.3610     1.0560 N.ar  1 <1>  -0.6200 
 17 C       -3.0250     5.3190    -0.5050 C.ar  1 <1>  -0.1430 
 18 C       -2.0410     4.8980    -1.5690 C.3   1 <1>  -0.0170 
 19 N        2.1700     5.6430     0.8950 N.pl3 1 <1>   0.3000 
 20 C        3.4170     5.1340     0.8500 C.2   1 <1>  -0.3320 
 21 C        4.5010     2.9800     0.0950 C.3   1 <1>   0.0210 
 22 C       -4.7780     5.6120     1.3950 C.ar  1 <1>   0.4770 
 23 C       -3.3840     6.5700    -0.0710 C.ar  1 <1>   0.1600 
 24 C        4.7020     5.7900     1.3150 C.3   1 <1>   0.0200 
 25 C        5.7160     3.4750     0.9040 C.3   1 <1>  -0.1600 
 26 N       -4.2730     6.7290     0.8890 N.ar  1 <1>  -0.6200 
 27 C       -5.7960     5.7970     2.4950 C.3   1 <1>  -0.0970 
 28 C        5.9110     5.0010     0.7770 C.3   1 <1>  -0.1600 
 29 H        1.6610     0.9730     0.9070 H     1 <1>   0.0800 
 30 H        0.4690     2.1180     1.3960 H     1 <1>   0.0800 
 31 H       -1.2890     3.0470     0.6390 H     1 <1>   0.0800 
 32 H       -2.5730     2.2180     1.4620 H     1 <1>   0.0800 
 33 H       -3.1520    -0.2420     0.6660 H     1 <1>   0.0800 
 34 H       -2.2180    -0.8970    -0.6480 H     1 <1>   0.0800 
 35 H        0.5000     2.8270    -1.1550 H     1 <1>   0.0800 
 36 H        2.0200     1.9930    -1.1880 H     1 <1>   0.0800 
 37 H       -4.4490    -0.1240    -1.3910 H     1 <1>   0.0800 
 38 H       -3.1590     0.7010    -2.2060 H     1 <1>   0.0800 
 39 H       -4.9040     2.3210    -1.5130 H     1 <1>   0.0800 
 40 H       -4.7880     1.7600     0.1250 H     1 <1>   0.0800 
 41 H       -3.1120     3.3760    -2.6030 H     1 <1>   0.0800 
 42 H       -1.5580     2.8200    -2.0560 H     1 <1>   0.0800 
 43 H       -2.1500     5.4750    -2.4710 H     1 <1>   0.0800 
 44 H       -1.0370     4.9910    -1.1910 H     1 <1>   0.0800 
 45 H        1.9050     6.5670     1.2570 H     1 <1>   0.2700 
 46 H        4.7410     2.9750    -0.9540 H     1 <1>   0.0800 
 47 H        4.2480     1.9780     0.3920 H     1 <1>   0.0800 
 48 H       -2.9420     7.4470    -0.5110 H     1 <1>   0.1500 
 49 H        4.7230     5.7920     2.3910 H     1 <1>   0.0800 
 50 H        4.7520     6.8080     0.9690 H     1 <1>   0.0800 
 51 H        6.6000     2.9630     0.5680 H     1 <1>   0.0800 
 52 H        5.5640     3.2300     1.9410 H     1 <1>   0.0800 
 53 H       -6.1080     4.8470     2.8850 H     1 <1>   0.0800 
 54 H       -6.6510     6.3150     2.1030 H     1 <1>   0.0800 
 55 H       -5.3640     6.3780     3.2870 H     1 <1>   0.0800 
 56 H        6.7990     5.3020     1.3060 H     1 <1>   0.0800 
 57 H        6.0480     5.2450    -0.2620 H     1 <1>   0.0800 
@<TRIPOS>BOND
  1   1   2  2   
  2   2   3  am  
  3   2   4  1   
  4   3   5  1   
  5   3   6  1   
  6   4   7  1   
  7   4  29  1   
  8   4  30  1   
  9   5   8  1   
 10   5  31  1   
 11   5  32  1   
 12   6   9  1   
 13   6  33  1   
 14   6  34  1   
 15   7  10  1   
 16   7  35  1   
 17   7  36  1   
 18   8  11  1   
 19   8  12  1   
 20   8  13  1   
 21   9  12  1   
 22   9  37  1   
 23   9  38  1   
 24  10  14  2   
 25  10  15  1   
 26  11  16  ar  
 27  11  17  ar  
 28  12  39  1   
 29  12  40  1   
 30  13  18  1   
 31  13  41  1   
 32  13  42  1   
 33  14  19  1   
 34  15  20  2   
 35  15  21  1   
 36  16  22  ar  
 37  17  18  1   
 38  17  23  ar  
 39  18  43  1   
 40  18  44  1   
 41  19  20  1   
 42  19  45  1   
 43  20  24  1   
 44  21  25  1   
 45  21  46  1   
 46  21  47  1   
 47  22  26  ar  
 48  22  27  1   
 49  23  26  ar  
 50  23  48  1   
 51  24  28  1   
 52  24  49  1   
 53  24  50  1   
 54  25  28  1   
 55  25  51  1   
 56  25  52  1   
 57  27  53  1   
 58  27  54  1   
 59  27  55  1   
 60  28  56  1   
 61  28  57  1   
@<TRIPOS>SUBSTRUCTURE
  1 ****   5 GROUP 4 **** **** 0

# MOE 2024.06 (io_trps.svl 2023.06)
