@<TRIPOS>MOLECULE
NONAME
46 47 1 0 0 
SMALL
USER_CHARGES


@<TRIPOS>ATOM
  1 O        0.0570    -0.5290    -2.0690 O.2   1 <1>  -0.5700 
  2 C       -0.6890     0.3360    -1.6690 C.2   1 <1>   0.5690 
  3 N       -1.9190     0.0300    -1.1480 N.am  1 <1>  -0.6600 
  4 C       -0.2230     1.7980    -1.7780 C.3   1 <1>   0.1710 
  5 C       -2.8390     0.9970    -0.4990 C.3   1 <1>   0.1400 
  6 C       -2.4030    -1.3580    -0.9710 C.3   1 <1>   0.1400 
  7 N       -0.0410     2.5240    -0.4840 N.3   1 <1>  -0.8100 
  8 C       -3.9650     0.1410     0.0850 C.3   1 <1>   0.2000 
  9 C       -3.4010    -1.2760     0.1850 C.3   1 <1>  -0.0800 
 10 C        0.2910     3.9400    -0.7410 C.3   1 <1>   0.1100 
 11 C        0.9970     1.8620     0.3240 C.3   1 <1>   0.0300 
 12 O       -4.3460     0.5850     1.3410 O.3   1 <1>  -0.6800 
 13 C       -4.4990    -2.3520     0.1520 C.3   1 <1>  -0.0170 
 14 C        0.0640     4.8070     0.5000 C.3   1 <1>   0.1200 
 15 C       -3.9200    -3.7520     0.2790 C.ar  1 <1>   0.1670 
 16 O        0.3090     6.1350     0.1580 O.3   1 <1>  -0.5600 
 17 N       -3.4970    -4.3220    -0.8380 N.ar  1 <1>  -0.6200 
 18 C       -3.8530    -4.3660     1.5290 C.ar  1 <1>   0.1600 
 19 C        0.1050     7.0300     1.2030 C.3   1 <1>   0.0400 
 20 C       -3.0040    -5.5300    -0.6240 C.ar  1 <1>   0.1600 
 21 N       -3.3610    -5.5750     1.7450 N.ar  1 <1>  -0.6200 
 22 C       -2.9390    -6.1360     0.6250 C.ar  1 <1>   0.1600 
 23 H       -0.9530     2.3180    -2.3710 H     1 <1>   0.0800 
 24 H        0.7040     1.8110    -2.3240 H     1 <1>   0.0800 
 25 H       -2.3150     1.5230     0.2800 H     1 <1>   0.0800 
 26 H       -3.2220     1.6930    -1.2240 H     1 <1>   0.0800 
 27 H       -2.8880    -1.6790    -1.8770 H     1 <1>   0.0800 
 28 H       -1.5910    -2.0300    -0.7470 H     1 <1>   0.0800 
 29 H       -4.8230     0.1770    -0.5640 H     1 <1>   0.0800 
 30 H       -2.8350    -1.3700     1.0960 H     1 <1>   0.0800 
 31 H        1.3140     4.0290    -1.0660 H     1 <1>   0.0800 
 32 H       -0.3500     4.3200    -1.5190 H     1 <1>   0.0800 
 33 H        1.1080     2.3560     1.2720 H     1 <1>   0.0800 
 34 H        1.9430     1.8740    -0.1920 H     1 <1>   0.0800 
 35 H        0.7220     0.8380     0.5160 H     1 <1>   0.0800 
 36 H       -3.5680     0.6300     1.9310 H     1 <1>   0.4000 
 37 H       -5.0530    -2.2850    -0.7690 H     1 <1>   0.0800 
 38 H       -5.1900    -2.1760     0.9570 H     1 <1>   0.0800 
 39 H        0.7390     4.5290     1.2890 H     1 <1>   0.0800 
 40 H       -0.9570     4.7170     0.8280 H     1 <1>   0.0800 
 41 H       -4.2190    -3.8330     2.3880 H     1 <1>   0.1500 
 42 H        0.3180     8.0210     0.8410 H     1 <1>   0.0800 
 43 H        0.7700     6.7890     2.0130 H     1 <1>   0.0800 
 44 H       -0.9210     6.9750     1.5230 H     1 <1>   0.0800 
 45 H       -2.6340    -6.0680    -1.4790 H     1 <1>   0.1500 
 46 H       -2.5200    -7.1240     0.6980 H     1 <1>   0.1500 
@<TRIPOS>BOND
  1   1   2  2   
  2   2   3  am  
  3   2   4  1   
  4   3   5  1   
  5   3   6  1   
  6   4   7  1   
  7   4  23  1   
  8   4  24  1   
  9   5   8  1   
 10   5  25  1   
 11   5  26  1   
 12   6   9  1   
 13   6  27  1   
 14   6  28  1   
 15   7  10  1   
 16   7  11  1   
 17   8   9  1   
 18   8  12  1   
 19   8  29  1   
 20   9  13  1   
 21   9  30  1   
 22  10  14  1   
 23  10  31  1   
 24  10  32  1   
 25  11  33  1   
 26  11  34  1   
 27  11  35  1   
 28  12  36  1   
 29  13  15  1   
 30  13  37  1   
 31  13  38  1   
 32  14  16  1   
 33  14  39  1   
 34  14  40  1   
 35  15  17  ar  
 36  15  18  ar  
 37  16  19  1   
 38  17  20  ar  
 39  18  21  ar  
 40  18  41  1   
 41  19  42  1   
 42  19  43  1   
 43  19  44  1   
 44  20  22  ar  
 45  20  45  1   
 46  21  22  ar  
 47  22  46  1   
@<TRIPOS>SUBSTRUCTURE
  1 ****   3 GROUP 4 **** **** 0

# MOE 2024.06 (io_trps.svl 2023.06)
