@<TRIPOS>MOLECULE
NONAME
41 43 1 0 0 
SMALL
USER_CHARGES


@<TRIPOS>ATOM
  1 O        0.5340    -0.1940    -0.6580 O.2   1 <1>  -0.5700 
  2 C        1.5870    -0.7850    -0.7290 C.2   1 <1>   0.6300 
  3 N        2.7890    -0.1180    -0.7500 N.am  1 <1>  -0.6600 
  4 C        1.5460    -2.3070    -0.7950 C.3   1 <1>  -0.1000 
  5 C        4.1230    -0.7860    -0.8580 C.3   1 <1>   0.1400 
  6 C        2.8310     1.3640    -0.6100 C.3   1 <1>   0.1400 
  7 C        0.5390    -3.0770     0.0350 C.3   1 <1>   0.0000 
  8 C        2.0190    -3.1480     0.3130 C.3   1 <1>  -0.2000 
  9 C        4.9700    -0.5700     0.4030 C.3   1 <1>   0.1400 
 10 C        3.1270     1.7310     0.8490 C.3   1 <1>  -0.1600 
 11 C       -0.9420    -3.0590    -0.2620 C.3   1 <1>  -0.2000 
 12 C       -0.4620    -3.8120     0.8950 C.3   1 <1>  -0.2000 
 13 N        5.4750     0.8360     0.4700 N.am  1 <1>  -0.6600 
 14 C        4.6190     1.8150     1.2060 C.3   1 <1>   0.1400 
 15 C        6.6520     1.1520    -0.1630 C.2   1 <1>   0.5690 
 16 O        7.2130     0.3510    -0.8750 O.2   1 <1>  -0.5700 
 17 C        7.2770     2.5290    -0.0030 C.3   1 <1>  -0.0990 
 18 C        8.7530     2.5500    -0.4020 C.3   1 <1>   0.1200 
 19 O        9.2400     3.8340    -0.2200 O.3   1 <1>  -0.6800 
 20 H        1.6570    -2.6480    -1.8070 H     1 <1>   0.1000 
 21 H        4.6520    -0.3980    -1.7120 H     1 <1>   0.0800 
 22 H        4.0070    -1.8420    -1.0140 H     1 <1>   0.0800 
 23 H        1.8770     1.7780    -0.8920 H     1 <1>   0.0800 
 24 H        3.5720     1.7780    -1.2720 H     1 <1>   0.0800 
 25 H        2.3550    -2.6990     1.2300 H     1 <1>   0.1000 
 26 H        2.5030    -4.0880     0.1210 H     1 <1>   0.1000 
 27 H        5.8090    -1.2430     0.3730 H     1 <1>   0.0800 
 28 H        4.3950    -0.8070     1.2810 H     1 <1>   0.0800 
 29 H        2.6300     1.0340     1.5010 H     1 <1>   0.0800 
 30 H        2.6930     2.6930     1.0480 H     1 <1>   0.0800 
 31 H       -1.2660    -3.5640    -1.1550 H     1 <1>   0.1000 
 32 H       -1.4490    -2.1190    -0.1280 H     1 <1>   0.1000 
 33 H       -0.6170    -3.4380     1.8910 H     1 <1>   0.1000 
 34 H       -0.4410    -4.8870     0.8670 H     1 <1>   0.1000 
 35 H        4.7410     1.6610     2.2650 H     1 <1>   0.0800 
 36 H        4.9450     2.8150     0.9860 H     1 <1>   0.0800 
 37 H        7.2070     2.8250     1.0270 H     1 <1>   0.0800 
 38 H        6.7290     3.2190    -0.6160 H     1 <1>   0.0800 
 39 H        8.8900     2.2720    -1.4340 H     1 <1>   0.0800 
 40 H        9.3240     1.8840     0.2240 H     1 <1>   0.0800 
 41 H        8.9040     4.4340    -0.9140 H     1 <1>   0.4000 
@<TRIPOS>BOND
  1   1   2  2   
  2   2   3  am  
  3   2   4  1   
  4   3   5  1   
  5   3   6  1   
  6   4   7  1   
  7   4   8  1   
  8   4  20  1   
  9   5   9  1   
 10   5  21  1   
 11   5  22  1   
 12   6  10  1   
 13   6  23  1   
 14   6  24  1   
 15   7   8  1   
 16   7  11  1   
 17   7  12  1   
 18   8  25  1   
 19   8  26  1   
 20   9  13  1   
 21   9  27  1   
 22   9  28  1   
 23  10  14  1   
 24  10  29  1   
 25  10  30  1   
 26  11  12  1   
 27  11  31  1   
 28  11  32  1   
 29  12  33  1   
 30  12  34  1   
 31  13  14  1   
 32  13  15  am  
 33  14  35  1   
 34  14  36  1   
 35  15  16  2   
 36  15  17  1   
 37  17  18  1   
 38  17  37  1   
 39  17  38  1   
 40  18  19  1   
 41  18  39  1   
 42  18  40  1   
 43  19  41  1   
@<TRIPOS>SUBSTRUCTURE
  1 ****   5 GROUP 4 **** **** 0

# MOE 2024.06 (io_trps.svl 2023.06)
