@<TRIPOS>MOLECULE
NONAME
43 45 1 0 0 
SMALL
USER_CHARGES


@<TRIPOS>ATOM
  1 O       -1.1410    -2.3580    -0.3270 O.2   1 <1>  -0.5700 
  2 C       -0.1010    -2.9230    -0.5430 C.2   1 <1>   0.5690 
  3 N        0.1440    -3.5270    -1.7250 N.am  1 <1>  -0.7300 
  4 C        0.9790    -2.9900     0.5140 C.3   1 <1>  -0.0990 
  5 C        1.3960    -4.2550    -2.0170 C.3   1 <1>   0.1400 
  6 C        2.3620    -2.7300    -0.1140 C.3   1 <1>  -0.0800 
  7 C        2.6020    -3.4760    -1.4520 C.3   1 <1>  -0.0800 
  8 C        3.5240    -3.1080     0.8160 C.3   1 <1>  -0.1600 
  9 C        3.8300    -4.3650    -1.2190 C.3   1 <1>  -0.1600 
 10 C        4.6020    -3.6430    -0.1180 C.3   1 <1>   0.2200 
 11 N        5.6070    -4.4870     0.5960 N.am  1 <1>  -0.6600 
 12 C        6.8870    -4.0240     0.8380 C.2   1 <1>   0.5440 
 13 C        5.2210    -5.8750     0.9960 C.3   1 <1>   0.0600 
 14 O        7.7370    -4.8070     1.2230 O.2   1 <1>  -0.5700 
 15 C        7.2410    -2.6370     0.6580 C.ar  1 <1>   0.0860 
 16 C        7.7060    -2.1590    -0.5790 C.ar  1 <1>   0.1000 
 17 C        7.1040    -1.7400     1.7160 C.ar  1 <1>  -0.1500 
 18 N        7.8830    -3.0050    -1.6630 N.pl3 1 <1>  -0.9000 
 19 C        7.9940    -0.8060    -0.7290 C.ar  1 <1>  -0.1500 
 20 C        7.4020    -0.4030     1.5490 C.ar  1 <1>   0.0820 
 21 C        7.8440     0.0710     0.3260 C.ar  1 <1>  -0.1500 
 22 O        7.2690     0.4590     2.5730 O.3   1 <1>  -0.5330 
 23 H       -0.5960    -3.5080    -2.4290 H     1 <1>   0.3700 
 24 H        0.7770    -2.2650     1.2810 H     1 <1>   0.0800 
 25 H        0.9420    -3.9690     0.9550 H     1 <1>   0.0800 
 26 H        1.3320    -5.2280    -1.5610 H     1 <1>   0.0800 
 27 H        1.5070    -4.3830    -3.0800 H     1 <1>   0.0800 
 28 H        2.4270    -1.6750    -0.3250 H     1 <1>   0.0800 
 29 H        2.8740    -2.7340    -2.1840 H     1 <1>   0.0800 
 30 H        3.2180    -3.8780     1.5000 H     1 <1>   0.0800 
 31 H        3.8770    -2.2570     1.3700 H     1 <1>   0.0800 
 32 H        4.4240    -4.4660    -2.1100 H     1 <1>   0.0800 
 33 H        3.5070    -5.3330    -0.8850 H     1 <1>   0.0800 
 34 H        5.0870    -2.8000    -0.5810 H     1 <1>   0.0800 
 35 H        4.2000    -5.9030     1.3330 H     1 <1>   0.0800 
 36 H        5.8490    -6.2230     1.7980 H     1 <1>   0.0800 
 37 H        5.3390    -6.5380     0.1570 H     1 <1>   0.0800 
 38 H        6.7600    -2.1110     2.6640 H     1 <1>   0.1500 
 39 H        7.9970    -4.0020    -1.4350 H     1 <1>   0.4000 
 40 H        8.5500    -2.7080    -2.3810 H     1 <1>   0.4000 
 41 H        8.3380    -0.4420    -1.6800 H     1 <1>   0.1500 
 42 H        8.0670     1.1170     0.2130 H     1 <1>   0.1500 
 43 H        7.0420     0.0190     3.4110 H     1 <1>   0.4500 
@<TRIPOS>BOND
  1   1   2  2   
  2   2   3  am  
  3   2   4  1   
  4   3   5  1   
  5   3  23  1   
  6   4   6  1   
  7   4  24  1   
  8   4  25  1   
  9   5   7  1   
 10   5  26  1   
 11   5  27  1   
 12   6   7  1   
 13   6   8  1   
 14   6  28  1   
 15   7   9  1   
 16   7  29  1   
 17   8  10  1   
 18   8  30  1   
 19   8  31  1   
 20   9  10  1   
 21   9  32  1   
 22   9  33  1   
 23  10  11  1   
 24  10  34  1   
 25  11  12  am  
 26  11  13  1   
 27  12  14  2   
 28  12  15  1   
 29  13  35  1   
 30  13  36  1   
 31  13  37  1   
 32  15  16  ar  
 33  15  17  ar  
 34  16  18  1   
 35  16  19  ar  
 36  17  20  ar  
 37  17  38  1   
 38  18  39  1   
 39  18  40  1   
 40  19  21  ar  
 41  19  41  1   
 42  20  21  ar  
 43  20  22  1   
 44  21  42  1   
 45  22  43  1   
@<TRIPOS>SUBSTRUCTURE
  1 ****  10 GROUP 4 **** **** 0

# MOE 2024.06 (io_trps.svl 2023.06)
