@<TRIPOS>MOLECULE
NONAME
34 36 1 0 0 
SMALL
USER_CHARGES


@<TRIPOS>ATOM
  1 F       -0.5610    -0.3810    -0.5410 F     1 <1>  -0.1900 
  2 C        0.2040    -1.4360    -0.4280 C.ar  1 <1>   0.1900 
  3 C       -0.3640    -2.6480    -0.0320 C.ar  1 <1>   0.0280 
  4 C        1.5470    -1.2850    -0.7160 C.ar  1 <1>  -0.1500 
  5 C        0.5110    -3.7290     0.0850 C.ar  1 <1>  -0.1500 
  6 C       -1.7650    -2.7770     0.2710 C.2   1 <1>  -0.1780 
  7 C        2.3840    -2.3820    -0.6020 C.ar  1 <1>  -0.1500 
  8 C        1.8610    -3.6010    -0.2000 C.ar  1 <1>  -0.1500 
  9 C       -2.6750    -3.6770    -0.1670 C.2   1 <1>  -0.0380 
 10 N       -3.9740    -3.6750     0.3220 N.pl3 1 <1>  -0.8380 
 11 C       -2.3650    -4.7770    -1.1820 C.3   1 <1>   0.0390 
 12 C       -5.1000    -4.0650    -0.5760 C.3   1 <1>   0.2090 
 13 C       -4.1120    -4.2920     1.6660 C.3   1 <1>   0.2090 
 14 C       -2.7450    -6.1530    -0.6500 C.2   1 <1>   0.4480 
 15 C       -5.2400    -5.5990    -0.6310 C.3   1 <1>  -0.1600 
 16 C       -3.9820    -5.8220     1.5420 C.3   1 <1>  -0.1600 
 17 O       -2.0170    -7.0880    -0.8110 O.2   1 <1>  -0.5700 
 18 C       -4.0830    -6.3310     0.0840 C.3   1 <1>  -0.0190 
 19 H        1.9270    -0.3270    -1.0220 H     1 <1>   0.1500 
 20 H        0.1270    -4.6810     0.4090 H     1 <1>   0.1500 
 21 H       -2.1160    -2.0210     0.9500 H     1 <1>   0.1500 
 22 H        3.4330    -2.2890    -0.8220 H     1 <1>   0.1500 
 23 H        2.5100    -4.4560    -0.1050 H     1 <1>   0.1500 
 24 H       -1.3270    -4.7850    -1.4470 H     1 <1>   0.0800 
 25 H       -2.9040    -4.5950    -2.0900 H     1 <1>   0.0800 
 26 H       -4.9220    -3.6680    -1.5610 H     1 <1>   0.0800 
 27 H       -6.0120    -3.6230    -0.2110 H     1 <1>   0.0800 
 28 H       -5.0740    -4.0310     2.0730 H     1 <1>   0.0800 
 29 H       -3.3550    -3.9050     2.3270 H     1 <1>   0.0800 
 30 H       -5.2990    -5.9160    -1.6570 H     1 <1>   0.0800 
 31 H       -6.1690    -5.8710    -0.1630 H     1 <1>   0.0800 
 32 H       -4.7550    -6.2750     2.1370 H     1 <1>   0.0800 
 33 H       -3.0410    -6.1300     1.9620 H     1 <1>   0.0800 
 34 H       -4.2950    -7.3860     0.1050 H     1 <1>   0.0800 
@<TRIPOS>BOND
  1   1   2  1   
  2   2   3  ar  
  3   2   4  ar  
  4   3   5  ar  
  5   3   6  1   
  6   4   7  ar  
  7   4  19  1   
  8   5   8  ar  
  9   5  20  1   
 10   6   9  2   
 11   6  21  1   
 12   7   8  ar  
 13   7  22  1   
 14   8  23  1   
 15   9  10  1   
 16   9  11  1   
 17  10  12  1   
 18  10  13  1   
 19  11  14  1   
 20  11  24  1   
 21  11  25  1   
 22  12  15  1   
 23  12  26  1   
 24  12  27  1   
 25  13  16  1   
 26  13  28  1   
 27  13  29  1   
 28  14  17  2   
 29  14  18  1   
 30  15  18  1   
 31  15  30  1   
 32  15  31  1   
 33  16  18  1   
 34  16  32  1   
 35  16  33  1   
 36  18  34  1   
@<TRIPOS>SUBSTRUCTURE
  1 ****   9 GROUP 4 **** **** 0

# MOE 2024.06 (io_trps.svl 2023.06)
