@<TRIPOS>MOLECULE
NONAME
52 54 1 0 0 
SMALL
USER_CHARGES


@<TRIPOS>ATOM
  1 O       -0.3590     0.3070    -0.6100 O.2   1 <1>  -0.5700 
  2 C       -1.4110     0.9230    -0.6150 C.2   1 <1>   0.6160 
  3 N       -2.5920     0.2110    -0.6700 N.am  1 <1>  -0.6600 
  4 C       -1.3810     2.3550    -0.4980 C.2   1 <1>   0.0290 
  5 C       -3.9520     0.8280    -0.6150 C.3   1 <1>   0.1400 
  6 C       -2.6270    -1.2640    -0.9080 C.3   1 <1>   0.1400 
  7 C       -1.8080     3.1070    -1.6380 C.2   1 <1>   0.6160 
  8 C       -0.9610     3.0340     0.6280 C.2   1 <1>  -0.1380 
  9 C       -4.8880     0.0200     0.3030 C.3   1 <1>   0.2950 
 10 C       -3.6450    -1.9570     0.0250 C.3   1 <1>   0.2000 
 11 O       -2.2380     2.6200    -2.6740 O.2   1 <1>  -0.5700 
 12 N       -1.7720     4.4730    -1.5760 N.am  1 <1>  -0.5390 
 13 C       -0.9510     4.4470     0.6280 C.2   1 <1>  -0.1500 
 14 C       -0.4870     2.3430     1.9010 C.3   1 <1>  -0.1020 
 15 O       -4.8920    -1.3280    -0.0670 O.3   1 <1>  -0.5600 
 16 C       -6.3310     0.5270     0.2210 C.3   1 <1>  -0.1950 
 17 C       -3.8720    -3.4340    -0.3220 C.3   1 <1>  -0.1600 
 18 C       -1.3530     5.1490    -0.4670 C.2   1 <1>  -0.0290 
 19 C       -6.8000     1.6670     1.0700 C.3   1 <1>  -0.2000 
 20 C       -7.3070     0.2760     1.3270 C.3   1 <1>  -0.2000 
 21 C       -2.6160    -4.2990    -0.1220 C.3   1 <1>  -0.1600 
 22 C       -1.3610     6.6630    -0.5340 C.3   1 <1>  -0.1020 
 23 C       -2.9200    -5.7780    -0.3910 C.3   1 <1>  -0.1600 
 24 C       -1.6710    -6.6410    -0.1960 C.3   1 <1>  -0.2400 
 25 H       -3.9000     1.8370    -0.2490 H     1 <1>   0.0800 
 26 H       -4.3640     0.8560    -1.6090 H     1 <1>   0.0800 
 27 H       -2.9010    -1.4460    -1.9320 H     1 <1>   0.0800 
 28 H       -1.6530    -1.6900    -0.7480 H     1 <1>   0.0800 
 29 H       -4.5430     0.0860     1.3210 H     1 <1>   0.0800 
 30 H       -3.3080    -1.8800     1.0440 H     1 <1>   0.0800 
 31 H       -2.0740     4.9450    -2.4280 H     1 <1>   0.3700 
 32 H       -0.6140     4.9580     1.5140 H     1 <1>   0.1500 
 33 H       -0.9980     2.7510     2.7550 H     1 <1>   0.0800 
 34 H        0.5700     2.4970     2.0240 H     1 <1>   0.0800 
 35 H       -0.6710     1.2840     1.8790 H     1 <1>   0.0800 
 36 H       -6.7130     0.4790    -0.7840 H     1 <1>   0.1000 
 37 H       -4.6550    -3.8090     0.3130 H     1 <1>   0.0800 
 38 H       -4.2020    -3.5100    -1.3430 H     1 <1>   0.0800 
 39 H       -6.1330     2.1060     1.7920 H     1 <1>   0.1000 
 40 H       -7.4750     2.3890     0.6420 H     1 <1>   0.1000 
 41 H       -8.3210     0.0290     1.0650 H     1 <1>   0.1000 
 42 H       -6.9680    -0.2560     2.2000 H     1 <1>   0.1000 
 43 H       -1.8360    -3.9770    -0.7890 H     1 <1>   0.0800 
 44 H       -2.2610    -4.1880     0.8890 H     1 <1>   0.0800 
 45 H       -0.7180     6.9990    -1.3270 H     1 <1>   0.0800 
 46 H       -1.0120     7.0860     0.3910 H     1 <1>   0.0800 
 47 H       -2.3590     7.0170    -0.7170 H     1 <1>   0.0800 
 48 H       -3.6930    -6.1170     0.2790 H     1 <1>   0.0800 
 49 H       -3.2780    -5.8960    -1.4000 H     1 <1>   0.0800 
 50 H       -1.3080    -6.5560     0.8130 H     1 <1>   0.0800 
 51 H       -0.8920    -6.3340    -0.8720 H     1 <1>   0.0800 
 52 H       -1.9030    -7.6730    -0.3890 H     1 <1>   0.0800 
@<TRIPOS>BOND
  1   1   2  2   
  2   2   3  am  
  3   2   4  1   
  4   3   5  1   
  5   3   6  1   
  6   4   7  1   
  7   4   8  2   
  8   5   9  1   
  9   5  25  1   
 10   5  26  1   
 11   6  10  1   
 12   6  27  1   
 13   6  28  1   
 14   7  11  2   
 15   7  12  am  
 16   8  13  1   
 17   8  14  1   
 18   9  15  1   
 19   9  16  1   
 20   9  29  1   
 21  10  15  1   
 22  10  17  1   
 23  10  30  1   
 24  12  18  1   
 25  12  31  1   
 26  13  18  2   
 27  13  32  1   
 28  14  33  1   
 29  14  34  1   
 30  14  35  1   
 31  16  19  1   
 32  16  20  1   
 33  16  36  1   
 34  17  21  1   
 35  17  37  1   
 36  17  38  1   
 37  18  22  1   
 38  19  20  1   
 39  19  39  1   
 40  19  40  1   
 41  20  41  1   
 42  20  42  1   
 43  21  23  1   
 44  21  43  1   
 45  21  44  1   
 46  22  45  1   
 47  22  46  1   
 48  22  47  1   
 49  23  24  1   
 50  23  48  1   
 51  23  49  1   
 52  24  50  1   
 53  24  51  1   
 54  24  52  1   
@<TRIPOS>SUBSTRUCTURE
  1 ****   3 GROUP 4 **** **** 0

# MOE 2024.06 (io_trps.svl 2023.06)
