@<TRIPOS>MOLECULE
NONAME
48 51 1 0 0 
SMALL
USER_CHARGES


@<TRIPOS>ATOM
  1 O       -1.3830     0.8670    -1.5020 O.3   1 <1>  -0.0190 
  2 N       -1.6010    -0.4090    -1.5380 N.2   1 <1>  -0.4100 
  3 C       -2.0610     1.2820    -0.4630 C.2   1 <1>   0.2980 
  4 C       -2.3750    -0.7070    -0.5560 C.2   1 <1>   0.4620 
  5 N       -2.6940     0.3740     0.1620 N.2   1 <1>  -0.5650 
  6 C       -2.0150     2.7710    -0.1380 C.3   1 <1>   0.1000 
  7 C       -2.8640    -2.0380    -0.2340 C.ar  1 <1>   0.0540 
  8 C       -0.5930     3.1880     0.2520 C.3   1 <1>   0.2090 
  9 C       -3.0320     3.2100     0.9440 C.3   1 <1>  -0.1600 
 10 C       -2.5040    -3.1470    -1.0030 C.ar  1 <1>  -0.1500 
 11 C       -3.7100    -2.2680     0.8540 C.ar  1 <1>  -0.1500 
 12 N       -0.4950     4.6790     0.3710 N.pl3 1 <1>  -0.8380 
 13 C       -2.6000     4.4880     1.6930 C.3   1 <1>  -0.1600 
 14 C       -2.9630    -4.4170    -0.7050 C.ar  1 <1>  -0.1500 
 15 C       -4.1730    -3.5350     1.1580 C.ar  1 <1>  -0.1500 
 16 C        0.7590     5.2770     0.6010 C.ar  1 <1>   0.4100 
 17 C       -1.7050     5.4080     0.8560 C.3   1 <1>   0.2090 
 18 C       -3.8000    -4.6140     0.3780 C.ar  1 <1>  -0.1500 
 19 N        1.6570     4.4720     1.1490 N.ar  1 <1>  -0.6200 
 20 C        1.0470     6.6570     0.2790 C.ar  1 <1>   0.4100 
 21 C        2.8110     5.0730     1.3970 C.ar  1 <1>   0.1600 
 22 N        2.2120     7.2270     0.5520 N.ar  1 <1>  -0.6200 
 23 N        0.1260     7.4970    -0.3780 N.pl3 1 <1>  -0.8380 
 24 C        3.0760     6.3970     1.1150 C.ar  1 <1>   0.1600 
 25 C        0.1930     8.9670    -0.1440 C.3   1 <1>   0.1290 
 26 C       -0.1930     7.1300    -1.7810 C.3   1 <1>   0.1290 
 27 H       -2.2510     3.2920    -1.0490 H     1 <1>   0.0800 
 28 H        0.1100     2.8530    -0.4920 H     1 <1>   0.0800 
 29 H       -0.3290     2.7340     1.1920 H     1 <1>   0.0800 
 30 H       -3.1590     2.4330     1.6770 H     1 <1>   0.0800 
 31 H       -3.9860     3.3680     0.4720 H     1 <1>   0.0800 
 32 H       -1.8530    -3.0120    -1.8490 H     1 <1>   0.1500 
 33 H       -4.0100    -1.4400     1.4720 H     1 <1>   0.1500 
 34 H       -2.0460     4.2140     2.5740 H     1 <1>   0.0800 
 35 H       -3.4690     5.0300     2.0180 H     1 <1>   0.0800 
 36 H       -2.6690    -5.2540    -1.3160 H     1 <1>   0.1500 
 37 H       -4.8240    -3.6830     2.0020 H     1 <1>   0.1500 
 38 H       -2.2520     5.7800     0.0060 H     1 <1>   0.0800 
 39 H       -1.4080     6.2540     1.4530 H     1 <1>   0.0800 
 40 H       -4.1590    -5.6010     0.6130 H     1 <1>   0.1500 
 41 H        3.5800     4.4730     1.8500 H     1 <1>   0.1500 
 42 H        4.0430     6.7980     1.3590 H     1 <1>   0.1500 
 43 H        0.3830     9.1620     0.8970 H     1 <1>   0.0800 
 44 H       -0.7390     9.4260    -0.4190 H     1 <1>   0.0800 
 45 H        0.9900     9.3940    -0.7280 H     1 <1>   0.0800 
 46 H       -0.1340     6.0630    -1.9130 H     1 <1>   0.0800 
 47 H        0.5080     7.5980    -2.4500 H     1 <1>   0.0800 
 48 H       -1.1900     7.4530    -2.0240 H     1 <1>   0.0800 
@<TRIPOS>BOND
  1   1   2  1   
  2   1   3  1   
  3   2   4  2   
  4   3   5  2   
  5   3   6  1   
  6   4   5  1   
  7   4   7  1   
  8   6   8  1   
  9   6   9  1   
 10   6  27  1   
 11   7  10  ar  
 12   7  11  ar  
 13   8  12  1   
 14   8  28  1   
 15   8  29  1   
 16   9  13  1   
 17   9  30  1   
 18   9  31  1   
 19  10  14  ar  
 20  10  32  1   
 21  11  15  ar  
 22  11  33  1   
 23  12  16  1   
 24  12  17  1   
 25  13  17  1   
 26  13  34  1   
 27  13  35  1   
 28  14  18  ar  
 29  14  36  1   
 30  15  18  ar  
 31  15  37  1   
 32  16  19  ar  
 33  16  20  ar  
 34  17  38  1   
 35  17  39  1   
 36  18  40  1   
 37  19  21  ar  
 38  20  22  ar  
 39  20  23  1   
 40  21  24  ar  
 41  21  41  1   
 42  22  24  ar  
 43  23  25  1   
 44  23  26  1   
 45  24  42  1   
 46  25  43  1   
 47  25  44  1   
 48  25  45  1   
 49  26  46  1   
 50  26  47  1   
 51  26  48  1   
@<TRIPOS>SUBSTRUCTURE
  1 ****   8 GROUP 4 **** **** 0

# MOE 2024.06 (io_trps.svl 2023.06)
