@<TRIPOS>MOLECULE
NONAME
45 47 1 0 0 
SMALL
USER_CHARGES


@<TRIPOS>ATOM
  1 O        1.4420    -2.0220    -2.7230 O.2   1 <1>  -0.5700 
  2 C        1.1110    -2.6170    -1.7100 C.2   1 <1>   0.5440 
  3 N        0.2420    -1.9560    -0.8550 N.am  1 <1>  -0.6600 
  4 C        1.6150    -3.9800    -1.4970 C.ar  1 <1>   0.3960 
  5 C       -0.3090    -2.4700     0.4250 C.3   1 <1>   0.1400 
  6 C       -0.3480    -0.6390    -1.1800 C.3   1 <1>   0.1400 
  7 N        1.6120    -4.5370    -0.2760 N.ar  1 <1>  -0.6200 
  8 C        2.0780    -4.6970    -2.6080 C.ar  1 <1>   0.1600 
  9 C       -1.2250    -1.3670     0.9440 C.3   1 <1>  -0.1600 
 10 C       -1.5770    -0.5350    -0.2850 C.3   1 <1>  -0.1600 
 11 C        2.0230    -5.7820    -0.2480 C.ar  1 <1>   0.4100 
 12 N        2.5210    -5.9500    -2.5950 N.ar  1 <1>  -0.6200 
 13 N        1.9260    -6.3590     0.9850 N.pl3 1 <1>  -0.8690 
 14 C        2.4840    -6.4630    -1.3820 C.ar  1 <1>   0.1600 
 15 C        0.7370    -7.1930     1.2470 C.3   1 <1>   0.3890 
 16 C       -0.3920    -6.2970     1.7490 C.2   1 <1>   0.0060 
 17 N       -0.2980    -5.5970     2.8380 N.2   1 <1>  -0.5650 
 18 N       -1.5790    -6.1380     1.1050 N.pl3 1 <1>   0.0480 
 19 C       -1.4750    -4.9530     2.9150 C.2   1 <1>   0.0770 
 20 C       -2.2660    -5.2690     1.8690 C.2   1 <1>  -0.3020 
 21 C       -2.0820    -6.7530    -0.1440 C.3   1 <1>   0.0960 
 22 C       -1.6240    -5.9550    -1.3710 C.3   1 <1>  -0.1600 
 23 C       -2.1690    -6.5610    -2.6680 C.3   1 <1>  -0.2400 
 24 H        0.4780    -2.6770     1.1310 H     1 <1>   0.0800 
 25 H       -0.8690    -3.3700     0.2380 H     1 <1>   0.0800 
 26 H       -0.6100    -0.5750    -2.2230 H     1 <1>   0.0800 
 27 H        0.3640     0.1310    -0.9390 H     1 <1>   0.0800 
 28 H        2.0750    -4.2040    -3.5640 H     1 <1>   0.1500 
 29 H       -0.6770    -0.7660     1.6480 H     1 <1>   0.0800 
 30 H       -2.0940    -1.7710     1.4330 H     1 <1>   0.0800 
 31 H       -2.4170    -0.9720    -0.7950 H     1 <1>   0.0800 
 32 H       -1.8070     0.4860    -0.0390 H     1 <1>   0.0800 
 33 H        1.8790    -5.6130     1.6940 H     1 <1>   0.4000 
 34 H        2.8260    -7.4720    -1.2500 H     1 <1>   0.1500 
 35 H        0.9760    -7.9130     2.0100 H     1 <1>   0.0800 
 36 H        0.4510    -7.7210     0.3560 H     1 <1>   0.0800 
 37 H       -1.6930    -4.2860     3.7320 H     1 <1>   0.1500 
 38 H       -3.2580    -4.9290     1.6360 H     1 <1>   0.1500 
 39 H       -3.1560    -6.7730    -0.1040 H     1 <1>   0.0800 
 40 H       -1.7320    -7.7680    -0.2040 H     1 <1>   0.0800 
 41 H       -0.5520    -5.9520    -1.4180 H     1 <1>   0.0800 
 42 H       -1.9660    -4.9370    -1.2870 H     1 <1>   0.0800 
 43 H       -1.8230    -7.5720    -2.7900 H     1 <1>   0.0800 
 44 H       -1.8310    -5.9830    -3.5110 H     1 <1>   0.0800 
 45 H       -3.2460    -6.5590    -2.6650 H     1 <1>   0.0800 
@<TRIPOS>BOND
  1   1   2  2   
  2   2   3  am  
  3   2   4  1   
  4   3   5  1   
  5   3   6  1   
  6   4   7  ar  
  7   4   8  ar  
  8   5   9  1   
  9   5  24  1   
 10   5  25  1   
 11   6  10  1   
 12   6  26  1   
 13   6  27  1   
 14   7  11  ar  
 15   8  12  ar  
 16   8  28  1   
 17   9  10  1   
 18   9  29  1   
 19   9  30  1   
 20  10  31  1   
 21  10  32  1   
 22  11  13  1   
 23  11  14  ar  
 24  12  14  ar  
 25  13  15  1   
 26  13  33  1   
 27  14  34  1   
 28  15  16  1   
 29  15  35  1   
 30  15  36  1   
 31  16  17  2   
 32  16  18  1   
 33  17  19  1   
 34  18  20  1   
 35  18  21  1   
 36  19  20  2   
 37  19  37  1   
 38  20  38  1   
 39  21  22  1   
 40  21  39  1   
 41  21  40  1   
 42  22  23  1   
 43  22  41  1   
 44  22  42  1   
 45  23  43  1   
 46  23  44  1   
 47  23  45  1   
@<TRIPOS>SUBSTRUCTURE
  1 ****   7 GROUP 4 **** **** 0

# MOE 2024.06 (io_trps.svl 2023.06)
