@<TRIPOS>MOLECULE
NONAME
47 48 1 0 0 
SMALL
USER_CHARGES


@<TRIPOS>ATOM
  1 CL      -2.7510    -1.8200     3.8850 Cl    1 <1>  -0.1770 
  2 C       -3.0600    -2.0240     2.1800 C.ar  1 <1>   0.1770 
  3 C       -3.0280    -3.2940     1.6340 C.ar  1 <1>  -0.1500 
  4 C       -3.3330    -0.9140     1.4030 C.ar  1 <1>  -0.1500 
  5 C       -3.2750    -3.4630     0.2800 C.ar  1 <1>  -0.1440 
  6 C       -3.5780    -1.0820     0.0510 C.ar  1 <1>  -0.1500 
  7 C       -3.5490    -2.3510    -0.5050 C.ar  1 <1>  -0.1500 
  8 C       -3.2530    -4.8500    -0.3390 C.3   1 <1>  -0.0160 
  9 C       -4.6660    -5.4380    -0.3770 C.3   1 <1>  -0.0990 
 10 C       -4.6540    -6.8350    -0.9510 C.2   1 <1>   0.5690 
 11 O       -4.6520    -6.9820    -2.1470 O.2   1 <1>  -0.5700 
 12 N       -4.6510    -7.8890    -0.1020 N.am  1 <1>  -0.7300 
 13 C       -4.5660    -9.3100    -0.5120 C.3   1 <1>   0.2200 
 14 C       -5.9280    -9.9820    -0.4280 C.3   1 <1>  -0.0800 
 15 C       -3.8120   -10.0810     0.5620 C.3   1 <1>   0.1200 
 16 C       -6.0290   -10.3600     1.0560 C.3   1 <1>   0.1200 
 17 C       -7.1010    -9.1400    -0.9770 C.3   1 <1>  -0.0550 
 18 O       -4.7390   -10.2520     1.5880 O.3   1 <1>  -0.5600 
 19 S       -8.6590   -10.0260    -1.0790 S.o2  1 <1>   1.3330 
 20 O       -8.3980   -11.3180    -1.6720 O.2   1 <1>  -0.6500 
 21 O       -9.6610    -9.1590    -1.6570 O.2   1 <1>  -0.6500 
 22 N       -9.0870   -10.2760     0.5460 N.am  1 <1>  -0.8490 
 23 C       -9.9180   -11.4710     0.7210 C.3   1 <1>   0.1160 
 24 C       -9.7540    -9.1190     1.1560 C.3   1 <1>   0.1160 
 25 H       -2.8120    -4.1320     2.2710 H     1 <1>   0.1500 
 26 H       -3.3510     0.0620     1.8520 H     1 <1>   0.1500 
 27 H       -3.7910    -0.2280    -0.5680 H     1 <1>   0.1500 
 28 H       -3.7410    -2.4700    -1.5580 H     1 <1>   0.1500 
 29 H       -2.8590    -4.7960    -1.3400 H     1 <1>   0.0800 
 30 H       -2.6050    -5.4940     0.2300 H     1 <1>   0.0800 
 31 H       -5.2970    -4.8200    -0.9910 H     1 <1>   0.0800 
 32 H       -5.0810    -5.4560     0.6140 H     1 <1>   0.0800 
 33 H       -4.6810    -7.7560     0.9120 H     1 <1>   0.3700 
 34 H       -4.1120    -9.4030    -1.4850 H     1 <1>   0.0800 
 35 H       -5.8760   -10.8970    -0.9920 H     1 <1>   0.0800 
 36 H       -2.9500    -9.5530     0.9300 H     1 <1>   0.0800 
 37 H       -3.5250   -11.0550     0.2060 H     1 <1>   0.0800 
 38 H       -6.3810   -11.3690     1.1880 H     1 <1>   0.0800 
 39 H       -6.6610    -9.6820     1.6030 H     1 <1>   0.0800 
 40 H       -6.8380    -8.8130    -1.9640 H     1 <1>   0.0800 
 41 H       -7.2330    -8.2630    -0.3760 H     1 <1>   0.0800 
 42 H      -10.1640   -11.6080     1.7600 H     1 <1>   0.0800 
 43 H       -9.3830   -12.3450     0.3860 H     1 <1>   0.0800 
 44 H      -10.8270   -11.3830     0.1490 H     1 <1>   0.0800 
 45 H       -9.9190    -9.2970     2.2040 H     1 <1>   0.0800 
 46 H      -10.7030    -8.9350     0.6780 H     1 <1>   0.0800 
 47 H       -9.1410    -8.2400     1.0530 H     1 <1>   0.0800 
@<TRIPOS>BOND
  1   1   2  1   
  2   2   3  ar  
  3   2   4  ar  
  4   3   5  ar  
  5   3  25  1   
  6   4   6  ar  
  7   4  26  1   
  8   5   7  ar  
  9   5   8  1   
 10   6   7  ar  
 11   6  27  1   
 12   7  28  1   
 13   8   9  1   
 14   8  29  1   
 15   8  30  1   
 16   9  10  1   
 17   9  31  1   
 18   9  32  1   
 19  10  11  2   
 20  10  12  am  
 21  12  13  1   
 22  12  33  1   
 23  13  14  1   
 24  13  15  1   
 25  13  34  1   
 26  14  16  1   
 27  14  17  1   
 28  14  35  1   
 29  15  18  1   
 30  15  36  1   
 31  15  37  1   
 32  16  18  1   
 33  16  38  1   
 34  16  39  1   
 35  17  19  1   
 36  17  40  1   
 37  17  41  1   
 38  19  20  2   
 39  19  21  2   
 40  19  22  am  
 41  22  23  1   
 42  22  24  1   
 43  23  42  1   
 44  23  43  1   
 45  23  44  1   
 46  24  45  1   
 47  24  46  1   
 48  24  47  1   
@<TRIPOS>SUBSTRUCTURE
  1 ****  12 GROUP 4 **** **** 0

# MOE 2024.06 (io_trps.svl 2023.06)
