@<TRIPOS>MOLECULE
NONAME
59 60 1 0 0 
SMALL
USER_CHARGES


@<TRIPOS>ATOM
  1 S        2.0120     2.8190    -0.9800 S.o2  1 <1>   1.3330 
  2 O        1.3110     3.6130    -1.9590 O.2   1 <1>  -0.6500 
  3 O        2.7750     3.5130     0.0360 O.2   1 <1>  -0.6500 
  4 N        2.9980     1.6860    -1.7570 N.am  1 <1>  -0.8490 
  5 C        0.7940     1.8260    -0.1060 C.3   1 <1>  -0.0550 
  6 C        4.3690     2.1730    -1.9540 C.3   1 <1>   0.1160 
  7 C        2.4550     1.2170    -3.0390 C.3   1 <1>   0.1160 
  8 C       -0.2230     2.6000     0.7770 C.3   1 <1>  -0.0800 
  9 C       -1.0430     3.6400     0.0010 C.3   1 <1>   0.2000 
 10 C        0.4320     3.4240     1.8920 C.3   1 <1>   0.3430 
 11 O       -2.3130     3.6960     0.5620 O.3   1 <1>  -0.6800 
 12 C       -0.3320     4.9870     0.2110 C.3   1 <1>   0.3430 
 13 N        0.6750     4.7620     1.3000 N.4   1 <1>  -0.9590 
 14 C        0.8100     5.8860     2.2580 C.3   1 <1>   0.4860 
 15 C        1.2290     7.1150     1.4780 C.ar  1 <1>  -0.1430 
 16 C        2.4690     7.1530     0.8570 C.ar  1 <1>  -0.1500 
 17 C        0.3770     8.2040     1.3640 C.ar  1 <1>  -0.1500 
 18 C        2.8570     8.2590     0.1190 C.ar  1 <1>   0.0820 
 19 C        0.7600     9.3130     0.6310 C.ar  1 <1>  -0.1500 
 20 O        4.0820     8.2010    -0.4560 O.3   1 <1>  -0.3630 
 21 C        1.9950     9.3450     0.0070 C.ar  1 <1>  -0.1500 
 22 C        4.5940     9.2820    -1.2020 C.3   1 <1>   0.1200 
 23 C        5.9950     8.9040    -1.6920 C.3   1 <1>  -0.1600 
 24 C        6.6160     9.9680    -2.6150 C.3   1 <1>  -0.0800 
 25 C        7.9550     9.4600    -3.1620 C.3   1 <1>  -0.2400 
 26 C        6.8350    11.3040    -1.8910 C.3   1 <1>  -0.2400 
 27 H        0.2430     1.2530    -0.8270 H     1 <1>   0.0800 
 28 H        1.3160     1.1220     0.5130 H     1 <1>   0.0800 
 29 H        4.9710     1.4150    -2.4250 H     1 <1>   0.0800 
 30 H        4.8180     2.4130    -1.0040 H     1 <1>   0.0800 
 31 H        4.3700     3.0570    -2.5700 H     1 <1>   0.0800 
 32 H        3.0820     0.4420    -3.4450 H     1 <1>   0.0800 
 33 H        2.4010     2.0290    -3.7460 H     1 <1>   0.0800 
 34 H        1.4670     0.8130    -2.9010 H     1 <1>   0.0800 
 35 H       -0.8740     1.8620     1.2150 H     1 <1>   0.0800 
 36 H       -1.1610     3.4040    -1.0440 H     1 <1>   0.0800 
 37 H        1.3500     2.9730     2.2360 H     1 <1>   0.0800 
 38 H       -0.2530     3.5120     2.7190 H     1 <1>   0.0800 
 39 H       -2.3100     3.9010     1.5170 H     1 <1>   0.4000 
 40 H       -1.0460     5.7480     0.4780 H     1 <1>   0.0800 
 41 H        0.1750     5.2860    -0.6940 H     1 <1>   0.0800 
 42 H        1.6020     4.7050     0.8250 H     1 <1>   0.4500 
 43 H       -0.1250     6.0670     2.7610 H     1 <1>   0.0800 
 44 H        1.5640     5.6580     2.9950 H     1 <1>   0.0800 
 45 H        3.1610     6.3320     0.9270 H     1 <1>   0.1500 
 46 H       -0.5890     8.2050     1.8400 H     1 <1>   0.1500 
 47 H        0.0970    10.1580     0.5440 H     1 <1>   0.1500 
 48 H        2.2660    10.2170    -0.5580 H     1 <1>   0.1500 
 49 H        3.9370     9.4600    -2.0350 H     1 <1>   0.0800 
 50 H        4.6300    10.1440    -0.5610 H     1 <1>   0.0800 
 51 H        6.6330     8.7480    -0.8400 H     1 <1>   0.0800 
 52 H        5.9210     7.9770    -2.2320 H     1 <1>   0.0800 
 53 H        5.9550    10.1330    -3.4500 H     1 <1>   0.0800 
 54 H        8.6490     9.2810    -2.3600 H     1 <1>   0.0800 
 55 H        8.3840    10.1820    -3.8340 H     1 <1>   0.0800 
 56 H        7.8140     8.5410    -3.7040 H     1 <1>   0.0800 
 57 H        7.4500    11.1650    -1.0190 H     1 <1>   0.0800 
 58 H        5.8990    11.7370    -1.5890 H     1 <1>   0.0800 
 59 H        7.3240    12.0040    -2.5450 H     1 <1>   0.0800 
@<TRIPOS>BOND
  1   1   2  2   
  2   1   3  2   
  3   1   4  am  
  4   1   5  1   
  5   4   6  1   
  6   4   7  1   
  7   5   8  1   
  8   5  27  1   
  9   5  28  1   
 10   6  29  1   
 11   6  30  1   
 12   6  31  1   
 13   7  32  1   
 14   7  33  1   
 15   7  34  1   
 16   8   9  1   
 17   8  10  1   
 18   8  35  1   
 19   9  11  1   
 20   9  12  1   
 21   9  36  1   
 22  10  13  1   
 23  10  37  1   
 24  10  38  1   
 25  11  39  1   
 26  12  13  1   
 27  12  40  1   
 28  12  41  1   
 29  13  14  1   
 30  13  42  1   
 31  14  15  1   
 32  14  43  1   
 33  14  44  1   
 34  15  16  ar  
 35  15  17  ar  
 36  16  18  ar  
 37  16  45  1   
 38  17  19  ar  
 39  17  46  1   
 40  18  20  1   
 41  18  21  ar  
 42  19  21  ar  
 43  19  47  1   
 44  20  22  1   
 45  21  48  1   
 46  22  23  1   
 47  22  49  1   
 48  22  50  1   
 49  23  24  1   
 50  23  51  1   
 51  23  52  1   
 52  24  25  1   
 53  24  26  1   
 54  24  53  1   
 55  25  54  1   
 56  25  55  1   
 57  25  56  1   
 58  26  57  1   
 59  26  58  1   
 60  26  59  1   
@<TRIPOS>SUBSTRUCTURE
  1 ****  16 GROUP 4 **** **** 0

# MOE 2024.06 (io_trps.svl 2023.06)
