@<TRIPOS>MOLECULE
NONAME
45 45 1 0 0 
SMALL
USER_CHARGES


@<TRIPOS>ATOM
  1 O        1.3860    -0.1580    -1.9590 O.2   1 <1>  -0.5700 
  2 C        1.6940    -0.6040    -0.8760 C.2   1 <1>   0.5690 
  3 N        2.3420     0.1450     0.0660 N.am  1 <1>  -0.4930 
  4 C        1.3660    -2.0750    -0.5460 C.3   1 <1>   0.2810 
  5 C        2.6640     1.5250     0.0280 C.2   1 <1>   0.0630 
  6 N        2.3070    -2.9930    -1.2430 N.am  1 <1>  -0.7300 
  7 C       -0.0720    -2.4940    -0.9130 C.3   1 <1>  -0.1600 
  8 C        2.3840     2.4790    -0.9530 C.2   1 <1>   0.1390 
  9 C        3.3280     2.2080     0.9820 C.2   1 <1>  -0.3020 
 10 C        2.9070    -4.1150    -0.7920 C.2   1 <1>   0.5690 
 11 C       -1.1510    -2.0600     0.1020 C.3   1 <1>  -0.0800 
 12 N        2.8340     3.6580    -0.6390 N.2   1 <1>  -0.7070 
 13 N        3.4200     3.4910     0.5640 N.pl3 1 <1>   0.3140 
 14 O        3.6640    -4.7200    -1.5010 O.2   1 <1>  -0.5700 
 15 C        2.6380    -4.6310     0.6010 C.3   1 <1>  -0.1790 
 16 C       -2.5000    -2.6630    -0.3060 C.3   1 <1>  -0.2400 
 17 C       -1.2980    -0.5360     0.2120 C.3   1 <1>  -0.2400 
 18 C        4.0690     4.6050     1.2680 C.3   1 <1>   0.1570 
 19 C        5.4490     4.8410     0.6990 C.2   1 <1>   0.5690 
 20 O        6.3690     4.9800     1.4690 O.2   1 <1>  -0.5700 
 21 N        5.6170     4.9010    -0.6500 N.am  1 <1>  -0.7300 
 22 C        6.8980     5.1230    -1.3620 C.3   1 <1>   0.0600 
 23 H        2.6640    -0.3360     0.9030 H     1 <1>   0.3700 
 24 H        1.4870    -2.2100     0.5130 H     1 <1>   0.0800 
 25 H        2.5110    -2.7360    -2.2140 H     1 <1>   0.3700 
 26 H       -0.3200    -2.1120    -1.8890 H     1 <1>   0.0800 
 27 H       -0.1020    -3.5680    -0.9740 H     1 <1>   0.0800 
 28 H        1.8550     2.2690    -1.8680 H     1 <1>   0.1500 
 29 H        3.7370     1.8670     1.9140 H     1 <1>   0.1500 
 30 H       -0.8970    -2.4510     1.0740 H     1 <1>   0.0800 
 31 H        1.5820    -4.7360     0.7580 H     1 <1>   0.0800 
 32 H        3.0520    -3.9560     1.3250 H     1 <1>   0.0800 
 33 H        3.1010    -5.5930     0.7220 H     1 <1>   0.0800 
 34 H       -2.8040    -2.2940    -1.2700 H     1 <1>   0.0800 
 35 H       -3.2590    -2.4080     0.4120 H     1 <1>   0.0800 
 36 H       -2.4360    -3.7360    -0.3550 H     1 <1>   0.0800 
 37 H       -1.4300    -0.0960    -0.7610 H     1 <1>   0.0800 
 38 H       -0.4390    -0.0930     0.6800 H     1 <1>   0.0800 
 39 H       -2.1540    -0.2860     0.8140 H     1 <1>   0.0800 
 40 H        3.4750     5.4890     1.1410 H     1 <1>   0.0800 
 41 H        4.1410     4.3720     2.3130 H     1 <1>   0.0800 
 42 H        4.7980     4.6760    -1.2370 H     1 <1>   0.3700 
 43 H        7.6900     5.3140    -0.6570 H     1 <1>   0.0800 
 44 H        6.8060     5.9680    -2.0210 H     1 <1>   0.0800 
 45 H        7.1490     4.2490    -1.9380 H     1 <1>   0.0800 
@<TRIPOS>BOND
  1   1   2  2   
  2   2   3  am  
  3   2   4  1   
  4   3   5  1   
  5   3  23  1   
  6   4   6  1   
  7   4   7  1   
  8   4  24  1   
  9   5   8  1   
 10   5   9  2   
 11   6  10  am  
 12   6  25  1   
 13   7  11  1   
 14   7  26  1   
 15   7  27  1   
 16   8  12  2   
 17   8  28  1   
 18   9  13  1   
 19   9  29  1   
 20  10  14  2   
 21  10  15  1   
 22  11  16  1   
 23  11  17  1   
 24  11  30  1   
 25  12  13  1   
 26  13  18  1   
 27  15  31  1   
 28  15  32  1   
 29  15  33  1   
 30  16  34  1   
 31  16  35  1   
 32  16  36  1   
 33  17  37  1   
 34  17  38  1   
 35  17  39  1   
 36  18  19  1   
 37  18  40  1   
 38  18  41  1   
 39  19  20  2   
 40  19  21  am  
 41  21  22  1   
 42  21  42  1   
 43  22  43  1   
 44  22  44  1   
 45  22  45  1   
@<TRIPOS>SUBSTRUCTURE
  1 ****   3 GROUP 4 **** **** 0

# MOE 2024.06 (io_trps.svl 2023.06)
