@<TRIPOS>MOLECULE
NONAME
51 54 1 0 0 
SMALL
USER_CHARGES


@<TRIPOS>ATOM
  1 F       -2.9220     1.7980    -2.3740 F     1 <1>  -0.1900 
  2 C       -2.2500     2.6850    -1.6950 C.ar  1 <1>   0.1900 
  3 C       -2.8680     3.3790    -0.6930 C.ar  1 <1>  -0.1500 
  4 C       -0.9110     2.8880    -2.0280 C.ar  1 <1>  -0.1500 
  5 C       -2.1510     4.3490     0.0400 C.ar  1 <1>   0.0000 
  6 C       -0.1990     3.8150    -1.3150 C.ar  1 <1>  -0.1500 
  7 C       -0.7870     4.5570    -0.2720 C.ar  1 <1>   0.3100 
  8 C       -2.7220     5.1280     1.0760 C.ar  1 <1>   0.0860 
  9 N       -0.0070     5.4410     0.3920 N.ar  1 <1>  -0.6200 
 10 C       -4.1200     5.0390     1.4310 C.2   1 <1>   0.5440 
 11 C       -1.8840     5.9890     1.7330 C.ar  1 <1>  -0.1500 
 12 C       -0.5440     6.1130     1.3610 C.ar  1 <1>   0.1660 
 13 O       -4.4200     4.5400     2.4990 O.2   1 <1>  -0.5700 
 14 N       -5.1160     5.5340     0.6130 N.am  1 <1>  -0.6600 
 15 C        0.3540     7.0790     2.1050 C.3   1 <1>  -0.0970 
 16 C       -6.5610     5.4710     1.0020 C.3   1 <1>   0.1400 
 17 C       -4.8630     6.2900    -0.6440 C.3   1 <1>   0.1400 
 18 C       -7.4400     4.8640    -0.1190 C.3   1 <1>   0.0000 
 19 C       -5.6740     5.6750    -1.7870 C.3   1 <1>  -0.1600 
 20 C       -8.9180     4.9280     0.3230 C.3   1 <1>   0.2000 
 21 C       -7.1710     5.6140    -1.4470 C.3   1 <1>  -0.1600 
 22 C       -7.1900     3.3500    -0.2400 C.3   1 <1>  -0.1600 
 23 O       -9.7510     4.7700    -0.7900 O.3   1 <1>  -0.5600 
 24 C       -9.1090     3.7200     1.2480 C.3   1 <1>  -0.1600 
 25 C       -8.0540     2.6850     0.8370 C.3   1 <1>  -0.1600 
 26 C      -11.0330     5.2940    -0.6500 C.3   1 <1>   0.0400 
 27 H       -3.8990     3.1810    -0.4660 H     1 <1>   0.1500 
 28 H       -0.4710     2.3160    -2.8260 H     1 <1>   0.1500 
 29 H        0.8370     4.0020    -1.5310 H     1 <1>   0.1500 
 30 H       -2.2650     6.5810     2.5460 H     1 <1>   0.1500 
 31 H       -0.1730     7.5690     2.9020 H     1 <1>   0.0800 
 32 H        0.7240     7.8220     1.4230 H     1 <1>   0.0800 
 33 H        1.1900     6.5440     2.5180 H     1 <1>   0.0800 
 34 H       -6.6790     4.8980     1.9050 H     1 <1>   0.0800 
 35 H       -6.8940     6.4720     1.2110 H     1 <1>   0.0800 
 36 H       -5.1640     7.3140    -0.5000 H     1 <1>   0.0800 
 37 H       -3.8190     6.2860    -0.9020 H     1 <1>   0.0800 
 38 H       -5.5340     6.2650    -2.6760 H     1 <1>   0.0800 
 39 H       -5.3040     4.6870    -1.9940 H     1 <1>   0.0800 
 40 H       -9.1490     5.8630     0.8060 H     1 <1>   0.0800 
 41 H       -7.6970     5.1370    -2.2550 H     1 <1>   0.0800 
 42 H       -7.5520     6.6170    -1.3640 H     1 <1>   0.0800 
 43 H       -7.5280     3.0110    -1.2040 H     1 <1>   0.0800 
 44 H       -6.1540     3.0900    -0.1290 H     1 <1>   0.0800 
 45 H       -8.9250     4.0220     2.2640 H     1 <1>   0.0800 
 46 H      -10.1030     3.3160     1.1870 H     1 <1>   0.0800 
 47 H       -7.4480     2.4200     1.6870 H     1 <1>   0.0800 
 48 H       -8.5170     1.7950     0.4470 H     1 <1>   0.0800 
 49 H      -11.5790     5.0830    -1.5520 H     1 <1>   0.0800 
 50 H      -10.9670     6.3580    -0.5070 H     1 <1>   0.0800 
 51 H      -11.5240     4.8290     0.1870 H     1 <1>   0.0800 
@<TRIPOS>BOND
  1   1   2  1   
  2   2   3  ar  
  3   2   4  ar  
  4   3   5  ar  
  5   3  27  1   
  6   4   6  ar  
  7   4  28  1   
  8   5   7  ar  
  9   5   8  ar  
 10   6   7  ar  
 11   6  29  1   
 12   7   9  ar  
 13   8  10  1   
 14   8  11  ar  
 15   9  12  ar  
 16  10  13  2   
 17  10  14  am  
 18  11  12  ar  
 19  11  30  1   
 20  12  15  1   
 21  14  16  1   
 22  14  17  1   
 23  15  31  1   
 24  15  32  1   
 25  15  33  1   
 26  16  18  1   
 27  16  34  1   
 28  16  35  1   
 29  17  19  1   
 30  17  36  1   
 31  17  37  1   
 32  18  20  1   
 33  18  21  1   
 34  18  22  1   
 35  19  21  1   
 36  19  38  1   
 37  19  39  1   
 38  20  23  1   
 39  20  24  1   
 40  20  40  1   
 41  21  41  1   
 42  21  42  1   
 43  22  25  1   
 44  22  43  1   
 45  22  44  1   
 46  23  26  1   
 47  24  25  1   
 48  24  45  1   
 49  24  46  1   
 50  25  47  1   
 51  25  48  1   
 52  26  49  1   
 53  26  50  1   
 54  26  51  1   
@<TRIPOS>SUBSTRUCTURE
  1 ****  14 GROUP 4 **** **** 0

# MOE 2024.06 (io_trps.svl 2023.06)
