@<TRIPOS>MOLECULE
NONAME
39 41 1 0 0 
SMALL
USER_CHARGES


@<TRIPOS>ATOM
  1 O        0.5340     0.4350    -0.9350 O.3   1 <1>  -0.3630 
  2 C        1.6490     1.0410    -0.4630 C.ar  1 <1>   0.0830 
  3 C       -0.7170     1.0860    -0.9320 C.3   1 <1>   0.0400 
  4 C        2.8210     0.3070    -0.5050 C.ar  1 <1>  -0.1500 
  5 C        1.6730     2.3340     0.0490 C.ar  1 <1>  -0.1500 
  6 C        4.0130     0.8410    -0.0450 C.ar  1 <1>  -0.1430 
  7 C        2.8610     2.8730     0.5100 C.ar  1 <1>  -0.1500 
  8 C        4.0360     2.1350     0.4670 C.ar  1 <1>  -0.1440 
  9 C        5.2770    -0.0030    -0.1280 C.3   1 <1>  -0.0170 
 10 C        5.3180     2.7600     0.9940 C.3   1 <1>   0.4860 
 11 C        6.4450     0.6130     0.6450 C.3   1 <1>   0.3430 
 12 N        6.5000     2.0850     0.3950 N.4   1 <1>  -0.9590 
 13 C        7.7790     2.6990     0.8360 C.3   1 <1>   0.4860 
 14 C        8.9100     2.0790     0.0410 C.ar  1 <1>  -0.1430 
 15 C        9.7830     1.1870     0.6500 C.ar  1 <1>  -0.1500 
 16 C        9.0780     2.3900    -1.3010 C.ar  1 <1>  -0.1500 
 17 C       10.8040     0.6050    -0.0800 C.ar  1 <1>  -0.1500 
 18 C       10.1000     1.8060    -2.0290 C.ar  1 <1>  -0.1500 
 19 C       10.9610     0.9120    -1.4190 C.ar  1 <1>  -0.1500 
 20 H       -1.4450     0.4120    -1.3470 H     1 <1>   0.0800 
 21 H       -0.6520     1.9710    -1.5400 H     1 <1>   0.0800 
 22 H       -0.9830     1.3300     0.0810 H     1 <1>   0.0800 
 23 H        2.7810    -0.6900    -0.9070 H     1 <1>   0.1500 
 24 H        0.7800     2.9290     0.0940 H     1 <1>   0.1500 
 25 H        2.8520     3.8760     0.9030 H     1 <1>   0.1500 
 26 H        5.5580    -0.1130    -1.1610 H     1 <1>   0.0800 
 27 H        5.0830    -0.9870     0.2600 H     1 <1>   0.0800 
 28 H        5.3400     2.6620     2.0670 H     1 <1>   0.0800 
 29 H        5.3270     3.8090     0.7460 H     1 <1>   0.0800 
 30 H        7.3620     0.1400     0.3290 H     1 <1>   0.0800 
 31 H        6.3130     0.4290     1.6990 H     1 <1>   0.0800 
 32 H        6.4310     2.2080    -0.6220 H     1 <1>   0.4500 
 33 H        7.9340     2.5280     1.8890 H     1 <1>   0.0800 
 34 H        7.7640     3.7620     0.6590 H     1 <1>   0.0800 
 35 H        9.6870     0.9360     1.6930 H     1 <1>   0.1500 
 36 H        8.4260     3.0890    -1.7980 H     1 <1>   0.1500 
 37 H       11.4830    -0.0860     0.3910 H     1 <1>   0.1500 
 38 H       10.2320     2.0470    -3.0710 H     1 <1>   0.1500 
 39 H       11.7570     0.4590    -1.9870 H     1 <1>   0.1500 
@<TRIPOS>BOND
  1   1   2  1   
  2   1   3  1   
  3   2   4  ar  
  4   2   5  ar  
  5   3  20  1   
  6   3  21  1   
  7   3  22  1   
  8   4   6  ar  
  9   4  23  1   
 10   5   7  ar  
 11   5  24  1   
 12   6   8  ar  
 13   6   9  1   
 14   7   8  ar  
 15   7  25  1   
 16   8  10  1   
 17   9  11  1   
 18   9  26  1   
 19   9  27  1   
 20  10  12  1   
 21  10  28  1   
 22  10  29  1   
 23  11  12  1   
 24  11  30  1   
 25  11  31  1   
 26  12  13  1   
 27  12  32  1   
 28  13  14  1   
 29  13  33  1   
 30  13  34  1   
 31  14  15  ar  
 32  14  16  ar  
 33  15  17  ar  
 34  15  35  1   
 35  16  18  ar  
 36  16  36  1   
 37  17  19  ar  
 38  17  37  1   
 39  18  19  ar  
 40  18  38  1   
 41  19  39  1   
@<TRIPOS>SUBSTRUCTURE
  1 ****  12 GROUP 4 **** **** 0

# MOE 2024.06 (io_trps.svl 2023.06)
