@<TRIPOS>MOLECULE
NONAME
61 63 1 0 0 
SMALL
USER_CHARGES


@<TRIPOS>ATOM
  1 O       -0.3640     0.4030    -2.9940 O.2   1 <1>  -0.5700 
  2 C       -1.0500     1.2550    -2.4700 C.2   1 <1>   0.5690 
  3 N       -2.1690     0.8660    -1.7640 N.am  1 <1>  -0.6600 
  4 C       -0.5920     2.7440    -2.6210 C.3   1 <1>   0.3410 
  5 C       -3.2040     1.7170    -1.1160 C.3   1 <1>   0.1400 
  6 C       -2.2720    -0.4970    -1.1980 C.3   1 <1>   0.1400 
  7 O       -0.6670     3.4980    -1.4120 O.3   1 <1>  -0.3630 
  8 C       -1.5130     3.4730    -3.6100 C.3   1 <1>  -0.2400 
  9 C        0.8570     2.8960    -3.1260 C.3   1 <1>  -0.2400 
 10 C       -3.5640     1.0010     0.1930 C.3   1 <1>   0.2000 
 11 C       -2.6990    -0.2600     0.2470 C.3   1 <1>  -0.0800 
 12 C       -0.3640     3.0780    -0.1500 C.ar  1 <1>   0.0830 
 13 O       -3.2750     1.7920     1.2920 O.3   1 <1>  -0.6800 
 14 C       -3.4050    -1.4590     0.8940 C.3   1 <1>  -0.0170 
 15 C       -0.8150     3.8620     0.9150 C.ar  1 <1>  -0.1430 
 16 C        0.3350     1.9010     0.1120 C.ar  1 <1>  -0.1500 
 17 C       -2.4530    -2.6390     1.0050 C.ar  1 <1>  -0.1430 
 18 C       -0.6010     3.4150     2.2120 C.ar  1 <1>  -0.1500 
 19 C       -1.5280     5.2050     0.6920 C.3   1 <1>   0.0630 
 20 C        0.5350     1.4630     1.4080 C.ar  1 <1>  -0.1430 
 21 C       -1.5240    -2.7190     2.0210 C.ar  1 <1>  -0.1500 
 22 C       -2.4580    -3.6810     0.1000 C.ar  1 <1>  -0.1500 
 23 C        0.0590     2.2250     2.4590 C.ar  1 <1>  -0.1500 
 24 C       -0.7190     6.3510     1.3100 C.3   1 <1>  -0.2400 
 25 C       -2.9530     5.1910     1.2570 C.3   1 <1>  -0.2400 
 26 C        1.2700     0.1590     1.6600 C.3   1 <1>  -0.0970 
 27 C       -0.6670    -3.8050     2.0820 C.ar  1 <1>   0.1600 
 28 C       -1.5560    -4.7220     0.2510 C.ar  1 <1>   0.1600 
 29 N       -0.6590    -4.8080     1.2200 N.ar  1 <1>  -0.6200 
 30 H       -2.8680     2.7190    -0.9340 H     1 <1>   0.0800 
 31 H       -4.0680     1.7500    -1.7550 H     1 <1>   0.0800 
 32 H       -3.0190    -1.0490    -1.7420 H     1 <1>   0.0800 
 33 H       -1.3330    -1.0240    -1.2430 H     1 <1>   0.0800 
 34 H       -1.4730     2.9880    -4.5690 H     1 <1>   0.0800 
 35 H       -1.2040     4.4960    -3.7300 H     1 <1>   0.0800 
 36 H       -2.5290     3.4520    -3.2660 H     1 <1>   0.0800 
 37 H        0.9560     2.4480    -4.0980 H     1 <1>   0.0800 
 38 H        1.5460     2.4040    -2.4660 H     1 <1>   0.0800 
 39 H        1.1240     3.9350    -3.2000 H     1 <1>   0.0800 
 40 H       -4.6160     0.7730     0.2130 H     1 <1>   0.0800 
 41 H       -1.8040    -0.0470     0.8030 H     1 <1>   0.0800 
 42 H       -2.3320     2.0770     1.2640 H     1 <1>   0.4000 
 43 H       -4.2720    -1.7340     0.3210 H     1 <1>   0.0800 
 44 H       -3.7380    -1.1820     1.8800 H     1 <1>   0.0800 
 45 H        0.7320     1.3010    -0.6830 H     1 <1>   0.1500 
 46 H       -0.9460     3.9960     3.0480 H     1 <1>   0.1500 
 47 H       -1.6070     5.4130    -0.3600 H     1 <1>   0.0800 
 48 H       -1.4590    -1.9450     2.7650 H     1 <1>   0.1500 
 49 H       -3.1520    -3.6960    -0.7210 H     1 <1>   0.1500 
 50 H        0.2070     1.9030     3.4750 H     1 <1>   0.1500 
 51 H       -0.6630     6.2540     2.3780 H     1 <1>   0.0800 
 52 H       -1.1740     7.2960     1.0740 H     1 <1>   0.0800 
 53 H        0.2800     6.3450     0.9110 H     1 <1>   0.0800 
 54 H       -2.9500     5.0100     2.3160 H     1 <1>   0.0800 
 55 H       -3.5300     4.4210     0.7800 H     1 <1>   0.0800 
 56 H       -3.4340     6.1350     1.0720 H     1 <1>   0.0800 
 57 H        1.0920    -0.1930     2.6590 H     1 <1>   0.0800 
 58 H        2.3270     0.3070     1.5270 H     1 <1>   0.0800 
 59 H        0.9360    -0.5950     0.9690 H     1 <1>   0.0800 
 60 H        0.0510    -3.8500     2.8830 H     1 <1>   0.1500 
 61 H       -1.5730    -5.5260    -0.4650 H     1 <1>   0.1500 
@<TRIPOS>BOND
  1   1   2  2   
  2   2   3  am  
  3   2   4  1   
  4   3   5  1   
  5   3   6  1   
  6   4   7  1   
  7   4   8  1   
  8   4   9  1   
  9   5  10  1   
 10   5  30  1   
 11   5  31  1   
 12   6  11  1   
 13   6  32  1   
 14   6  33  1   
 15   7  12  1   
 16   8  34  1   
 17   8  35  1   
 18   8  36  1   
 19   9  37  1   
 20   9  38  1   
 21   9  39  1   
 22  10  11  1   
 23  10  13  1   
 24  10  40  1   
 25  11  14  1   
 26  11  41  1   
 27  12  15  ar  
 28  12  16  ar  
 29  13  42  1   
 30  14  17  1   
 31  14  43  1   
 32  14  44  1   
 33  15  18  ar  
 34  15  19  1   
 35  16  20  ar  
 36  16  45  1   
 37  17  21  ar  
 38  17  22  ar  
 39  18  23  ar  
 40  18  46  1   
 41  19  24  1   
 42  19  25  1   
 43  19  47  1   
 44  20  23  ar  
 45  20  26  1   
 46  21  27  ar  
 47  21  48  1   
 48  22  28  ar  
 49  22  49  1   
 50  23  50  1   
 51  24  51  1   
 52  24  52  1   
 53  24  53  1   
 54  25  54  1   
 55  25  55  1   
 56  25  56  1   
 57  26  57  1   
 58  26  58  1   
 59  26  59  1   
 60  27  29  ar  
 61  27  60  1   
 62  28  29  ar  
 63  28  61  1   
@<TRIPOS>SUBSTRUCTURE
  1 ****  11 GROUP 4 **** **** 0

# MOE 2024.06 (io_trps.svl 2023.06)
