@<TRIPOS>MOLECULE
NONAME
52 54 1 0 0 
SMALL
USER_CHARGES


@<TRIPOS>ATOM
  1 O       -3.0260     0.5460     1.1500 O.2   1 <1>  -0.5700 
  2 C       -2.9620     1.4310     0.3290 C.2   1 <1>   0.5690 
  3 N       -3.4270     1.2150    -0.9340 N.am  1 <1>  -0.6600 
  4 C       -2.4210     2.7940     0.7160 C.3   1 <1>  -0.0990 
  5 C       -4.8620     1.5440    -1.1930 C.3   1 <1>   0.1400 
  6 C       -3.0180    -0.0610    -1.6100 C.3   1 <1>   0.1400 
  7 C       -0.9270     2.9260     0.3820 C.3   1 <1>  -0.1600 
  8 C       -5.8010     0.4180    -0.6700 C.3   1 <1>   0.4230 
  9 C       -4.0480    -1.1980    -1.3930 C.3   1 <1>   0.3430 
 10 C       -0.3710     4.2990     0.7870 C.3   1 <1>   0.0210 
 11 N       -5.0380    -0.8420    -0.3170 N.4   1 <1>  -0.9590 
 12 C       -6.9310     0.1140    -1.6810 C.3   1 <1>   0.1200 
 13 C        1.1000     4.4540     0.4390 C.2   1 <1>  -0.1810 
 14 C       -5.9790    -1.9270     0.1110 C.3   1 <1>   0.4230 
 15 O       -7.7490    -0.9200    -1.2120 O.3   1 <1>  -0.5600 
 16 C        1.8430     5.6200     0.6080 C.2   1 <1>   0.1390 
 17 C        1.9790     3.5670    -0.0770 C.2   1 <1>  -0.3020 
 18 C       -7.0960    -2.1310    -0.9410 C.3   1 <1>   0.1200 
 19 C       -5.2090    -3.2180     0.4320 C.3   1 <1>  -0.1600 
 20 N        3.0770     5.4810     0.2320 N.2   1 <1>  -0.7070 
 21 N        3.1600     4.2070    -0.1920 N.pl3 1 <1>   0.3000 
 22 C       -6.0640    -4.2340     1.2050 C.3   1 <1>  -0.1600 
 23 C       -5.2380    -5.4690     1.5770 C.3   1 <1>  -0.2400 
 24 H       -2.9780     3.5540     0.2000 H     1 <1>   0.0800 
 25 H       -2.5680     2.9310     1.7730 H     1 <1>   0.0800 
 26 H       -5.1200     2.4720    -0.7110 H     1 <1>   0.0800 
 27 H       -5.0000     1.6870    -2.2510 H     1 <1>   0.0800 
 28 H       -2.8840     0.1140    -2.6630 H     1 <1>   0.0800 
 29 H       -2.0660    -0.3780    -1.2180 H     1 <1>   0.0800 
 30 H       -0.3780     2.1580     0.9000 H     1 <1>   0.0800 
 31 H       -0.7830     2.7870    -0.6760 H     1 <1>   0.0800 
 32 H       -6.2750     0.7870     0.2250 H     1 <1>   0.0800 
 33 H       -3.5120    -2.0940    -1.1270 H     1 <1>   0.0800 
 34 H       -4.5670    -1.3880    -2.3170 H     1 <1>   0.0800 
 35 H       -0.4890     4.4380     1.8470 H     1 <1>   0.0800 
 36 H       -0.9240     5.0740     0.2840 H     1 <1>   0.0800 
 37 H       -4.4430    -0.5730     0.4960 H     1 <1>   0.4500 
 38 H       -6.5350    -0.1720    -2.6400 H     1 <1>   0.0800 
 39 H       -7.5540     0.9810    -1.8130 H     1 <1>   0.0800 
 40 H       -6.4610    -1.6100     1.0210 H     1 <1>   0.0800 
 41 H        1.4500     6.5400     1.0060 H     1 <1>   0.1500 
 42 H        1.8430     2.5410    -0.3630 H     1 <1>   0.1500 
 43 H       -7.8380    -2.8150    -0.5680 H     1 <1>   0.0800 
 44 H       -6.7010    -2.5260    -1.8610 H     1 <1>   0.0800 
 45 H       -4.8620    -3.6820    -0.4740 H     1 <1>   0.0800 
 46 H       -4.3560    -2.9710     1.0420 H     1 <1>   0.0800 
 47 H        4.0350     3.8070    -0.5530 H     1 <1>   0.2700 
 48 H       -6.4420    -3.7850     2.1090 H     1 <1>   0.0800 
 49 H       -6.9050    -4.5520     0.6130 H     1 <1>   0.0800 
 50 H       -4.4050    -5.1980     2.2020 H     1 <1>   0.0800 
 51 H       -4.8650    -5.9590     0.6950 H     1 <1>   0.0800 
 52 H       -5.8500    -6.1700     2.1190 H     1 <1>   0.0800 
@<TRIPOS>BOND
  1   1   2  2   
  2   2   3  am  
  3   2   4  1   
  4   3   5  1   
  5   3   6  1   
  6   4   7  1   
  7   4  24  1   
  8   4  25  1   
  9   5   8  1   
 10   5  26  1   
 11   5  27  1   
 12   6   9  1   
 13   6  28  1   
 14   6  29  1   
 15   7  10  1   
 16   7  30  1   
 17   7  31  1   
 18   8  11  1   
 19   8  12  1   
 20   8  32  1   
 21   9  11  1   
 22   9  33  1   
 23   9  34  1   
 24  10  13  1   
 25  10  35  1   
 26  10  36  1   
 27  11  14  1   
 28  11  37  1   
 29  12  15  1   
 30  12  38  1   
 31  12  39  1   
 32  13  16  1   
 33  13  17  2   
 34  14  18  1   
 35  14  19  1   
 36  14  40  1   
 37  15  18  1   
 38  16  20  2   
 39  16  41  1   
 40  17  21  1   
 41  17  42  1   
 42  18  43  1   
 43  18  44  1   
 44  19  22  1   
 45  19  45  1   
 46  19  46  1   
 47  20  21  1   
 48  21  47  1   
 49  22  23  1   
 50  22  48  1   
 51  22  49  1   
 52  23  50  1   
 53  23  51  1   
 54  23  52  1   
@<TRIPOS>SUBSTRUCTURE
  1 ****   2 GROUP 4 **** **** 0

# MOE 2024.06 (io_trps.svl 2023.06)
