@<TRIPOS>MOLECULE
NONAME
41 44 1 0 0 
SMALL
USER_CHARGES


@<TRIPOS>ATOM
  1 S       -0.1900     0.0680     1.4920 S.3   1 <1>  -0.0800 
  2 C       -1.2590     1.0530     0.5060 C.2   1 <1>  -0.1400 
  3 C       -1.4440    -1.1490     1.6900 C.2   1 <1>  -0.1100 
  4 C       -2.4570     0.4690     0.3760 C.2   1 <1>  -0.1810 
  5 C       -0.8230     2.3820    -0.1020 C.3   1 <1>   0.4600 
  6 C       -2.5700    -0.7910     1.0440 C.2   1 <1>  -0.1500 
  7 C       -3.5350     1.1560    -0.4300 C.3   1 <1>   0.0210 
  8 O       -1.8590     2.8610    -0.9380 O.3   1 <1>  -0.5600 
  9 C        0.3960     2.1900    -1.0250 C.3   1 <1>  -0.1600 
 10 C       -0.5710     3.4340     0.9920 C.3   1 <1>  -0.1600 
 11 C       -3.1970     2.6550    -0.5440 C.3   1 <1>   0.1200 
 12 C        1.6910     2.7410    -0.4250 C.3   1 <1>   0.1400 
 13 C        0.1970     4.6250     0.4230 C.3   1 <1>   0.1400 
 14 N        1.5340     4.1880    -0.0860 N.am  1 <1>  -0.6600 
 15 C        2.6320     5.0220    -0.0970 C.2   1 <1>   0.5440 
 16 O        3.7440     4.5370    -0.1620 O.2   1 <1>  -0.5700 
 17 C        2.5000     6.4610    -0.0270 C.ar  1 <1>   0.0860 
 18 C        1.6390     7.1480    -0.8780 C.ar  1 <1>   0.1600 
 19 C        3.2280     7.2220     0.8740 C.ar  1 <1>  -0.1500 
 20 N        1.4350     8.4550    -0.8840 N.ar  1 <1>  -0.6200 
 21 C        3.0370     8.5870     0.8760 C.ar  1 <1>  -0.1500 
 22 C        2.1370     9.1770    -0.0060 C.ar  1 <1>   0.3830 
 23 C        1.9570    10.6060     0.0280 C.1   1 <1>   0.4840 
 24 N        1.8490    11.7420     0.0980 N.1   1 <1>  -0.5570 
 25 H       -1.2000    -2.0170     2.2770 H     1 <1>   0.1500 
 26 H       -3.4810    -1.3620     1.0080 H     1 <1>   0.1500 
 27 H       -4.4890     1.0400     0.0510 H     1 <1>   0.0800 
 28 H       -3.5920     0.7180    -1.4110 H     1 <1>   0.0800 
 29 H        0.2300     2.6920    -1.9620 H     1 <1>   0.0800 
 30 H        0.5290     1.1460    -1.2420 H     1 <1>   0.0800 
 31 H        0.0100     3.0040     1.7870 H     1 <1>   0.0800 
 32 H       -1.4980     3.7590     1.4220 H     1 <1>   0.0800 
 33 H       -3.3540     3.1420     0.4020 H     1 <1>   0.0800 
 34 H       -3.8300     3.1220    -1.2780 H     1 <1>   0.0800 
 35 H        2.4940     2.6170    -1.1330 H     1 <1>   0.0800 
 36 H        1.9490     2.1950     0.4670 H     1 <1>   0.0800 
 37 H        0.3240     5.3670     1.1920 H     1 <1>   0.0800 
 38 H       -0.3680     5.0590    -0.3850 H     1 <1>   0.0800 
 39 H        1.0870     6.5690    -1.6000 H     1 <1>   0.1500 
 40 H        3.9250     6.7460     1.5440 H     1 <1>   0.1500 
 41 H        3.5880     9.2040     1.5650 H     1 <1>   0.1500 
@<TRIPOS>BOND
  1   1   2  1   
  2   1   3  1   
  3   2   4  2   
  4   2   5  1   
  5   3   6  2   
  6   3  25  1   
  7   4   6  1   
  8   4   7  1   
  9   5   8  1   
 10   5   9  1   
 11   5  10  1   
 12   6  26  1   
 13   7  11  1   
 14   7  27  1   
 15   7  28  1   
 16   8  11  1   
 17   9  12  1   
 18   9  29  1   
 19   9  30  1   
 20  10  13  1   
 21  10  31  1   
 22  10  32  1   
 23  11  33  1   
 24  11  34  1   
 25  12  14  1   
 26  12  35  1   
 27  12  36  1   
 28  13  14  1   
 29  13  37  1   
 30  13  38  1   
 31  14  15  am  
 32  15  16  2   
 33  15  17  1   
 34  17  18  ar  
 35  17  19  ar  
 36  18  20  ar  
 37  18  39  1   
 38  19  21  ar  
 39  19  40  1   
 40  20  22  ar  
 41  21  22  ar  
 42  21  41  1   
 43  22  23  1   
 44  23  24  3   
@<TRIPOS>SUBSTRUCTURE
  1 ****  13 GROUP 4 **** **** 0

# MOE 2024.06 (io_trps.svl 2023.06)
