@<TRIPOS>MOLECULE
NONAME
58 62 1 0 0 
SMALL
USER_CHARGES


@<TRIPOS>ATOM
  1 O       -0.2710    -3.3980    -0.6540 O.3   1 <1>  -0.5320 
  2 C       -1.5370    -3.4880    -0.2240 C.ar  1 <1>   0.0830 
  3 C       -2.3340    -2.3770    -0.2080 C.ar  1 <1>  -0.1500 
  4 C       -2.0310    -4.7240     0.2090 C.ar  1 <1>  -0.1500 
  5 C       -3.6670    -2.4480     0.2400 C.ar  1 <1>   0.0000 
  6 C       -3.3230    -4.8180     0.6480 C.ar  1 <1>  -0.1500 
  7 C       -4.1730    -3.6920     0.6740 C.ar  1 <1>   0.0000 
  8 C       -4.5140    -1.3240     0.2760 C.ar  1 <1>  -0.1500 
  9 C       -5.5090    -3.7610     1.1160 C.ar  1 <1>  -0.1500 
 10 C       -5.8070    -1.4190     0.7100 C.ar  1 <1>  -0.1500 
 11 C       -6.3210    -2.6560     1.1300 C.ar  1 <1>  -0.1430 
 12 C       -7.7640    -2.7520     1.5850 C.3   1 <1>   0.4860 
 13 N       -8.6460    -2.6270     0.3930 N.4   1 <1>  -0.9590 
 14 C      -10.0850    -2.4940     0.8010 C.3   1 <1>   0.3430 
 15 C       -8.4460    -3.7650    -0.5550 C.3   1 <1>   0.3430 
 16 C      -11.0160    -2.2790    -0.4060 C.3   1 <1>   0.1430 
 17 C       -9.3080    -3.5620    -1.8050 C.3   1 <1>  -0.1600 
 18 C      -12.4380    -2.3080     0.0960 C.ar  1 <1>   0.1670 
 19 C      -10.7970    -3.3860    -1.4580 C.3   1 <1>  -0.1600 
 20 C      -10.9070    -0.8570    -1.0210 C.3   1 <1>  -0.1600 
 21 N      -12.9090    -3.2110     0.9150 N.ar  1 <1>  -0.6200 
 22 C      -13.1690    -1.2670    -0.3850 C.ar  1 <1>  -0.1430 
 23 C      -12.3500    -0.3840    -1.2930 C.3   1 <1>  -0.0170 
 24 C      -14.1920    -3.0450     1.2530 C.ar  1 <1>   0.7200 
 25 C      -14.4770    -1.1760     0.0170 C.ar  1 <1>   0.1600 
 26 N      -14.9950    -2.0600     0.8380 N.ar  1 <1>  -0.6200 
 27 N      -14.7310    -3.9730     2.1180 N.pl3 1 <1>  -0.8380 
 28 C      -14.2260    -5.3710     2.2030 C.3   1 <1>   0.1290 
 29 C      -16.0110    -3.7160     2.8350 C.3   1 <1>   0.1290 
 30 H        0.2150    -4.2410    -0.6150 H     1 <1>   0.4500 
 31 H       -1.9390    -1.4350    -0.5410 H     1 <1>   0.1500 
 32 H       -1.3910    -5.5870     0.1930 H     1 <1>   0.1500 
 33 H       -3.7080    -5.7640     0.9840 H     1 <1>   0.1500 
 34 H       -4.1120    -0.3780    -0.0460 H     1 <1>   0.1500 
 35 H       -5.8680    -4.7210     1.4450 H     1 <1>   0.1500 
 36 H       -6.4240    -0.5370     0.7340 H     1 <1>   0.1500 
 37 H       -7.9680    -1.9590     2.2860 H     1 <1>   0.0800 
 38 H       -7.9350    -3.6950     2.0770 H     1 <1>   0.0800 
 39 H       -8.3560    -1.7750    -0.1010 H     1 <1>   0.4500 
 40 H      -10.2070    -1.6710     1.4860 H     1 <1>   0.0800 
 41 H      -10.3980    -3.3920     1.3090 H     1 <1>   0.0800 
 42 H       -8.7230    -4.6910    -0.0770 H     1 <1>   0.0800 
 43 H       -7.4090    -3.8310    -0.8450 H     1 <1>   0.0800 
 44 H       -9.1960    -4.4210    -2.4440 H     1 <1>   0.0800 
 45 H       -8.9440    -2.7120    -2.3540 H     1 <1>   0.0800 
 46 H      -11.3630    -3.1680    -2.3490 H     1 <1>   0.0800 
 47 H      -11.1730    -4.3170    -1.0660 H     1 <1>   0.0800 
 48 H      -10.3180    -0.8300    -1.9210 H     1 <1>   0.0800 
 49 H      -10.4690    -0.1840    -0.3050 H     1 <1>   0.0800 
 50 H      -12.6280    -0.5660    -2.3170 H     1 <1>   0.0800 
 51 H      -12.4800     0.6590    -1.0600 H     1 <1>   0.0800 
 52 H      -15.1060    -0.3750    -0.3340 H     1 <1>   0.1500 
 53 H      -13.5780    -5.5960     1.3740 H     1 <1>   0.0800 
 54 H      -15.0520    -6.0600     2.1810 H     1 <1>   0.0800 
 55 H      -13.6810    -5.5010     3.1210 H     1 <1>   0.0800 
 56 H      -16.1180    -2.6670     3.0500 H     1 <1>   0.0800 
 57 H      -16.0290    -4.2560     3.7660 H     1 <1>   0.0800 
 58 H      -16.8370    -4.0320     2.2230 H     1 <1>   0.0800 
@<TRIPOS>BOND
  1   1   2  1   
  2   1  30  1   
  3   2   3  ar  
  4   2   4  ar  
  5   3   5  ar  
  6   3  31  1   
  7   4   6  ar  
  8   4  32  1   
  9   5   7  ar  
 10   5   8  ar  
 11   6   7  ar  
 12   6  33  1   
 13   7   9  ar  
 14   8  10  ar  
 15   8  34  1   
 16   9  11  ar  
 17   9  35  1   
 18  10  11  ar  
 19  10  36  1   
 20  11  12  1   
 21  12  13  1   
 22  12  37  1   
 23  12  38  1   
 24  13  14  1   
 25  13  15  1   
 26  13  39  1   
 27  14  16  1   
 28  14  40  1   
 29  14  41  1   
 30  15  17  1   
 31  15  42  1   
 32  15  43  1   
 33  16  18  1   
 34  16  19  1   
 35  16  20  1   
 36  17  19  1   
 37  17  44  1   
 38  17  45  1   
 39  18  21  ar  
 40  18  22  ar  
 41  19  46  1   
 42  19  47  1   
 43  20  23  1   
 44  20  48  1   
 45  20  49  1   
 46  21  24  ar  
 47  22  23  1   
 48  22  25  ar  
 49  23  50  1   
 50  23  51  1   
 51  24  26  ar  
 52  24  27  1   
 53  25  26  ar  
 54  25  52  1   
 55  27  28  1   
 56  27  29  1   
 57  28  53  1   
 58  28  54  1   
 59  28  55  1   
 60  29  56  1   
 61  29  57  1   
 62  29  58  1   
@<TRIPOS>SUBSTRUCTURE
  1 ****  13 GROUP 4 **** **** 0

# MOE 2024.06 (io_trps.svl 2023.06)
