@<TRIPOS>MOLECULE
NONAME
47 50 1 0 0 
SMALL
USER_CHARGES


@<TRIPOS>ATOM
  1 S        0.0920     0.4890     2.1330 S.3   1 <1>  -0.0800 
  2 C       -0.9680     1.1010     0.8730 C.2   1 <1>  -0.1400 
  3 C       -1.0720    -0.7630     2.5480 C.2   1 <1>  -0.1100 
  4 C       -2.1020     0.3900     0.8210 C.2   1 <1>  -0.1810 
  5 C       -0.6010     2.2870    -0.0130 C.3   1 <1>   0.4600 
  6 C       -2.1680    -0.6800     1.7680 C.2   1 <1>  -0.1500 
  7 C       -3.1680     0.7580    -0.1870 C.3   1 <1>   0.0210 
  8 O       -1.5840     2.4120    -1.0240 O.3   1 <1>  -0.5600 
  9 C       -0.5350     3.5920     0.7900 C.3   1 <1>  -0.1600 
 10 C        0.7290     2.0440    -0.7320 C.3   1 <1>  -0.1600 
 11 C       -2.9310     2.2030    -0.6680 C.3   1 <1>   0.1200 
 12 C       -0.1280     4.7820    -0.0820 C.3   1 <1>   0.1400 
 13 C        1.1180     3.2370    -1.6050 C.3   1 <1>   0.1400 
 14 N        1.1520     4.4780    -0.7790 N.am  1 <1>  -0.6600 
 15 C        2.2800     5.2870    -0.7240 C.2   1 <1>   0.7160 
 16 O        3.3490     4.7760    -1.0250 O.2   1 <1>  -0.5700 
 17 C        2.2640     6.6960    -0.3230 C.2   1 <1>   0.2030 
 18 N        1.2410     7.5400    -0.3300 N.2   1 <1>  -0.7070 
 19 C        3.4150     7.3630     0.1210 C.2   1 <1>  -0.1500 
 20 N        1.7340     8.7100     0.0980 N.pl3 1 <1>   0.3000 
 21 C        3.0480     8.6320     0.3810 C.2   1 <1>  -0.3320 
 22 C        3.8840     9.7940     0.8870 C.3   1 <1>   0.0200 
 23 C        4.0140    10.8790    -0.1880 C.3   1 <1>  -0.1600 
 24 C        4.8810    12.0470     0.2930 C.3   1 <1>  -0.2400 
 25 H       -0.8080    -1.4380     3.3420 H     1 <1>   0.1500 
 26 H       -3.0240    -1.3300     1.8190 H     1 <1>   0.1500 
 27 H       -4.1420     0.6870     0.2610 H     1 <1>   0.0800 
 28 H       -3.1260     0.0830    -1.0230 H     1 <1>   0.0800 
 29 H        0.1930     3.4840     1.5730 H     1 <1>   0.0800 
 30 H       -1.4780     3.7860     1.2620 H     1 <1>   0.0800 
 31 H        0.6500     1.1580    -1.3340 H     1 <1>   0.0800 
 32 H        1.5100     1.8820    -0.0120 H     1 <1>   0.0800 
 33 H       -3.1920     2.9030     0.1060 H     1 <1>   0.0800 
 34 H       -3.5340     2.4090    -1.5350 H     1 <1>   0.0800 
 35 H       -0.0290     5.6440     0.5510 H     1 <1>   0.0800 
 36 H       -0.8890     4.9860    -0.8170 H     1 <1>   0.0800 
 37 H        0.3950     3.3640    -2.3940 H     1 <1>   0.0800 
 38 H        2.0750     3.0520    -2.0630 H     1 <1>   0.0800 
 39 H        4.3850     6.9070     0.2150 H     1 <1>   0.1500 
 40 H        1.1550     9.5530     0.1840 H     1 <1>   0.2700 
 41 H        4.8640     9.4330     1.1480 H     1 <1>   0.0800 
 42 H        3.4350    10.2030     1.7750 H     1 <1>   0.0800 
 43 H        3.0390    11.2490    -0.4520 H     1 <1>   0.0800 
 44 H        4.4550    10.4480    -1.0710 H     1 <1>   0.0800 
 45 H        4.4490    12.5060     1.1660 H     1 <1>   0.0800 
 46 H        4.9580    12.7910    -0.4810 H     1 <1>   0.0800 
 47 H        5.8730    11.7050     0.5360 H     1 <1>   0.0800 
@<TRIPOS>BOND
  1   1   2  1   
  2   1   3  1   
  3   2   4  2   
  4   2   5  1   
  5   3   6  2   
  6   3  25  1   
  7   4   6  1   
  8   4   7  1   
  9   5   8  1   
 10   5   9  1   
 11   5  10  1   
 12   6  26  1   
 13   7  11  1   
 14   7  27  1   
 15   7  28  1   
 16   8  11  1   
 17   9  12  1   
 18   9  29  1   
 19   9  30  1   
 20  10  13  1   
 21  10  31  1   
 22  10  32  1   
 23  11  33  1   
 24  11  34  1   
 25  12  14  1   
 26  12  35  1   
 27  12  36  1   
 28  13  14  1   
 29  13  37  1   
 30  13  38  1   
 31  14  15  am  
 32  15  16  2   
 33  15  17  1   
 34  17  18  2   
 35  17  19  1   
 36  18  20  1   
 37  19  21  2   
 38  19  39  1   
 39  20  21  1   
 40  20  40  1   
 41  21  22  1   
 42  22  23  1   
 43  22  41  1   
 44  22  42  1   
 45  23  24  1   
 46  23  43  1   
 47  23  44  1   
 48  24  45  1   
 49  24  46  1   
 50  24  47  1   
@<TRIPOS>SUBSTRUCTURE
  1 ****  12 GROUP 4 **** **** 0

# MOE 2024.06 (io_trps.svl 2023.06)
