@<TRIPOS>MOLECULE
NONAME
50 52 1 0 0 
SMALL
USER_CHARGES


@<TRIPOS>ATOM
  1 O        0.2860    -0.0140    -1.2170 O.3   1 <1>  -0.5600 
  2 C        1.4620    -0.7790    -1.1270 C.3   1 <1>   0.2000 
  3 C        0.4810     1.2870    -1.6810 C.3   1 <1>   0.1200 
  4 C        2.5330    -0.0700    -0.2380 C.3   1 <1>   0.3340 
  5 C        1.0040    -2.1600    -0.6170 C.3   1 <1>   0.1200 
  6 C        1.3950     2.0490    -0.7170 C.3   1 <1>   0.1100 
  7 N        2.6930     1.3650    -0.5930 N.3   1 <1>  -0.8100 
  8 C        3.8970    -0.7530    -0.3650 C.ar  1 <1>  -0.1440 
  9 O        2.0530    -3.0440    -0.3880 O.3   1 <1>  -0.6800 
 10 C        3.6670     2.0560     0.2920 C.3   1 <1>   0.2900 
 11 C        4.4230    -1.4690     0.7010 C.ar  1 <1>  -0.1500 
 12 C        4.6270    -0.6670    -1.5440 C.ar  1 <1>  -0.1500 
 13 C        3.6710     3.5800     0.1580 C.2   1 <1>   0.0070 
 14 C        5.6500    -2.1010     0.5940 C.ar  1 <1>   0.0830 
 15 C        5.8610    -1.2850    -1.6570 C.ar  1 <1>  -0.1500 
 16 N        4.2490     4.2190    -0.8120 N.2   1 <1>  -0.5650 
 17 N        3.0730     4.4010     1.0600 N.pl3 1 <1>   0.0480 
 18 O        6.0810    -2.8170     1.6600 O.3   1 <1>  -0.3630 
 19 C        6.3860    -1.9940    -0.5900 C.ar  1 <1>   0.0830 
 20 C        4.0150     5.5130    -0.5370 C.2   1 <1>   0.0770 
 21 C        3.3010     5.6440     0.6000 C.2   1 <1>  -0.3020 
 22 C        2.3490     4.0620     2.2990 C.3   1 <1>   0.0160 
 23 C        6.0740    -4.2180     1.4970 C.3   1 <1>   0.0400 
 24 O        7.6090    -2.5560    -0.7520 O.3   1 <1>  -0.3630 
 25 C        8.6430    -2.0500     0.0630 C.3   1 <1>   0.0400 
 26 H        1.8470    -0.8880    -2.1240 H     1 <1>   0.0800 
 27 H        0.9140     1.2500    -2.6660 H     1 <1>   0.0800 
 28 H       -0.4810     1.7650    -1.7400 H     1 <1>   0.0800 
 29 H        2.2000    -0.1380     0.7830 H     1 <1>   0.0800 
 30 H        0.3530    -2.6100    -1.3450 H     1 <1>   0.0800 
 31 H        0.4690    -2.0510     0.3110 H     1 <1>   0.0800 
 32 H        0.9160     2.1270     0.2420 H     1 <1>   0.0800 
 33 H        1.5430     3.0400    -1.1110 H     1 <1>   0.0800 
 34 H        2.7600    -2.9370    -1.0570 H     1 <1>   0.4000 
 35 H        3.4790     1.7880     1.3150 H     1 <1>   0.0800 
 36 H        4.6580     1.7120     0.0470 H     1 <1>   0.0800 
 37 H        3.8780    -1.5600     1.6230 H     1 <1>   0.1500 
 38 H        4.2380    -0.1000    -2.3740 H     1 <1>   0.1500 
 39 H        6.4250    -1.2110    -2.5690 H     1 <1>   0.1500 
 40 H        4.3810     6.2950    -1.1830 H     1 <1>   0.1500 
 41 H        2.9560     6.5340     1.0910 H     1 <1>   0.1500 
 42 H        1.7770     4.9120     2.6230 H     1 <1>   0.0800 
 43 H        3.0580     3.7960     3.0610 H     1 <1>   0.0800 
 44 H        1.6850     3.2380     2.1160 H     1 <1>   0.0800 
 45 H        6.3730    -4.6670     2.4260 H     1 <1>   0.0800 
 46 H        6.7640    -4.4880     0.7180 H     1 <1>   0.0800 
 47 H        5.0770    -4.5310     1.2380 H     1 <1>   0.0800 
 48 H        9.5720    -2.4770    -0.2680 H     1 <1>   0.0800 
 49 H        8.4580    -2.3240     1.0860 H     1 <1>   0.0800 
 50 H        8.6720    -0.9790    -0.0380 H     1 <1>   0.0800 
@<TRIPOS>BOND
  1   1   2  1   
  2   1   3  1   
  3   2   4  1   
  4   2   5  1   
  5   2  26  1   
  6   3   6  1   
  7   3  27  1   
  8   3  28  1   
  9   4   7  1   
 10   4   8  1   
 11   4  29  1   
 12   5   9  1   
 13   5  30  1   
 14   5  31  1   
 15   6   7  1   
 16   6  32  1   
 17   6  33  1   
 18   7  10  1   
 19   8  11  ar  
 20   8  12  ar  
 21   9  34  1   
 22  10  13  1   
 23  10  35  1   
 24  10  36  1   
 25  11  14  ar  
 26  11  37  1   
 27  12  15  ar  
 28  12  38  1   
 29  13  16  2   
 30  13  17  1   
 31  14  18  1   
 32  14  19  ar  
 33  15  19  ar  
 34  15  39  1   
 35  16  20  1   
 36  17  21  1   
 37  17  22  1   
 38  18  23  1   
 39  19  24  1   
 40  20  21  2   
 41  20  40  1   
 42  21  41  1   
 43  22  42  1   
 44  22  43  1   
 45  22  44  1   
 46  23  45  1   
 47  23  46  1   
 48  23  47  1   
 49  24  25  1   
 50  25  48  1   
 51  25  49  1   
 52  25  50  1   
@<TRIPOS>SUBSTRUCTURE
  1 ****   8 GROUP 4 **** **** 0

# MOE 2024.06 (io_trps.svl 2023.06)
