@<TRIPOS>MOLECULE
NONAME
50 52 1 0 0 
SMALL
USER_CHARGES


@<TRIPOS>ATOM
  1 O        1.5670     0.0900    -1.8590 O.2   1 <1>  -0.5700 
  2 C        1.8840     0.3470    -0.7090 C.2   1 <1>   0.5440 
  3 N        1.5830     1.5990    -0.2210 N.am  1 <1>  -0.6600 
  4 C        2.5300    -0.6610     0.1050 C.ar  1 <1>   0.0860 
  5 C        1.4240     1.9440     1.2110 C.3   1 <1>   0.1400 
  6 C        0.9930     2.6550    -1.0790 C.3   1 <1>   0.1400 
  7 C        2.1020    -2.0050     0.0820 C.ar  1 <1>   0.4100 
  8 C        3.5970    -0.3440     0.9350 C.ar  1 <1>  -0.1500 
  9 C        0.4250     3.0940     1.2250 C.3   1 <1>  -0.1600 
 10 C        0.6190     3.7820    -0.1230 C.3   1 <1>  -0.1600 
 11 N        2.6050    -2.9650     0.8600 N.ar  1 <1>  -0.6200 
 12 N        1.0840    -2.4050    -0.7600 N.pl3 1 <1>  -0.8690 
 13 C        4.1360    -1.3370     1.7180 C.ar  1 <1>  -0.1500 
 14 C        3.6030    -2.6110     1.6500 C.ar  1 <1>   0.1600 
 15 C        1.1720    -3.4740    -1.8010 C.3   1 <1>   0.2890 
 16 C        0.4600    -4.7650    -1.3250 C.3   1 <1>   0.3430 
 17 C        2.6220    -3.7130    -2.2380 C.3   1 <1>  -0.2400 
 18 N        0.8100    -5.0680     0.0910 N.4   1 <1>  -0.9590 
 19 C        1.7810    -6.1930     0.2620 C.3   1 <1>   0.3430 
 20 C       -0.3770    -5.2010     0.9880 C.3   1 <1>   0.3430 
 21 C        2.1000    -6.4270     1.7510 C.3   1 <1>   0.1200 
 22 C        0.0600    -5.4780     2.4390 C.3   1 <1>   0.1200 
 23 O        0.9190    -6.5830     2.4870 O.3   1 <1>  -0.5600 
 24 H        2.3700     2.2780     1.6020 H     1 <1>   0.0800 
 25 H        1.0650     1.1050     1.7830 H     1 <1>   0.0800 
 26 H        0.1140     2.2660    -1.5660 H     1 <1>   0.0800 
 27 H        1.7000     2.9790    -1.8230 H     1 <1>   0.0800 
 28 H        3.9940     0.6570     0.9600 H     1 <1>   0.1500 
 29 H        0.5900     3.7600     2.0530 H     1 <1>   0.0800 
 30 H       -0.5720     2.6930     1.2900 H     1 <1>   0.0800 
 31 H       -0.2630     4.3050    -0.4490 H     1 <1>   0.0800 
 32 H        1.4380     4.4780    -0.0670 H     1 <1>   0.0800 
 33 H        0.6980    -1.5640    -1.2290 H     1 <1>   0.4000 
 34 H        4.9600    -1.1300     2.3790 H     1 <1>   0.1500 
 35 H        4.0320    -3.3730     2.2810 H     1 <1>   0.1500 
 36 H        0.6430    -3.1220    -2.6710 H     1 <1>   0.0800 
 37 H        0.7200    -5.5880    -1.9690 H     1 <1>   0.0800 
 38 H       -0.6020    -4.6040    -1.4050 H     1 <1>   0.0800 
 39 H        3.2180    -4.1220    -1.4450 H     1 <1>   0.0800 
 40 H        3.0600    -2.7850    -2.5640 H     1 <1>   0.0800 
 41 H        2.6470    -4.3980    -3.0660 H     1 <1>   0.0800 
 42 H        1.3020    -4.1940     0.3960 H     1 <1>   0.4500 
 43 H        2.6940    -5.9730    -0.2650 H     1 <1>   0.0800 
 44 H        1.3660    -7.1000    -0.1460 H     1 <1>   0.0800 
 45 H       -1.0010    -6.0130     0.6550 H     1 <1>   0.0800 
 46 H       -0.9590    -4.2940     0.9590 H     1 <1>   0.0800 
 47 H        2.6550    -5.6000     2.1580 H     1 <1>   0.0800 
 48 H        2.6810    -7.3240     1.8700 H     1 <1>   0.0800 
 49 H       -0.7970    -5.7010     3.0500 H     1 <1>   0.0800 
 50 H        0.5670    -4.6240     2.8560 H     1 <1>   0.0800 
@<TRIPOS>BOND
  1   1   2  2   
  2   2   3  am  
  3   2   4  1   
  4   3   5  1   
  5   3   6  1   
  6   4   7  ar  
  7   4   8  ar  
  8   5   9  1   
  9   5  24  1   
 10   5  25  1   
 11   6  10  1   
 12   6  26  1   
 13   6  27  1   
 14   7  11  ar  
 15   7  12  1   
 16   8  13  ar  
 17   8  28  1   
 18   9  10  1   
 19   9  29  1   
 20   9  30  1   
 21  10  31  1   
 22  10  32  1   
 23  11  14  ar  
 24  12  15  1   
 25  12  33  1   
 26  13  14  ar  
 27  13  34  1   
 28  14  35  1   
 29  15  16  1   
 30  15  17  1   
 31  15  36  1   
 32  16  18  1   
 33  16  37  1   
 34  16  38  1   
 35  17  39  1   
 36  17  40  1   
 37  17  41  1   
 38  18  19  1   
 39  18  20  1   
 40  18  42  1   
 41  19  21  1   
 42  19  43  1   
 43  19  44  1   
 44  20  22  1   
 45  20  45  1   
 46  20  46  1   
 47  21  23  1   
 48  21  47  1   
 49  21  48  1   
 50  22  23  1   
 51  22  49  1   
 52  22  50  1   
@<TRIPOS>SUBSTRUCTURE
  1 ****   7 GROUP 4 **** **** 0

# MOE 2024.06 (io_trps.svl 2023.06)
