@<TRIPOS>MOLECULE
NONAME
44 46 1 0 0 
SMALL
USER_CHARGES


@<TRIPOS>ATOM
  1 O        3.5630    -1.3450     0.4830 O.2   1 <1>  -0.5700 
  2 C        2.6080    -1.5160    -0.2440 C.2   1 <1>   0.5690 
  3 N        1.7420    -0.5290    -0.6160 N.am  1 <1>  -0.4930 
  4 C        2.3710    -2.9130    -0.7700 C.3   1 <1>   0.1570 
  5 C        1.7470     0.8650    -0.3150 C.2   1 <1>   0.0630 
  6 N        0.9340    -3.2210    -0.7160 N.pl3 1 <1>   0.3140 
  7 C        2.7920     1.6810    -0.0280 C.2   1 <1>  -0.0680 
  8 C        0.6260     1.6960    -0.2580 C.2   1 <1>   0.1390 
  9 N        0.0970    -2.7230    -1.6470 N.2   1 <1>  -0.7070 
 10 C        0.2640    -3.9180     0.2290 C.2   1 <1>  -0.3320 
 11 N        2.2650     2.9130     0.1880 N.pl3 1 <1>   0.3140 
 12 N        4.1720     1.4070     0.0680 N.pl3 1 <1>  -0.8530 
 13 N        0.9170     2.9260     0.0500 N.2   1 <1>  -0.7070 
 14 C       -1.0790    -3.1280    -1.2880 C.2   1 <1>   0.1080 
 15 C       -1.0420    -3.8830    -0.1180 C.2   1 <1>  -0.1810 
 16 C        0.9220    -4.5710     1.4360 C.3   1 <1>  -0.0600 
 17 C        3.0550     4.0530     0.6850 C.3   1 <1>   0.0960 
 18 C        4.9520     2.3500     0.9010 C.3   1 <1>   0.2090 
 19 C       -2.3210    -2.7910    -2.0820 C.3   1 <1>  -0.0590 
 20 C       -2.2310    -4.5080     0.5920 C.3   1 <1>   0.0210 
 21 C        4.5670     3.7900     0.5250 C.3   1 <1>  -0.1600 
 22 C       -2.8200    -3.5290     1.6090 C.3   1 <1>  -0.2400 
 23 H        0.9220    -0.8670    -1.1420 H     1 <1>   0.3700 
 24 H        2.9160    -3.6240    -0.1820 H     1 <1>   0.0800 
 25 H        2.6990    -2.9720    -1.7890 H     1 <1>   0.0800 
 26 H       -0.3780     1.3560    -0.4420 H     1 <1>   0.1500 
 27 H        4.3200     0.4130     0.3330 H     1 <1>   0.4000 
 28 H        1.4740    -3.8390     1.9990 H     1 <1>   0.0800 
 29 H        1.5930    -5.3490     1.1180 H     1 <1>   0.0800 
 30 H        0.1830    -5.0040     2.0840 H     1 <1>   0.0800 
 31 H        2.8120     4.1830     1.7230 H     1 <1>   0.0800 
 32 H        2.7630     4.9350     0.1470 H     1 <1>   0.0800 
 33 H        6.0020     2.1900     0.7270 H     1 <1>   0.0800 
 34 H        4.7410     2.1630     1.9410 H     1 <1>   0.0800 
 35 H       -2.0740    -2.1090    -2.8750 H     1 <1>   0.0800 
 36 H       -3.0510    -2.3310    -1.4430 H     1 <1>   0.0800 
 37 H       -2.7320    -3.6860    -2.5090 H     1 <1>   0.0800 
 38 H       -1.9190    -5.4060     1.0950 H     1 <1>   0.0800 
 39 H       -2.9810    -4.7840    -0.1270 H     1 <1>   0.0800 
 40 H        5.1190     4.4840     1.1310 H     1 <1>   0.0800 
 41 H        4.8470     3.9590    -0.5000 H     1 <1>   0.0800 
 42 H       -2.0750    -3.2660     2.3390 H     1 <1>   0.0800 
 43 H       -3.6580    -3.9750     2.1130 H     1 <1>   0.0800 
 44 H       -3.1460    -2.6310     1.1150 H     1 <1>   0.0800 
@<TRIPOS>BOND
  1   1   2  2   
  2   2   3  am  
  3   2   4  1   
  4   3   5  1   
  5   3  23  1   
  6   4   6  1   
  7   4  24  1   
  8   4  25  1   
  9   5   7  2   
 10   5   8  1   
 11   6   9  1   
 12   6  10  1   
 13   7  11  1   
 14   7  12  1   
 15   8  13  2   
 16   8  26  1   
 17   9  14  2   
 18  10  15  2   
 19  10  16  1   
 20  11  13  1   
 21  11  17  1   
 22  12  18  1   
 23  12  27  1   
 24  14  15  1   
 25  14  19  1   
 26  15  20  1   
 27  16  28  1   
 28  16  29  1   
 29  16  30  1   
 30  17  21  1   
 31  17  31  1   
 32  17  32  1   
 33  18  21  1   
 34  18  33  1   
 35  18  34  1   
 36  19  35  1   
 37  19  36  1   
 38  19  37  1   
 39  20  22  1   
 40  20  38  1   
 41  20  39  1   
 42  21  40  1   
 43  21  41  1   
 44  22  42  1   
 45  22  43  1   
 46  22  44  1   
@<TRIPOS>SUBSTRUCTURE
  1 ****   3 GROUP 4 **** **** 0

# MOE 2024.06 (io_trps.svl 2023.06)
