@<TRIPOS>MOLECULE
NONAME
50 52 1 0 0 
SMALL
USER_CHARGES


@<TRIPOS>ATOM
  1 O       -0.7460     1.0120     0.9420 O.3   1 <1>  -0.3630 
  2 C       -0.8670    -0.0510     0.1010 C.ar  1 <1>   0.0830 
  3 C       -0.3800     2.3040     0.5040 C.3   1 <1>   0.2000 
  4 C       -1.1520    -1.2880     0.6690 C.ar  1 <1>   0.1600 
  5 C       -0.7180     0.0230    -1.2760 C.ar  1 <1>  -0.1500 
  6 C        0.2740     3.0190     1.6970 C.3   1 <1>   0.2090 
  7 C       -1.6370     3.0270     0.0010 C.3   1 <1>  -0.2400 
  8 N       -1.2910    -2.4240     0.0030 N.ar  1 <1>  -0.6200 
  9 C       -0.8620    -1.1510    -1.9840 C.ar  1 <1>  -0.1500 
 10 N        0.8650     4.3260     1.2890 N.pl3 1 <1>  -0.8690 
 11 C       -1.1420    -2.3280    -1.3090 C.ar  1 <1>   0.1600 
 12 C        2.1240     4.6360     0.9430 C.ar  1 <1>   0.4100 
 13 N        2.3210     5.9050     0.6760 N.ar  1 <1>  -0.6200 
 14 C        3.1550     3.6830     0.8630 C.ar  1 <1>  -0.1500 
 15 C        3.5440     6.2830     0.3300 C.ar  1 <1>   0.7710 
 16 C        4.3990     4.0900     0.5100 C.ar  1 <1>   0.2180 
 17 N        4.5630     5.4090     0.2510 N.ar  1 <1>  -0.1790 
 18 N        3.7790     7.5870     0.0480 N.pl3 1 <1>  -0.8380 
 19 C        5.5940     3.1530     0.3920 C.3   1 <1>  -0.0170 
 20 C        5.0400     8.2260    -0.4200 C.3   1 <1>   0.2090 
 21 C        2.7020     8.6120     0.1550 C.3   1 <1>   0.2090 
 22 C        6.1110     3.0570    -1.0500 C.3   1 <1>  -0.2400 
 23 C        4.6310     9.6190    -0.8770 C.3   1 <1>  -0.1600 
 24 C        3.4000     9.9500    -0.0420 C.3   1 <1>  -0.1600 
 25 H        0.3560     2.2050    -0.2740 H     1 <1>   0.0800 
 26 H       -1.2700    -1.3320     1.7370 H     1 <1>   0.1500 
 27 H       -0.5060     0.9380    -1.7960 H     1 <1>   0.1500 
 28 H        1.0370     2.3870     2.1150 H     1 <1>   0.0800 
 29 H       -0.4670     3.1930     2.4590 H     1 <1>   0.0800 
 30 H       -2.3510     3.1310     0.7970 H     1 <1>   0.0800 
 31 H       -2.0910     2.4840    -0.8080 H     1 <1>   0.0800 
 32 H       -1.3790     4.0060    -0.3590 H     1 <1>   0.0800 
 33 H       -0.7590    -1.1600    -3.0540 H     1 <1>   0.1500 
 34 H        0.2020     5.1090     1.2940 H     1 <1>   0.4000 
 35 H       -1.2510    -3.2370    -1.8770 H     1 <1>   0.1500 
 36 H        2.9390     2.6550     1.0800 H     1 <1>   0.1500 
 37 H        5.4560     5.8010    -0.0160 H     1 <1>   0.4570 
 38 H        5.3100     2.1680     0.7220 H     1 <1>   0.0800 
 39 H        6.3860     3.4900     1.0400 H     1 <1>   0.0800 
 40 H        5.4900     7.6810    -1.2330 H     1 <1>   0.0800 
 41 H        5.7310     8.3060     0.4040 H     1 <1>   0.0800 
 42 H        2.2100     8.5660     1.1130 H     1 <1>   0.0800 
 43 H        1.9770     8.4500    -0.6270 H     1 <1>   0.0800 
 44 H        5.3300     2.7150    -1.7080 H     1 <1>   0.0800 
 45 H        6.9210     2.3490    -1.0990 H     1 <1>   0.0800 
 46 H        6.4740     4.0050    -1.4040 H     1 <1>   0.0800 
 47 H        4.3670     9.5870    -1.9200 H     1 <1>   0.0800 
 48 H        5.4220    10.3370    -0.7400 H     1 <1>   0.0800 
 49 H        3.6970    10.3360     0.9180 H     1 <1>   0.0800 
 50 H        2.7590    10.6680    -0.5230 H     1 <1>   0.0800 
@<TRIPOS>BOND
  1   1   2  1   
  2   1   3  1   
  3   2   4  ar  
  4   2   5  ar  
  5   3   6  1   
  6   3   7  1   
  7   3  25  1   
  8   4   8  ar  
  9   4  26  1   
 10   5   9  ar  
 11   5  27  1   
 12   6  10  1   
 13   6  28  1   
 14   6  29  1   
 15   7  30  1   
 16   7  31  1   
 17   7  32  1   
 18   8  11  ar  
 19   9  11  ar  
 20   9  33  1   
 21  10  12  1   
 22  10  34  1   
 23  11  35  1   
 24  12  13  ar  
 25  12  14  ar  
 26  13  15  ar  
 27  14  16  ar  
 28  14  36  1   
 29  15  17  ar  
 30  15  18  1   
 31  16  17  ar  
 32  16  19  1   
 33  17  37  1   
 34  18  20  1   
 35  18  21  1   
 36  19  22  1   
 37  19  38  1   
 38  19  39  1   
 39  20  23  1   
 40  20  40  1   
 41  20  41  1   
 42  21  24  1   
 43  21  42  1   
 44  21  43  1   
 45  22  44  1   
 46  22  45  1   
 47  22  46  1   
 48  23  24  1   
 49  23  47  1   
 50  23  48  1   
 51  24  49  1   
 52  24  50  1   
@<TRIPOS>SUBSTRUCTURE
  1 ****  12 GROUP 4 **** **** 0

# MOE 2024.06 (io_trps.svl 2023.06)
