@<TRIPOS>MOLECULE
NONAME
53 56 1 0 0 
SMALL
USER_CHARGES


@<TRIPOS>ATOM
  1 O        0.8130    -0.2620     1.8750 O.2   1 <1>  -0.5700 
  2 C        1.2740     0.0710     0.7630 C.2   1 <1>   0.5410 
  3 C        1.9800    -0.8150    -0.0970 C.2   1 <1>   0.0140 
  4 C        1.1110     1.4160     0.3700 C.2   1 <1>  -0.1360 
  5 C        2.1690    -2.1850     0.2090 C.2   1 <1>   0.2710 
  6 C        2.4950    -0.2870    -1.2950 C.2   1 <1>  -0.1500 
  7 C        1.6270     1.8930    -0.8040 C.2   1 <1>  -0.1500 
  8 N        1.1320    -2.9480     0.5340 N.2   1 <1>  -0.6210 
  9 N        3.4270    -2.7130     0.1240 N.pl3 1 <1>  -0.6000 
 10 C        2.3310     1.0300    -1.6470 C.2   1 <1>  -0.1500 
 11 C        1.3510    -4.2230     0.8170 C.2   1 <1>   0.4860 
 12 C        3.6900    -4.0110     0.3850 C.2   1 <1>  -0.0380 
 13 N        0.2780    -4.9800     1.1810 N.pl3 1 <1>  -0.7880 
 14 C        2.6380    -4.7880     0.7410 C.2   1 <1>  -0.1360 
 15 C        5.1200    -4.4960     0.2770 C.3   1 <1>  -0.1020 
 16 C        0.0000    -6.3190     0.5940 C.3   1 <1>   0.2090 
 17 C       -0.9230    -4.3650     1.8240 C.3   1 <1>   0.2090 
 18 C       -1.2170    -6.2500    -0.3500 C.3   1 <1>   0.1100 
 19 C       -2.1010    -4.3330     0.8360 C.3   1 <1>   0.1100 
 20 N       -2.4230    -5.6830     0.3110 N.3   1 <1>  -0.8100 
 21 C       -3.5410    -5.6030    -0.6510 C.3   1 <1>   0.2900 
 22 C       -4.0700    -6.9900    -0.9610 C.2   1 <1>   0.0060 
 23 N       -4.4680    -7.4170    -2.1100 N.2   1 <1>  -0.3380 
 24 N       -4.1650    -7.9350    -0.0320 N.pl3 1 <1>   0.0330 
 25 N       -4.8380    -8.6910    -1.9420 N.2   1 <1>  -0.3380 
 26 C       -4.6480    -8.9810    -0.7000 C.2   1 <1>   0.0060 
 27 C       -4.9290   -10.3310    -0.0680 C.3   1 <1>   0.0200 
 28 C       -3.6440   -10.9860     0.4510 C.3   1 <1>  -0.2400 
 29 H        0.5640     2.0510     1.0410 H     1 <1>   0.1500 
 30 H        3.0230    -0.9510    -1.9580 H     1 <1>   0.1500 
 31 H        1.4980     2.9240    -1.0900 H     1 <1>   0.1500 
 32 H        4.1900    -2.0770    -0.1100 H     1 <1>   0.4000 
 33 H        2.7340     1.4090    -2.5710 H     1 <1>   0.1500 
 34 H        2.7580    -5.8230     0.9850 H     1 <1>   0.1500 
 35 H        5.7430    -3.9500     0.9620 H     1 <1>   0.0800 
 36 H        5.4820    -4.3480    -0.7240 H     1 <1>   0.0800 
 37 H        5.1820    -5.5420     0.5150 H     1 <1>   0.0800 
 38 H       -0.1980    -7.0210     1.3840 H     1 <1>   0.0800 
 39 H        0.8510    -6.6680     0.0370 H     1 <1>   0.0800 
 40 H       -0.7030    -3.3650     2.1580 H     1 <1>   0.0800 
 41 H       -1.1960    -4.9440     2.6880 H     1 <1>   0.0800 
 42 H       -1.4300    -7.2420    -0.7090 H     1 <1>   0.0800 
 43 H       -0.9500    -5.6440    -1.2000 H     1 <1>   0.0800 
 44 H       -1.8440    -3.6700     0.0260 H     1 <1>   0.0800 
 45 H       -2.9600    -3.9280     1.3410 H     1 <1>   0.0800 
 46 H       -3.2250    -5.1190    -1.5600 H     1 <1>   0.0800 
 47 H       -4.3440    -5.0270    -0.2240 H     1 <1>   0.0800 
 48 H       -3.8880    -7.8430     0.9470 H     1 <1>   0.2700 
 49 H       -5.3790   -10.9720    -0.8070 H     1 <1>   0.0800 
 50 H       -5.6330   -10.2100     0.7360 H     1 <1>   0.0800 
 51 H       -2.9410   -11.1010    -0.3550 H     1 <1>   0.0800 
 52 H       -3.8650   -11.9580     0.8560 H     1 <1>   0.0800 
 53 H       -3.1950   -10.3850     1.2210 H     1 <1>   0.0800 
@<TRIPOS>BOND
  1   1   2  2   
  2   2   3  1   
  3   2   4  1   
  4   3   5  2   
  5   3   6  1   
  6   4   7  2   
  7   4  29  1   
  8   5   8  1   
  9   5   9  1   
 10   6  10  2   
 11   6  30  1   
 12   7  10  1   
 13   7  31  1   
 14   8  11  2   
 15   9  12  1   
 16   9  32  1   
 17  10  33  1   
 18  11  13  1   
 19  11  14  1   
 20  12  14  2   
 21  12  15  1   
 22  13  16  1   
 23  13  17  1   
 24  14  34  1   
 25  15  35  1   
 26  15  36  1   
 27  15  37  1   
 28  16  18  1   
 29  16  38  1   
 30  16  39  1   
 31  17  19  1   
 32  17  40  1   
 33  17  41  1   
 34  18  20  1   
 35  18  42  1   
 36  18  43  1   
 37  19  20  1   
 38  19  44  1   
 39  19  45  1   
 40  20  21  1   
 41  21  22  1   
 42  21  46  1   
 43  21  47  1   
 44  22  23  2   
 45  22  24  1   
 46  23  25  1   
 47  24  26  1   
 48  24  48  1   
 49  25  26  2   
 50  26  27  1   
 51  27  28  1   
 52  27  49  1   
 53  27  50  1   
 54  28  51  1   
 55  28  52  1   
 56  28  53  1   
@<TRIPOS>SUBSTRUCTURE
  1 ****  13 GROUP 4 **** **** 0

# MOE 2024.06 (io_trps.svl 2023.06)
