@<TRIPOS>MOLECULE
NONAME
58 60 1 0 0 
SMALL
USER_CHARGES


@<TRIPOS>ATOM
  1 O        0.3560    -0.6340     0.3630 O.2   1 <1>  -0.5700 
  2 C        1.2130    -0.4030    -0.4520 C.2   1 <1>   0.5690 
  3 N        1.9070    -1.3700    -1.1040 N.am  1 <1>  -0.6600 
  4 C        1.6180     1.0260    -0.7290 C.3   1 <1>  -0.0190 
  5 C        3.0700    -0.9860    -1.9470 C.3   1 <1>   0.2200 
  6 C        1.6870    -2.8350    -0.8430 C.3   1 <1>   0.2010 
  7 C        2.8560     1.2900     0.1410 C.3   1 <1>   0.3430 
  8 C        1.8040     1.2510    -2.2480 C.3   1 <1>  -0.1600 
  9 C        4.2540    -0.5600    -1.0370 C.3   1 <1>   0.3430 
 10 C        2.6250     0.1240    -2.9210 C.3   1 <1>  -0.1600 
 11 C        2.7680    -3.4430     0.0620 C.2   1 <1>   0.5690 
 12 N        4.1860     0.8120    -0.3960 N.4   1 <1>  -0.9590 
 13 O        3.8880    -3.5060    -0.4000 O.2   1 <1>  -0.5700 
 14 N        2.4930    -3.8700     1.3410 N.am  1 <1>  -0.6600 
 15 C        4.8680     1.8520    -1.2080 C.3   1 <1>   0.5240 
 16 C        3.5000    -4.6180     2.1470 C.3   1 <1>   0.0600 
 17 C        1.1940    -3.6530     2.0400 C.3   1 <1>   0.0600 
 18 C        5.2570     2.9610    -0.2620 C.2   1 <1>  -0.1810 
 19 C        6.2910     2.9010     0.6690 C.2   1 <1>   0.1080 
 20 C        4.7120     4.1900    -0.0990 C.2   1 <1>  -0.3320 
 21 N        6.3680     3.9810     1.3680 N.2   1 <1>  -0.7070 
 22 C        7.2580     1.7610     0.9100 C.3   1 <1>  -0.0590 
 23 N        5.4080     4.7920     0.8960 N.pl3 1 <1>   0.3140 
 24 C        3.5590     4.8570    -0.8380 C.3   1 <1>  -0.0600 
 25 C        5.2230     6.1500     1.4560 C.3   1 <1>   0.0960 
 26 C        6.0440     7.1870     0.6800 C.3   1 <1>  -0.2400 
 27 H        0.8260     1.6630    -0.3770 H     1 <1>   0.0800 
 28 H        3.3830    -1.8450    -2.5170 H     1 <1>   0.0800 
 29 H        0.7120    -2.9870    -0.4190 H     1 <1>   0.0800 
 30 H        1.7030    -3.3610    -1.7800 H     1 <1>   0.0800 
 31 H        2.6810     0.8220     1.0970 H     1 <1>   0.0800 
 32 H        2.9170     2.3500     0.3270 H     1 <1>   0.0800 
 33 H        0.8240     1.2540    -2.6980 H     1 <1>   0.0800 
 34 H        2.2320     2.2160    -2.4460 H     1 <1>   0.0800 
 35 H        5.1570    -0.6250    -1.6200 H     1 <1>   0.0800 
 36 H        4.3410    -1.3000    -0.2590 H     1 <1>   0.0800 
 37 H        3.4800     0.5330    -3.4280 H     1 <1>   0.0800 
 38 H        2.0140    -0.3340    -3.6810 H     1 <1>   0.0800 
 39 H        4.7860     0.7650     0.4400 H     1 <1>   0.4500 
 40 H        5.7570     1.4530    -1.6680 H     1 <1>   0.0800 
 41 H        4.2190     2.2290    -1.9790 H     1 <1>   0.0800 
 42 H        3.0710    -5.5380     2.5030 H     1 <1>   0.0800 
 43 H        3.8070    -4.0220     2.9890 H     1 <1>   0.0800 
 44 H        4.3690    -4.8550     1.5570 H     1 <1>   0.0800 
 45 H        1.3460    -3.6290     3.1060 H     1 <1>   0.0800 
 46 H        0.5150    -4.4540     1.8040 H     1 <1>   0.0800 
 47 H        0.7540    -2.7150     1.7500 H     1 <1>   0.0800 
 48 H        7.3190     1.1070     0.0620 H     1 <1>   0.0800 
 49 H        6.9570     1.2060     1.7790 H     1 <1>   0.0800 
 50 H        8.2380     2.1670     1.0950 H     1 <1>   0.0800 
 51 H        3.1890     4.2310    -1.6270 H     1 <1>   0.0800 
 52 H        3.8890     5.7830    -1.2770 H     1 <1>   0.0800 
 53 H        2.7520     5.0680    -0.1580 H     1 <1>   0.0800 
 54 H        4.1790     6.4010     1.4290 H     1 <1>   0.0800 
 55 H        5.5410     6.1320     2.4830 H     1 <1>   0.0800 
 56 H        5.7350     7.2270    -0.3490 H     1 <1>   0.0800 
 57 H        7.0900     6.9360     0.7270 H     1 <1>   0.0800 
 58 H        5.9090     8.1600     1.1160 H     1 <1>   0.0800 
@<TRIPOS>BOND
  1   1   2  2   
  2   2   3  am  
  3   2   4  1   
  4   3   5  1   
  5   3   6  1   
  6   4   7  1   
  7   4   8  1   
  8   4  27  1   
  9   5   9  1   
 10   5  10  1   
 11   5  28  1   
 12   6  11  1   
 13   6  29  1   
 14   6  30  1   
 15   7  12  1   
 16   7  31  1   
 17   7  32  1   
 18   8  10  1   
 19   8  33  1   
 20   8  34  1   
 21   9  12  1   
 22   9  35  1   
 23   9  36  1   
 24  10  37  1   
 25  10  38  1   
 26  11  13  2   
 27  11  14  am  
 28  12  15  1   
 29  12  39  1   
 30  14  16  1   
 31  14  17  1   
 32  15  18  1   
 33  15  40  1   
 34  15  41  1   
 35  16  42  1   
 36  16  43  1   
 37  16  44  1   
 38  17  45  1   
 39  17  46  1   
 40  17  47  1   
 41  18  19  1   
 42  18  20  2   
 43  19  21  2   
 44  19  22  1   
 45  20  23  1   
 46  20  24  1   
 47  21  23  1   
 48  22  48  1   
 49  22  49  1   
 50  22  50  1   
 51  23  25  1   
 52  24  51  1   
 53  24  52  1   
 54  24  53  1   
 55  25  26  1   
 56  25  54  1   
 57  25  55  1   
 58  26  56  1   
 59  26  57  1   
 60  26  58  1   
@<TRIPOS>SUBSTRUCTURE
  1 ****  12 GROUP 4 **** **** 0

# MOE 2024.06 (io_trps.svl 2023.06)
