@<TRIPOS>MOLECULE
NONAME
53 54 1 0 0 
SMALL
USER_CHARGES


@<TRIPOS>ATOM
  1 S        0.4030     0.0070    -1.0020 S.o2  1 <1>   1.3330 
  2 O        1.7110    -0.3140    -1.5300 O.2   1 <1>  -0.6500 
  3 O       -0.7150     0.1440    -1.9070 O.2   1 <1>  -0.6500 
  4 N       -0.0180    -1.2000     0.1180 N.am  1 <1>  -0.8490 
  5 C        0.5210     1.4920     0.0090 C.3   1 <1>  -0.0550 
  6 C       -1.4560    -1.2560     0.4040 C.3   1 <1>   0.1160 
  7 C        0.4550    -2.5270    -0.2910 C.3   1 <1>   0.1160 
  8 C        1.8160     1.7060     0.8270 C.3   1 <1>  -0.0800 
  9 C        3.0500     1.9560    -0.0440 C.3   1 <1>   0.2200 
 10 C        2.2490     0.5690     1.7610 C.3   1 <1>   0.1200 
 11 N        3.5890     3.3000     0.2520 N.am  1 <1>  -0.7300 
 12 C        4.0250     0.8750     0.4180 C.3   1 <1>   0.1200 
 13 O        3.6380     0.5770     1.7190 O.3   1 <1>  -0.5600 
 14 C        3.1520     4.4380    -0.3360 C.2   1 <1>   0.5690 
 15 O        2.2560     4.4350    -1.1440 O.2   1 <1>  -0.5700 
 16 C        3.8070     5.7470     0.0390 C.3   1 <1>  -0.0990 
 17 C        4.9300     6.0950    -0.9430 C.3   1 <1>  -0.0170 
 18 C        5.6300     7.3710    -0.5090 C.ar  1 <1>  -0.1440 
 19 C        6.7700     7.3120     0.2760 C.ar  1 <1>  -0.1500 
 20 C        5.1270     8.6050    -0.8890 C.ar  1 <1>  -0.1500 
 21 C        7.4060     8.4740     0.6820 C.ar  1 <1>  -0.1440 
 22 C        5.7560     9.7730    -0.4920 C.ar  1 <1>  -0.1440 
 23 C        6.8940     9.7010     0.2940 C.ar  1 <1>  -0.1500 
 24 C        8.6550     8.4040     1.5410 C.3   1 <1>  -0.0970 
 25 C        5.1990    11.1210    -0.9120 C.3   1 <1>  -0.0970 
 26 H        0.4180     2.3410    -0.6400 H     1 <1>   0.0800 
 27 H       -0.3140     1.5170     0.6800 H     1 <1>   0.0800 
 28 H       -1.6500    -1.9680     1.1880 H     1 <1>   0.0800 
 29 H       -2.0050    -1.5460    -0.4770 H     1 <1>   0.0800 
 30 H       -1.8100    -0.2920     0.7270 H     1 <1>   0.0800 
 31 H        0.1790    -3.2650     0.4420 H     1 <1>   0.0800 
 32 H        1.5290    -2.5260    -0.3770 H     1 <1>   0.0800 
 33 H        0.0320    -2.7970    -1.2450 H     1 <1>   0.0800 
 34 H        1.6450     2.5680     1.4480 H     1 <1>   0.0800 
 35 H        2.8550     1.8720    -1.1000 H     1 <1>   0.0800 
 36 H        1.9290    -0.3990     1.4240 H     1 <1>   0.0800 
 37 H        1.9280     0.7250     2.7770 H     1 <1>   0.0800 
 38 H        4.2650     3.3310     1.0180 H     1 <1>   0.3700 
 39 H        5.0510     1.1980     0.4050 H     1 <1>   0.0800 
 40 H        3.9130    -0.0170    -0.1740 H     1 <1>   0.0800 
 41 H        3.0640     6.5230     0.0260 H     1 <1>   0.0800 
 42 H        4.2020     5.6810     1.0360 H     1 <1>   0.0800 
 43 H        4.5190     6.2220    -1.9310 H     1 <1>   0.0800 
 44 H        5.6400     5.2880    -0.9880 H     1 <1>   0.0800 
 45 H        7.1670     6.3580     0.5730 H     1 <1>   0.1500 
 46 H        4.2410     8.6550    -1.4960 H     1 <1>   0.1500 
 47 H        7.3840    10.6050     0.6060 H     1 <1>   0.1500 
 48 H        8.7050     9.2530     2.1980 H     1 <1>   0.0800 
 49 H        9.5270     8.3980     0.9120 H     1 <1>   0.0800 
 50 H        8.6520     7.5120     2.1400 H     1 <1>   0.0800 
 51 H        5.9880    11.8470    -0.9870 H     1 <1>   0.0800 
 52 H        4.4820    11.4590    -0.1850 H     1 <1>   0.0800 
 53 H        4.7150    11.0450    -1.8690 H     1 <1>   0.0800 
@<TRIPOS>BOND
  1   1   2  2   
  2   1   3  2   
  3   1   4  am  
  4   1   5  1   
  5   4   6  1   
  6   4   7  1   
  7   5   8  1   
  8   5  26  1   
  9   5  27  1   
 10   6  28  1   
 11   6  29  1   
 12   6  30  1   
 13   7  31  1   
 14   7  32  1   
 15   7  33  1   
 16   8   9  1   
 17   8  10  1   
 18   8  34  1   
 19   9  11  1   
 20   9  12  1   
 21   9  35  1   
 22  10  13  1   
 23  10  36  1   
 24  10  37  1   
 25  11  14  am  
 26  11  38  1   
 27  12  13  1   
 28  12  39  1   
 29  12  40  1   
 30  14  15  2   
 31  14  16  1   
 32  16  17  1   
 33  16  41  1   
 34  16  42  1   
 35  17  18  1   
 36  17  43  1   
 37  17  44  1   
 38  18  19  ar  
 39  18  20  ar  
 40  19  21  ar  
 41  19  45  1   
 42  20  22  ar  
 43  20  46  1   
 44  21  23  ar  
 45  21  24  1   
 46  22  23  ar  
 47  22  25  1   
 48  23  47  1   
 49  24  48  1   
 50  24  49  1   
 51  24  50  1   
 52  25  51  1   
 53  25  52  1   
 54  25  53  1   
@<TRIPOS>SUBSTRUCTURE
  1 ****  14 GROUP 4 **** **** 0

# MOE 2024.06 (io_trps.svl 2023.06)
