@<TRIPOS>MOLECULE
NONAME
48 51 1 0 0 
SMALL
USER_CHARGES


@<TRIPOS>ATOM
  1 O       -2.4350     1.6830    -2.2790 O.2   1 <1>  -0.5700 
  2 C       -1.9040     2.1270    -1.2750 C.2   1 <1>   0.5440 
  3 N       -0.9370     1.3450    -0.6630 N.am  1 <1>  -0.6600 
  4 C       -2.3330     3.4370    -0.7850 C.ar  1 <1>   0.3960 
  5 C       -0.2590     0.2220    -1.3780 C.3   1 <1>   0.1400 
  6 C       -0.3620     1.5710     0.6960 C.3   1 <1>   0.1400 
  7 N       -1.4400     4.3130    -0.2930 N.ar  1 <1>  -0.6200 
  8 C       -3.6930     3.7480    -0.8630 C.ar  1 <1>   0.1600 
  9 C        1.2660     0.4270    -1.3570 C.3   1 <1>   0.1200 
 10 C        1.1630     1.7350     0.5960 C.3   1 <1>   0.1200 
 11 C       -1.9760     5.4600     0.1010 C.ar  1 <1>   0.4100 
 12 N       -4.2480     4.8850    -0.4660 N.ar  1 <1>  -0.6200 
 13 O        1.7290     0.6280    -0.0490 O.3   1 <1>  -0.5600 
 14 N       -1.1240     6.4200     0.6220 N.3   1 <1>  -0.5900 
 15 C       -3.3490     5.7220     0.0110 C.ar  1 <1>   0.1600 
 16 C        0.1010     6.8080    -0.1760 C.3   1 <1>   0.2450 
 17 C       -0.2180     6.0390     1.7720 C.3   1 <1>   0.2450 
 18 C        0.9700     5.9700     0.7900 C.3   1 <1>   0.2580 
 19 O        2.0910     6.6840     1.2750 O.3   1 <1>  -0.3400 
 20 C        3.1940     6.8530     0.5050 C.ar  1 <1>   0.0820 
 21 C        4.1780     7.6930     1.0030 C.ar  1 <1>  -0.1500 
 22 C        3.3790     6.2400    -0.7320 C.ar  1 <1>  -0.1500 
 23 C        5.3380     7.9310     0.2850 C.ar  1 <1>  -0.1440 
 24 C        4.5370     6.4770    -1.4520 C.ar  1 <1>  -0.1500 
 25 C        5.5120     7.3190    -0.9460 C.ar  1 <1>  -0.1500 
 26 C        6.4110     8.8540     0.8330 C.3   1 <1>  -0.0970 
 27 H       -0.5920     0.1610    -2.3990 H     1 <1>   0.0800 
 28 H       -0.5030    -0.7070    -0.8940 H     1 <1>   0.0800 
 29 H       -0.5790     0.7180     1.3140 H     1 <1>   0.0800 
 30 H       -0.7930     2.4310     1.1730 H     1 <1>   0.0800 
 31 H       -4.3540     3.0080    -1.2810 H     1 <1>   0.1500 
 32 H        1.5380     1.2800    -1.9530 H     1 <1>   0.0800 
 33 H        1.7620    -0.4420    -1.7500 H     1 <1>   0.0800 
 34 H        1.5970     1.8010     1.5780 H     1 <1>   0.0800 
 35 H        1.4130     2.6240     0.0430 H     1 <1>   0.0800 
 36 H       -3.6930     6.6800     0.3580 H     1 <1>   0.1500 
 37 H        0.2760     7.8670    -0.1160 H     1 <1>   0.0000 
 38 H        0.0720     6.4230    -1.1800 H     1 <1>   0.0000 
 39 H       -0.4840     5.0880     2.1990 H     1 <1>   0.0000 
 40 H       -0.1520     6.8400     2.4860 H     1 <1>   0.0000 
 41 H        1.2220     4.9750     0.4690 H     1 <1>   0.0000 
 42 H        4.0240     8.1600     1.9590 H     1 <1>   0.1500 
 43 H        2.6450     5.5780    -1.1500 H     1 <1>   0.1500 
 44 H        4.6820     6.0050    -2.4080 H     1 <1>   0.1500 
 45 H        6.4070     7.4970    -1.5150 H     1 <1>   0.1500 
 46 H        6.2930     8.9880     1.8930 H     1 <1>   0.0800 
 47 H        6.3450     9.8140     0.3530 H     1 <1>   0.0800 
 48 H        7.3860     8.4400     0.6500 H     1 <1>   0.0800 
@<TRIPOS>BOND
  1   1   2  2   
  2   2   3  am  
  3   2   4  1   
  4   3   5  1   
  5   3   6  1   
  6   4   7  ar  
  7   4   8  ar  
  8   5   9  1   
  9   5  27  1   
 10   5  28  1   
 11   6  10  1   
 12   6  29  1   
 13   6  30  1   
 14   7  11  ar  
 15   8  12  ar  
 16   8  31  1   
 17   9  13  1   
 18   9  32  1   
 19   9  33  1   
 20  10  13  1   
 21  10  34  1   
 22  10  35  1   
 23  11  14  1   
 24  11  15  ar  
 25  12  15  ar  
 26  14  16  1   
 27  14  17  1   
 28  15  36  1   
 29  16  18  1   
 30  16  37  1   
 31  16  38  1   
 32  17  18  1   
 33  17  39  1   
 34  17  40  1   
 35  18  19  1   
 36  18  41  1   
 37  19  20  1   
 38  20  21  ar  
 39  20  22  ar  
 40  21  23  ar  
 41  21  42  1   
 42  22  24  ar  
 43  22  43  1   
 44  23  25  ar  
 45  23  26  1   
 46  24  25  ar  
 47  24  44  1   
 48  25  45  1   
 49  26  46  1   
 50  26  47  1   
 51  26  48  1   
@<TRIPOS>SUBSTRUCTURE
  1 ****  18 GROUP 4 **** **** 0

# MOE 2024.06 (io_trps.svl 2023.06)
