@<TRIPOS>MOLECULE
NONAME
54 57 1 0 0 
SMALL
USER_CHARGES


@<TRIPOS>ATOM
  1 O       -0.0770    -0.4130     1.1690 O.2   1 <1>  -0.5700 
  2 C        0.9810    -0.8420     0.7650 C.2   1 <1>   0.5690 
  3 N        1.9990    -0.0330     0.3630 N.am  1 <1>  -0.4930 
  4 C        1.2050    -2.3650     0.6830 C.3   1 <1>   0.1710 
  5 C        2.0810     1.3520     0.3130 C.2   1 <1>   0.3520 
  6 N       -0.0210    -3.2020     0.5080 N.3   1 <1>  -0.8100 
  7 N        3.1600     1.8880    -0.1570 N.2   1 <1>  -0.7070 
  8 C        1.1430     2.3030     0.7070 C.2   1 <1>  -0.1500 
  9 C       -0.7920    -2.8650    -0.7160 C.3   1 <1>   0.1100 
 10 C        0.2450    -4.6550     0.5840 C.3   1 <1>   0.1100 
 11 N        2.9420     3.2170    -0.0770 N.pl3 1 <1>   0.3140 
 12 C        1.7290     3.4890     0.4420 C.2   1 <1>  -0.3020 
 13 C       -2.1130    -3.6670    -0.8050 C.3   1 <1>   0.3430 
 14 C       -1.0630    -5.4840     0.5010 C.3   1 <1>   0.3430 
 15 C        3.9500     4.1860    -0.5210 C.3   1 <1>   0.0160 
 16 N       -2.2620    -4.5890     0.3750 N.4   1 <1>  -0.9590 
 17 C       -3.5690    -5.2950     0.5170 C.3   1 <1>   0.4230 
 18 C       -3.8820    -6.2130    -0.6750 C.3   1 <1>  -0.0170 
 19 C       -4.6950    -4.2800     0.7150 C.3   1 <1>  -0.1600 
 20 C       -5.2800    -6.8020    -0.5680 C.ar  1 <1>  -0.1430 
 21 C       -5.9800    -5.0110     1.1170 C.3   1 <1>  -0.0170 
 22 C       -6.2510    -6.2370     0.2530 C.ar  1 <1>  -0.1430 
 23 C       -5.5880    -7.9240    -1.3230 C.ar  1 <1>  -0.1500 
 24 C       -7.5140    -6.8070     0.3060 C.ar  1 <1>  -0.1500 
 25 C       -6.8500    -8.4860    -1.2630 C.ar  1 <1>  -0.1500 
 26 C       -7.8140    -7.9260    -0.4480 C.ar  1 <1>  -0.1500 
 27 H        2.8690    -0.4450     0.0390 H     1 <1>   0.3700 
 28 H        1.6890    -2.6570     1.5970 H     1 <1>   0.0800 
 29 H        1.8840    -2.5660    -0.1270 H     1 <1>   0.0800 
 30 H        0.1750     2.1010     1.1280 H     1 <1>   0.1500 
 31 H       -0.1960    -3.0580    -1.5920 H     1 <1>   0.0800 
 32 H       -1.0380    -1.8170    -0.7180 H     1 <1>   0.0800 
 33 H        0.7380    -4.8800     1.5150 H     1 <1>   0.0800 
 34 H        0.9060    -4.9510    -0.2130 H     1 <1>   0.0800 
 35 H        1.3570     4.4850     0.5930 H     1 <1>   0.1500 
 36 H       -2.1260    -4.2300    -1.7230 H     1 <1>   0.0800 
 37 H       -2.9350    -2.9710    -0.8350 H     1 <1>   0.0800 
 38 H       -1.1480    -6.0880     1.3890 H     1 <1>   0.0800 
 39 H       -1.0080    -6.1500    -0.3440 H     1 <1>   0.0800 
 40 H        4.8470     4.0400     0.0500 H     1 <1>   0.0800 
 41 H        3.5820     5.1840    -0.3760 H     1 <1>   0.0800 
 42 H        4.1550     4.0200    -1.5620 H     1 <1>   0.0800 
 43 H       -2.1470    -3.9410     1.1730 H     1 <1>   0.4500 
 44 H       -3.5310    -5.9100     1.4020 H     1 <1>   0.0800 
 45 H       -3.1690    -7.0160    -0.7080 H     1 <1>   0.0800 
 46 H       -3.8330    -5.6650    -1.5970 H     1 <1>   0.0800 
 47 H       -4.8820    -3.7460    -0.2000 H     1 <1>   0.0800 
 48 H       -4.4400    -3.5750     1.4870 H     1 <1>   0.0800 
 49 H       -6.8120    -4.3310     1.0510 H     1 <1>   0.0800 
 50 H       -5.9050    -5.3330     2.1420 H     1 <1>   0.0800 
 51 H       -4.8510    -8.3720    -1.9670 H     1 <1>   0.1500 
 52 H       -8.2750    -6.3830     0.9380 H     1 <1>   0.1500 
 53 H       -7.0830    -9.3570    -1.8510 H     1 <1>   0.1500 
 54 H       -8.7980    -8.3610    -0.4000 H     1 <1>   0.1500 
@<TRIPOS>BOND
  1   1   2  2   
  2   2   3  am  
  3   2   4  1   
  4   3   5  1   
  5   3  27  1   
  6   4   6  1   
  7   4  28  1   
  8   4  29  1   
  9   5   7  2   
 10   5   8  1   
 11   6   9  1   
 12   6  10  1   
 13   7  11  1   
 14   8  12  2   
 15   8  30  1   
 16   9  13  1   
 17   9  31  1   
 18   9  32  1   
 19  10  14  1   
 20  10  33  1   
 21  10  34  1   
 22  11  12  1   
 23  11  15  1   
 24  12  35  1   
 25  13  16  1   
 26  13  36  1   
 27  13  37  1   
 28  14  16  1   
 29  14  38  1   
 30  14  39  1   
 31  15  40  1   
 32  15  41  1   
 33  15  42  1   
 34  16  17  1   
 35  16  43  1   
 36  17  18  1   
 37  17  19  1   
 38  17  44  1   
 39  18  20  1   
 40  18  45  1   
 41  18  46  1   
 42  19  21  1   
 43  19  47  1   
 44  19  48  1   
 45  20  22  ar  
 46  20  23  ar  
 47  21  22  1   
 48  21  49  1   
 49  21  50  1   
 50  22  24  ar  
 51  23  25  ar  
 52  23  51  1   
 53  24  26  ar  
 54  24  52  1   
 55  25  26  ar  
 56  25  53  1   
 57  26  54  1   
@<TRIPOS>SUBSTRUCTURE
  1 ****  13 GROUP 4 **** **** 0

# MOE 2024.06 (io_trps.svl 2023.06)
