@<TRIPOS>MOLECULE
NONAME
40 42 1 0 0 
SMALL
USER_CHARGES


@<TRIPOS>ATOM
  1 CL      -0.5360    -1.2080    -1.5760 Cl    1 <1>  -0.1770 
  2 C       -2.1130    -1.5670    -0.9090 C.ar  1 <1>   0.1770 
  3 C       -2.4940    -2.8620    -0.6540 C.ar  1 <1>   0.1600 
  4 C       -3.0080    -0.5670    -0.6260 C.ar  1 <1>   0.1600 
  5 N       -3.6770    -3.1520    -0.1530 N.ar  1 <1>  -0.6200 
  6 N       -4.1960    -0.8260    -0.1250 N.ar  1 <1>  -0.6200 
  7 C       -4.4780    -2.1100     0.1000 C.ar  1 <1>   0.7200 
  8 N       -5.7150    -2.3910     0.6280 N.pl3 1 <1>  -0.8380 
  9 C       -6.0280    -3.7270     1.2130 C.3   1 <1>   0.2090 
 10 C       -6.9310    -1.6840     0.1310 C.3   1 <1>   0.2090 
 11 C       -6.6270    -4.6260     0.1020 C.3   1 <1>   0.4230 
 12 C       -7.5840    -2.5520    -0.9560 C.3   1 <1>  -0.1600 
 13 N       -6.8820    -6.0530     0.5090 N.4   1 <1>  -0.9590 
 14 C       -7.9220    -3.9850    -0.4480 C.3   1 <1>  -0.1060 
 15 C       -7.3330    -6.8850    -0.6350 C.3   1 <1>   0.3430 
 16 C       -5.7900    -6.6940     1.2870 C.3   1 <1>   0.2630 
 17 C       -8.9630    -3.9270     0.6860 C.2   1 <1>   0.9060 
 18 C       -8.4510    -4.8240    -1.6350 C.3   1 <1>  -0.1600 
 19 C       -8.6080    -6.3040    -1.2510 C.3   1 <1>  -0.1600 
 20 O       -8.9390    -4.8000     1.5690 O.co2 1 <1>  -0.9000 
 21 O       -9.7980    -3.0240     0.6970 O.co2 1 <1>  -0.9000 
 22 H       -1.8120    -3.6650    -0.8680 H     1 <1>   0.1500 
 23 H       -2.7430     0.4590    -0.8150 H     1 <1>   0.1500 
 24 H       -5.1290    -4.1580     1.6120 H     1 <1>   0.0800 
 25 H       -6.7250    -3.6020     2.0240 H     1 <1>   0.0800 
 26 H       -7.6170    -1.5270     0.9470 H     1 <1>   0.0800 
 27 H       -6.6810    -0.7190    -0.2750 H     1 <1>   0.0800 
 28 H       -5.9020    -4.6380    -0.6930 H     1 <1>   0.0800 
 29 H       -8.4860    -2.0640    -1.2840 H     1 <1>   0.0800 
 30 H       -6.9180    -2.5970    -1.7980 H     1 <1>   0.0800 
 31 H       -7.7260    -5.9260     1.1330 H     1 <1>   0.4500 
 32 H       -6.5570    -6.9200    -1.3820 H     1 <1>   0.0800 
 33 H       -7.5310    -7.8890    -0.2990 H     1 <1>   0.0800 
 34 H       -4.8830    -6.7190     0.7050 H     1 <1>   0.0800 
 35 H       -6.0670    -7.7000     1.5520 H     1 <1>   0.0800 
 36 H       -5.6090    -6.1430     2.1950 H     1 <1>   0.0800 
 37 H       -9.4050    -4.4330    -1.9500 H     1 <1>   0.0800 
 38 H       -7.7720    -4.7480    -2.4670 H     1 <1>   0.0800 
 39 H       -8.8700    -6.8730    -2.1240 H     1 <1>   0.0800 
 40 H       -9.4170    -6.4120    -0.5470 H     1 <1>   0.0800 
@<TRIPOS>BOND
  1   1   2  1   
  2   2   3  ar  
  3   2   4  ar  
  4   3   5  ar  
  5   3  22  1   
  6   4   6  ar  
  7   4  23  1   
  8   5   7  ar  
  9   6   7  ar  
 10   7   8  1   
 11   8   9  1   
 12   8  10  1   
 13   9  11  1   
 14   9  24  1   
 15   9  25  1   
 16  10  12  1   
 17  10  26  1   
 18  10  27  1   
 19  11  13  1   
 20  11  14  1   
 21  11  28  1   
 22  12  14  1   
 23  12  29  1   
 24  12  30  1   
 25  13  15  1   
 26  13  16  1   
 27  13  31  1   
 28  14  17  1   
 29  14  18  1   
 30  15  19  1   
 31  15  32  1   
 32  15  33  1   
 33  16  34  1   
 34  16  35  1   
 35  16  36  1   
 36  17  20  ar  
 37  17  21  ar  
 38  18  19  1   
 39  18  37  1   
 40  18  38  1   
 41  19  39  1   
 42  19  40  1   
@<TRIPOS>SUBSTRUCTURE
  1 ****  11 GROUP 4 **** **** 0

# MOE 2024.06 (io_trps.svl 2023.06)
