@<TRIPOS>MOLECULE
NONAME
51 54 1 0 0 
SMALL
USER_CHARGES


@<TRIPOS>ATOM
  1 O        0.9540     0.2920     0.7870 O.2   1 <1>  -0.5700 
  2 C        0.9730    -0.8110     0.3060 C.2   1 <1>   0.5950 
  3 C        2.1680    -1.5470    -0.0090 C.2   1 <1>  -0.0860 
  4 C       -0.3650    -1.4690    -0.0260 C.3   1 <1>  -0.0990 
  5 C        3.5710    -1.2630     0.0560 C.2   1 <1>  -0.0860 
  6 C        2.0910    -2.8100    -0.4910 C.2   1 <1>  -0.0400 
  7 C       -0.3270    -3.0100     0.0730 C.3   1 <1>  -0.1600 
  8 C        4.1580    -2.4040    -0.4200 C.2   1 <1>  -0.0400 
  9 C        4.2420    -0.0590     0.5200 C.2   1 <1>   0.7160 
 10 O        3.2650    -3.3050    -0.7390 O.3   1 <1>  -0.2800 
 11 C        0.8340    -3.6190    -0.7330 C.3   1 <1>   0.0200 
 12 C        5.6030    -2.8150    -0.6410 C.3   1 <1>  -0.0600 
 13 O        5.4380    -0.0720     0.7460 O.2   1 <1>  -0.5700 
 14 N        3.5600     1.1190     0.6990 N.am  1 <1>  -0.4940 
 15 C        3.9270     2.3700     1.2550 C.2   1 <1>  -0.0880 
 16 N        5.0940     3.0710     1.1340 N.pl3 1 <1>   0.3140 
 17 C        3.1170     3.1240     2.0330 C.2   1 <1>  -0.1500 
 18 N        5.0390     4.2350     1.8310 N.2   1 <1>  -0.7070 
 19 C        6.3090     2.7380     0.3460 C.3   1 <1>   0.1760 
 20 C        3.8560     4.2520     2.3590 C.2   1 <1>   0.1390 
 21 C        7.4460     2.3390     1.2990 C.3   1 <1>  -0.1600 
 22 C        6.7450     3.9150    -0.5430 C.3   1 <1>  -0.1600 
 23 C        8.7200     2.0340     0.5250 C.3   1 <1>   0.3430 
 24 C        8.0430     3.5920    -1.2760 C.3   1 <1>   0.3430 
 25 N        9.1010     3.2280    -0.2880 N.4   1 <1>  -0.9590 
 26 C       10.4170     3.0180    -0.9620 C.3   1 <1>   0.2630 
 27 H       -0.6370    -1.1790    -1.0250 H     1 <1>   0.0800 
 28 H       -1.1150    -1.0870     0.6430 H     1 <1>   0.0800 
 29 H       -1.2610    -3.4250    -0.2630 H     1 <1>   0.0800 
 30 H       -0.2010    -3.2820     1.1070 H     1 <1>   0.0800 
 31 H        0.9930    -4.6390    -0.4290 H     1 <1>   0.0800 
 32 H        0.6100    -3.6100    -1.7860 H     1 <1>   0.0800 
 33 H        6.2890    -2.0130    -0.4560 H     1 <1>   0.0800 
 34 H        5.7300    -3.1420    -1.6570 H     1 <1>   0.0800 
 35 H        5.8460    -3.6330     0.0130 H     1 <1>   0.0800 
 36 H        2.5410     0.9890     0.6550 H     1 <1>   0.3700 
 37 H        2.1110     2.9130     2.3490 H     1 <1>   0.1500 
 38 H        6.0720     1.9180    -0.3040 H     1 <1>   0.0800 
 39 H        3.4940     5.0560     2.9800 H     1 <1>   0.1500 
 40 H        7.1610     1.4640     1.8570 H     1 <1>   0.0800 
 41 H        7.6340     3.1290     2.0050 H     1 <1>   0.0800 
 42 H        6.8910     4.8030     0.0480 H     1 <1>   0.0800 
 43 H        5.9740     4.1210    -1.2640 H     1 <1>   0.0800 
 44 H        8.5570     1.1840    -0.1190 H     1 <1>   0.0800 
 45 H        9.5090     1.7900     1.2180 H     1 <1>   0.0800 
 46 H        8.3520     4.4510    -1.8500 H     1 <1>   0.0800 
 47 H        7.8790     2.7710    -1.9560 H     1 <1>   0.0800 
 48 H        9.1900     4.0210     0.3660 H     1 <1>   0.4500 
 49 H       10.3590     2.1920    -1.6520 H     1 <1>   0.0800 
 50 H       11.1810     2.8030    -0.2320 H     1 <1>   0.0800 
 51 H       10.7050     3.9030    -1.5070 H     1 <1>   0.0800 
@<TRIPOS>BOND
  1   1   2  2   
  2   2   3  1   
  3   2   4  1   
  4   3   5  1   
  5   3   6  2   
  6   4   7  1   
  7   4  27  1   
  8   4  28  1   
  9   5   8  2   
 10   5   9  1   
 11   6  10  1   
 12   6  11  1   
 13   7  11  1   
 14   7  29  1   
 15   7  30  1   
 16   8  10  1   
 17   8  12  1   
 18   9  13  2   
 19   9  14  am  
 20  11  31  1   
 21  11  32  1   
 22  12  33  1   
 23  12  34  1   
 24  12  35  1   
 25  14  15  1   
 26  14  36  1   
 27  15  16  1   
 28  15  17  2   
 29  16  18  1   
 30  16  19  1   
 31  17  20  1   
 32  17  37  1   
 33  18  20  2   
 34  19  21  1   
 35  19  22  1   
 36  19  38  1   
 37  20  39  1   
 38  21  23  1   
 39  21  40  1   
 40  21  41  1   
 41  22  24  1   
 42  22  42  1   
 43  22  43  1   
 44  23  25  1   
 45  23  44  1   
 46  23  45  1   
 47  24  25  1   
 48  24  46  1   
 49  24  47  1   
 50  25  26  1   
 51  25  48  1   
 52  26  49  1   
 53  26  50  1   
 54  26  51  1   
@<TRIPOS>SUBSTRUCTURE
  1 ****   9 GROUP 4 **** **** 0

# MOE 2024.06 (io_trps.svl 2023.06)
