@<TRIPOS>MOLECULE
NONAME
46 48 1 0 0 
SMALL
USER_CHARGES


@<TRIPOS>ATOM
  1 CL      -1.1000    -0.1000     0.8850 Cl    1 <1>  -0.1770 
  2 C       -0.8730     1.5280     0.2850 C.ar  1 <1>   0.1770 
  3 C       -1.9460     2.4090     0.2090 C.ar  1 <1>  -0.1440 
  4 C        0.4030     1.8920    -0.1040 C.ar  1 <1>  -0.1500 
  5 C       -1.6970     3.6900    -0.2750 C.ar  1 <1>  -0.1500 
  6 C       -3.3320     1.9330     0.6590 C.3   1 <1>  -0.0160 
  7 C        0.6310     3.1690    -0.5830 C.ar  1 <1>  -0.1500 
  8 C       -0.4210     4.0640    -0.6670 C.ar  1 <1>  -0.1500 
  9 C       -4.4700     2.9560     0.4880 C.3   1 <1>  -0.0990 
 10 C       -5.8360     2.4420     0.9240 C.2   1 <1>   0.5690 
 11 O       -5.9120     1.3270     1.3860 O.2   1 <1>  -0.5700 
 12 N       -6.9460     3.2370     0.7840 N.am  1 <1>  -0.6600 
 13 C       -8.3040     2.7350     1.1520 C.3   1 <1>   0.1400 
 14 C       -6.9680     4.6170     0.2220 C.3   1 <1>   0.1400 
 15 C       -9.2380     2.7080    -0.0840 C.3   1 <1>   0.0000 
 16 C       -7.8650     4.6500    -1.0210 C.3   1 <1>  -0.1600 
 17 C      -10.6550     2.2090     0.2680 C.3   1 <1>   0.2000 
 18 C       -9.2770     4.1140    -0.7220 C.3   1 <1>  -0.1600 
 19 C       -8.7740     1.6320    -1.0820 C.3   1 <1>  -0.1600 
 20 O      -11.0860     2.6310     1.5140 O.3   1 <1>  -0.6800 
 21 C      -10.6160     0.6800     0.2140 C.3   1 <1>  -0.1600 
 22 C       -9.3370     0.3130    -0.5480 C.3   1 <1>  -0.1600 
 23 H        1.2050     1.1810    -0.0300 H     1 <1>   0.1500 
 24 H       -2.4800     4.4200    -0.3570 H     1 <1>   0.1500 
 25 H       -3.5860     1.0480     0.1000 H     1 <1>   0.0800 
 26 H       -3.2760     1.6520     1.6960 H     1 <1>   0.0800 
 27 H        1.6200     3.4650    -0.8890 H     1 <1>   0.1500 
 28 H       -0.2460     5.0590    -1.0390 H     1 <1>   0.1500 
 29 H       -4.5350     3.2290    -0.5480 H     1 <1>   0.0800 
 30 H       -4.2440     3.8280     1.0720 H     1 <1>   0.0800 
 31 H       -8.2410     1.7540     1.5880 H     1 <1>   0.0800 
 32 H       -8.7100     3.3950     1.8990 H     1 <1>   0.0800 
 33 H       -7.3610     5.2870     0.9680 H     1 <1>   0.0800 
 34 H       -5.9820     4.9550    -0.0370 H     1 <1>   0.0800 
 35 H       -7.9370     5.6630    -1.3770 H     1 <1>   0.0800 
 36 H       -7.4070     4.0640    -1.7980 H     1 <1>   0.0800 
 37 H      -11.3590     2.5740    -0.4620 H     1 <1>   0.0800 
 38 H       -9.8550     4.0960    -1.6290 H     1 <1>   0.0800 
 39 H       -9.7680     4.7880    -0.0400 H     1 <1>   0.0800 
 40 H       -9.2050     1.8240    -2.0500 H     1 <1>   0.0800 
 41 H       -7.7040     1.5880    -1.1890 H     1 <1>   0.0800 
 42 H      -10.6150     2.1370     2.2120 H     1 <1>   0.4000 
 43 H      -10.5920     0.2440     1.1970 H     1 <1>   0.0800 
 44 H      -11.4810     0.3170    -0.3130 H     1 <1>   0.0800 
 45 H       -8.6250    -0.1290     0.1300 H     1 <1>   0.0800 
 46 H       -9.5300    -0.3830    -1.3460 H     1 <1>   0.0800 
@<TRIPOS>BOND
  1   1   2  1   
  2   2   3  ar  
  3   2   4  ar  
  4   3   5  ar  
  5   3   6  1   
  6   4   7  ar  
  7   4  23  1   
  8   5   8  ar  
  9   5  24  1   
 10   6   9  1   
 11   6  25  1   
 12   6  26  1   
 13   7   8  ar  
 14   7  27  1   
 15   8  28  1   
 16   9  10  1   
 17   9  29  1   
 18   9  30  1   
 19  10  11  2   
 20  10  12  am  
 21  12  13  1   
 22  12  14  1   
 23  13  15  1   
 24  13  31  1   
 25  13  32  1   
 26  14  16  1   
 27  14  33  1   
 28  14  34  1   
 29  15  17  1   
 30  15  18  1   
 31  15  19  1   
 32  16  18  1   
 33  16  35  1   
 34  16  36  1   
 35  17  20  1   
 36  17  21  1   
 37  17  37  1   
 38  18  38  1   
 39  18  39  1   
 40  19  22  1   
 41  19  40  1   
 42  19  41  1   
 43  20  42  1   
 44  21  22  1   
 45  21  43  1   
 46  21  44  1   
 47  22  45  1   
 48  22  46  1   
@<TRIPOS>SUBSTRUCTURE
  1 ****  10 GROUP 4 **** **** 0

# MOE 2024.06 (io_trps.svl 2023.06)
