@<TRIPOS>MOLECULE
NONAME
58 61 1 0 0 
SMALL
USER_CHARGES


@<TRIPOS>ATOM
  1 O       -1.0620    -0.5650     1.8410 O.2   1 <1>  -0.5700 
  2 C       -0.7950     0.5790     1.5530 C.2   1 <1>   0.5690 
  3 N       -1.7270     1.4080     0.9690 N.am  1 <1>  -0.6600 
  4 C        0.6090     1.0510     1.8970 C.3   1 <1>   0.1570 
  5 C       -1.4910     2.8230     0.5620 C.3   1 <1>   0.1400 
  6 C       -3.0410     0.8800     0.5100 C.3   1 <1>   0.1400 
  7 N        1.3750     1.4230     0.6880 N.pl3 1 <1>   0.0480 
  8 C       -2.6090     3.7100     1.1160 C.3   1 <1>  -0.1600 
  9 C       -4.1690     1.7560     1.0630 C.3   1 <1>  -0.1600 
 10 C        2.0290     2.6170     0.4720 C.ar  1 <1>  -0.1520 
 11 C        1.4780     0.6820    -0.4570 C.2   1 <1>  -0.3020 
 12 C       -4.0070     3.2330     0.6720 C.3   1 <1>   0.2800 
 13 C        2.5280     2.6140    -0.8270 C.ar  1 <1>   0.0000 
 14 C        2.2320     3.7250     1.3040 C.ar  1 <1>  -0.1500 
 15 C        2.1700     1.3730    -1.3920 C.2   1 <1>  -0.1500 
 16 O       -4.0750     3.2630    -0.7260 O.3   1 <1>  -0.5600 
 17 C       -5.1580     4.0720     1.2940 C.3   1 <1>  -0.1600 
 18 C        3.2250     3.7250    -1.3110 C.ar  1 <1>  -0.1500 
 19 C        2.9200     4.8120     0.8170 C.ar  1 <1>  -0.1500 
 20 C       -4.1220     4.4980    -1.4080 C.3   1 <1>   0.1200 
 21 C       -5.9990     4.8630     0.2740 C.3   1 <1>   0.3000 
 22 C        3.4150     4.8130    -0.4920 C.ar  1 <1>  -0.1500 
 23 C       -5.0270     5.5450    -0.7260 C.3   1 <1>   0.2000 
 24 N       -6.8750     3.8880    -0.4190 N.am  1 <1>  -0.7300 
 25 C       -6.8990     5.8650     1.0110 C.3   1 <1>  -0.2400 
 26 O       -4.2110     6.4740    -0.0700 O.3   1 <1>  -0.6800 
 27 C       -7.6990     4.1220    -1.4680 C.2   1 <1>   0.5690 
 28 O       -7.8920     5.2190    -1.9260 O.2   1 <1>  -0.5700 
 29 C       -8.3760     2.9360    -2.1000 C.3   1 <1>  -0.1790 
 30 H        1.1340     0.2600     2.3980 H     1 <1>   0.0800 
 31 H        0.5430     1.8900     2.5590 H     1 <1>   0.0800 
 32 H       -0.5510     3.1860     0.9310 H     1 <1>   0.0800 
 33 H       -1.4700     2.8790    -0.5140 H     1 <1>   0.0800 
 34 H       -3.0650     0.8870    -0.5670 H     1 <1>   0.0800 
 35 H       -3.1830    -0.1350     0.8370 H     1 <1>   0.0800 
 36 H       -2.4300     4.7210     0.8080 H     1 <1>   0.0800 
 37 H       -2.5500     3.6890     2.1890 H     1 <1>   0.0800 
 38 H       -4.1740     1.6590     2.1340 H     1 <1>   0.0800 
 39 H       -5.1100     1.3860     0.6990 H     1 <1>   0.0800 
 40 H        1.0440    -0.3000    -0.5390 H     1 <1>   0.1500 
 41 H        1.8600     3.7270     2.3120 H     1 <1>   0.1500 
 42 H        2.4210     1.0710    -2.3930 H     1 <1>   0.1500 
 43 H       -5.8120     3.4500     1.8780 H     1 <1>   0.0800 
 44 H       -4.7290     4.7620     1.9970 H     1 <1>   0.0800 
 45 H        3.6020     3.7080    -2.3170 H     1 <1>   0.1500 
 46 H        3.0870     5.6740     1.4380 H     1 <1>   0.1500 
 47 H       -3.1200     4.8690    -1.5290 H     1 <1>   0.0800 
 48 H       -4.5210     4.2860    -2.3840 H     1 <1>   0.0800 
 49 H        3.9500     5.6760    -0.8500 H     1 <1>   0.1500 
 50 H       -5.5750     6.0980    -1.4680 H     1 <1>   0.0800 
 51 H       -6.5940     2.9240    -0.2500 H     1 <1>   0.3700 
 52 H       -6.3090     6.5420     1.6020 H     1 <1>   0.0800 
 53 H       -7.5840     5.3520     1.6600 H     1 <1>   0.0800 
 54 H       -7.4580     6.4540     0.3060 H     1 <1>   0.0800 
 55 H       -3.7200     6.0390     0.6490 H     1 <1>   0.4000 
 56 H       -8.9730     2.4270    -1.3670 H     1 <1>   0.0800 
 57 H       -7.6380     2.2650    -2.4950 H     1 <1>   0.0800 
 58 H       -9.0130     3.2660    -2.9000 H     1 <1>   0.0800 
@<TRIPOS>BOND
  1   1   2  2   
  2   2   3  am  
  3   2   4  1   
  4   3   5  1   
  5   3   6  1   
  6   4   7  1   
  7   4  30  1   
  8   4  31  1   
  9   5   8  1   
 10   5  32  1   
 11   5  33  1   
 12   6   9  1   
 13   6  34  1   
 14   6  35  1   
 15   7  10  1   
 16   7  11  1   
 17   8  12  1   
 18   8  36  1   
 19   8  37  1   
 20   9  12  1   
 21   9  38  1   
 22   9  39  1   
 23  10  13  ar  
 24  10  14  ar  
 25  11  15  2   
 26  11  40  1   
 27  12  16  1   
 28  12  17  1   
 29  13  15  1   
 30  13  18  ar  
 31  14  19  ar  
 32  14  41  1   
 33  15  42  1   
 34  16  20  1   
 35  17  21  1   
 36  17  43  1   
 37  17  44  1   
 38  18  22  ar  
 39  18  45  1   
 40  19  22  ar  
 41  19  46  1   
 42  20  23  1   
 43  20  47  1   
 44  20  48  1   
 45  21  23  1   
 46  21  24  1   
 47  21  25  1   
 48  22  49  1   
 49  23  26  1   
 50  23  50  1   
 51  24  27  am  
 52  24  51  1   
 53  25  52  1   
 54  25  53  1   
 55  25  54  1   
 56  26  55  1   
 57  27  28  2   
 58  27  29  1   
 59  29  56  1   
 60  29  57  1   
 61  29  58  1   
@<TRIPOS>SUBSTRUCTURE
  1 ****   5 GROUP 4 **** **** 0

# MOE 2024.06 (io_trps.svl 2023.06)
