@<TRIPOS>MOLECULE
NONAME
51 54 1 0 0 
SMALL
USER_CHARGES


@<TRIPOS>ATOM
  1 N       -1.1780    -0.2380     0.3980 N.ar  1 <1>  -0.6200 
  2 C       -0.0530     0.2210    -0.1310 C.ar  1 <1>   0.7710 
  3 C       -2.0460     0.6410     0.8500 C.ar  1 <1>   0.4100 
  4 N        0.1990     1.5350    -0.2290 N.ar  1 <1>  -0.1790 
  5 N        0.8680    -0.6590    -0.5900 N.pl3 1 <1>  -0.8380 
  6 N       -3.1590     0.1400     1.4310 N.pl3 1 <1>  -0.8690 
  7 C       -1.8460     2.0410     0.7440 C.ar  1 <1>  -0.1430 
  8 C       -0.6720     2.4770     0.2020 C.ar  1 <1>   0.2170 
  9 C        2.2090    -0.3700    -1.1740 C.3   1 <1>   0.2090 
 10 C        0.6630    -2.1330    -0.5100 C.3   1 <1>   0.2090 
 11 C       -3.3500    -1.2770     1.8590 C.3   1 <1>   0.3770 
 12 C       -2.9510     2.9850     1.2370 C.3   1 <1>  -0.0970 
 13 C       -0.2400     3.9290     0.0310 C.3   1 <1>  -0.0970 
 14 C        2.9280    -1.7120    -1.2040 C.3   1 <1>  -0.1600 
 15 C        1.8120    -2.7430    -1.3000 C.3   1 <1>  -0.1600 
 16 C       -3.8340    -2.1610     0.7100 C.2   1 <1>   0.1820 
 17 N       -4.1890    -3.4960     0.8500 N.pl3 1 <1>  -0.6290 
 18 C       -3.9940    -1.8250    -0.5850 C.2   1 <1>   0.2000 
 19 C       -4.5660    -3.9380    -0.3770 C.cat 1 <1>   0.7910 
 20 C       -4.2180    -4.3540     1.9300 C.2   1 <1>   0.2290 
 21 N       -4.4490    -2.9280    -1.2550 N.pl3 1 <1>  -0.7000 
 22 C       -4.9940    -5.2690    -0.5770 C.2   1 <1>  -0.1290 
 23 C       -4.6260    -5.6450     1.7640 C.2   1 <1>  -0.1500 
 24 C       -5.0220    -6.1190     0.4970 C.2   1 <1>  -0.1500 
 25 C       -5.4150    -5.7490    -1.9620 C.3   1 <1>  -0.1020 
 26 H        1.0870     1.7750    -0.6510 H     1 <1>   0.4570 
 27 H       -3.8520     0.7890     1.8180 H     1 <1>   0.4000 
 28 H        2.7640     0.3380    -0.5810 H     1 <1>   0.0800 
 29 H        2.0930    -0.0040    -2.1810 H     1 <1>   0.0800 
 30 H       -0.2890    -2.4220    -0.9250 H     1 <1>   0.0800 
 31 H        0.7160    -2.4440     0.5210 H     1 <1>   0.0800 
 32 H       -4.0720    -1.3060     2.6570 H     1 <1>   0.0800 
 33 H       -2.4200    -1.6670     2.2380 H     1 <1>   0.0800 
 34 H       -3.9080     2.6710     0.8590 H     1 <1>   0.0800 
 35 H       -2.8100     3.9980     0.9110 H     1 <1>   0.0800 
 36 H       -2.9880     2.9790     2.3130 H     1 <1>   0.0800 
 37 H        0.8210     4.0320     0.1790 H     1 <1>   0.0800 
 38 H       -0.7180     4.5710     0.7470 H     1 <1>   0.0800 
 39 H       -0.4860     4.2750    -0.9580 H     1 <1>   0.0800 
 40 H        3.4700    -1.8440    -0.2830 H     1 <1>   0.0800 
 41 H        3.6200    -1.7800    -2.0260 H     1 <1>   0.0800 
 42 H        1.5100    -2.8650    -2.3260 H     1 <1>   0.0800 
 43 H        2.1040    -3.7010    -0.9060 H     1 <1>   0.0800 
 44 H       -3.8120    -0.8730    -1.0590 H     1 <1>   0.1500 
 45 H       -3.9120    -3.9810     2.8950 H     1 <1>   0.1500 
 46 H       -4.6760    -2.9960    -2.2490 H     1 <1>   0.4500 
 47 H       -4.6530    -6.3260     2.5990 H     1 <1>   0.1500 
 48 H       -5.3390    -7.1460     0.4050 H     1 <1>   0.1500 
 49 H       -6.2510    -5.1750    -2.3200 H     1 <1>   0.0800 
 50 H       -5.7090    -6.7840    -1.9350 H     1 <1>   0.0800 
 51 H       -4.5990    -5.6530    -2.6570 H     1 <1>   0.0800 
@<TRIPOS>BOND
  1   1   2  ar  
  2   1   3  ar  
  3   2   4  ar  
  4   2   5  1   
  5   3   6  1   
  6   3   7  ar  
  7   4   8  ar  
  8   4  26  1   
  9   5   9  1   
 10   5  10  1   
 11   6  11  1   
 12   6  27  1   
 13   7   8  ar  
 14   7  12  1   
 15   8  13  1   
 16   9  14  1   
 17   9  28  1   
 18   9  29  1   
 19  10  15  1   
 20  10  30  1   
 21  10  31  1   
 22  11  16  1   
 23  11  32  1   
 24  11  33  1   
 25  12  34  1   
 26  12  35  1   
 27  12  36  1   
 28  13  37  1   
 29  13  38  1   
 30  13  39  1   
 31  14  15  1   
 32  14  40  1   
 33  14  41  1   
 34  15  42  1   
 35  15  43  1   
 36  16  17  1   
 37  16  18  2   
 38  17  19  ar  
 39  17  20  1   
 40  18  21  1   
 41  18  44  1   
 42  19  21  ar  
 43  19  22  1   
 44  20  23  2   
 45  20  45  1   
 46  21  46  1   
 47  22  24  2   
 48  22  25  1   
 49  23  24  1   
 50  23  47  1   
 51  24  48  1   
 52  25  49  1   
 53  25  50  1   
 54  25  51  1   
@<TRIPOS>SUBSTRUCTURE
  1 ****   1 GROUP 4 **** **** 0

# MOE 2024.06 (io_trps.svl 2023.06)
