@<TRIPOS>MOLECULE
Untitled Document
32 31 1 0 0 
SMALL
USER_CHARGES


@<TRIPOS>ATOM
  1 S       -0.1020     0.4220     0.3250 S.3   1 <1>  -0.4600 
  2 C       -1.6490    -0.2550    -0.3330 C.3   1 <1>   0.0700 
  3 C        1.1700    -0.7430    -0.2270 C.3   1 <1>   0.0700 
  4 C       -2.7520     0.7660    -0.0430 C.3   1 <1>   0.3300 
  5 C        2.5120    -0.0090    -0.1580 C.3   1 <1>  -0.1600 
  6 N       -4.0860     0.2100    -0.4040 N.pl3 1 <1>  -0.7940 
  7 C        3.7090    -0.9300    -0.4340 C.3   1 <1>   0.3170 
  8 C       -5.0720    -0.1600     0.3790 C.cat 1 <1>   0.6040 
  9 N        3.9040    -1.8610     0.7290 N.4   1 <1>  -0.8530 
 10 C        5.0200    -0.1510    -0.6400 C.2   1 <1>   0.9060 
 11 N       -5.0120    -0.1090     1.6830 N.pl3 1 <1>  -0.7540 
 12 C       -6.3350    -0.6730    -0.2700 C.3   1 <1>  -0.1350 
 13 O        5.1520     0.6160    -1.5900 O.co2 1 <1>  -0.9000 
 14 O        5.9030    -0.4020     0.1960 O.co2 1 <1>  -0.9000 
 15 H       -1.5140    -0.4040    -1.3900 H     1 <1>   0.0800 
 16 H       -1.8270    -1.1890     0.1700 H     1 <1>   0.0800 
 17 H        1.1260    -1.5930     0.4310 H     1 <1>   0.0800 
 18 H        0.9350    -1.0360    -1.2360 H     1 <1>   0.0800 
 19 H       -2.5700     1.6630    -0.6120 H     1 <1>   0.0800 
 20 H       -2.7250     1.0270     1.0000 H     1 <1>   0.0800 
 21 H        2.5080     0.7660    -0.9070 H     1 <1>   0.0800 
 22 H        2.6400     0.4750     0.7950 H     1 <1>   0.0800 
 23 H       -4.2180     0.1440    -1.4210 H     1 <1>   0.4500 
 24 H        3.5370    -1.4890    -1.3360 H     1 <1>   0.0800 
 25 H        4.9000    -1.6270     0.9730 H     1 <1>   0.4500 
 26 H        3.8790    -2.8490     0.4810 H     1 <1>   0.4500 
 27 H        3.3450    -1.6080     1.5430 H     1 <1>   0.4500 
 28 H       -4.2030     0.2250     2.2070 H     1 <1>   0.4500 
 29 H       -5.7820    -0.3970     2.2930 H     1 <1>   0.4500 
 30 H       -6.1160    -1.5420    -0.8630 H     1 <1>   0.0800 
 31 H       -6.7540     0.0860    -0.9060 H     1 <1>   0.0800 
 32 H       -7.0700    -0.9410     0.4670 H     1 <1>   0.0800 
@<TRIPOS>BOND
  1   1   2  1   
  2   1   3  1   
  3   2   4  1   
  4   2  15  1   
  5   2  16  1   
  6   3   5  1   
  7   3  17  1   
  8   3  18  1   
  9   4   6  1   
 10   4  19  1   
 11   4  20  1   
 12   5   7  1   
 13   5  21  1   
 14   5  22  1   
 15   6   8  ar  
 16   6  23  1   
 17   7   9  1   
 18   7  10  1   
 19   7  24  1   
 20   8  11  ar  
 21   8  12  1   
 22   9  25  1   
 23   9  26  1   
 24   9  27  1   
 25  10  13  ar  
 26  10  14  ar  
 27  11  28  1   
 28  11  29  1   
 29  12  30  1   
 30  12  31  1   
 31  12  32  1   
@<TRIPOS>SUBSTRUCTURE
  1 ****   1 GROUP 4 **** **** 0

# MOE 2024.06 (io_trps.svl 2023.06)
