@<TRIPOS>MOLECULE
NONAME
48 51 1 0 0 
SMALL
USER_CHARGES


@<TRIPOS>ATOM
  1 O       -0.2420     1.3930    -1.8160 O.2   1 <1>  -0.5700 
  2 C       -0.3330     2.3630    -1.0830 C.2   1 <1>   0.6160 
  3 N       -1.5670     2.9690    -0.9300 N.am  1 <1>  -0.6600 
  4 C        0.8620     2.8710    -0.4760 C.2   1 <1>   0.0290 
  5 C       -1.7870     4.2680    -0.2350 C.3   1 <1>   0.1400 
  6 C       -2.8190     2.3570    -1.4580 C.3   1 <1>   0.1400 
  7 C        0.9850     2.8230     0.9540 C.2   1 <1>   0.6160 
  8 C        1.8980     3.3840    -1.2210 C.2   1 <1>  -0.1500 
  9 C       -2.7580     4.0620     0.9300 C.3   1 <1>  -0.1600 
 10 C       -3.8000     2.1380    -0.3040 C.3   1 <1>  -0.1600 
 11 O        0.1330     2.3840     1.7120 O.2   1 <1>  -0.5700 
 12 N        2.1290     3.3130     1.5350 N.am  1 <1>  -0.5390 
 13 C        3.0460     3.8700    -0.5670 C.2   1 <1>  -0.1380 
 14 C       -4.0770     3.4350     0.4620 C.3   1 <1>   0.4180 
 15 C        3.1400     3.8280     0.7760 C.2   1 <1>  -0.0290 
 16 C        4.2840     4.4630    -1.1910 C.3   1 <1>  -0.0220 
 17 O       -4.7110     4.3020    -0.4490 O.3   1 <1>  -0.5600 
 18 C       -4.9960     3.1440     1.6460 C.2   1 <1>  -0.2880 
 19 C        4.4390     4.3810     1.2930 C.3   1 <1>  -0.0220 
 20 C        5.1040     4.9510     0.0230 C.3   1 <1>  -0.1600 
 21 C       -5.4510     5.3660     0.0820 C.3   1 <1>   0.1200 
 22 C       -6.1620     3.7580     1.8610 C.2   1 <1>  -0.2760 
 23 C       -6.6330     4.8430     0.9100 C.3   1 <1>  -0.0220 
 24 C       -7.0990     3.4460     3.0140 C.3   1 <1>  -0.1020 
 25 H       -2.2060     4.9700    -0.9360 H     1 <1>   0.0800 
 26 H       -0.8620     4.6760     0.1310 H     1 <1>   0.0800 
 27 H       -2.6160     1.4160    -1.9380 H     1 <1>   0.0800 
 28 H       -3.2530     3.0180    -2.1890 H     1 <1>   0.0800 
 29 H        1.8470     3.4160    -2.2960 H     1 <1>   0.1500 
 30 H       -2.9440     4.9950     1.4260 H     1 <1>   0.0800 
 31 H       -2.2980     3.4100     1.6490 H     1 <1>   0.0800 
 32 H       -3.3810     1.4080     0.3640 H     1 <1>   0.0800 
 33 H       -4.7260     1.7450    -0.6810 H     1 <1>   0.0800 
 34 H        2.1670     3.2450     2.5520 H     1 <1>   0.3700 
 35 H        4.0360     5.2770    -1.8500 H     1 <1>   0.0800 
 36 H        4.8170     3.7030    -1.7350 H     1 <1>   0.0800 
 37 H       -4.6050     2.3790     2.2930 H     1 <1>   0.1500 
 38 H        5.0310     3.5900     1.7180 H     1 <1>   0.0800 
 39 H        4.2710     5.1510     2.0260 H     1 <1>   0.0800 
 40 H        5.0710     6.0260     0.0600 H     1 <1>   0.0800 
 41 H        6.1310     4.6390    -0.0520 H     1 <1>   0.0800 
 42 H       -5.8060     5.9620    -0.7400 H     1 <1>   0.0800 
 43 H       -4.8010     5.9680     0.6910 H     1 <1>   0.0800 
 44 H       -7.3910     4.4510     0.2560 H     1 <1>   0.0800 
 45 H       -7.0540     5.6640     1.4600 H     1 <1>   0.0800 
 46 H       -7.2380     4.3190     3.6280 H     1 <1>   0.0800 
 47 H       -6.6940     2.6600     3.6260 H     1 <1>   0.0800 
 48 H       -8.0550     3.1280     2.6370 H     1 <1>   0.0800 
@<TRIPOS>BOND
  1   1   2  2   
  2   2   3  am  
  3   2   4  1   
  4   3   5  1   
  5   3   6  1   
  6   4   7  1   
  7   4   8  2   
  8   5   9  1   
  9   5  25  1   
 10   5  26  1   
 11   6  10  1   
 12   6  27  1   
 13   6  28  1   
 14   7  11  2   
 15   7  12  am  
 16   8  13  1   
 17   8  29  1   
 18   9  14  1   
 19   9  30  1   
 20   9  31  1   
 21  10  14  1   
 22  10  32  1   
 23  10  33  1   
 24  12  15  1   
 25  12  34  1   
 26  13  15  2   
 27  13  16  1   
 28  14  17  1   
 29  14  18  1   
 30  15  19  1   
 31  16  20  1   
 32  16  35  1   
 33  16  36  1   
 34  17  21  1   
 35  18  22  2   
 36  18  37  1   
 37  19  20  1   
 38  19  38  1   
 39  19  39  1   
 40  20  40  1   
 41  20  41  1   
 42  21  23  1   
 43  21  42  1   
 44  21  43  1   
 45  22  23  1   
 46  22  24  1   
 47  23  44  1   
 48  23  45  1   
 49  24  46  1   
 50  24  47  1   
 51  24  48  1   
@<TRIPOS>SUBSTRUCTURE
  1 ****   5 GROUP 4 **** **** 0

# MOE 2024.06 (io_trps.svl 2023.06)
