@<TRIPOS>MOLECULE
NONAME
48 51 1 0 0 
SMALL
USER_CHARGES


@<TRIPOS>ATOM
  1 O       -2.2260     0.8920    -2.2640 O.2   1 <1>  -0.5700 
  2 C       -2.0710     1.0220    -1.0750 C.2   1 <1>   0.5690 
  3 N       -2.1550    -0.0270    -0.2230 N.am  1 <1>  -0.7300 
  4 C       -1.7700     2.3940    -0.5170 C.3   1 <1>  -0.0990 
  5 C       -2.4250    -1.4240    -0.6280 C.3   1 <1>   0.2200 
  6 C       -0.2910     2.7520    -0.7030 C.3   1 <1>  -0.0170 
  7 C       -3.8430    -1.7940    -0.2280 C.3   1 <1>  -0.0800 
  8 C       -1.6040    -2.3720     0.2370 C.3   1 <1>   0.1200 
  9 C        0.0060     4.1170    -0.1040 C.ar  1 <1>  -0.1440 
 10 C       -3.6730    -2.2210     1.2360 C.3   1 <1>   0.1200 
 11 C       -4.3990    -2.9290    -1.1080 C.3   1 <1>  -0.0170 
 12 O       -2.3170    -2.5120     1.4280 O.3   1 <1>  -0.5600 
 13 C       -0.1850     5.2640    -0.8670 C.ar  1 <1>  -0.1500 
 14 C        0.4680     4.2220     1.2080 C.ar  1 <1>  -0.1500 
 15 C       -5.8280    -3.2830    -0.7250 C.ar  1 <1>  -0.1440 
 16 C        0.0940     6.4870    -0.2900 C.ar  1 <1>   0.0820 
 17 C        0.7430     5.4610     1.7730 C.ar  1 <1>  -0.1500 
 18 C       -6.8910    -2.4690    -1.0620 C.ar  1 <1>  -0.1500 
 19 C       -6.1390    -4.4320    -0.0260 C.ar  1 <1>  -0.1500 
 20 O       -0.0160     7.7050    -0.8320 O.3   1 <1>  -0.3630 
 21 C        0.5450     6.5840     0.9940 C.ar  1 <1>   0.0820 
 22 C       -8.1750    -2.8290    -0.6890 C.ar  1 <1>   0.1600 
 23 C       -7.4590    -4.7000     0.2980 C.ar  1 <1>   0.1600 
 24 C        0.3940     8.6350     0.1690 C.3   1 <1>   0.4000 
 25 O        0.7410     7.8660     1.3190 O.3   1 <1>  -0.3630 
 26 N       -8.4840    -3.9250    -0.0150 N.ar  1 <1>  -0.6200 
 27 H       -2.0370     0.1020     0.7840 H     1 <1>   0.3700 
 28 H       -2.3800     3.1150    -1.0300 H     1 <1>   0.0800 
 29 H       -2.0240     2.4270     0.5260 H     1 <1>   0.0800 
 30 H       -2.2290    -1.5560    -1.6790 H     1 <1>   0.0800 
 31 H       -0.0530     2.7570    -1.7540 H     1 <1>   0.0800 
 32 H        0.3260     2.0060    -0.2350 H     1 <1>   0.0800 
 33 H       -4.5010    -0.9460    -0.3060 H     1 <1>   0.0800 
 34 H       -0.6180    -1.9970     0.4460 H     1 <1>   0.0800 
 35 H       -1.5350    -3.3430    -0.2190 H     1 <1>   0.0800 
 36 H       -4.2530    -3.0900     1.4920 H     1 <1>   0.0800 
 37 H       -3.9290    -1.4150     1.9010 H     1 <1>   0.0800 
 38 H       -3.7770    -3.8040    -1.0280 H     1 <1>   0.0800 
 39 H       -4.3880    -2.6180    -2.1390 H     1 <1>   0.0800 
 40 H       -0.5400     5.2190    -1.8810 H     1 <1>   0.1500 
 41 H        0.6170     3.3350     1.7990 H     1 <1>   0.1500 
 42 H        1.1000     5.5580     2.7820 H     1 <1>   0.1500 
 43 H       -6.7330    -1.5580    -1.6110 H     1 <1>   0.1500 
 44 H       -5.3700    -5.1220     0.2710 H     1 <1>   0.1500 
 45 H       -8.9910    -2.1810    -0.9600 H     1 <1>   0.1500 
 46 H       -7.6820    -5.6000     0.8450 H     1 <1>   0.1500 
 47 H        1.2570     9.1780    -0.1750 H     1 <1>   0.0800 
 48 H       -0.4220     9.2930     0.4070 H     1 <1>   0.0800 
@<TRIPOS>BOND
  1   1   2  2   
  2   2   3  am  
  3   2   4  1   
  4   3   5  1   
  5   3  27  1   
  6   4   6  1   
  7   4  28  1   
  8   4  29  1   
  9   5   7  1   
 10   5   8  1   
 11   5  30  1   
 12   6   9  1   
 13   6  31  1   
 14   6  32  1   
 15   7  10  1   
 16   7  11  1   
 17   7  33  1   
 18   8  12  1   
 19   8  34  1   
 20   8  35  1   
 21   9  13  ar  
 22   9  14  ar  
 23  10  12  1   
 24  10  36  1   
 25  10  37  1   
 26  11  15  1   
 27  11  38  1   
 28  11  39  1   
 29  13  16  ar  
 30  13  40  1   
 31  14  17  ar  
 32  14  41  1   
 33  15  18  ar  
 34  15  19  ar  
 35  16  20  1   
 36  16  21  ar  
 37  17  21  ar  
 38  17  42  1   
 39  18  22  ar  
 40  18  43  1   
 41  19  23  ar  
 42  19  44  1   
 43  20  24  1   
 44  21  25  1   
 45  22  26  ar  
 46  22  45  1   
 47  23  26  ar  
 48  23  46  1   
 49  24  25  1   
 50  24  47  1   
 51  24  48  1   
@<TRIPOS>SUBSTRUCTURE
  1 ****   2 GROUP 4 **** **** 0

# MOE 2024.06 (io_trps.svl 2023.06)
