@<TRIPOS>MOLECULE
NONAME
53 56 1 0 0 
SMALL
USER_CHARGES


@<TRIPOS>ATOM
  1 O       -0.7980     3.9290     1.9000 O.2   1 <1>  -0.5700 
  2 C       -0.5750     3.4830     0.7920 C.2   1 <1>   0.5440 
  3 N       -1.6190     3.2860    -0.0860 N.am  1 <1>  -0.6600 
  4 C        0.7830     3.1760     0.4150 C.ar  1 <1>   0.0860 
  5 C       -3.0360     3.6030     0.3120 C.3   1 <1>   0.1400 
  6 C       -1.4030     2.7990    -1.4840 C.3   1 <1>   0.1400 
  7 C        1.3380     1.9280     0.6580 C.ar  1 <1>   0.1660 
  8 C        1.6030     4.0900    -0.2310 C.ar  1 <1>   0.1660 
  9 C       -3.8420     4.1890    -0.8630 C.3   1 <1>   0.1440 
 10 C       -2.6890     2.2030    -2.0650 C.3   1 <1>  -0.1600 
 11 N        2.5550     1.6070     0.2750 N.ar  1 <1>  -0.6200 
 12 C        0.5510     0.8490     1.3830 C.3   1 <1>  -0.0960 
 13 N        2.8210     3.7890    -0.6250 N.ar  1 <1>  -0.6200 
 14 C        1.1460     5.5070    -0.5380 C.3   1 <1>  -0.0970 
 15 C       -5.2340     4.5340    -0.3570 C.ar  1 <1>   0.1670 
 16 C       -3.8710     3.1920    -2.0560 C.3   1 <1>  -0.1600 
 17 C       -3.2890     5.5870    -1.2680 C.3   1 <1>  -0.1600 
 18 C        3.2270     2.5620    -0.3450 C.ar  1 <1>   0.4700 
 19 N       -6.1830     3.6700    -0.0920 N.ar  1 <1>  -0.6200 
 20 C       -5.3880     5.8760    -0.1800 C.ar  1 <1>  -0.1430 
 21 C       -4.1350     6.6370    -0.5290 C.3   1 <1>  -0.0170 
 22 C       -7.3300     4.1950     0.3470 C.ar  1 <1>   0.7200 
 23 C       -6.5990     6.3260     0.2780 C.ar  1 <1>   0.1600 
 24 N       -7.5790     5.4940     0.5420 N.ar  1 <1>  -0.6200 
 25 N       -8.3540     3.3110     0.6280 N.pl3 1 <1>  -0.8380 
 26 C       -8.1210     1.8470     0.7590 C.3   1 <1>   0.1290 
 27 C       -9.7560     3.7670     0.8360 C.3   1 <1>   0.1290 
 28 H       -3.0460     4.3020     1.1310 H     1 <1>   0.0800 
 29 H       -3.5120     2.7000     0.6510 H     1 <1>   0.0800 
 30 H       -0.6320     2.0480    -1.4970 H     1 <1>   0.0800 
 31 H       -1.0820     3.6240    -2.0960 H     1 <1>   0.0800 
 32 H       -2.9470     1.3360    -1.4820 H     1 <1>   0.0800 
 33 H       -2.5090     1.8680    -3.0710 H     1 <1>   0.0800 
 34 H        0.2330     1.2120     2.3440 H     1 <1>   0.0800 
 35 H        1.1590    -0.0250     1.5350 H     1 <1>   0.0800 
 36 H       -0.3130     0.5710     0.8090 H     1 <1>   0.0800 
 37 H        0.3950     5.8400     0.1540 H     1 <1>   0.0800 
 38 H        0.7530     5.5510    -1.5370 H     1 <1>   0.0800 
 39 H        1.9820     6.1800    -0.4680 H     1 <1>   0.0800 
 40 H       -3.9010     3.7270    -2.9880 H     1 <1>   0.0800 
 41 H       -4.7740     2.6090    -2.0170 H     1 <1>   0.0800 
 42 H       -3.4230     5.7470    -2.3220 H     1 <1>   0.0800 
 43 H       -2.2440     5.7030    -1.0410 H     1 <1>   0.0800 
 44 H        4.2260     2.3100    -0.6600 H     1 <1>   0.1500 
 45 H       -4.3450     7.4890    -1.1520 H     1 <1>   0.0800 
 46 H       -3.6430     6.9540     0.3750 H     1 <1>   0.0800 
 47 H       -6.7680     7.3770     0.4320 H     1 <1>   0.1500 
 48 H       -7.1220     1.6540     1.1080 H     1 <1>   0.0800 
 49 H       -8.2550     1.3750    -0.1990 H     1 <1>   0.0800 
 50 H       -8.8130     1.4230     1.4650 H     1 <1>   0.0800 
 51 H       -9.9490     4.6630     0.2710 H     1 <1>   0.0800 
 52 H       -9.9150     3.9720     1.8800 H     1 <1>   0.0800 
 53 H      -10.4450     3.0080     0.5110 H     1 <1>   0.0800 
@<TRIPOS>BOND
  1   1   2  2   
  2   2   3  am  
  3   2   4  1   
  4   3   5  1   
  5   3   6  1   
  6   4   7  ar  
  7   4   8  ar  
  8   5   9  1   
  9   5  28  1   
 10   5  29  1   
 11   6  10  1   
 12   6  30  1   
 13   6  31  1   
 14   7  11  ar  
 15   7  12  1   
 16   8  13  ar  
 17   8  14  1   
 18   9  15  1   
 19   9  16  1   
 20   9  17  1   
 21  10  16  1   
 22  10  32  1   
 23  10  33  1   
 24  11  18  ar  
 25  12  34  1   
 26  12  35  1   
 27  12  36  1   
 28  13  18  ar  
 29  14  37  1   
 30  14  38  1   
 31  14  39  1   
 32  15  19  ar  
 33  15  20  ar  
 34  16  40  1   
 35  16  41  1   
 36  17  21  1   
 37  17  42  1   
 38  17  43  1   
 39  18  44  1   
 40  19  22  ar  
 41  20  21  1   
 42  20  23  ar  
 43  21  45  1   
 44  21  46  1   
 45  22  24  ar  
 46  22  25  1   
 47  23  24  ar  
 48  23  47  1   
 49  25  26  1   
 50  25  27  1   
 51  26  48  1   
 52  26  49  1   
 53  26  50  1   
 54  27  51  1   
 55  27  52  1   
 56  27  53  1   
@<TRIPOS>SUBSTRUCTURE
  1 ****   5 GROUP 4 **** **** 0

# MOE 2024.06 (io_trps.svl 2023.06)
