@<TRIPOS>MOLECULE
NONAME
53 56 1 0 0 
SMALL
USER_CHARGES


@<TRIPOS>ATOM
  1 O       -1.9320     0.1300     0.9730 O.2   1 <1>  -0.5700 
  2 C       -1.4110     1.0190     0.3320 C.2   1 <1>   0.5690 
  3 N       -1.7810     2.3290     0.5150 N.am  1 <1>  -0.6600 
  4 C       -0.3790     0.6040    -0.6960 C.3   1 <1>   0.1570 
  5 C       -2.6890     2.7190     1.6410 C.3   1 <1>   0.1400 
  6 C       -1.5120     3.4290    -0.4640 C.3   1 <1>   0.1400 
  7 N        0.9230     1.2040    -0.3820 N.pl3 1 <1>   0.3140 
  8 C       -4.1510     2.9570     1.1820 C.3   1 <1>   0.1900 
  9 C       -2.7830     3.9630    -1.1720 C.3   1 <1>  -0.0800 
 10 N        1.5540     2.0170    -1.2530 N.2   1 <1>  -0.7070 
 11 C        1.6500     1.0370     0.7410 C.2   1 <1>  -0.3020 
 12 N       -4.4190     2.2930    -0.1270 N.3   1 <1>  -0.8100 
 13 C       -4.5340     4.4520     1.2000 C.3   1 <1>   0.1200 
 14 C       -3.2670     5.3110    -0.6060 C.3   1 <1>   0.1200 
 15 C       -3.9520     2.9680    -1.3550 C.3   1 <1>   0.1100 
 16 C        2.6600     2.3470    -0.6600 C.2   1 <1>   0.1390 
 17 C        2.7770     1.7640     0.5950 C.2   1 <1>  -0.1500 
 18 C       -5.7140     1.5810    -0.2470 C.3   1 <1>   0.2540 
 19 O       -3.4900     5.2690     0.7640 O.3   1 <1>  -0.5600 
 20 C       -5.7720     0.2870     0.5900 C.cat 1 <1>   0.6560 
 21 N       -4.7060    -0.3150     1.0900 N.pl3 1 <1>  -0.7000 
 22 N       -6.8660    -0.4030     0.9220 N.pl3 1 <1>  -0.7640 
 23 C       -5.1060    -1.4320     1.7650 C.2   1 <1>   0.2000 
 24 C       -6.4500    -1.4900     1.6620 C.2   1 <1>   0.2000 
 25 C       -8.2800    -0.1250     0.5810 C.3   1 <1>   0.3540 
 26 C       -8.6330    -0.8650    -0.7040 C.3   1 <1>  -0.2400 
 27 H       -0.6860     0.9140    -1.6740 H     1 <1>   0.0800 
 28 H       -0.2690    -0.4630    -0.6900 H     1 <1>   0.0800 
 29 H       -2.6890     1.9450     2.3870 H     1 <1>   0.0800 
 30 H       -2.2980     3.5970     2.1250 H     1 <1>   0.0800 
 31 H       -1.0150     4.2350     0.0490 H     1 <1>   0.0800 
 32 H       -0.8350     3.0880    -1.2240 H     1 <1>   0.0800 
 33 H       -4.7740     2.4900     1.9250 H     1 <1>   0.0800 
 34 H       -2.4670     4.2070    -2.1700 H     1 <1>   0.0800 
 35 H        1.3300     0.4250     1.5660 H     1 <1>   0.1500 
 36 H       -4.7330     4.7450     2.2160 H     1 <1>   0.0800 
 37 H       -5.4140     4.6470     0.6140 H     1 <1>   0.0800 
 38 H       -4.1700     5.6400    -1.0910 H     1 <1>   0.0800 
 39 H       -2.5100     6.0590    -0.7700 H     1 <1>   0.0800 
 40 H       -3.6400     2.2080    -2.0510 H     1 <1>   0.0800 
 41 H       -4.7770     3.4940    -1.8040 H     1 <1>   0.0800 
 42 H        3.3980     2.9980    -1.0990 H     1 <1>   0.1500 
 43 H        3.5990     1.8840     1.2780 H     1 <1>   0.1500 
 44 H       -6.5100     2.2410     0.0460 H     1 <1>   0.0800 
 45 H       -5.8700     1.3040    -1.2750 H     1 <1>   0.0800 
 46 H       -3.7290     0.0220     0.9710 H     1 <1>   0.4500 
 47 H       -4.4190    -2.0990     2.2620 H     1 <1>   0.1500 
 48 H       -7.1230    -2.2310     2.0640 H     1 <1>   0.1500 
 49 H       -8.9190    -0.4570     1.3840 H     1 <1>   0.0800 
 50 H       -8.4320     0.9330     0.4510 H     1 <1>   0.0800 
 51 H       -8.5120    -1.9250    -0.5730 H     1 <1>   0.0800 
 52 H       -8.0130    -0.5330    -1.5170 H     1 <1>   0.0800 
 53 H       -9.6590    -0.6720    -0.9610 H     1 <1>   0.0800 
@<TRIPOS>BOND
  1   1   2  2   
  2   2   3  am  
  3   2   4  1   
  4   3   5  1   
  5   3   6  1   
  6   4   7  1   
  7   4  27  1   
  8   4  28  1   
  9   5   8  1   
 10   5  29  1   
 11   5  30  1   
 12   6   9  1   
 13   6  31  1   
 14   6  32  1   
 15   7  10  1   
 16   7  11  1   
 17   8  12  1   
 18   8  13  1   
 19   8  33  1   
 20   9  14  1   
 21   9  15  1   
 22   9  34  1   
 23  10  16  2   
 24  11  17  2   
 25  11  35  1   
 26  12  15  1   
 27  12  18  1   
 28  13  19  1   
 29  13  36  1   
 30  13  37  1   
 31  14  19  1   
 32  14  38  1   
 33  14  39  1   
 34  15  40  1   
 35  15  41  1   
 36  16  17  1   
 37  16  42  1   
 38  17  43  1   
 39  18  20  1   
 40  18  44  1   
 41  18  45  1   
 42  20  21  ar  
 43  20  22  ar  
 44  21  23  1   
 45  21  46  1   
 46  22  24  1   
 47  22  25  1   
 48  23  24  2   
 49  23  47  1   
 50  24  48  1   
 51  25  26  1   
 52  25  49  1   
 53  25  50  1   
 54  26  51  1   
 55  26  52  1   
 56  26  53  1   
@<TRIPOS>SUBSTRUCTURE
  1 ****   3 GROUP 4 **** **** 0

# MOE 2024.06 (io_trps.svl 2023.06)
