@<TRIPOS>MOLECULE
NONAME
47 50 1 0 0 
SMALL
USER_CHARGES


@<TRIPOS>ATOM
  1 O        2.7310    -1.9620    -0.9990 O.2   1 <1>  -0.5700 
  2 C        1.6290    -2.4470    -0.7980 C.2   1 <1>   0.5440 
  3 N        0.5350    -1.6930    -1.1860 N.am  1 <1>  -0.6600 
  4 C        1.5440    -3.7800    -0.1920 C.ar  1 <1>   0.3960 
  5 C        0.6620    -0.3250    -1.7340 C.3   1 <1>   0.1400 
  6 C       -0.8820    -2.1240    -1.1720 C.3   1 <1>   0.1400 
  7 N        0.4680    -4.1540     0.5220 N.ar  1 <1>  -0.6200 
  8 C        2.6240    -4.6500    -0.3760 C.ar  1 <1>   0.1600 
  9 C       -0.7680     0.1930    -1.8350 C.3   1 <1>  -0.1600 
 10 C       -1.6230    -1.0630    -1.9770 C.3   1 <1>  -0.1600 
 11 C        0.5370    -5.3800     1.0120 C.ar  1 <1>   0.4100 
 12 N        2.7120    -5.8880     0.0930 N.ar  1 <1>  -0.6200 
 13 N       -0.5470    -5.8140     1.7680 N.pl3 1 <1>  -0.8380 
 14 C        1.6400    -6.2160     0.7840 C.ar  1 <1>   0.1600 
 15 C       -1.9060    -5.2160     1.5380 C.3   1 <1>   0.2090 
 16 C       -0.2950    -6.1910     3.1870 C.3   1 <1>   0.1290 
 17 C       -2.4240    -5.5000     0.1210 C.3   1 <1>   0.2000 
 18 O       -3.7200    -4.9240    -0.0180 O.3   1 <1>  -0.3630 
 19 C       -2.5730    -7.0020    -0.2010 C.3   1 <1>  -0.0170 
 20 C       -4.5840    -5.8520    -0.4590 C.ar  1 <1>   0.0830 
 21 C       -4.0140    -7.0890    -0.6020 C.ar  1 <1>  -0.1430 
 22 C       -5.9170    -5.6330    -0.7510 C.ar  1 <1>  -0.1500 
 23 C       -4.7620    -8.1610    -1.0500 C.ar  1 <1>  -0.1500 
 24 C       -6.6780    -6.7020    -1.2000 C.ar  1 <1>  -0.1500 
 25 C       -6.1020    -7.9580    -1.3500 C.ar  1 <1>  -0.1500 
 26 H        1.1180    -0.3790    -2.7080 H     1 <1>   0.0800 
 27 H        1.2660     0.2910    -1.0880 H     1 <1>   0.0800 
 28 H       -1.2360    -2.1390    -0.1560 H     1 <1>   0.0800 
 29 H       -0.9940    -3.1000    -1.6130 H     1 <1>   0.0800 
 30 H        3.4630    -4.2960    -0.9490 H     1 <1>   0.1500 
 31 H       -0.8900     0.8700    -2.6620 H     1 <1>   0.0800 
 32 H       -1.0180     0.7040    -0.9220 H     1 <1>   0.0800 
 33 H       -2.6270    -0.9210    -1.6190 H     1 <1>   0.0800 
 34 H       -1.6570    -1.3690    -3.0080 H     1 <1>   0.0800 
 35 H        1.6040    -7.2040     1.2050 H     1 <1>   0.1500 
 36 H       -1.8580    -4.1520     1.6940 H     1 <1>   0.0800 
 37 H       -2.6030    -5.6320     2.2450 H     1 <1>   0.0800 
 38 H        0.7480    -6.3990     3.3500 H     1 <1>   0.0800 
 39 H       -0.8660    -7.0690     3.4360 H     1 <1>   0.0800 
 40 H       -0.5870    -5.3840     3.8380 H     1 <1>   0.0800 
 41 H       -1.7940    -5.0270    -0.6080 H     1 <1>   0.0800 
 42 H       -2.3760    -7.6170     0.6590 H     1 <1>   0.0800 
 43 H       -1.9180    -7.2850    -1.0040 H     1 <1>   0.0800 
 44 H       -6.3420    -4.6530    -0.6280 H     1 <1>   0.1500 
 45 H       -4.3160    -9.1340    -1.1640 H     1 <1>   0.1500 
 46 H       -7.7180    -6.5570    -1.4350 H     1 <1>   0.1500 
 47 H       -6.7010    -8.7810    -1.7000 H     1 <1>   0.1500 
@<TRIPOS>BOND
  1   1   2  2   
  2   2   3  am  
  3   2   4  1   
  4   3   5  1   
  5   3   6  1   
  6   4   7  ar  
  7   4   8  ar  
  8   5   9  1   
  9   5  26  1   
 10   5  27  1   
 11   6  10  1   
 12   6  28  1   
 13   6  29  1   
 14   7  11  ar  
 15   8  12  ar  
 16   8  30  1   
 17   9  10  1   
 18   9  31  1   
 19   9  32  1   
 20  10  33  1   
 21  10  34  1   
 22  11  13  1   
 23  11  14  ar  
 24  12  14  ar  
 25  13  15  1   
 26  13  16  1   
 27  14  35  1   
 28  15  17  1   
 29  15  36  1   
 30  15  37  1   
 31  16  38  1   
 32  16  39  1   
 33  16  40  1   
 34  17  18  1   
 35  17  19  1   
 36  17  41  1   
 37  18  20  1   
 38  19  21  1   
 39  19  42  1   
 40  19  43  1   
 41  20  21  ar  
 42  20  22  ar  
 43  21  23  ar  
 44  22  24  ar  
 45  22  44  1   
 46  23  25  ar  
 47  23  45  1   
 48  24  25  ar  
 49  24  46  1   
 50  25  47  1   
@<TRIPOS>SUBSTRUCTURE
  1 ****  17 GROUP 4 **** **** 0

# MOE 2024.06 (io_trps.svl 2023.06)
