@<TRIPOS>MOLECULE
NONAME
45 47 1 0 0 
SMALL
USER_CHARGES


@<TRIPOS>ATOM
  1 O        2.1810     2.3250    -0.8340 O.co2 1 <1>  -0.9000 
  2 C        2.6980     3.3940    -0.4620 C.2   1 <1>   1.0330 
  3 O        3.9400     3.4970    -0.4490 O.co2 1 <1>  -0.9000 
  4 C        1.8390     4.5050    -0.0570 C.2   1 <1>  -0.0060 
  5 N        2.2470     5.7320     0.4010 N.2   1 <1>  -0.5650 
  6 C        0.4900     4.5250    -0.0700 C.2   1 <1>  -0.0100 
  7 C        1.1590     6.3710     0.6120 C.2   1 <1>   0.2980 
  8 O        0.0720     5.6890     0.3470 O.3   1 <1>  -0.2800 
  9 C        1.0380     7.8110     1.1180 C.3   1 <1>   0.5230 
 10 N        2.3580     8.4730     1.4510 N.4   1 <1>  -0.9590 
 11 C        3.2640     8.4810     0.2600 C.3   1 <1>   0.4380 
 12 C        3.0380     7.7880     2.5940 C.3   1 <1>   0.2630 
 13 C        4.2830     9.6200     0.3900 C.3   1 <1>  -0.0630 
 14 C        3.5760    10.9390     0.6800 C.ar  1 <1>  -0.0320 
 15 C        5.5290     9.6170    -0.4480 C.3   1 <1>  -0.1900 
 16 C        5.6320     9.3510     1.0190 C.3   1 <1>  -0.2000 
 17 C        3.5850    11.4900     1.9530 C.ar  1 <1>  -0.1500 
 18 C        2.8790    11.5800    -0.3330 C.ar  1 <1>  -0.1500 
 19 C        5.8310     8.4550    -1.4080 C.3   1 <1>  -0.1450 
 20 C        6.1180    10.9350    -0.9720 C.3   1 <1>  -0.1450 
 21 C        2.8950    12.6620     2.2120 C.ar  1 <1>  -0.1500 
 22 C        2.1890    12.7520    -0.0750 C.ar  1 <1>  -0.1500 
 23 C        2.1950    13.2910     1.1990 C.ar  1 <1>  -0.1500 
 24 H       -0.2030     3.7550    -0.3630 H     1 <1>   0.1500 
 25 H        0.4110     7.8040     1.9930 H     1 <1>   0.0800 
 26 H        0.5340     8.3840     0.3590 H     1 <1>   0.0800 
 27 H        2.1960     9.4640     1.6840 H     1 <1>   0.4500 
 28 H        2.6890     8.6380    -0.6370 H     1 <1>   0.0800 
 29 H        3.7740     7.5350     0.1680 H     1 <1>   0.0800 
 30 H        3.2820     6.7700     2.3310 H     1 <1>   0.0800 
 31 H        2.3990     7.7750     3.4620 H     1 <1>   0.0800 
 32 H        3.9510     8.3010     2.8460 H     1 <1>   0.0800 
 33 H        5.8930     8.3540     1.3310 H     1 <1>   0.1000 
 34 H        6.1060    10.1020     1.6280 H     1 <1>   0.1000 
 35 H        4.1330    11.0180     2.7490 H     1 <1>   0.1500 
 36 H        2.8770    11.1730    -1.3290 H     1 <1>   0.1500 
 37 H        5.5390     7.5030    -0.9990 H     1 <1>   0.0800 
 38 H        6.8880     8.4080    -1.6070 H     1 <1>   0.0800 
 39 H        5.3180     8.5980    -2.3420 H     1 <1>   0.0800 
 40 H        5.9830    11.7350    -0.2660 H     1 <1>   0.0800 
 41 H        5.6430    11.2150    -1.8950 H     1 <1>   0.0800 
 42 H        7.1730    10.8260    -1.1500 H     1 <1>   0.0800 
 43 H        2.9080    13.0920     3.2000 H     1 <1>   0.1500 
 44 H        1.6530    13.2490    -0.8660 H     1 <1>   0.1500 
 45 H        1.6610    14.2050     1.3990 H     1 <1>   0.1500 
@<TRIPOS>BOND
  1   1   2  ar  
  2   2   3  ar  
  3   2   4  1   
  4   4   5  1   
  5   4   6  2   
  6   5   7  2   
  7   6   8  1   
  8   6  24  1   
  9   7   8  1   
 10   7   9  1   
 11   9  10  1   
 12   9  25  1   
 13   9  26  1   
 14  10  11  1   
 15  10  12  1   
 16  10  27  1   
 17  11  13  1   
 18  11  28  1   
 19  11  29  1   
 20  12  30  1   
 21  12  31  1   
 22  12  32  1   
 23  13  14  1   
 24  13  15  1   
 25  13  16  1   
 26  14  17  ar  
 27  14  18  ar  
 28  15  16  1   
 29  15  19  1   
 30  15  20  1   
 31  16  33  1   
 32  16  34  1   
 33  17  21  ar  
 34  17  35  1   
 35  18  22  ar  
 36  18  36  1   
 37  19  37  1   
 38  19  38  1   
 39  19  39  1   
 40  20  40  1   
 41  20  41  1   
 42  20  42  1   
 43  21  23  ar  
 44  21  43  1   
 45  22  23  ar  
 46  22  44  1   
 47  23  45  1   
@<TRIPOS>SUBSTRUCTURE
  1 ****  11 GROUP 4 **** **** 0

# MOE 2024.06 (io_trps.svl 2023.06)
