@<TRIPOS>MOLECULE
NONAME
50 53 1 0 0 
SMALL
USER_CHARGES


@<TRIPOS>ATOM
  1 S        2.5230    -0.1590     1.7680 S.3   1 <1>  -0.0800 
  2 C        1.0560    -0.2320     0.8220 C.2   1 <1>   0.1980 
  3 C        2.6180    -1.8880     1.7030 C.2   1 <1>  -0.1100 
  4 N        0.7040    -1.4150     0.5090 N.2   1 <1>  -0.5650 
  5 C        0.3830     1.0980     0.4880 C.3   1 <1>   0.1000 
  6 C        1.5830    -2.4000     1.0000 C.2   1 <1>   0.1410 
  7 C       -0.4100     1.6170     1.6950 C.3   1 <1>  -0.2400 
  8 C       -0.5410     0.9770    -0.7320 C.3   1 <1>  -0.2400 
  9 C        1.3940    -3.8370     0.7760 C.2   1 <1>   0.7160 
 10 O        2.1740    -4.6110     1.3050 O.2   1 <1>  -0.5700 
 11 N        0.3900    -4.3910     0.0000 N.am  1 <1>  -0.6600 
 12 C       -0.6460    -3.6590    -0.7720 C.3   1 <1>   0.1400 
 13 C        0.2250    -5.8550    -0.1740 C.3   1 <1>   0.1400 
 14 C       -1.4560    -4.7400    -1.4890 C.3   1 <1>   0.2000 
 15 C       -1.1930    -6.0310    -0.7180 C.3   1 <1>  -0.0800 
 16 O       -2.8120    -4.4530    -1.4820 O.3   1 <1>  -0.6800 
 17 C       -1.3760    -7.2890    -1.5830 C.3   1 <1>  -0.0170 
 18 C       -1.0830    -8.5500    -0.7890 C.ar  1 <1>   0.1670 
 19 N        0.1450    -8.9690    -0.7640 N.ar  1 <1>  -0.6200 
 20 C       -2.1360    -9.1900    -0.1160 C.ar  1 <1>  -0.1500 
 21 C        0.4200   -10.0830    -0.0390 C.ar  1 <1>   0.3100 
 22 C       -1.8910   -10.3120     0.6150 C.ar  1 <1>  -0.1500 
 23 C       -0.5720   -10.7930     0.6720 C.ar  1 <1>   0.0000 
 24 C        1.7430   -10.5490     0.0130 C.ar  1 <1>  -0.1500 
 25 C       -0.2020   -11.9400     1.4030 C.ar  1 <1>  -0.1500 
 26 C        2.0830   -11.6660     0.7300 C.ar  1 <1>  -0.1500 
 27 C        1.0980   -12.3680     1.4320 C.ar  1 <1>  -0.1500 
 28 H        3.4400    -2.3730     2.1980 H     1 <1>   0.1500 
 29 H        1.1560     1.8090     0.2510 H     1 <1>   0.0800 
 30 H       -1.1790     0.9140     1.9630 H     1 <1>   0.0800 
 31 H       -0.8670     2.5630     1.4650 H     1 <1>   0.0800 
 32 H        0.2420     1.7500     2.5400 H     1 <1>   0.0800 
 33 H       -1.3380     0.2830    -0.5310 H     1 <1>   0.0800 
 34 H        0.0160     0.6190    -1.5790 H     1 <1>   0.0800 
 35 H       -0.9660     1.9330    -0.9800 H     1 <1>   0.0800 
 36 H       -1.2660    -3.1000    -0.0930 H     1 <1>   0.0800 
 37 H       -0.1830    -2.9960    -1.4830 H     1 <1>   0.0800 
 38 H        0.9560    -6.2080    -0.8810 H     1 <1>   0.0800 
 39 H        0.3570    -6.3770     0.7590 H     1 <1>   0.0800 
 40 H       -1.1300    -4.8210    -2.5130 H     1 <1>   0.0800 
 41 H       -1.8520    -6.0830     0.1310 H     1 <1>   0.0800 
 42 H       -3.1250    -4.3290    -0.5650 H     1 <1>   0.4000 
 43 H       -0.7150    -7.2500    -2.4310 H     1 <1>   0.0800 
 44 H       -2.3830    -7.3240    -1.9590 H     1 <1>   0.0800 
 45 H       -3.1290    -8.7830    -0.1860 H     1 <1>   0.1500 
 46 H       -2.6710   -10.8300     1.1430 H     1 <1>   0.1500 
 47 H        2.4840    -9.9940    -0.5320 H     1 <1>   0.1500 
 48 H       -0.9630   -12.4750     1.9410 H     1 <1>   0.1500 
 49 H        3.1020   -12.0120     0.7620 H     1 <1>   0.1500 
 50 H        1.3790   -13.2440     1.9920 H     1 <1>   0.1500 
@<TRIPOS>BOND
  1   1   2  1   
  2   1   3  1   
  3   2   4  2   
  4   2   5  1   
  5   3   6  2   
  6   3  28  1   
  7   4   6  1   
  8   5   7  1   
  9   5   8  1   
 10   5  29  1   
 11   6   9  1   
 12   7  30  1   
 13   7  31  1   
 14   7  32  1   
 15   8  33  1   
 16   8  34  1   
 17   8  35  1   
 18   9  10  2   
 19   9  11  am  
 20  11  12  1   
 21  11  13  1   
 22  12  14  1   
 23  12  36  1   
 24  12  37  1   
 25  13  15  1   
 26  13  38  1   
 27  13  39  1   
 28  14  15  1   
 29  14  16  1   
 30  14  40  1   
 31  15  17  1   
 32  15  41  1   
 33  16  42  1   
 34  17  18  1   
 35  17  43  1   
 36  17  44  1   
 37  18  19  ar  
 38  18  20  ar  
 39  19  21  ar  
 40  20  22  ar  
 41  20  45  1   
 42  21  23  ar  
 43  21  24  ar  
 44  22  23  ar  
 45  22  46  1   
 46  23  25  ar  
 47  24  26  ar  
 48  24  47  1   
 49  25  27  ar  
 50  25  48  1   
 51  26  27  ar  
 52  26  49  1   
 53  27  50  1   
@<TRIPOS>SUBSTRUCTURE
  1 ****  13 GROUP 4 **** **** 0

# MOE 2024.06 (io_trps.svl 2023.06)
