@<TRIPOS>MOLECULE
NONAME
49 52 1 0 0 
SMALL
USER_CHARGES


@<TRIPOS>ATOM
  1 O       -0.6040     0.0870     0.0250 O.2   1 <1>  -0.5700 
  2 C       -1.5150     0.8130     0.3740 C.2   1 <1>   0.5440 
  3 N       -2.7040     0.2350     0.7610 N.am  1 <1>  -0.6600 
  4 C       -1.3370     2.2520     0.3490 C.ar  1 <1>   0.0860 
  5 C       -2.7990    -1.2240     1.0860 C.3   1 <1>   0.1400 
  6 C       -4.0370     0.8430     0.4590 C.3   1 <1>   0.1400 
  7 C       -1.8490     3.0940     1.3260 C.ar  1 <1>  -0.1500 
  8 C       -0.6310     2.8900    -0.6590 C.ar  1 <1>  -0.1500 
  9 C       -3.6350    -1.9710     0.0320 C.3   1 <1>   0.3440 
 10 C       -4.8200    -0.0160    -0.5570 C.3   1 <1>   0.2950 
 11 C       -1.6650     4.4610     1.2410 C.ar  1 <1>   0.1660 
 12 C       -0.4970     4.2650    -0.6610 C.ar  1 <1>   0.1660 
 13 O       -4.8830    -1.3450    -0.1180 O.3   1 <1>  -0.5600 
 14 C       -3.8380    -3.4270     0.4410 C.ar  1 <1>  -0.1440 
 15 C       -6.2470     0.5280    -0.7470 C.3   1 <1>  -0.1950 
 16 N       -1.0070     5.0580     0.2640 N.ar  1 <1>  -0.6200 
 17 C       -2.2280     5.3770     2.3070 C.3   1 <1>  -0.0970 
 18 C        0.2730     4.9560    -1.7670 C.3   1 <1>  -0.0970 
 19 C       -2.9030    -4.3790     0.0590 C.ar  1 <1>  -0.1500 
 20 C       -4.9310    -3.8250     1.2010 C.ar  1 <1>  -0.1500 
 21 C       -7.3660     0.1920     0.1910 C.3   1 <1>  -0.2000 
 22 C       -7.3790    -0.3330    -1.2180 C.3   1 <1>  -0.2000 
 23 C       -3.0560    -5.7040     0.4290 C.ar  1 <1>  -0.1500 
 24 C       -5.0850    -5.1500     1.5710 C.ar  1 <1>  -0.1500 
 25 C       -4.1470    -6.0900     1.1860 C.ar  1 <1>  -0.1500 
 26 H       -1.8200    -1.6660     1.1410 H     1 <1>   0.0800 
 27 H       -3.2630    -1.3430     2.0490 H     1 <1>   0.0800 
 28 H       -4.6070     0.9180     1.3690 H     1 <1>   0.0800 
 29 H       -3.9210     1.8330     0.0560 H     1 <1>   0.0800 
 30 H       -2.3880     2.6700     2.1530 H     1 <1>   0.1500 
 31 H       -0.1880     2.2970    -1.4390 H     1 <1>   0.1500 
 32 H       -3.1300    -1.9370    -0.9170 H     1 <1>   0.0800 
 33 H       -4.3140    -0.0040    -1.5070 H     1 <1>   0.0800 
 34 H       -6.2310     1.5320    -1.1340 H     1 <1>   0.1000 
 35 H       -2.7460     4.8220     3.0660 H     1 <1>   0.0800 
 36 H       -2.9100     6.0750     1.8560 H     1 <1>   0.0800 
 37 H       -1.4260     5.9270     2.7650 H     1 <1>   0.0800 
 38 H        0.6590     4.2470    -2.4750 H     1 <1>   0.0800 
 39 H        1.0930     5.5050    -1.3420 H     1 <1>   0.0800 
 40 H       -0.3750     5.6440    -2.2790 H     1 <1>   0.0800 
 41 H       -2.0480    -4.0930    -0.5290 H     1 <1>   0.1500 
 42 H       -5.6690    -3.1020     1.5030 H     1 <1>   0.1500 
 43 H       -7.1930    -0.5110     0.9880 H     1 <1>   0.1000 
 44 H       -8.0700     0.9590     0.4620 H     1 <1>   0.1000 
 45 H       -8.0890     0.0760    -1.9160 H     1 <1>   0.1000 
 46 H       -7.2120    -1.3860    -1.3700 H     1 <1>   0.1000 
 47 H       -2.3260    -6.4340     0.1270 H     1 <1>   0.1500 
 48 H       -5.9370    -5.4470     2.1580 H     1 <1>   0.1500 
 49 H       -4.2670    -7.1200     1.4730 H     1 <1>   0.1500 
@<TRIPOS>BOND
  1   1   2  2   
  2   2   3  am  
  3   2   4  1   
  4   3   5  1   
  5   3   6  1   
  6   4   7  ar  
  7   4   8  ar  
  8   5   9  1   
  9   5  26  1   
 10   5  27  1   
 11   6  10  1   
 12   6  28  1   
 13   6  29  1   
 14   7  11  ar  
 15   7  30  1   
 16   8  12  ar  
 17   8  31  1   
 18   9  13  1   
 19   9  14  1   
 20   9  32  1   
 21  10  13  1   
 22  10  15  1   
 23  10  33  1   
 24  11  16  ar  
 25  11  17  1   
 26  12  16  ar  
 27  12  18  1   
 28  14  19  ar  
 29  14  20  ar  
 30  15  21  1   
 31  15  22  1   
 32  15  34  1   
 33  17  35  1   
 34  17  36  1   
 35  17  37  1   
 36  18  38  1   
 37  18  39  1   
 38  18  40  1   
 39  19  23  ar  
 40  19  41  1   
 41  20  24  ar  
 42  20  42  1   
 43  21  22  1   
 44  21  43  1   
 45  21  44  1   
 46  22  45  1   
 47  22  46  1   
 48  23  25  ar  
 49  23  47  1   
 50  24  25  ar  
 51  24  48  1   
 52  25  49  1   
@<TRIPOS>SUBSTRUCTURE
  1 ****   3 GROUP 4 **** **** 0

# MOE 2024.06 (io_trps.svl 2023.06)
