@<TRIPOS>MOLECULE
NONAME
46 49 1 0 0 
SMALL
USER_CHARGES


@<TRIPOS>ATOM
  1 S        0.3730     0.9380     0.3160 S.3   1 <1>  -0.0800 
  2 C       -0.3120     2.4090    -0.3840 C.2   1 <1>   0.0410 
  3 C       -0.8900    -0.0650    -0.3750 C.2   1 <1>  -0.1100 
  4 C        0.3300     3.6780    -0.1540 C.2   1 <1>   0.2880 
  5 C       -1.4260     2.0780    -1.0820 C.2   1 <1>  -0.1500 
  6 C       -1.7530     0.6880    -1.0790 C.2   1 <1>  -0.1500 
  7 N       -0.1240     4.8120    -0.6320 N.2   1 <1>  -0.7070 
  8 C        1.4980     3.8920     0.5870 C.2   1 <1>  -0.1500 
  9 N        0.7380     5.7470    -0.2030 N.pl3 1 <1>   0.3000 
 10 C        1.7280     5.2200     0.5380 C.2   1 <1>  -0.3320 
 11 C        2.8310     6.0620     1.1400 C.3   1 <1>   0.3890 
 12 N        2.8270     7.3940     0.4780 N.pl3 1 <1>  -0.8380 
 13 C        3.7580     7.6440    -0.5280 C.ar  1 <1>   0.4100 
 14 C        2.3150     8.5130     1.3270 C.3   1 <1>   0.1290 
 15 N        4.3930     8.8020    -0.4640 N.ar  1 <1>  -0.6200 
 16 C        4.0050     6.7120    -1.5510 C.ar  1 <1>   0.1600 
 17 C        5.2840     9.0040    -1.4500 C.ar  1 <1>   0.3960 
 18 N        4.8750     6.8700    -2.5270 N.ar  1 <1>  -0.6200 
 19 C        6.0670    10.2410    -1.5300 C.2   1 <1>   0.5440 
 20 C        5.4920     8.0400    -2.4420 C.ar  1 <1>   0.1600 
 21 O        6.4560    10.6240    -2.6220 O.2   1 <1>  -0.5700 
 22 N        6.4250    11.0080    -0.4350 N.am  1 <1>  -0.6600 
 23 C        6.1910    10.6710     0.9870 C.3   1 <1>   0.1400 
 24 C        7.1930    12.2680    -0.5590 C.3   1 <1>   0.1400 
 25 C        7.0870    11.6260     1.7660 C.3   1 <1>  -0.1600 
 26 C        7.2410    12.8390     0.8540 C.3   1 <1>  -0.1600 
 27 H       -0.8510    -1.1220    -0.1780 H     1 <1>   0.1500 
 28 H       -2.0320     2.7950    -1.6070 H     1 <1>   0.1500 
 29 H       -2.6190     0.3220    -1.6040 H     1 <1>   0.1500 
 30 H        2.0670     3.1250     1.0820 H     1 <1>   0.1500 
 31 H        0.6650     6.7470    -0.4370 H     1 <1>   0.2700 
 32 H        3.7830     5.5780     1.0020 H     1 <1>   0.0800 
 33 H        2.6650     6.1750     2.1990 H     1 <1>   0.0800 
 34 H        1.3860     8.2320     1.7940 H     1 <1>   0.0800 
 35 H        2.1430     9.3870     0.7220 H     1 <1>   0.0800 
 36 H        3.0370     8.7550     2.0870 H     1 <1>   0.0800 
 37 H        3.4400     5.7990    -1.5470 H     1 <1>   0.1500 
 38 H        6.2160     8.2550    -3.2100 H     1 <1>   0.1500 
 39 H        6.4370     9.6430     1.1890 H     1 <1>   0.0800 
 40 H        5.1560    10.8510     1.2230 H     1 <1>   0.0800 
 41 H        6.7120    12.9420    -1.2470 H     1 <1>   0.0800 
 42 H        8.1840    12.0400    -0.9110 H     1 <1>   0.0800 
 43 H        8.0450    11.1600     1.9190 H     1 <1>   0.0800 
 44 H        6.6650    11.8810     2.7220 H     1 <1>   0.0800 
 45 H        6.4070    13.5070     0.9870 H     1 <1>   0.0800 
 46 H        8.1540    13.3780     1.0350 H     1 <1>   0.0800 
@<TRIPOS>BOND
  1   1   2  1   
  2   1   3  1   
  3   2   4  1   
  4   2   5  2   
  5   3   6  2   
  6   3  27  1   
  7   4   7  2   
  8   4   8  1   
  9   5   6  1   
 10   5  28  1   
 11   6  29  1   
 12   7   9  1   
 13   8  10  2   
 14   8  30  1   
 15   9  10  1   
 16   9  31  1   
 17  10  11  1   
 18  11  12  1   
 19  11  32  1   
 20  11  33  1   
 21  12  13  1   
 22  12  14  1   
 23  13  15  ar  
 24  13  16  ar  
 25  14  34  1   
 26  14  35  1   
 27  14  36  1   
 28  15  17  ar  
 29  16  18  ar  
 30  16  37  1   
 31  17  19  1   
 32  17  20  ar  
 33  18  20  ar  
 34  19  21  2   
 35  19  22  am  
 36  20  38  1   
 37  22  23  1   
 38  22  24  1   
 39  23  25  1   
 40  23  39  1   
 41  23  40  1   
 42  24  26  1   
 43  24  41  1   
 44  24  42  1   
 45  25  26  1   
 46  25  43  1   
 47  25  44  1   
 48  26  45  1   
 49  26  46  1   
@<TRIPOS>SUBSTRUCTURE
  1 ****  13 GROUP 4 **** **** 0

# MOE 2024.06 (io_trps.svl 2023.06)
