@<TRIPOS>MOLECULE
NONAME
26 26 1 0 0 
SMALL
USER_CHARGES


@<TRIPOS>ATOM
  1 BR      -0.0900     0.0680    -1.8320 Br    1 <1>  -0.1110 
  2 C        1.4890     0.8920    -1.0660 C.ar  1 <1>   0.1110 
  3 C        2.6410     0.1070    -0.8610 C.ar  1 <1>  -0.1710 
  4 C        1.4170     2.2180    -0.7520 C.ar  1 <1>  -0.1500 
  5 O        2.6210    -1.1040    -1.1780 O.3   1 <1>  -0.8290 
  6 C        3.7830     0.7400    -0.2970 C.ar  1 <1>  -0.1440 
  7 C        2.5280     2.8620    -0.1960 C.ar  1 <1>   0.0860 
  8 C        3.6830     2.0860     0.0120 C.ar  1 <1>  -0.1500 
  9 C        5.0950    -0.0600    -0.0400 C.3   1 <1>   0.1440 
 10 C        2.5020     4.2400     0.1470 C.2   1 <1>   0.4240 
 11 C        5.6510    -0.6180    -1.3600 C.3   1 <1>  -0.2400 
 12 C        4.8380    -1.2090     0.9490 C.3   1 <1>  -0.2400 
 13 C        6.2220     0.7940     0.5750 C.3   1 <1>  -0.2400 
 14 O        1.5610     4.9990     0.0100 O.2   1 <1>  -0.5700 
 15 H        0.5130     2.7690    -0.9290 H     1 <1>   0.1500 
 16 H        4.5140     2.6070     0.4380 H     1 <1>   0.1500 
 17 H        3.3980     4.6570     0.5690 H     1 <1>   0.0600 
 18 H        4.9620    -1.3230    -1.7880 H     1 <1>   0.0800 
 19 H        6.5860    -1.1220    -1.2070 H     1 <1>   0.0800 
 20 H        5.7860     0.1790    -2.0670 H     1 <1>   0.0800 
 21 H        4.1460    -1.9160     0.5300 H     1 <1>   0.0800 
 22 H        4.4050    -0.8240     1.8530 H     1 <1>   0.0800 
 23 H        5.7460    -1.7320     1.1810 H     1 <1>   0.0800 
 24 H        6.4820     1.6030    -0.0840 H     1 <1>   0.0800 
 25 H        7.1020     0.1980     0.7330 H     1 <1>   0.0800 
 26 H        5.9150     1.1910     1.5260 H     1 <1>   0.0800 
@<TRIPOS>BOND
  1   1   2  1   
  2   2   3  ar  
  3   2   4  ar  
  4   3   5  1   
  5   3   6  ar  
  6   4   7  ar  
  7   4  15  1   
  8   6   8  ar  
  9   6   9  1   
 10   7   8  ar  
 11   7  10  1   
 12   8  16  1   
 13   9  11  1   
 14   9  12  1   
 15   9  13  1   
 16  10  14  2   
 17  10  17  1   
 18  11  18  1   
 19  11  19  1   
 20  11  20  1   
 21  12  21  1   
 22  12  22  1   
 23  12  23  1   
 24  13  24  1   
 25  13  25  1   
 26  13  26  1   
@<TRIPOS>SUBSTRUCTURE
  1 ****   6 GROUP 4 **** **** 0

# MOE 2024.06 (io_trps.svl 2023.06)
