@<TRIPOS>MOLECULE
NONAME
56 59 1 0 0 
SMALL
USER_CHARGES


@<TRIPOS>ATOM
  1 O        1.7610     0.5150    -0.7960 O.2   1 <1>  -0.5700 
  2 C        2.1450    -0.5900    -0.5150 C.2   1 <1>   0.5690 
  3 N        1.3560    -1.4640     0.1430 N.am  1 <1>  -0.7300 
  4 C        3.5430    -1.0360    -0.8750 C.3   1 <1>  -0.0990 
  5 C        1.8020    -2.7840     0.6300 C.3   1 <1>   0.1400 
  6 C        3.5380    -2.5060    -1.3350 C.3   1 <1>  -0.0800 
  7 C        2.7830    -3.4480    -0.3660 C.3   1 <1>  -0.0800 
  8 C        4.9590    -3.0740    -1.4920 C.3   1 <1>  -0.1600 
  9 C        3.8750    -4.2680     0.3290 C.3   1 <1>  -0.1600 
 10 C        4.9670    -4.3970    -0.7300 C.3   1 <1>   0.4230 
 11 N        6.3110    -4.8060    -0.2170 N.4   1 <1>  -0.9590 
 12 C        6.8130    -4.2450     1.0800 C.3   1 <1>   0.4860 
 13 C        6.4250    -6.2920    -0.1890 C.3   1 <1>   0.2630 
 14 C        7.1020    -2.7600     0.9550 C.ar  1 <1>  -0.1440 
 15 C        8.0950    -2.2400     0.0700 C.ar  1 <1>   0.0000 
 16 C        6.3340    -1.9250     1.7240 C.ar  1 <1>  -0.1500 
 17 C        9.0300    -3.0170    -0.6870 C.ar  1 <1>   0.0820 
 18 C        8.1580    -0.8270    -0.0750 C.ar  1 <1>   0.0000 
 19 C        6.4450    -0.5430     1.6140 C.ar  1 <1>  -0.1500 
 20 O        9.0760    -4.3620    -0.5000 O.3   1 <1>  -0.3630 
 21 C        9.8860    -2.4250    -1.5870 C.ar  1 <1>  -0.1500 
 22 C        7.3220     0.0050     0.7130 C.ar  1 <1>   0.0820 
 23 C        9.0580    -0.2710    -1.0100 C.ar  1 <1>  -0.1500 
 24 C       10.2780    -5.0830    -0.7060 C.3   1 <1>   0.0400 
 25 C        9.8970    -1.0440    -1.7540 C.ar  1 <1>  -0.1500 
 26 O        7.4270     1.3460     0.5320 O.3   1 <1>  -0.3620 
 27 C        6.5440     2.2670     1.1360 C.3   1 <1>   0.0400 
 28 H        0.4230    -1.1340     0.4060 H     1 <1>   0.3700 
 29 H        3.9260    -0.4030    -1.6560 H     1 <1>   0.0800 
 30 H        4.1600    -0.9100    -0.0070 H     1 <1>   0.0800 
 31 H        2.2750    -2.6390     1.5860 H     1 <1>   0.0800 
 32 H        0.9450    -3.4200     0.7760 H     1 <1>   0.0800 
 33 H        3.0340    -2.5400    -2.2890 H     1 <1>   0.0800 
 34 H        2.2050    -4.1250    -0.9740 H     1 <1>   0.0800 
 35 H        5.6720    -2.3750    -1.1060 H     1 <1>   0.0800 
 36 H        5.1810    -3.2420    -2.5320 H     1 <1>   0.0800 
 37 H        3.5040    -5.2290     0.6390 H     1 <1>   0.0800 
 38 H        4.2240    -3.7170     1.1790 H     1 <1>   0.0800 
 39 H        4.6320    -5.1430    -1.4340 H     1 <1>   0.0800 
 40 H        7.0120    -4.4600    -0.8950 H     1 <1>   0.4500 
 41 H        6.0940    -4.4180     1.8620 H     1 <1>   0.0800 
 42 H        7.7280    -4.7410     1.3600 H     1 <1>   0.0800 
 43 H        5.7430    -6.7080     0.5340 H     1 <1>   0.0800 
 44 H        7.4300    -6.5830     0.0720 H     1 <1>   0.0800 
 45 H        6.1940    -6.7020    -1.1590 H     1 <1>   0.0800 
 46 H        5.6130    -2.3040     2.4280 H     1 <1>   0.1500 
 47 H        5.8210     0.0650     2.2440 H     1 <1>   0.1500 
 48 H       10.5730    -2.9920    -2.1880 H     1 <1>   0.1500 
 49 H        9.0830     0.7980    -1.1350 H     1 <1>   0.1500 
 50 H       10.1710    -6.0580    -0.2660 H     1 <1>   0.0800 
 51 H       11.0900    -4.5590    -0.2300 H     1 <1>   0.0800 
 52 H       10.4570    -5.1800    -1.7620 H     1 <1>   0.0800 
 53 H       10.5740    -0.6000    -2.4640 H     1 <1>   0.1500 
 54 H        6.7960     3.2510     0.7820 H     1 <1>   0.0800 
 55 H        6.6680     2.2230     2.2040 H     1 <1>   0.0800 
 56 H        5.5350     2.0250     0.8520 H     1 <1>   0.0800 
@<TRIPOS>BOND
  1   1   2  2   
  2   2   3  am  
  3   2   4  1   
  4   3   5  1   
  5   3  28  1   
  6   4   6  1   
  7   4  29  1   
  8   4  30  1   
  9   5   7  1   
 10   5  31  1   
 11   5  32  1   
 12   6   7  1   
 13   6   8  1   
 14   6  33  1   
 15   7   9  1   
 16   7  34  1   
 17   8  10  1   
 18   8  35  1   
 19   8  36  1   
 20   9  10  1   
 21   9  37  1   
 22   9  38  1   
 23  10  11  1   
 24  10  39  1   
 25  11  12  1   
 26  11  13  1   
 27  11  40  1   
 28  12  14  1   
 29  12  41  1   
 30  12  42  1   
 31  13  43  1   
 32  13  44  1   
 33  13  45  1   
 34  14  15  ar  
 35  14  16  ar  
 36  15  17  ar  
 37  15  18  ar  
 38  16  19  ar  
 39  16  46  1   
 40  17  20  1   
 41  17  21  ar  
 42  18  22  ar  
 43  18  23  ar  
 44  19  22  ar  
 45  19  47  1   
 46  20  24  1   
 47  21  25  ar  
 48  21  48  1   
 49  22  26  1   
 50  23  25  ar  
 51  23  49  1   
 52  24  50  1   
 53  24  51  1   
 54  24  52  1   
 55  25  53  1   
 56  26  27  1   
 57  27  54  1   
 58  27  55  1   
 59  27  56  1   
@<TRIPOS>SUBSTRUCTURE
  1 ****  14 GROUP 4 **** **** 0

# MOE 2024.06 (io_trps.svl 2023.06)
