@<TRIPOS>MOLECULE
NONAME
44 45 1 0 0 
SMALL
USER_CHARGES


@<TRIPOS>ATOM
  1 S       -0.0150    -0.2090    -0.9860 S.o2  1 <1>   1.3330 
  2 O       -0.9280    -1.3050    -0.7510 O.2   1 <1>  -0.6500 
  3 O        0.7140    -0.1380    -2.2330 O.2   1 <1>  -0.6500 
  4 N        1.1120    -0.2040     0.2850 N.am  1 <1>  -0.8490 
  5 C       -0.8950     1.3410    -0.7780 C.3   1 <1>  -0.0550 
  6 C        0.5610    -0.6780     1.5590 C.3   1 <1>   0.1160 
  7 C        2.3310    -0.9500    -0.0420 C.3   1 <1>   0.1160 
  8 C       -0.0390     2.6000    -1.0370 C.3   1 <1>  -0.0800 
  9 C       -0.8420     3.9030    -1.0790 C.3   1 <1>   0.2000 
 10 C        1.0530     2.8610     0.0110 C.3   1 <1>   0.1400 
 11 O       -1.7290     3.9230    -0.0130 O.3   1 <1>  -0.6800 
 12 C        0.2080     4.9820    -0.8310 C.3   1 <1>   0.1400 
 13 N        1.1610     4.3380     0.1070 N.am  1 <1>  -0.6600 
 14 C        2.1590     4.9690     0.8120 C.2   1 <1>   0.5440 
 15 O        2.9830     4.2880     1.3880 O.2   1 <1>  -0.5700 
 16 C        2.2520     6.4140     0.8670 C.ar  1 <1>   0.0860 
 17 C        3.3800     7.0720     0.3810 C.ar  1 <1>  -0.1500 
 18 C        1.2320     7.1920     1.4090 C.ar  1 <1>  -0.1500 
 19 C        3.4960     8.4570     0.4040 C.ar  1 <1>  -0.1440 
 20 C        1.3260     8.5700     1.4450 C.ar  1 <1>  -0.1500 
 21 C        2.4510     9.2000     0.9440 C.ar  1 <1>  -0.1500 
 22 C        4.7510     9.1570    -0.1410 C.3   1 <1>   1.1630 
 23 F        5.6370     9.4040     0.8140 F     1 <1>  -0.3400 
 24 F        5.3830     8.4420    -1.0640 F     1 <1>  -0.3400 
 25 F        4.4760    10.3270    -0.7060 F     1 <1>  -0.3400 
 26 H       -1.7160     1.3510    -1.4690 H     1 <1>   0.0800 
 27 H       -1.3130     1.3830     0.2080 H     1 <1>   0.0800 
 28 H        1.2890    -0.5570     2.3430 H     1 <1>   0.0800 
 29 H        0.2900    -1.7190     1.4880 H     1 <1>   0.0800 
 30 H       -0.3150    -0.1100     1.8190 H     1 <1>   0.0800 
 31 H        3.0270    -0.9070     0.7780 H     1 <1>   0.0800 
 32 H        2.8070    -0.5200    -0.9070 H     1 <1>   0.0800 
 33 H        2.0930    -1.9800    -0.2530 H     1 <1>   0.0800 
 34 H        0.4500     2.4910    -1.9900 H     1 <1>   0.0800 
 35 H       -1.3940     4.0440    -1.9930 H     1 <1>   0.0800 
 36 H        1.9950     2.4280    -0.2840 H     1 <1>   0.0800 
 37 H        0.7730     2.4690     0.9740 H     1 <1>   0.0800 
 38 H       -1.2110     3.9690     0.8160 H     1 <1>   0.4000 
 39 H       -0.2330     5.8760    -0.4270 H     1 <1>   0.0800 
 40 H        0.7220     5.2140    -1.7480 H     1 <1>   0.0800 
 41 H        4.1780     6.4650    -0.0180 H     1 <1>   0.1500 
 42 H        0.3590     6.7060     1.8090 H     1 <1>   0.1500 
 43 H        0.5250     9.1550     1.8670 H     1 <1>   0.1500 
 44 H        2.5080    10.2760     0.9830 H     1 <1>   0.1500 
@<TRIPOS>BOND
  1   1   2  2   
  2   1   3  2   
  3   1   4  am  
  4   1   5  1   
  5   4   6  1   
  6   4   7  1   
  7   5   8  1   
  8   5  26  1   
  9   5  27  1   
 10   6  28  1   
 11   6  29  1   
 12   6  30  1   
 13   7  31  1   
 14   7  32  1   
 15   7  33  1   
 16   8   9  1   
 17   8  10  1   
 18   8  34  1   
 19   9  11  1   
 20   9  12  1   
 21   9  35  1   
 22  10  13  1   
 23  10  36  1   
 24  10  37  1   
 25  11  38  1   
 26  12  13  1   
 27  12  39  1   
 28  12  40  1   
 29  13  14  am  
 30  14  15  2   
 31  14  16  1   
 32  16  17  ar  
 33  16  18  ar  
 34  17  19  ar  
 35  17  41  1   
 36  18  20  ar  
 37  18  42  1   
 38  19  21  ar  
 39  19  22  1   
 40  20  21  ar  
 41  20  43  1   
 42  21  44  1   
 43  22  23  1   
 44  22  24  1   
 45  22  25  1   
@<TRIPOS>SUBSTRUCTURE
  1 ****  13 GROUP 4 **** **** 0

# MOE 2024.06 (io_trps.svl 2023.06)
