@<TRIPOS>MOLECULE
NONAME
48 50 1 0 0 
SMALL
USER_CHARGES


@<TRIPOS>ATOM
  1 O       -0.4260    -0.8280     0.4580 O.3   1 <1>  -0.3630 
  2 C        0.8350    -1.3140     0.3280 C.ar  1 <1>   0.0820 
  3 C       -1.1190    -1.2130     1.6230 C.3   1 <1>   0.0400 
  4 C        1.0700    -2.6180    -0.1820 C.ar  1 <1>   0.3100 
  5 C        1.8610    -0.4880     0.6920 C.ar  1 <1>  -0.1500 
  6 N       -0.0110    -3.3640    -0.5400 N.ar  1 <1>  -0.6200 
  7 C        2.4130    -3.0790    -0.2940 C.ar  1 <1>   0.0000 
  8 C        3.1740    -0.9290     0.5850 C.ar  1 <1>  -0.1500 
  9 C        0.1980    -4.5460    -1.0310 C.ar  1 <1>   0.4100 
 10 C        3.4560    -2.1920     0.1090 C.ar  1 <1>   0.0820 
 11 C        2.5890    -4.3970    -0.8120 C.ar  1 <1>  -0.1440 
 12 N       -0.8990    -5.2930    -1.4000 N.pl3 1 <1>  -0.8380 
 13 C        1.4780    -5.0940    -1.1700 C.ar  1 <1>  -0.1500 
 14 O        4.7460    -2.6160     0.0150 O.3   1 <1>  -0.3630 
 15 C        3.9390    -5.0800    -0.9970 C.3   1 <1>  -0.0970 
 16 C       -1.2500    -6.4700    -0.5490 C.3   1 <1>   0.2090 
 17 C       -2.0190    -4.6290    -2.1190 C.3   1 <1>   0.2090 
 18 C        5.8540    -1.8090     0.3500 C.3   1 <1>   0.0400 
 19 C       -2.6950    -6.4030    -0.0160 C.3   1 <1>  -0.0800 
 20 C       -3.1290    -4.1760    -1.1570 C.3   1 <1>  -0.1600 
 21 C       -3.1630    -4.9500     0.1660 C.3   1 <1>   0.2000 
 22 C       -2.8250    -7.1840     1.2980 C.3   1 <1>   0.1200 
 23 O       -2.3130    -4.3100     1.0420 O.3   1 <1>  -0.6800 
 24 O       -2.5000    -8.5150     1.0780 O.3   1 <1>  -0.6800 
 25 H       -2.1620    -0.9960     1.4830 H     1 <1>   0.0800 
 26 H       -0.7290    -0.6570     2.4560 H     1 <1>   0.0800 
 27 H       -0.9840    -2.2670     1.7870 H     1 <1>   0.0800 
 28 H        1.6530     0.5010     1.0600 H     1 <1>   0.1500 
 29 H        3.9420    -0.2430     0.8880 H     1 <1>   0.1500 
 30 H        1.5340    -6.0850    -1.5770 H     1 <1>   0.1500 
 31 H        3.8240    -6.0730    -1.3920 H     1 <1>   0.0800 
 32 H        4.4480    -5.1550    -0.0530 H     1 <1>   0.0800 
 33 H        4.5450    -4.5180    -1.6840 H     1 <1>   0.0800 
 34 H       -1.1120    -7.3760    -1.1140 H     1 <1>   0.0800 
 35 H       -0.5710    -6.5030     0.2870 H     1 <1>   0.0800 
 36 H       -1.6470    -3.7810    -2.6700 H     1 <1>   0.0800 
 37 H       -2.4220    -5.3300    -2.8300 H     1 <1>   0.0800 
 38 H        6.7480    -2.3780     0.1690 H     1 <1>   0.0800 
 39 H        5.7930    -1.5470     1.3920 H     1 <1>   0.0800 
 40 H        5.8490    -0.9310    -0.2720 H     1 <1>   0.0800 
 41 H       -3.3460    -6.8600    -0.7380 H     1 <1>   0.0800 
 42 H       -4.0690    -4.3060    -1.6610 H     1 <1>   0.0800 
 43 H       -3.0250    -3.1230    -0.9610 H     1 <1>   0.0800 
 44 H       -4.1500    -4.9140     0.5960 H     1 <1>   0.0800 
 45 H       -3.8290    -7.1380     1.6840 H     1 <1>   0.0800 
 46 H       -2.1480    -6.7940     2.0390 H     1 <1>   0.0800 
 47 H       -1.4880    -4.0900     0.5300 H     1 <1>   0.4000 
 48 H       -3.1920    -8.9600     0.5510 H     1 <1>   0.4000 
@<TRIPOS>BOND
  1   1   2  1   
  2   1   3  1   
  3   2   4  ar  
  4   2   5  ar  
  5   3  25  1   
  6   3  26  1   
  7   3  27  1   
  8   4   6  ar  
  9   4   7  ar  
 10   5   8  ar  
 11   5  28  1   
 12   6   9  ar  
 13   7  10  ar  
 14   7  11  ar  
 15   8  10  ar  
 16   8  29  1   
 17   9  12  1   
 18   9  13  ar  
 19  10  14  1   
 20  11  13  ar  
 21  11  15  1   
 22  12  16  1   
 23  12  17  1   
 24  13  30  1   
 25  14  18  1   
 26  15  31  1   
 27  15  32  1   
 28  15  33  1   
 29  16  19  1   
 30  16  34  1   
 31  16  35  1   
 32  17  20  1   
 33  17  36  1   
 34  17  37  1   
 35  18  38  1   
 36  18  39  1   
 37  18  40  1   
 38  19  21  1   
 39  19  22  1   
 40  19  41  1   
 41  20  21  1   
 42  20  42  1   
 43  20  43  1   
 44  21  23  1   
 45  21  44  1   
 46  22  24  1   
 47  22  45  1   
 48  22  46  1   
 49  23  47  1   
 50  24  48  1   
@<TRIPOS>SUBSTRUCTURE
  1 ****   6 GROUP 4 **** **** 0

# MOE 2024.06 (io_trps.svl 2023.06)
