@<TRIPOS>MOLECULE
NONAME
53 56 1 0 0 
SMALL
USER_CHARGES


@<TRIPOS>ATOM
  1 O        5.0300    -1.1240    -1.6810 O.2   1 <1>  -0.5700 
  2 C        3.8270    -1.2100    -1.5220 C.2   1 <1>   0.5440 
  3 N        3.0590    -0.2270    -2.0980 N.am  1 <1>  -0.6600 
  4 C        3.2540    -2.2600    -0.7100 C.ar  1 <1>   0.0860 
  5 C        3.3200     0.2290    -3.5060 C.3   1 <1>   0.1400 
  6 C        2.2970     0.7290    -1.2510 C.3   1 <1>   0.1400 
  7 C        4.0080    -2.9860     0.1930 C.ar  1 <1>   0.1600 
  8 C        1.9210    -2.6190    -0.7770 C.ar  1 <1>   0.1600 
  9 C        4.5790     1.1160    -3.6480 C.3   1 <1>   0.3430 
 10 C        3.2390     1.7810    -0.6470 C.3   1 <1>  -0.1600 
 11 N        3.5070    -3.9310     0.9570 N.ar  1 <1>  -0.6200 
 12 N        1.3850    -3.5550    -0.0270 N.ar  1 <1>  -0.6200 
 13 N        5.0550     1.6350    -2.3300 N.4   1 <1>  -0.9590 
 14 C        4.0910     2.5540    -1.6600 C.3   1 <1>   0.3430 
 15 C        2.2120    -4.1640     0.8100 C.ar  1 <1>   0.5880 
 16 C        6.4510     2.1400    -2.3790 C.3   1 <1>   0.4860 
 17 C        1.6110    -5.2520     1.6900 C.3   1 <1>  -0.0680 
 18 C        6.9420     2.3500    -0.9620 C.ar  1 <1>  -0.1430 
 19 C        0.4210    -4.9770     2.5640 C.3   1 <1>  -0.2000 
 20 C        1.7620    -5.2130     3.1840 C.3   1 <1>  -0.2000 
 21 C        7.1920     3.6320    -0.4950 C.ar  1 <1>   0.1600 
 22 C        7.1390     1.2780    -0.1110 C.ar  1 <1>  -0.1500 
 23 N        7.5860     3.9260     0.7280 N.ar  1 <1>  -0.6200 
 24 C        7.5620     1.5690     1.1670 C.ar  1 <1>  -0.1500 
 25 C        7.7680     2.8890     1.5400 C.ar  1 <1>   0.3930 
 26 O        8.1750     3.1100     2.8070 O.3   1 <1>  -0.3620 
 27 C        8.4410     4.4200     3.2690 C.3   1 <1>   0.0400 
 28 H        2.4640     0.7680    -3.8720 H     1 <1>   0.0800 
 29 H        3.4370    -0.6350    -4.1390 H     1 <1>   0.0800 
 30 H        1.8050     0.1960    -0.4540 H     1 <1>   0.0800 
 31 H        1.5330     1.2070    -1.8400 H     1 <1>   0.0800 
 32 H        5.0610    -2.7770     0.2880 H     1 <1>   0.1500 
 33 H        1.2710    -2.1180    -1.4740 H     1 <1>   0.1500 
 34 H        4.3800     1.9280    -4.3280 H     1 <1>   0.0800 
 35 H        5.3550     0.5080    -4.0840 H     1 <1>   0.0800 
 36 H        3.8810     1.3200     0.0830 H     1 <1>   0.0800 
 37 H        2.6350     2.4920    -0.1130 H     1 <1>   0.0800 
 38 H        5.0890     0.7740    -1.7450 H     1 <1>   0.4500 
 39 H        4.6270     3.3240    -1.1280 H     1 <1>   0.0800 
 40 H        3.4590     3.0330    -2.3900 H     1 <1>   0.0800 
 41 H        6.4950     3.0640    -2.9310 H     1 <1>   0.0800 
 42 H        7.0870     1.4170    -2.8660 H     1 <1>   0.0800 
 43 H        1.6630    -6.2140     1.2130 H     1 <1>   0.1000 
 44 H       -0.3370    -5.7370     2.6480 H     1 <1>   0.1000 
 45 H        0.0100    -3.9820     2.5730 H     1 <1>   0.1000 
 46 H        2.2870    -4.3820     3.6230 H     1 <1>   0.1000 
 47 H        1.9460    -6.1370     3.7030 H     1 <1>   0.1000 
 48 H        7.0580     4.4720    -1.1560 H     1 <1>   0.1500 
 49 H        6.9780     0.2560    -0.4150 H     1 <1>   0.1500 
 50 H        7.7390     0.7910     1.8870 H     1 <1>   0.1500 
 51 H        8.7570     4.3590     4.2940 H     1 <1>   0.0800 
 52 H        7.5420     5.0060     3.1930 H     1 <1>   0.0800 
 53 H        9.2220     4.8490     2.6660 H     1 <1>   0.0800 
@<TRIPOS>BOND
  1   1   2  2   
  2   2   3  am  
  3   2   4  1   
  4   3   5  1   
  5   3   6  1   
  6   4   7  ar  
  7   4   8  ar  
  8   5   9  1   
  9   5  28  1   
 10   5  29  1   
 11   6  10  1   
 12   6  30  1   
 13   6  31  1   
 14   7  11  ar  
 15   7  32  1   
 16   8  12  ar  
 17   8  33  1   
 18   9  13  1   
 19   9  34  1   
 20   9  35  1   
 21  10  14  1   
 22  10  36  1   
 23  10  37  1   
 24  11  15  ar  
 25  12  15  ar  
 26  13  14  1   
 27  13  16  1   
 28  13  38  1   
 29  14  39  1   
 30  14  40  1   
 31  15  17  1   
 32  16  18  1   
 33  16  41  1   
 34  16  42  1   
 35  17  19  1   
 36  17  20  1   
 37  17  43  1   
 38  18  21  ar  
 39  18  22  ar  
 40  19  20  1   
 41  19  44  1   
 42  19  45  1   
 43  20  46  1   
 44  20  47  1   
 45  21  23  ar  
 46  21  48  1   
 47  22  24  ar  
 48  22  49  1   
 49  23  25  ar  
 50  24  25  ar  
 51  24  50  1   
 52  25  26  1   
 53  26  27  1   
 54  27  51  1   
 55  27  52  1   
 56  27  53  1   
@<TRIPOS>SUBSTRUCTURE
  1 ****   2 GROUP 4 **** **** 0

# MOE 2024.06 (io_trps.svl 2023.06)
