@<TRIPOS>MOLECULE
NONAME
43 44 1 0 0 
SMALL
USER_CHARGES


@<TRIPOS>ATOM
  1 N        0.3340    -0.4250     0.9740 N.ar  1 <1>  -0.6200 
  2 C        0.0870    -1.6800     0.6780 C.ar  1 <1>   0.7710 
  3 C        0.8290     0.3480     0.0250 C.ar  1 <1>   0.4100 
  4 N        0.2950    -2.2010    -0.5400 N.ar  1 <1>  -0.1790 
  5 N       -0.4000    -2.4370     1.6660 N.pl3 1 <1>  -0.8690 
  6 N        1.1200     1.6240     0.3840 N.pl3 1 <1>  -0.8380 
  7 C        1.0390    -0.1300    -1.2960 C.ar  1 <1>  -0.1430 
  8 C        0.7630    -1.4340    -1.5520 C.ar  1 <1>   0.2110 
  9 C       -0.7460    -3.8750     1.7540 C.3   1 <1>   0.2090 
 10 C        2.4830     2.2080     0.2440 C.3   1 <1>   0.1290 
 11 C        0.2250     2.3990     1.2910 C.3   1 <1>   0.1290 
 12 C        1.5190     0.7880    -2.4190 C.3   1 <1>  -0.0970 
 13 C       -2.0810    -4.1190     1.0510 C.3   1 <1>  -0.1600 
 14 C       -2.5420    -5.5740     1.2020 C.3   1 <1>  -0.0170 
 15 C       -3.7610    -5.8220     0.3300 C.ar  1 <1>  -0.1430 
 16 C       -3.6510    -6.5500    -0.8460 C.ar  1 <1>  -0.1500 
 17 C       -4.9980    -5.3170     0.7010 C.ar  1 <1>  -0.1500 
 18 C       -4.7620    -6.7650    -1.6420 C.ar  1 <1>  -0.1500 
 19 C       -6.1090    -5.5300    -0.0950 C.ar  1 <1>  -0.1500 
 20 C       -5.9920    -6.2540    -1.2680 C.ar  1 <1>  -0.1500 
 21 H        0.0500    -3.1780    -0.6510 H     1 <1>   0.4570 
 22 H       -0.5420    -1.9170     2.5410 H     1 <1>   0.4000 
 23 H        0.8920    -1.8780    -2.5260 H     1 <1>   0.1500 
 24 H       -0.8270    -4.1510     2.7940 H     1 <1>   0.0800 
 25 H        0.0330    -4.4750     1.3130 H     1 <1>   0.0800 
 26 H        3.1750     1.4690    -0.1200 H     1 <1>   0.0800 
 27 H        2.8340     2.5540     1.2010 H     1 <1>   0.0800 
 28 H        2.4570     3.0380    -0.4400 H     1 <1>   0.0800 
 29 H       -0.7660     1.9760     1.2900 H     1 <1>   0.0800 
 30 H        0.1620     3.4210     0.9590 H     1 <1>   0.0800 
 31 H        0.6110     2.3740     2.2950 H     1 <1>   0.0800 
 32 H        0.9900     1.7250    -2.3810 H     1 <1>   0.0800 
 33 H        1.3470     0.3490    -3.3850 H     1 <1>   0.0800 
 34 H        2.5720     0.9840    -2.3210 H     1 <1>   0.0800 
 35 H       -1.9980    -3.8930     0.0040 H     1 <1>   0.0800 
 36 H       -2.8310    -3.4740     1.4760 H     1 <1>   0.0800 
 37 H       -2.7920    -5.7800     2.2290 H     1 <1>   0.0800 
 38 H       -1.7540    -6.2480     0.9160 H     1 <1>   0.0800 
 39 H       -2.7040    -6.9590    -1.1500 H     1 <1>   0.1500 
 40 H       -5.1050    -4.7550     1.6130 H     1 <1>   0.1500 
 41 H       -4.6730    -7.3320    -2.5530 H     1 <1>   0.1500 
 42 H       -7.0660    -5.1350     0.1990 H     1 <1>   0.1500 
 43 H       -6.8570    -6.4210    -1.8870 H     1 <1>   0.1500 
@<TRIPOS>BOND
  1   1   2  ar  
  2   1   3  ar  
  3   2   4  ar  
  4   2   5  1   
  5   3   6  1   
  6   3   7  ar  
  7   4   8  ar  
  8   4  21  1   
  9   5   9  1   
 10   5  22  1   
 11   6  10  1   
 12   6  11  1   
 13   7   8  ar  
 14   7  12  1   
 15   8  23  1   
 16   9  13  1   
 17   9  24  1   
 18   9  25  1   
 19  10  26  1   
 20  10  27  1   
 21  10  28  1   
 22  11  29  1   
 23  11  30  1   
 24  11  31  1   
 25  12  32  1   
 26  12  33  1   
 27  12  34  1   
 28  13  14  1   
 29  13  35  1   
 30  13  36  1   
 31  14  15  1   
 32  14  37  1   
 33  14  38  1   
 34  15  16  ar  
 35  15  17  ar  
 36  16  18  ar  
 37  16  39  1   
 38  17  19  ar  
 39  17  40  1   
 40  18  20  ar  
 41  18  41  1   
 42  19  20  ar  
 43  19  42  1   
 44  20  43  1   
@<TRIPOS>SUBSTRUCTURE
  1 ****   4 GROUP 4 **** **** 0

# MOE 2024.06 (io_trps.svl 2023.06)
