@<TRIPOS>MOLECULE
NONAME
34 34 1 0 0 
SMALL
USER_CHARGES


@<TRIPOS>ATOM
  1 O        0.2890    -0.1450     0.7750 O.3   1 <1>  -0.5600 
  2 C        1.2810     0.7300     0.3290 C.3   1 <1>   0.2800 
  3 C        0.0270    -1.3940     0.2080 C.3   1 <1>   0.2800 
  4 C        2.5960    -0.0220     0.0500 C.3   1 <1>  -0.1600 
  5 C        1.4840     1.7040     1.4900 C.3   1 <1>  -0.2400 
  6 C        0.7800     1.5270    -0.8820 C.3   1 <1>  -0.2400 
  7 C        1.3350    -2.1550    -0.0710 C.3   1 <1>  -0.1600 
  8 C       -0.7810    -2.1370     1.2730 C.3   1 <1>  -0.2400 
  9 C       -0.8540    -1.2390    -1.0380 C.3   1 <1>  -0.2400 
 10 C        2.3880    -1.2970    -0.7860 C.3   1 <1>  -0.0800 
 11 C        3.6790    -2.1110    -0.9540 C.3   1 <1>   0.3430 
 12 N        4.7100    -1.3220    -1.6720 N.4   1 <1>  -0.8530 
 13 H        3.0360    -0.2900     0.9960 H     1 <1>   0.0800 
 14 H        3.2710     0.6570    -0.4380 H     1 <1>   0.0800 
 15 H        1.7670     1.1740     2.3810 H     1 <1>   0.0800 
 16 H        0.5710     2.2380     1.6870 H     1 <1>   0.0800 
 17 H        2.2510     2.4210     1.2590 H     1 <1>   0.0800 
 18 H        0.7910     0.9510    -1.7830 H     1 <1>   0.0800 
 19 H        1.4110     2.3820    -1.0460 H     1 <1>   0.0800 
 20 H       -0.2190     1.8820    -0.6980 H     1 <1>   0.0800 
 21 H        1.1080    -3.0320    -0.6530 H     1 <1>   0.0800 
 22 H        1.7340    -2.4930     0.8700 H     1 <1>   0.0800 
 23 H       -0.2240    -2.2040     2.1900 H     1 <1>   0.0800 
 24 H       -1.0190    -3.1320     0.9440 H     1 <1>   0.0800 
 25 H       -1.7010    -1.6160     1.4690 H     1 <1>   0.0800 
 26 H       -0.3040    -0.8950    -1.8880 H     1 <1>   0.0800 
 27 H       -1.6610    -0.5570    -0.8340 H     1 <1>   0.0800 
 28 H       -1.2810    -2.1890    -1.3040 H     1 <1>   0.0800 
 29 H        2.0130    -1.0400    -1.7600 H     1 <1>   0.0800 
 30 H        3.4590    -3.0120    -1.5060 H     1 <1>   0.0800 
 31 H        4.0470    -2.3970     0.0190 H     1 <1>   0.0800 
 32 H        4.3720    -1.0380    -2.5980 H     1 <1>   0.4500 
 33 H        5.5720    -1.8650    -1.7960 H     1 <1>   0.4500 
 34 H        4.9410    -0.4730    -1.1440 H     1 <1>   0.4500 
@<TRIPOS>BOND
  1   1   2  1   
  2   1   3  1   
  3   2   4  1   
  4   2   5  1   
  5   2   6  1   
  6   3   7  1   
  7   3   8  1   
  8   3   9  1   
  9   4  10  1   
 10   4  13  1   
 11   4  14  1   
 12   5  15  1   
 13   5  16  1   
 14   5  17  1   
 15   6  18  1   
 16   6  19  1   
 17   6  20  1   
 18   7  10  1   
 19   7  21  1   
 20   7  22  1   
 21   8  23  1   
 22   8  24  1   
 23   8  25  1   
 24   9  26  1   
 25   9  27  1   
 26   9  28  1   
 27  10  11  1   
 28  10  29  1   
 29  11  12  1   
 30  11  30  1   
 31  11  31  1   
 32  12  32  1   
 33  12  33  1   
 34  12  34  1   
@<TRIPOS>SUBSTRUCTURE
  1 ****  10 GROUP 4 **** **** 0

# MOE 2024.06 (io_trps.svl 2023.06)
