@<TRIPOS>MOLECULE
NONAME
54 57 1 0 0 
SMALL
USER_CHARGES


@<TRIPOS>ATOM
  1 O        1.4500    -1.0540    -1.8090 O.2   1 <1>  -0.5700 
  2 C        1.4410    -1.0030    -0.6010 C.2   1 <1>   0.6300 
  3 N        1.5850     0.1750     0.0610 N.am  1 <1>  -0.7300 
  4 C        1.2950    -2.2820     0.2250 C.3   1 <1>   0.0320 
  5 C        1.7900     1.4940    -0.5860 C.3   1 <1>   0.1400 
  6 C       -0.1670    -2.6420     0.4660 C.ar  1 <1>  -0.0320 
  7 C        2.2890    -3.4020     0.0660 C.3   1 <1>  -0.1900 
  8 C        2.3130    -2.5700     1.3070 C.3   1 <1>  -0.2000 
  9 C        3.2630     1.9720    -0.5020 C.3   1 <1>   0.0000 
 10 C       -0.9150    -3.1720    -0.5730 C.ar  1 <1>  -0.1500 
 11 C       -0.7680    -2.4420     1.7000 C.ar  1 <1>  -0.1500 
 12 C        1.9520    -4.8810     0.2190 C.3   1 <1>  -0.0650 
 13 C        3.5140    -3.3350    -0.8480 C.3   1 <1>  -0.0650 
 14 C        3.7010     2.1660     0.9700 C.3   1 <1>  -0.1600 
 15 C        3.3770     3.3450    -1.2080 C.3   1 <1>  -0.1600 
 16 C        4.1500     0.9170    -1.2120 C.3   1 <1>   0.1200 
 17 C       -2.2450    -3.5060    -0.3840 C.ar  1 <1>  -0.1500 
 18 C       -2.0980    -2.7760     1.8930 C.ar  1 <1>  -0.1500 
 19 C        3.3200    -5.5560     0.2010 C.3   1 <1>  -0.1600 
 20 C        4.1910    -4.7060    -0.7310 C.3   1 <1>  -0.1600 
 21 C        2.9830     3.3470     1.6350 C.3   1 <1>   0.1200 
 22 C        2.6790     4.4630    -0.4200 C.3   1 <1>   0.1200 
 23 O        5.4920     1.2780    -1.2030 O.3   1 <1>  -0.6800 
 24 C       -2.8360    -3.3090     0.8510 C.ar  1 <1>  -0.1500 
 25 O        3.1840     4.4990     0.8770 O.3   1 <1>  -0.5600 
 26 H        1.5710     0.1610     1.0800 H     1 <1>   0.3700 
 27 H        1.1270     2.2020    -0.1230 H     1 <1>   0.0800 
 28 H        1.5020     1.4230    -1.6220 H     1 <1>   0.0800 
 29 H        1.9940    -3.0230     2.2280 H     1 <1>   0.1000 
 30 H        3.1280    -1.8840     1.4520 H     1 <1>   0.1000 
 31 H       -0.4550    -3.3200    -1.5350 H     1 <1>   0.1500 
 32 H       -0.2050    -2.0260     2.5150 H     1 <1>   0.1500 
 33 H        1.3790    -5.2030    -0.6330 H     1 <1>   0.0800 
 34 H        1.4010    -5.0990     1.1180 H     1 <1>   0.0800 
 35 H        4.1840    -2.5370    -0.5780 H     1 <1>   0.0800 
 36 H        3.1900    -3.1840    -1.8640 H     1 <1>   0.0800 
 37 H        4.7570     2.3670     1.0150 H     1 <1>   0.0800 
 38 H        3.5310     1.2710     1.5390 H     1 <1>   0.0800 
 39 H        2.9610     3.2910    -2.1980 H     1 <1>   0.0800 
 40 H        4.4080     3.6310    -1.3070 H     1 <1>   0.0800 
 41 H        3.8450     0.7910    -2.2370 H     1 <1>   0.0800 
 42 H        4.0780    -0.0360    -0.7190 H     1 <1>   0.0800 
 43 H       -2.8160    -3.9170    -1.1970 H     1 <1>   0.1500 
 44 H       -2.5590    -2.6210     2.8530 H     1 <1>   0.1500 
 45 H        3.2570    -6.5800    -0.1250 H     1 <1>   0.0800 
 46 H        3.7350    -5.5290     1.1940 H     1 <1>   0.0800 
 47 H        5.1880    -4.6130    -0.3380 H     1 <1>   0.0800 
 48 H        4.2420    -5.1630    -1.7050 H     1 <1>   0.0800 
 49 H        3.3910     3.5280     2.6150 H     1 <1>   0.0800 
 50 H        1.9240     3.1760     1.7290 H     1 <1>   0.0800 
 51 H        1.6130     4.3230    -0.3720 H     1 <1>   0.0800 
 52 H        2.8790     5.4190    -0.8730 H     1 <1>   0.0800 
 53 H        5.6110     2.1590    -1.6040 H     1 <1>   0.4000 
 54 H       -3.8700    -3.5690     1.0000 H     1 <1>   0.1500 
@<TRIPOS>BOND
  1   1   2  2   
  2   2   3  am  
  3   2   4  1   
  4   3   5  1   
  5   3  26  1   
  6   4   6  1   
  7   4   7  1   
  8   4   8  1   
  9   5   9  1   
 10   5  27  1   
 11   5  28  1   
 12   6  10  ar  
 13   6  11  ar  
 14   7   8  1   
 15   7  12  1   
 16   7  13  1   
 17   8  29  1   
 18   8  30  1   
 19   9  14  1   
 20   9  15  1   
 21   9  16  1   
 22  10  17  ar  
 23  10  31  1   
 24  11  18  ar  
 25  11  32  1   
 26  12  19  1   
 27  12  33  1   
 28  12  34  1   
 29  13  20  1   
 30  13  35  1   
 31  13  36  1   
 32  14  21  1   
 33  14  37  1   
 34  14  38  1   
 35  15  22  1   
 36  15  39  1   
 37  15  40  1   
 38  16  23  1   
 39  16  41  1   
 40  16  42  1   
 41  17  24  ar  
 42  17  43  1   
 43  18  24  ar  
 44  18  44  1   
 45  19  20  1   
 46  19  45  1   
 47  19  46  1   
 48  20  47  1   
 49  20  48  1   
 50  21  25  1   
 51  21  49  1   
 52  21  50  1   
 53  22  25  1   
 54  22  51  1   
 55  22  52  1   
 56  23  53  1   
 57  24  54  1   
@<TRIPOS>SUBSTRUCTURE
  1 ****   2 GROUP 4 **** **** 0

# MOE 2024.06 (io_trps.svl 2023.06)
