@<TRIPOS>MOLECULE
NONAME
50 53 1 0 0 
SMALL
USER_CHARGES


@<TRIPOS>ATOM
  1 O       -0.7080    -0.2190    -0.7270 O.2   1 <1>  -0.5700 
  2 C       -1.5760     0.5400    -0.3350 C.2   1 <1>   0.5440 
  3 N       -2.7760     0.0210     0.1050 N.am  1 <1>  -0.6600 
  4 C       -1.3150     1.9660    -0.3440 C.ar  1 <1>   0.0860 
  5 C       -3.1660    -1.4050    -0.1250 C.3   1 <1>   0.1400 
  6 C       -3.7720     0.7720     0.9190 C.3   1 <1>   0.1400 
  7 C       -0.1800     2.4850     0.2880 C.ar  1 <1>  -0.1500 
  8 C       -2.1770     2.8620    -0.9910 C.ar  1 <1>  -0.1500 
  9 C       -4.5260    -1.4470    -0.8390 C.3   1 <1>   0.2000 
 10 C       -5.1400     0.7350     0.2210 C.3   1 <1>  -0.1600 
 11 C        0.0560     3.8450     0.2780 C.ar  1 <1>  -0.1440 
 12 C       -1.9380     4.2260    -0.9970 C.ar  1 <1>  -0.1500 
 13 O       -4.8850    -2.7640    -1.0710 O.3   1 <1>  -0.6800 
 14 C       -5.6380    -0.7190    -0.0380 C.3   1 <1>  -0.1060 
 15 C       -0.8110     4.6970    -0.3520 C.ar  1 <1>   0.0820 
 16 C        1.1740     4.6510     0.8690 C.3   1 <1>  -0.0170 
 17 C       -5.8890    -1.4790     1.2800 C.2   1 <1>   0.9060 
 18 C       -6.9420    -0.7070    -0.8820 C.3   1 <1>  -0.0170 
 19 O       -0.4380     5.9800    -0.2660 O.3   1 <1>  -0.3620 
 20 C        0.7810     6.0820     0.4570 C.3   1 <1>   0.1200 
 21 O       -6.0270    -2.7120     1.2370 O.co2 1 <1>  -0.9000 
 22 O       -5.9460    -0.8760     2.3580 O.co2 1 <1>  -0.9000 
 23 C       -7.9760     0.3420    -0.4750 C.ar  1 <1>  -0.1440 
 24 C       -8.6450     0.2390     0.7350 C.ar  1 <1>  -0.1500 
 25 C       -8.2600     1.4090    -1.3140 C.ar  1 <1>  -0.1500 
 26 C       -9.5820     1.1900     1.1030 C.ar  1 <1>  -0.1500 
 27 C       -9.1980     2.3600    -0.9500 C.ar  1 <1>  -0.1500 
 28 C       -9.8600     2.2510     0.2600 C.ar  1 <1>  -0.1500 
 29 H       -2.4330    -1.9030    -0.7350 H     1 <1>   0.0800 
 30 H       -3.2300    -1.9110     0.8230 H     1 <1>   0.0800 
 31 H       -3.8440     0.3130     1.8910 H     1 <1>   0.0800 
 32 H       -3.4670     1.7910     1.0700 H     1 <1>   0.0800 
 33 H        0.5010     1.8100     0.7770 H     1 <1>   0.1500 
 34 H       -3.0440     2.4720    -1.4930 H     1 <1>   0.1500 
 35 H       -4.4040    -0.9870    -1.8040 H     1 <1>   0.0800 
 36 H       -5.8450     1.2500     0.8510 H     1 <1>   0.0800 
 37 H       -5.0780     1.2750    -0.7050 H     1 <1>   0.0800 
 38 H       -2.6000     4.9150    -1.4890 H     1 <1>   0.1500 
 39 H       -5.3350    -3.0710    -0.2240 H     1 <1>   0.4000 
 40 H        2.1220     4.3740     0.4460 H     1 <1>   0.0800 
 41 H        1.2040     4.5520     1.9390 H     1 <1>   0.0800 
 42 H       -6.6870    -0.5450    -1.9140 H     1 <1>   0.0800 
 43 H       -7.4030    -1.6790    -0.8330 H     1 <1>   0.0800 
 44 H        1.5180     6.5240    -0.1900 H     1 <1>   0.0800 
 45 H        0.6110     6.7100     1.3140 H     1 <1>   0.0800 
 46 H       -8.4320    -0.5800     1.4030 H     1 <1>   0.1500 
 47 H       -7.7500     1.5040    -2.2550 H     1 <1>   0.1500 
 48 H      -10.0860     1.0970     2.0480 H     1 <1>   0.1500 
 49 H       -9.4130     3.1840    -1.6080 H     1 <1>   0.1500 
 50 H      -10.5880     2.9890     0.5480 H     1 <1>   0.1500 
@<TRIPOS>BOND
  1   1   2  2   
  2   2   3  am  
  3   2   4  1   
  4   3   5  1   
  5   3   6  1   
  6   4   7  ar  
  7   4   8  ar  
  8   5   9  1   
  9   5  29  1   
 10   5  30  1   
 11   6  10  1   
 12   6  31  1   
 13   6  32  1   
 14   7  11  ar  
 15   7  33  1   
 16   8  12  ar  
 17   8  34  1   
 18   9  13  1   
 19   9  14  1   
 20   9  35  1   
 21  10  14  1   
 22  10  36  1   
 23  10  37  1   
 24  11  15  ar  
 25  11  16  1   
 26  12  15  ar  
 27  12  38  1   
 28  13  39  1   
 29  14  17  1   
 30  14  18  1   
 31  15  19  1   
 32  16  20  1   
 33  16  40  1   
 34  16  41  1   
 35  17  21  ar  
 36  17  22  ar  
 37  18  23  1   
 38  18  42  1   
 39  18  43  1   
 40  19  20  1   
 41  20  44  1   
 42  20  45  1   
 43  23  24  ar  
 44  23  25  ar  
 45  24  26  ar  
 46  24  46  1   
 47  25  27  ar  
 48  25  47  1   
 49  26  28  ar  
 50  26  48  1   
 51  27  28  ar  
 52  27  49  1   
 53  28  50  1   
@<TRIPOS>SUBSTRUCTURE
  1 ****   6 GROUP 4 **** **** 0

# MOE 2024.06 (io_trps.svl 2023.06)
