@<TRIPOS>MOLECULE
NONAME
53 56 1 0 0 
SMALL
USER_CHARGES


@<TRIPOS>ATOM
  1 O        1.4300     0.4200    -0.7330 O.2   1 <1>  -0.5700 
  2 C        1.9930    -0.5570    -0.3100 C.2   1 <1>   0.5690 
  3 N        1.7380    -1.0420     0.9220 N.am  1 <1>  -0.7300 
  4 C        3.0340    -1.2740    -1.1420 C.3   1 <1>  -0.0990 
  5 C        2.4330    -2.2210     1.4760 C.3   1 <1>   0.1400 
  6 C        2.8850    -2.8070    -1.0280 C.3   1 <1>  -0.0800 
  7 C        2.5430    -3.3140     0.3950 C.3   1 <1>  -0.0800 
  8 C        4.1430    -3.5520    -1.4950 C.3   1 <1>  -0.1600 
  9 C        3.5850    -4.3800     0.7630 C.3   1 <1>  -0.1600 
 10 C        4.3290    -4.7200    -0.5250 C.3   1 <1>   0.2200 
 11 N        5.7440    -5.1170    -0.2590 N.am  1 <1>  -0.6600 
 12 C        6.8550    -4.2790    -0.1530 C.2   1 <1>   0.7160 
 13 C        5.9310    -6.5990    -0.2200 C.3   1 <1>   0.0600 
 14 O        7.9420    -4.7790    -0.4040 O.2   1 <1>  -0.5700 
 15 C        6.8330    -2.8590     0.2120 C.2   1 <1>   0.2030 
 16 N        5.9690    -2.2130     0.9810 N.2   1 <1>  -0.7070 
 17 C        7.8040    -1.9620    -0.2450 C.2   1 <1>  -0.1500 
 18 N        6.3910    -0.9420     0.9990 N.pl3 1 <1>   0.3000 
 19 C        7.5010    -0.7420     0.2580 C.2   1 <1>  -0.2050 
 20 C        8.1590     0.5300     0.1040 C.ar  1 <1>   0.0530 
 21 C        9.5480     0.6070     0.0710 C.ar  1 <1>  -0.1500 
 22 C        7.4410     1.7170    -0.0140 C.ar  1 <1>  -0.1500 
 23 C       10.1960     1.8210    -0.0680 C.ar  1 <1>  -0.1500 
 24 C        8.0850     2.9330    -0.1520 C.ar  1 <1>  -0.1500 
 25 C        9.4690     2.9940    -0.1800 C.ar  1 <1>  -0.1440 
 26 C       10.1800     4.3300    -0.3330 C.3   1 <1>  -0.0170 
 27 C       10.4540     4.9530     1.0370 C.3   1 <1>  -0.2400 
 28 H        1.0530    -0.5490     1.4980 H     1 <1>   0.3700 
 29 H        2.9490    -0.9690    -2.1680 H     1 <1>   0.0800 
 30 H        3.9960    -0.9660    -0.7790 H     1 <1>   0.0800 
 31 H        3.4140    -1.9180     1.7990 H     1 <1>   0.0800 
 32 H        1.8950    -2.5990     2.3290 H     1 <1>   0.0800 
 33 H        2.0680    -3.0970    -1.6680 H     1 <1>   0.0800 
 34 H        1.5840    -3.8010     0.3390 H     1 <1>   0.0800 
 35 H        4.9830    -2.8900    -1.4980 H     1 <1>   0.0800 
 36 H        4.0120    -3.9200    -2.4970 H     1 <1>   0.0800 
 37 H        3.1080    -5.2560     1.1620 H     1 <1>   0.0800 
 38 H        4.2710    -4.0090     1.5010 H     1 <1>   0.0800 
 39 H        3.8170    -5.5580    -0.9690 H     1 <1>   0.0800 
 40 H        5.1520    -7.0530     0.3660 H     1 <1>   0.0800 
 41 H        6.8770    -6.8540     0.2250 H     1 <1>   0.0800 
 42 H        5.9020    -6.9930    -1.2210 H     1 <1>   0.0800 
 43 H        8.6290    -2.2270    -0.8830 H     1 <1>   0.1500 
 44 H        5.9190    -0.2060     1.5400 H     1 <1>   0.2700 
 45 H       10.1240    -0.2960     0.1590 H     1 <1>   0.1500 
 46 H        6.3660     1.6940    -0.0090 H     1 <1>   0.1500 
 47 H       11.2720     1.8490    -0.0870 H     1 <1>   0.1500 
 48 H        7.5060     3.8360    -0.2400 H     1 <1>   0.1500 
 49 H       11.1080     4.1880    -0.8580 H     1 <1>   0.0800 
 50 H        9.5740     4.9980    -0.9190 H     1 <1>   0.0800 
 51 H       11.0730     4.2980     1.6250 H     1 <1>   0.0800 
 52 H        9.5300     5.1160     1.5620 H     1 <1>   0.0800 
 53 H       10.9590     5.8950     0.9210 H     1 <1>   0.0800 
@<TRIPOS>BOND
  1   1   2  2   
  2   2   3  am  
  3   2   4  1   
  4   3   5  1   
  5   3  28  1   
  6   4   6  1   
  7   4  29  1   
  8   4  30  1   
  9   5   7  1   
 10   5  31  1   
 11   5  32  1   
 12   6   7  1   
 13   6   8  1   
 14   6  33  1   
 15   7   9  1   
 16   7  34  1   
 17   8  10  1   
 18   8  35  1   
 19   8  36  1   
 20   9  10  1   
 21   9  37  1   
 22   9  38  1   
 23  10  11  1   
 24  10  39  1   
 25  11  12  am  
 26  11  13  1   
 27  12  14  2   
 28  12  15  1   
 29  13  40  1   
 30  13  41  1   
 31  13  42  1   
 32  15  16  2   
 33  15  17  1   
 34  16  18  1   
 35  17  19  2   
 36  17  43  1   
 37  18  19  1   
 38  18  44  1   
 39  19  20  1   
 40  20  21  ar  
 41  20  22  ar  
 42  21  23  ar  
 43  21  45  1   
 44  22  24  ar  
 45  22  46  1   
 46  23  25  ar  
 47  23  47  1   
 48  24  25  ar  
 49  24  48  1   
 50  25  26  1   
 51  26  27  1   
 52  26  49  1   
 53  26  50  1   
 54  27  51  1   
 55  27  52  1   
 56  27  53  1   
@<TRIPOS>SUBSTRUCTURE
  1 ****  18 GROUP 4 **** **** 0

# MOE 2024.06 (io_trps.svl 2023.06)
