@<TRIPOS>MOLECULE
NONAME
42 45 1 0 0 
SMALL
USER_CHARGES


@<TRIPOS>ATOM
  1 F       -2.0490     0.1420    -3.0060 F     1 <1>  -0.1900 
  2 C       -2.8420    -0.1020    -1.9940 C.ar  1 <1>   0.1900 
  3 C       -4.0580    -0.6960    -2.2290 C.ar  1 <1>  -0.1500 
  4 C       -2.4010     0.2590    -0.7170 C.ar  1 <1>  -0.1500 
  5 C       -4.8750    -0.9400    -1.1280 C.ar  1 <1>   0.2270 
  6 C       -3.2120     0.0150     0.3700 C.ar  1 <1>  -0.1500 
  7 N       -6.1110    -1.5070    -1.0780 N.2   1 <1>  -0.5650 
  8 C       -4.4540    -0.5900     0.1440 C.ar  1 <1>  -0.1520 
  9 C       -6.4220    -1.5020     0.1720 C.2   1 <1>   0.0060 
 10 N       -5.4640    -0.9610     0.9700 N.pl3 1 <1>   0.0330 
 11 C       -7.7320    -2.0600     0.7130 C.3   1 <1>   0.1000 
 12 C       -7.6890    -3.5950     0.6890 C.3   1 <1>  -0.1600 
 13 C       -8.9190    -1.5490    -0.1210 C.3   1 <1>  -0.1600 
 14 C       -9.0210    -4.2140     1.1020 C.3   1 <1>   0.3430 
 15 C      -10.2380    -2.1890     0.2990 C.3   1 <1>   0.3430 
 16 N      -10.1110    -3.6670     0.2420 N.4   1 <1>  -0.9590 
 17 C      -11.4120    -4.3900     0.4670 C.3   1 <1>   0.5230 
 18 C      -11.3360    -5.7990    -0.1040 C.2   1 <1>   0.2980 
 19 O      -12.3000    -6.6570     0.1140 O.3   1 <1>  -0.2800 
 20 N      -10.3660    -6.2460    -0.8080 N.2   1 <1>  -0.5650 
 21 C      -11.9220    -7.7500    -0.4900 C.2   1 <1>  -0.0100 
 22 C      -10.7210    -7.5470    -1.0720 C.2   1 <1>  -0.0060 
 23 C       -9.9540    -8.5390    -1.8250 C.2   1 <1>   1.0330 
 24 O      -10.4460    -9.6640    -2.0280 O.co2 1 <1>  -0.9000 
 25 O       -8.8110    -8.2920    -2.2540 O.co2 1 <1>  -0.9000 
 26 H       -4.3840    -0.9700    -3.2130 H     1 <1>   0.1500 
 27 H       -1.4360     0.7210    -0.6060 H     1 <1>   0.1500 
 28 H       -2.9040     0.2790     1.3670 H     1 <1>   0.1500 
 29 H       -5.4750    -0.8490     1.9870 H     1 <1>   0.2700 
 30 H       -7.8590    -1.7290     1.7290 H     1 <1>   0.0800 
 31 H       -6.9160    -3.9460     1.3490 H     1 <1>   0.0800 
 32 H       -7.4380    -3.9380    -0.3020 H     1 <1>   0.0800 
 33 H       -8.7530    -1.7590    -1.1640 H     1 <1>   0.0800 
 34 H       -8.9910    -0.4800    -0.0210 H     1 <1>   0.0800 
 35 H       -9.2220    -3.9950     2.1380 H     1 <1>   0.0800 
 36 H       -8.9600    -5.2870     0.9840 H     1 <1>   0.0800 
 37 H      -11.0210    -1.8590    -0.3660 H     1 <1>   0.0800 
 38 H      -10.4880    -1.8810     1.3010 H     1 <1>   0.0800 
 39 H       -9.8390    -3.9550    -0.7170 H     1 <1>   0.4500 
 40 H      -12.2140    -3.8730    -0.0310 H     1 <1>   0.0800 
 41 H      -11.6350    -4.4430     1.5190 H     1 <1>   0.0800 
 42 H      -12.5330    -8.6370    -0.4730 H     1 <1>   0.1500 
@<TRIPOS>BOND
  1   1   2  1   
  2   2   3  ar  
  3   2   4  ar  
  4   3   5  ar  
  5   3  26  1   
  6   4   6  ar  
  7   4  27  1   
  8   5   7  1   
  9   5   8  ar  
 10   6   8  ar  
 11   6  28  1   
 12   7   9  2   
 13   8  10  1   
 14   9  10  1   
 15   9  11  1   
 16  10  29  1   
 17  11  12  1   
 18  11  13  1   
 19  11  30  1   
 20  12  14  1   
 21  12  31  1   
 22  12  32  1   
 23  13  15  1   
 24  13  33  1   
 25  13  34  1   
 26  14  16  1   
 27  14  35  1   
 28  14  36  1   
 29  15  16  1   
 30  15  37  1   
 31  15  38  1   
 32  16  17  1   
 33  16  39  1   
 34  17  18  1   
 35  17  40  1   
 36  17  41  1   
 37  18  19  1   
 38  18  20  2   
 39  19  21  1   
 40  20  22  1   
 41  21  22  2   
 42  21  42  1   
 43  22  23  1   
 44  23  24  ar  
 45  23  25  ar  
@<TRIPOS>SUBSTRUCTURE
  1 ****  12 GROUP 4 **** **** 0

# MOE 2024.06 (io_trps.svl 2023.06)
