@<TRIPOS>MOLECULE
NONAME
48 50 1 0 0 
SMALL
USER_CHARGES


@<TRIPOS>ATOM
  1 CL      -2.9040     0.5100     2.4230 Cl    1 <1>  -0.1770 
  2 C       -3.0150    -0.6210     1.0860 C.ar  1 <1>   0.1770 
  3 C       -3.0400    -0.1620    -0.2380 C.ar  1 <1>   0.1000 
  4 C       -3.0880    -1.9600     1.4030 C.ar  1 <1>  -0.1500 
  5 N       -2.9710     1.1970    -0.5570 N.pl3 1 <1>  -0.8380 
  6 C       -3.1320    -1.1350    -1.2320 C.ar  1 <1>  -0.1500 
  7 C       -3.1970    -2.9250     0.4030 C.ar  1 <1>   0.0860 
  8 C       -1.7380     1.9590    -0.2480 C.3   1 <1>   0.2090 
  9 C       -3.6910     1.8150    -1.6990 C.3   1 <1>   0.2090 
 10 C       -3.2090    -2.4790    -0.9180 C.ar  1 <1>  -0.1500 
 11 C       -3.3000    -4.3310     0.7190 C.2   1 <1>   0.5440 
 12 C       -1.5780     2.9350    -1.4060 C.3   1 <1>  -0.1600 
 13 C       -2.9990     3.1550    -1.9140 C.3   1 <1>  -0.1600 
 14 O       -2.3640    -5.0650     0.4570 O.2   1 <1>  -0.5700 
 15 N       -4.4240    -4.8570     1.3190 N.am  1 <1>  -0.6600 
 16 C       -4.5220    -6.3230     1.6020 C.3   1 <1>   0.3210 
 17 C       -5.6760    -4.0700     1.5720 C.3   1 <1>   0.1400 
 18 C       -5.4340    -7.0150     0.5930 C.2   1 <1>   0.0460 
 19 C       -6.3640    -3.5340     0.2990 C.3   1 <1>   0.1200 
 20 N       -6.7760    -7.0190     0.7550 N.2   1 <1>  -0.5650 
 21 C       -5.0890    -7.6610    -0.5460 C.2   1 <1>  -0.3320 
 22 O       -6.3600    -4.4730    -0.7210 O.3   1 <1>  -0.6800 
 23 C       -7.2120    -7.6670    -0.2760 C.2   1 <1>   0.0360 
 24 N       -6.2360    -8.0840    -1.1060 N.pl3 1 <1>   0.0330 
 25 C       -3.7270    -7.8970    -1.1760 C.3   1 <1>  -0.0600 
 26 H       -3.0590    -2.2660     2.4320 H     1 <1>   0.1500 
 27 H       -3.1350    -0.8440    -2.2640 H     1 <1>   0.1500 
 28 H       -0.8870     1.3050    -0.1570 H     1 <1>   0.0800 
 29 H       -1.8810     2.4950     0.6750 H     1 <1>   0.0800 
 30 H       -4.7340     1.9420    -1.4640 H     1 <1>   0.0800 
 31 H       -3.5880     1.2090    -2.5810 H     1 <1>   0.0800 
 32 H       -3.2840    -3.2130    -1.7030 H     1 <1>   0.1500 
 33 H       -0.9820     2.4710    -2.1710 H     1 <1>   0.0800 
 34 H       -1.1060     3.8500    -1.0940 H     1 <1>   0.0800 
 35 H       -3.4920     3.8990    -1.3120 H     1 <1>   0.0800 
 36 H       -3.0270     3.4600    -2.9450 H     1 <1>   0.0800 
 37 H       -4.9140    -6.4720     2.5920 H     1 <1>   0.0800 
 38 H       -3.5500    -6.7800     1.5710 H     1 <1>   0.0800 
 39 H       -5.4500    -3.2430     2.2210 H     1 <1>   0.0800 
 40 H       -6.3830    -4.6890     2.0980 H     1 <1>   0.0800 
 41 H       -5.8740    -2.6480    -0.0640 H     1 <1>   0.0800 
 42 H       -7.3890    -3.2880     0.5170 H     1 <1>   0.0800 
 43 H       -6.3720    -5.3820    -0.3250 H     1 <1>   0.4000 
 44 H       -8.2520    -7.8630    -0.4730 H     1 <1>   0.1500 
 45 H       -6.3480    -8.6010    -1.9830 H     1 <1>   0.2700 
 46 H       -2.9470    -7.4710    -0.5700 H     1 <1>   0.0800 
 47 H       -3.6840    -7.4320    -2.1450 H     1 <1>   0.0800 
 48 H       -3.5400    -8.9500    -1.2820 H     1 <1>   0.0800 
@<TRIPOS>BOND
  1   1   2  1   
  2   2   3  ar  
  3   2   4  ar  
  4   3   5  1   
  5   3   6  ar  
  6   4   7  ar  
  7   4  26  1   
  8   5   8  1   
  9   5   9  1   
 10   6  10  ar  
 11   6  27  1   
 12   7  10  ar  
 13   7  11  1   
 14   8  12  1   
 15   8  28  1   
 16   8  29  1   
 17   9  13  1   
 18   9  30  1   
 19   9  31  1   
 20  10  32  1   
 21  11  14  2   
 22  11  15  am  
 23  12  13  1   
 24  12  33  1   
 25  12  34  1   
 26  13  35  1   
 27  13  36  1   
 28  15  16  1   
 29  15  17  1   
 30  16  18  1   
 31  16  37  1   
 32  16  38  1   
 33  17  19  1   
 34  17  39  1   
 35  17  40  1   
 36  18  20  1   
 37  18  21  2   
 38  19  22  1   
 39  19  41  1   
 40  19  42  1   
 41  20  23  2   
 42  21  24  1   
 43  21  25  1   
 44  22  43  1   
 45  23  24  1   
 46  23  44  1   
 47  24  45  1   
 48  25  46  1   
 49  25  47  1   
 50  25  48  1   
@<TRIPOS>SUBSTRUCTURE
  1 ****   7 GROUP 4 **** **** 0

# MOE 2024.06 (io_trps.svl 2023.06)
