@<TRIPOS>MOLECULE
NONAME
48 50 1 0 0 
SMALL
USER_CHARGES


@<TRIPOS>ATOM
  1 F       -0.4510     0.0590    -0.2830 F     1 <1>  -0.1900 
  2 C       -1.6920     0.4030    -0.0490 C.ar  1 <1>   0.1900 
  3 C       -2.0250     1.6130     0.5690 C.ar  1 <1>   0.0830 
  4 C       -2.6630    -0.4970    -0.4420 C.ar  1 <1>  -0.1500 
  5 O       -1.1630     2.5780     1.0010 O.3   1 <1>  -0.3630 
  6 C       -3.3680     1.8800     0.7740 C.ar  1 <1>  -0.1500 
  7 C       -3.9950    -0.1990    -0.2210 C.ar  1 <1>  -0.1500 
  8 C        0.2350     2.4910     0.8380 C.3   1 <1>   0.0400 
  9 C       -4.3820     0.9970     0.3910 C.ar  1 <1>   0.0530 
 10 C       -5.7700     1.3240     0.6310 C.2   1 <1>   0.0870 
 11 O       -6.0830     2.2240     1.5290 O.3   1 <1>  -0.0190 
 12 C       -6.9440     0.8760     0.1100 C.2   1 <1>  -0.0860 
 13 N       -7.3690     2.4170     1.6390 N.2   1 <1>  -0.4100 
 14 C       -7.9160     1.6280     0.7820 C.2   1 <1>   0.3720 
 15 C       -7.1940    -0.1100    -0.8910 C.2   1 <1>   0.7160 
 16 N       -9.3050     1.5480     0.5690 N.pl3 1 <1>  -0.8210 
 17 O       -6.7690     0.0690    -2.0180 O.2   1 <1>  -0.5700 
 18 N       -7.8680    -1.2820    -0.6240 N.am  1 <1>  -0.6600 
 19 C       -9.7410     1.7370    -0.8480 C.3   1 <1>   0.1290 
 20 C      -10.1560     2.3010     1.5360 C.3   1 <1>   0.1290 
 21 C       -8.2720    -2.2280    -1.7240 C.3   1 <1>   0.2010 
 22 C       -8.3690    -1.6770     0.7250 C.3   1 <1>   0.1400 
 23 C       -9.6730    -2.8360    -1.5670 C.2   1 <1>   0.5690 
 24 C       -9.8990    -1.8160     0.7220 C.3   1 <1>   0.1400 
 25 O      -10.1030    -3.4860    -2.4910 O.2   1 <1>  -0.5700 
 26 N      -10.3970    -2.6520    -0.4100 N.am  1 <1>  -0.6600 
 27 C      -11.7760    -3.1890    -0.2440 C.3   1 <1>   0.0600 
 28 H       -2.3770    -1.4190    -0.9160 H     1 <1>   0.1500 
 29 H       -3.6280     2.8110     1.2450 H     1 <1>   0.1500 
 30 H       -4.7350    -0.9120    -0.5310 H     1 <1>   0.1500 
 31 H        0.6750     3.3850     1.2430 H     1 <1>   0.0800 
 32 H        0.4630     2.4160    -0.2100 H     1 <1>   0.0800 
 33 H        0.5970     1.6320     1.3750 H     1 <1>   0.0800 
 34 H       -9.9120     0.7770    -1.3040 H     1 <1>   0.0800 
 35 H       -8.9820     2.2570    -1.4090 H     1 <1>   0.0800 
 36 H      -10.6520     2.3080    -0.8980 H     1 <1>   0.0800 
 37 H       -9.8620     2.0650     2.5450 H     1 <1>   0.0800 
 38 H      -11.1890     2.0310     1.4090 H     1 <1>   0.0800 
 39 H      -10.0420     3.3600     1.3800 H     1 <1>   0.0800 
 40 H       -7.5640    -3.0350    -1.7630 H     1 <1>   0.0800 
 41 H       -8.2440    -1.7240    -2.6730 H     1 <1>   0.0800 
 42 H       -8.0810    -0.9600     1.4730 H     1 <1>   0.0800 
 43 H       -7.9310    -2.6220     0.9970 H     1 <1>   0.0800 
 44 H      -10.3470    -0.8400     0.6570 H     1 <1>   0.0800 
 45 H      -10.2060    -2.2570     1.6540 H     1 <1>   0.0800 
 46 H      -12.0790    -3.7410    -1.1180 H     1 <1>   0.0800 
 47 H      -12.4670    -2.3790    -0.0950 H     1 <1>   0.0800 
 48 H      -11.8100    -3.8490     0.6050 H     1 <1>   0.0800 
@<TRIPOS>BOND
  1   1   2  1   
  2   2   3  ar  
  3   2   4  ar  
  4   3   5  1   
  5   3   6  ar  
  6   4   7  ar  
  7   4  28  1   
  8   5   8  1   
  9   6   9  ar  
 10   6  29  1   
 11   7   9  ar  
 12   7  30  1   
 13   8  31  1   
 14   8  32  1   
 15   8  33  1   
 16   9  10  1   
 17  10  11  1   
 18  10  12  2   
 19  11  13  1   
 20  12  14  1   
 21  12  15  1   
 22  13  14  2   
 23  14  16  1   
 24  15  17  2   
 25  15  18  am  
 26  16  19  1   
 27  16  20  1   
 28  18  21  1   
 29  18  22  1   
 30  19  34  1   
 31  19  35  1   
 32  19  36  1   
 33  20  37  1   
 34  20  38  1   
 35  20  39  1   
 36  21  23  1   
 37  21  40  1   
 38  21  41  1   
 39  22  24  1   
 40  22  42  1   
 41  22  43  1   
 42  23  25  2   
 43  23  26  am  
 44  24  26  1   
 45  24  44  1   
 46  24  45  1   
 47  26  27  1   
 48  27  46  1   
 49  27  47  1   
 50  27  48  1   
@<TRIPOS>SUBSTRUCTURE
  1 ****  12 GROUP 4 **** **** 0

# MOE 2024.06 (io_trps.svl 2023.06)
