@<TRIPOS>MOLECULE
NONAME
54 56 1 0 0 
SMALL
USER_CHARGES


@<TRIPOS>ATOM
  1 F       -1.7240     0.2690     0.1310 F     1 <1>  -0.1900 
  2 C       -2.9420    -0.1960     0.1280 C.ar  1 <1>   0.1900 
  3 C       -3.9660     0.6040     0.5920 C.ar  1 <1>  -0.1500 
  4 C       -3.1690    -1.4750    -0.3410 C.ar  1 <1>  -0.1500 
  5 C       -5.2550     0.1000     0.5860 C.ar  1 <1>  -0.1500 
  6 C       -4.4650    -1.9630    -0.3410 C.ar  1 <1>  -0.1500 
  7 C       -5.5370    -1.1930     0.1290 C.ar  1 <1>   0.0860 
  8 C       -6.8990    -1.6990     0.1460 C.2   1 <1>   0.5440 
  9 O       -7.8460    -0.9390     0.0720 O.2   1 <1>  -0.5700 
 10 N       -7.1530    -3.0400     0.2520 N.am  1 <1>  -0.7300 
 11 C       -8.5120    -3.6230     0.3540 C.3   1 <1>   0.1400 
 12 C       -9.1050    -3.7950    -1.0430 C.3   1 <1>  -0.0990 
 13 C      -10.5840    -4.1090    -0.9440 C.2   1 <1>   0.5690 
 14 O      -10.9040    -5.2630    -1.1010 O.2   1 <1>  -0.5700 
 15 N      -11.5090    -3.1300    -0.6710 N.am  1 <1>  -0.6600 
 16 C      -11.1710    -1.6810    -0.4750 C.3   1 <1>   0.1400 
 17 C      -12.9490    -3.4990    -0.5250 C.3   1 <1>   0.1400 
 18 C      -12.3700    -0.8100    -0.8500 C.3   1 <1>  -0.1600 
 19 C      -13.6370    -2.5740     0.4820 C.3   1 <1>  -0.1600 
 20 C      -13.5870    -1.0850     0.0580 C.3   1 <1>   0.2800 
 21 O      -13.3540    -0.3290     1.2200 O.3   1 <1>  -0.5600 
 22 C      -14.8960    -0.6080    -0.6350 C.3   1 <1>  -0.1600 
 23 C      -14.4430    -0.1150     2.0700 C.3   1 <1>   0.1200 
 24 C      -15.3630     0.7670    -0.1500 C.3   1 <1>   0.2800 
 25 C      -15.5070     0.7530     1.3760 C.3   1 <1>  -0.1600 
 26 O      -14.3830     1.6740    -0.4540 O.3   1 <1>  -0.6800 
 27 C      -16.6330     1.2400    -0.8510 C.3   1 <1>  -0.2400 
 28 H       -3.7560     1.5980     0.9470 H     1 <1>   0.1500 
 29 H       -2.3460    -2.0670    -0.7010 H     1 <1>   0.1500 
 30 H       -6.0670     0.7130     0.9420 H     1 <1>   0.1500 
 31 H       -4.6460    -2.9530    -0.7180 H     1 <1>   0.1500 
 32 H       -6.3790    -3.6910     0.3880 H     1 <1>   0.3700 
 33 H       -9.1310    -2.9650     0.9390 H     1 <1>   0.0800 
 34 H       -8.4690    -4.5740     0.8570 H     1 <1>   0.0800 
 35 H       -8.6100    -4.6090    -1.5400 H     1 <1>   0.0800 
 36 H       -8.9600    -2.9120    -1.6330 H     1 <1>   0.0800 
 37 H      -10.3330    -1.3950    -1.0850 H     1 <1>   0.0800 
 38 H      -10.9100    -1.5080     0.5560 H     1 <1>   0.0800 
 39 H      -13.0340    -4.5170    -0.1850 H     1 <1>   0.0800 
 40 H      -13.4300    -3.4260    -1.4850 H     1 <1>   0.0800 
 41 H      -12.6060    -1.0180    -1.8770 H     1 <1>   0.0800 
 42 H      -12.0930     0.2260    -0.7930 H     1 <1>   0.0800 
 43 H      -13.1280    -2.6990     1.4220 H     1 <1>   0.0800 
 44 H      -14.6480    -2.9050     0.6220 H     1 <1>   0.0800 
 45 H      -15.6870    -1.3050    -0.4310 H     1 <1>   0.0800 
 46 H      -14.7860    -0.5990    -1.7040 H     1 <1>   0.0800 
 47 H      -14.0790     0.3750     2.9550 H     1 <1>   0.0800 
 48 H      -14.8510    -1.0710     2.3500 H     1 <1>   0.0800 
 49 H      -15.4700     1.7580     1.7570 H     1 <1>   0.0800 
 50 H      -16.4700     0.3560     1.6410 H     1 <1>   0.0800 
 51 H      -13.5900     1.4060     0.0590 H     1 <1>   0.4000 
 52 H      -17.4430     0.5620    -0.6560 H     1 <1>   0.0800 
 53 H      -16.4740     1.2870    -1.9130 H     1 <1>   0.0800 
 54 H      -16.9110     2.2160    -0.4940 H     1 <1>   0.0800 
@<TRIPOS>BOND
  1   1   2  1   
  2   2   3  ar  
  3   2   4  ar  
  4   3   5  ar  
  5   3  28  1   
  6   4   6  ar  
  7   4  29  1   
  8   5   7  ar  
  9   5  30  1   
 10   6   7  ar  
 11   6  31  1   
 12   7   8  1   
 13   8   9  2   
 14   8  10  am  
 15  10  11  1   
 16  10  32  1   
 17  11  12  1   
 18  11  33  1   
 19  11  34  1   
 20  12  13  1   
 21  12  35  1   
 22  12  36  1   
 23  13  14  2   
 24  13  15  am  
 25  15  16  1   
 26  15  17  1   
 27  16  18  1   
 28  16  37  1   
 29  16  38  1   
 30  17  19  1   
 31  17  39  1   
 32  17  40  1   
 33  18  20  1   
 34  18  41  1   
 35  18  42  1   
 36  19  20  1   
 37  19  43  1   
 38  19  44  1   
 39  20  21  1   
 40  20  22  1   
 41  21  23  1   
 42  22  24  1   
 43  22  45  1   
 44  22  46  1   
 45  23  25  1   
 46  23  47  1   
 47  23  48  1   
 48  24  25  1   
 49  24  26  1   
 50  24  27  1   
 51  25  49  1   
 52  25  50  1   
 53  26  51  1   
 54  27  52  1   
 55  27  53  1   
 56  27  54  1   
@<TRIPOS>SUBSTRUCTURE
  1 ****  16 GROUP 4 **** **** 0

# MOE 2024.06 (io_trps.svl 2023.06)
