@<TRIPOS>MOLECULE
NONAME
40 42 1 0 0 
SMALL
USER_CHARGES


@<TRIPOS>ATOM
  1 CL      -0.4330     0.3920     0.6340 Cl    1 <1>  -0.1770 
  2 C       -1.9680     1.1390     0.2320 C.ar  1 <1>   0.1770 
  3 C       -2.6000     2.0290     1.0930 C.ar  1 <1>   0.1660 
  4 C       -2.5400     0.8220    -0.9820 C.ar  1 <1>  -0.1500 
  5 N       -3.7520     2.6220     0.8140 N.ar  1 <1>  -0.6200 
  6 C       -2.0000     2.3990     2.4380 C.3   1 <1>  -0.0960 
  7 C       -3.7370     1.4350    -1.2680 C.ar  1 <1>  -0.1500 
  8 C       -4.3060     2.3220    -0.3570 C.ar  1 <1>   0.4100 
  9 N       -5.5010     2.9350    -0.6720 N.pl3 1 <1>  -0.8380 
 10 C       -6.4530     3.2180     0.4420 C.3   1 <1>   0.2090 
 11 C       -5.4440     4.0310    -1.6690 C.3   1 <1>   0.2090 
 12 C       -7.8930     3.4200    -0.0910 C.3   1 <1>   0.0000 
 13 C       -6.8400     4.2610    -2.2590 C.3   1 <1>  -0.1600 
 14 C       -8.8930     3.7300     1.0390 C.3   1 <1>   0.2000 
 15 C       -7.8880     4.5310    -1.1640 C.3   1 <1>  -0.1600 
 16 C       -8.4480     2.0900    -0.6330 C.3   1 <1>  -0.1600 
 17 O       -8.3760     4.5640     2.0160 O.3   1 <1>  -0.6800 
 18 C       -9.2950     2.3870     1.6490 C.3   1 <1>  -0.1600 
 19 C       -8.9610     1.3260     0.5920 C.3   1 <1>  -0.1600 
 20 H       -2.0680     0.1330    -1.6580 H     1 <1>   0.1500 
 21 H       -1.3460     1.6310     2.8060 H     1 <1>   0.0800 
 22 H       -2.7850     2.5420     3.1580 H     1 <1>   0.0800 
 23 H       -1.4490     3.3160     2.3430 H     1 <1>   0.0800 
 24 H       -4.2550     1.2410    -2.1880 H     1 <1>   0.1500 
 25 H       -6.4260     2.4050     1.1460 H     1 <1>   0.0800 
 26 H       -6.1200     4.1080     0.9490 H     1 <1>   0.0800 
 27 H       -5.0960     4.9280    -1.1850 H     1 <1>   0.0800 
 28 H       -4.7520     3.7790    -2.4540 H     1 <1>   0.0800 
 29 H       -6.8020     5.0980    -2.9340 H     1 <1>   0.0800 
 30 H       -7.1200     3.3940    -2.8300 H     1 <1>   0.0800 
 31 H       -9.7660     4.2090     0.6270 H     1 <1>   0.0800 
 32 H       -8.8630     4.6250    -1.6110 H     1 <1>   0.0800 
 33 H       -7.6580     5.4690    -0.6880 H     1 <1>   0.0800 
 34 H       -9.2770     2.2850    -1.2910 H     1 <1>   0.0800 
 35 H       -7.7110     1.5230    -1.1750 H     1 <1>   0.0800 
 36 H       -7.6620     4.1100     2.5010 H     1 <1>   0.4000 
 37 H       -8.7440     2.1830     2.5510 H     1 <1>   0.0800 
 38 H      -10.3480     2.3850     1.8680 H     1 <1>   0.0800 
 39 H       -8.1840     0.6780     0.9630 H     1 <1>   0.0800 
 40 H       -9.8200     0.7270     0.3430 H     1 <1>   0.0800 
@<TRIPOS>BOND
  1   1   2  1   
  2   2   3  ar  
  3   2   4  ar  
  4   3   5  ar  
  5   3   6  1   
  6   4   7  ar  
  7   4  20  1   
  8   5   8  ar  
  9   6  21  1   
 10   6  22  1   
 11   6  23  1   
 12   7   8  ar  
 13   7  24  1   
 14   8   9  1   
 15   9  10  1   
 16   9  11  1   
 17  10  12  1   
 18  10  25  1   
 19  10  26  1   
 20  11  13  1   
 21  11  27  1   
 22  11  28  1   
 23  12  14  1   
 24  12  15  1   
 25  12  16  1   
 26  13  15  1   
 27  13  29  1   
 28  13  30  1   
 29  14  17  1   
 30  14  18  1   
 31  14  31  1   
 32  15  32  1   
 33  15  33  1   
 34  16  19  1   
 35  16  34  1   
 36  16  35  1   
 37  17  36  1   
 38  18  19  1   
 39  18  37  1   
 40  18  38  1   
 41  19  39  1   
 42  19  40  1   
@<TRIPOS>SUBSTRUCTURE
  1 ****   9 GROUP 4 **** **** 0

# MOE 2024.06 (io_trps.svl 2023.06)
