@<TRIPOS>MOLECULE
NONAME
50 53 1 0 0 
SMALL
USER_CHARGES


@<TRIPOS>ATOM
  1 F       -2.2580    -2.3920     3.5660 F     1 <1>  -0.1900 
  2 C       -2.2160    -3.1400     2.4910 C.ar  1 <1>   0.1900 
  3 C       -3.2210    -3.0300     1.5630 C.ar  1 <1>  -0.1500 
  4 C       -1.1380    -4.0170     2.3490 C.ar  1 <1>  -0.1500 
  5 C       -3.1500    -3.8360     0.4210 C.ar  1 <1>   0.0000 
  6 C       -1.0690    -4.8170     1.2310 C.ar  1 <1>  -0.1500 
  7 C       -2.0850    -4.7210     0.2720 C.ar  1 <1>  -0.1520 
  8 C       -3.9690    -3.9950    -0.7200 C.2   1 <1>  -0.1810 
  9 N       -2.2590    -5.3990    -0.9060 N.pl3 1 <1>   0.0330 
 10 C       -3.4050    -4.9510    -1.5030 C.2   1 <1>  -0.3320 
 11 C       -5.2360    -3.1770    -0.9510 C.3   1 <1>   0.0820 
 12 C       -3.8630    -5.5290    -2.8310 C.3   1 <1>  -0.0600 
 13 C       -6.3930    -3.4480     0.0120 C.2   1 <1>   0.5690 
 14 O       -6.3300    -4.4010     0.7550 O.2   1 <1>  -0.5700 
 15 N       -7.4950    -2.6220     0.0160 N.am  1 <1>  -0.6600 
 16 C       -8.6280    -2.8610     0.9620 C.3   1 <1>   0.1400 
 17 C       -7.7530    -1.5060    -0.9360 C.3   1 <1>   0.1400 
 18 C       -9.9340    -3.2050     0.2050 C.3   1 <1>   0.0000 
 19 C       -9.0210    -1.8080    -1.7400 C.3   1 <1>  -0.1600 
 20 C      -11.0600    -3.4050     1.2400 C.3   1 <1>   0.2000 
 21 C      -10.2260    -2.0840    -0.8240 C.3   1 <1>  -0.1600 
 22 C       -9.8260    -4.5960    -0.4530 C.3   1 <1>  -0.1600 
 23 O      -12.2980    -3.3560     0.6240 O.3   1 <1>  -0.6800 
 24 C      -10.8750    -4.8300     1.7620 C.3   1 <1>  -0.1600 
 25 C      -10.1940    -5.6160     0.6330 C.3   1 <1>  -0.1600 
 26 H       -4.0440    -2.3570     1.7050 H     1 <1>   0.1500 
 27 H       -0.3850    -4.0530     3.1150 H     1 <1>   0.1500 
 28 H       -0.2570    -5.5070     1.0900 H     1 <1>   0.1500 
 29 H       -1.6370    -6.1300    -1.2610 H     1 <1>   0.2700 
 30 H       -5.5920    -3.3450    -1.9470 H     1 <1>   0.0800 
 31 H       -4.9640    -2.1420    -0.8690 H     1 <1>   0.0800 
 32 H       -4.8050    -5.1100    -3.1310 H     1 <1>   0.0800 
 33 H       -3.9820    -6.5940    -2.7440 H     1 <1>   0.0800 
 34 H       -3.1360    -5.3200    -3.5950 H     1 <1>   0.0800 
 35 H       -8.3810    -3.6510     1.6490 H     1 <1>   0.0800 
 36 H       -8.7770    -1.9690     1.5440 H     1 <1>   0.0800 
 37 H       -7.8860    -0.5960    -0.3760 H     1 <1>   0.0800 
 38 H       -6.9300    -1.3620    -1.6110 H     1 <1>   0.0800 
 39 H       -9.2430    -0.9700    -2.3770 H     1 <1>   0.0800 
 40 H       -8.8400    -2.6590    -2.3730 H     1 <1>   0.0800 
 41 H      -11.0500    -2.6670     2.0250 H     1 <1>   0.0800 
 42 H      -11.0760    -2.3410    -1.4320 H     1 <1>   0.0800 
 43 H      -10.4740    -1.1820    -0.2920 H     1 <1>   0.0800 
 44 H      -10.5360    -4.6740    -1.2570 H     1 <1>   0.0800 
 45 H       -8.8460    -4.7900    -0.8530 H     1 <1>   0.0800 
 46 H      -12.3390    -4.0620    -0.0480 H     1 <1>   0.4000 
 47 H      -10.2170    -4.8050     2.6130 H     1 <1>   0.0800 
 48 H      -11.8070    -5.2730     2.0710 H     1 <1>   0.0800 
 49 H       -9.3030    -6.0930     1.0070 H     1 <1>   0.0800 
 50 H      -10.8490    -6.3720     0.2350 H     1 <1>   0.0800 
@<TRIPOS>BOND
  1   1   2  1   
  2   2   3  ar  
  3   2   4  ar  
  4   3   5  ar  
  5   3  26  1   
  6   4   6  ar  
  7   4  27  1   
  8   5   7  ar  
  9   5   8  1   
 10   6   7  ar  
 11   6  28  1   
 12   7   9  1   
 13   8  10  2   
 14   8  11  1   
 15   9  10  1   
 16   9  29  1   
 17  10  12  1   
 18  11  13  1   
 19  11  30  1   
 20  11  31  1   
 21  12  32  1   
 22  12  33  1   
 23  12  34  1   
 24  13  14  2   
 25  13  15  am  
 26  15  16  1   
 27  15  17  1   
 28  16  18  1   
 29  16  35  1   
 30  16  36  1   
 31  17  19  1   
 32  17  37  1   
 33  17  38  1   
 34  18  20  1   
 35  18  21  1   
 36  18  22  1   
 37  19  21  1   
 38  19  39  1   
 39  19  40  1   
 40  20  23  1   
 41  20  24  1   
 42  20  41  1   
 43  21  42  1   
 44  21  43  1   
 45  22  25  1   
 46  22  44  1   
 47  22  45  1   
 48  23  46  1   
 49  24  25  1   
 50  24  47  1   
 51  24  48  1   
 52  25  49  1   
 53  25  50  1   
@<TRIPOS>SUBSTRUCTURE
  1 ****  13 GROUP 4 **** **** 0

# MOE 2024.06 (io_trps.svl 2023.06)
