@<TRIPOS>MOLECULE
NONAME
49 51 1 0 0 
SMALL
USER_CHARGES


@<TRIPOS>ATOM
  1 O       -0.7870     0.1890    -0.2220 O.2   1 <1>  -0.5700 
  2 C       -1.6380     0.7980     0.4020 C.2   1 <1>   0.6160 
  3 N       -2.7700     0.1190     0.7950 N.am  1 <1>  -0.6600 
  4 C       -1.4460     2.2190     0.6760 C.2   1 <1>   0.1140 
  5 C       -2.7880    -1.3760     0.8780 C.3   1 <1>   0.1400 
  6 C       -4.1390     0.6980     0.6450 C.3   1 <1>   0.1400 
  7 N       -0.6090     2.9490    -0.1590 N.pl3 1 <1>  -0.6000 
  8 C       -2.0300     2.8910     1.7150 C.2   1 <1>  -0.1360 
  9 C       -3.6250    -1.9830    -0.2620 C.3   1 <1>   0.3440 
 10 C       -4.9130    -0.0160    -0.4880 C.3   1 <1>   0.2000 
 11 C       -0.3720     4.2900     0.0000 C.2   1 <1>  -0.0380 
 12 C       -1.8300     4.2750     1.9200 C.2   1 <1>   0.5410 
 13 O       -4.9040    -1.4010    -0.2780 O.3   1 <1>  -0.5600 
 14 C       -3.7540    -3.4930    -0.0850 C.ar  1 <1>  -0.1430 
 15 C       -6.3840     0.4360    -0.6350 C.3   1 <1>  -0.0800 
 16 C       -0.9710     4.9550     1.0210 C.2   1 <1>  -0.1360 
 17 C        0.5650     4.9430    -0.9940 C.3   1 <1>  -0.1020 
 18 O       -2.3890     4.8640     2.8400 O.2   1 <1>  -0.5700 
 19 C       -2.8290    -4.3340    -0.6890 C.ar  1 <1>  -0.1500 
 20 C       -4.7700    -4.0490     0.6810 C.ar  1 <1>  -0.1500 
 21 C       -6.4940     1.9220    -1.0130 C.3   1 <1>  -0.2400 
 22 C       -7.2450     0.1550     0.6090 C.3   1 <1>  -0.2400 
 23 C       -2.9180    -5.7070    -0.5290 C.ar  1 <1>  -0.1500 
 24 C       -4.8600    -5.4210     0.8420 C.ar  1 <1>  -0.1500 
 25 C       -3.9330    -6.2510     0.2370 C.ar  1 <1>  -0.1500 
 26 H       -1.7880    -1.7700     0.8310 H     1 <1>   0.0800 
 27 H       -3.2120    -1.6740     1.8200 H     1 <1>   0.0800 
 28 H       -4.6690     0.5870     1.5750 H     1 <1>   0.0800 
 29 H       -4.0780     1.7460     0.4170 H     1 <1>   0.0800 
 30 H       -0.1220     2.4100    -0.8920 H     1 <1>   0.4000 
 31 H       -2.6640     2.3940     2.4230 H     1 <1>   0.1500 
 32 H       -3.1530    -1.7750    -1.2060 H     1 <1>   0.0800 
 33 H       -4.4100     0.1730    -1.4220 H     1 <1>   0.0800 
 34 H       -6.7980    -0.1300    -1.4530 H     1 <1>   0.0800 
 35 H       -0.8260     6.0030     1.1950 H     1 <1>   0.1500 
 36 H        1.5330     4.4760    -0.9480 H     1 <1>   0.0800 
 37 H        0.6800     5.9900    -0.7750 H     1 <1>   0.0800 
 38 H        0.1740     4.8420    -1.9900 H     1 <1>   0.0800 
 39 H       -2.0330    -3.9260    -1.2870 H     1 <1>   0.1500 
 40 H       -5.4980    -3.4120     1.1520 H     1 <1>   0.1500 
 41 H       -6.1680     2.5560    -0.2080 H     1 <1>   0.0800 
 42 H       -7.5170     2.1690    -1.2380 H     1 <1>   0.0800 
 43 H       -5.9010     2.1330    -1.8850 H     1 <1>   0.0800 
 44 H       -6.9290     0.7490     1.4480 H     1 <1>   0.0800 
 45 H       -7.1820    -0.8850     0.8790 H     1 <1>   0.0800 
 46 H       -8.2760     0.3830     0.4040 H     1 <1>   0.0800 
 47 H       -2.1970    -6.3510    -1.0010 H     1 <1>   0.1500 
 48 H       -5.6520    -5.8410     1.4360 H     1 <1>   0.1500 
 49 H       -4.0020    -7.3180     0.3620 H     1 <1>   0.1500 
@<TRIPOS>BOND
  1   1   2  2   
  2   2   3  am  
  3   2   4  1   
  4   3   5  1   
  5   3   6  1   
  6   4   7  1   
  7   4   8  2   
  8   5   9  1   
  9   5  26  1   
 10   5  27  1   
 11   6  10  1   
 12   6  28  1   
 13   6  29  1   
 14   7  11  1   
 15   7  30  1   
 16   8  12  1   
 17   8  31  1   
 18   9  13  1   
 19   9  14  1   
 20   9  32  1   
 21  10  13  1   
 22  10  15  1   
 23  10  33  1   
 24  11  16  2   
 25  11  17  1   
 26  12  16  1   
 27  12  18  2   
 28  14  19  ar  
 29  14  20  ar  
 30  15  21  1   
 31  15  22  1   
 32  15  34  1   
 33  16  35  1   
 34  17  36  1   
 35  17  37  1   
 36  17  38  1   
 37  19  23  ar  
 38  19  39  1   
 39  20  24  ar  
 40  20  40  1   
 41  21  41  1   
 42  21  42  1   
 43  21  43  1   
 44  22  44  1   
 45  22  45  1   
 46  22  46  1   
 47  23  25  ar  
 48  23  47  1   
 49  24  25  ar  
 50  24  48  1   
 51  25  49  1   
@<TRIPOS>SUBSTRUCTURE
  1 ****   3 GROUP 4 **** **** 0

# MOE 2024.06 (io_trps.svl 2023.06)
