@<TRIPOS>MOLECULE
NONAME
44 46 1 0 0 
SMALL
USER_CHARGES


@<TRIPOS>ATOM
  1 O       -1.3750     1.3250     2.5080 O.3   1 <1>  -0.5600 
  2 C       -0.2100     1.4520     1.7410 C.3   1 <1>   0.1200 
  3 C       -2.5020     1.7060     1.7740 C.3   1 <1>   0.1200 
  4 C       -0.5900     2.2330     0.4850 C.3   1 <1>   0.2890 
  5 C       -2.0540     1.8700     0.3190 C.3   1 <1>  -0.0800 
  6 N       -0.4850     3.6890     0.7550 N.pl3 1 <1>  -0.8690 
  7 C       -2.2280     0.5740    -0.4960 C.3   1 <1>  -0.0170 
  8 C        0.3440     4.5640     0.0990 C.ar  1 <1>   0.4100 
  9 C       -3.6960     0.2080    -0.6580 C.ar  1 <1>  -0.1430 
 10 N        0.9460     4.1250    -0.9860 N.ar  1 <1>  -0.6200 
 11 C        0.5390     5.8600     0.5650 C.ar  1 <1>  -0.1430 
 12 C       -4.2760    -0.8270     0.0470 C.ar  1 <1>  -0.1500 
 13 C       -4.5250     0.8950    -1.5220 C.ar  1 <1>  -0.1500 
 14 C        1.7390     4.9800    -1.5950 C.ar  1 <1>   0.4770 
 15 C        1.3940     6.6490    -0.1660 C.ar  1 <1>   0.1600 
 16 C       -0.1810     6.3430     1.8290 C.3   1 <1>  -0.0170 
 17 C       -5.6180    -1.1130    -0.1370 C.ar  1 <1>   0.1600 
 18 C       -5.8550     0.5270    -1.6330 C.ar  1 <1>   0.1600 
 19 N        2.0060     6.2240    -1.2520 N.ar  1 <1>  -0.6200 
 20 C        2.4290     4.4830    -2.8420 C.3   1 <1>  -0.0970 
 21 C        0.0710     7.8070     2.2100 C.3   1 <1>  -0.2400 
 22 N       -6.4230    -0.4600    -0.9600 N.ar  1 <1>  -0.6200 
 23 H        0.5520     1.9470     2.3160 H     1 <1>   0.0800 
 24 H        0.1170     0.4600     1.4830 H     1 <1>   0.0800 
 25 H       -3.2740     0.9670     1.9030 H     1 <1>   0.0800 
 26 H       -2.8420     2.6470     2.1700 H     1 <1>   0.0800 
 27 H        0.0110     1.9460    -0.3610 H     1 <1>   0.0800 
 28 H       -2.5950     2.6630    -0.1660 H     1 <1>   0.0800 
 29 H       -0.8110     3.9480     1.6870 H     1 <1>   0.4000 
 30 H       -1.7060    -0.2380    -0.0210 H     1 <1>   0.0800 
 31 H       -1.7980     0.7090    -1.4730 H     1 <1>   0.0800 
 32 H       -3.6990    -1.4120     0.7400 H     1 <1>   0.1500 
 33 H       -4.1480     1.7130    -2.1100 H     1 <1>   0.1500 
 34 H        1.5990     7.6620     0.1280 H     1 <1>   0.1500 
 35 H       -1.2400     6.2090     1.6890 H     1 <1>   0.0800 
 36 H        0.1210     5.7200     2.6540 H     1 <1>   0.0800 
 37 H       -6.0540    -1.9240     0.4230 H     1 <1>   0.1500 
 38 H       -6.4860     1.0750    -2.3120 H     1 <1>   0.1500 
 39 H        3.4650     4.7650    -2.8190 H     1 <1>   0.0800 
 40 H        1.9630     4.9220    -3.7030 H     1 <1>   0.0800 
 41 H        2.3600     3.4130    -2.9100 H     1 <1>   0.0800 
 42 H       -0.2470     8.4630     1.4190 H     1 <1>   0.0800 
 43 H        1.1160     7.9710     2.4110 H     1 <1>   0.0800 
 44 H       -0.4850     8.0530     3.0970 H     1 <1>   0.0800 
@<TRIPOS>BOND
  1   1   2  1   
  2   1   3  1   
  3   2   4  1   
  4   2  23  1   
  5   2  24  1   
  6   3   5  1   
  7   3  25  1   
  8   3  26  1   
  9   4   5  1   
 10   4   6  1   
 11   4  27  1   
 12   5   7  1   
 13   5  28  1   
 14   6   8  1   
 15   6  29  1   
 16   7   9  1   
 17   7  30  1   
 18   7  31  1   
 19   8  10  ar  
 20   8  11  ar  
 21   9  12  ar  
 22   9  13  ar  
 23  10  14  ar  
 24  11  15  ar  
 25  11  16  1   
 26  12  17  ar  
 27  12  32  1   
 28  13  18  ar  
 29  13  33  1   
 30  14  19  ar  
 31  14  20  1   
 32  15  19  ar  
 33  15  34  1   
 34  16  21  1   
 35  16  35  1   
 36  16  36  1   
 37  17  22  ar  
 38  17  37  1   
 39  18  22  ar  
 40  18  38  1   
 41  20  39  1   
 42  20  40  1   
 43  20  41  1   
 44  21  42  1   
 45  21  43  1   
 46  21  44  1   
@<TRIPOS>SUBSTRUCTURE
  1 ****   4 GROUP 4 **** **** 0

# MOE 2024.06 (io_trps.svl 2023.06)
