@<TRIPOS>MOLECULE
NONAME
50 53 1 0 0 
SMALL
USER_CHARGES


@<TRIPOS>ATOM
  1 O        0.2940    -0.1590     1.4890 O.2   1 <1>  -0.5700 
  2 C       -0.5140     0.2440     0.6830 C.2   1 <1>   0.5690 
  3 N       -1.8580    -0.0140     0.8140 N.am  1 <1>  -0.6600 
  4 C        0.0350     1.0420    -0.4930 C.3   1 <1>   0.0440 
  5 C       -2.3820    -0.8430     1.9370 C.3   1 <1>   0.1400 
  6 C       -2.9330     0.5070    -0.0760 C.3   1 <1>   0.1400 
  7 C       -0.3040     2.5290    -0.4220 C.ar  1 <1>  -0.1440 
  8 C       -3.1540    -2.0380     1.3710 C.3   1 <1>  -0.1600 
  9 C       -3.7010    -0.6700    -0.6820 C.3   1 <1>  -0.1600 
 10 C       -0.7970     3.2000    -1.5330 C.ar  1 <1>   0.1600 
 11 C       -0.1220     3.2370     0.7500 C.ar  1 <1>  -0.1500 
 12 C       -4.2710    -1.6040     0.4050 C.3   1 <1>   0.4240 
 13 N       -1.1270     4.4810    -1.5650 N.ar  1 <1>  -0.6200 
 14 C       -0.4550     4.5740     0.7350 C.ar  1 <1>  -0.1500 
 15 O       -5.1230    -0.8170     1.2100 O.3   1 <1>  -0.5600 
 16 C       -5.0210    -2.8290    -0.1950 C.ar  1 <1>  -0.1430 
 17 C       -0.9470     5.1370    -0.4300 C.ar  1 <1>   0.1600 
 18 C       -6.4330    -0.6300     0.7860 C.3   1 <1>   0.1200 
 19 C       -4.3720    -3.7920    -0.9800 C.ar  1 <1>   0.0820 
 20 C       -6.3860    -2.9920     0.0430 C.ar  1 <1>  -0.1430 
 21 C       -7.1470    -1.9690     0.8620 C.3   1 <1>  -0.0170 
 22 O       -3.0470    -3.6460    -1.2450 O.3   1 <1>  -0.3630 
 23 C       -5.0810    -4.8800    -1.4860 C.ar  1 <1>  -0.1500 
 24 C       -7.0790    -4.0790    -0.4610 C.ar  1 <1>  -0.1500 
 25 C       -2.2650    -4.6800    -1.8020 C.3   1 <1>   0.0400 
 26 C       -6.4280    -5.0250    -1.2250 C.ar  1 <1>  -0.1500 
 27 H       -0.3370     0.6080    -1.4020 H     1 <1>   0.0800 
 28 H        1.1040     0.9380    -0.5050 H     1 <1>   0.0800 
 29 H       -3.0310    -0.2380     2.5470 H     1 <1>   0.0800 
 30 H       -1.5790    -1.1980     2.5590 H     1 <1>   0.0800 
 31 H       -2.5340     1.1150    -0.8650 H     1 <1>   0.0800 
 32 H       -3.6000     1.1210     0.5060 H     1 <1>   0.0800 
 33 H       -3.5880    -2.6050     2.1740 H     1 <1>   0.0800 
 34 H       -2.4460    -2.6750     0.8800 H     1 <1>   0.0800 
 35 H       -3.0250    -1.2080    -1.3150 H     1 <1>   0.0800 
 36 H       -4.4930    -0.3110    -1.3090 H     1 <1>   0.0800 
 37 H       -0.9320     2.6540    -2.4510 H     1 <1>   0.1500 
 38 H        0.2630     2.7670     1.6410 H     1 <1>   0.1500 
 39 H       -0.3360     5.1750     1.6180 H     1 <1>   0.1500 
 40 H       -1.2040     6.1830    -0.4280 H     1 <1>   0.1500 
 41 H       -6.4340    -0.2410    -0.2170 H     1 <1>   0.0800 
 42 H       -6.8950     0.0840     1.4450 H     1 <1>   0.0800 
 43 H       -8.1480    -1.8570     0.4850 H     1 <1>   0.0800 
 44 H       -7.2030    -2.2910     1.8860 H     1 <1>   0.0800 
 45 H       -4.6050    -5.6280    -2.0910 H     1 <1>   0.1500 
 46 H       -8.1300    -4.1940    -0.2620 H     1 <1>   0.1500 
 47 H       -1.2390    -4.3580    -1.8020 H     1 <1>   0.0800 
 48 H       -2.5900    -4.8600    -2.8110 H     1 <1>   0.0800 
 49 H       -2.3700    -5.5630    -1.1970 H     1 <1>   0.0800 
 50 H       -6.9690    -5.8680    -1.6170 H     1 <1>   0.1500 
@<TRIPOS>BOND
  1   1   2  2   
  2   2   3  am  
  3   2   4  1   
  4   3   5  1   
  5   3   6  1   
  6   4   7  1   
  7   4  27  1   
  8   4  28  1   
  9   5   8  1   
 10   5  29  1   
 11   5  30  1   
 12   6   9  1   
 13   6  31  1   
 14   6  32  1   
 15   7  10  ar  
 16   7  11  ar  
 17   8  12  1   
 18   8  33  1   
 19   8  34  1   
 20   9  12  1   
 21   9  35  1   
 22   9  36  1   
 23  10  13  ar  
 24  10  37  1   
 25  11  14  ar  
 26  11  38  1   
 27  12  15  1   
 28  12  16  1   
 29  13  17  ar  
 30  14  17  ar  
 31  14  39  1   
 32  15  18  1   
 33  16  19  ar  
 34  16  20  ar  
 35  17  40  1   
 36  18  21  1   
 37  18  41  1   
 38  18  42  1   
 39  19  22  1   
 40  19  23  ar  
 41  20  21  1   
 42  20  24  ar  
 43  21  43  1   
 44  21  44  1   
 45  22  25  1   
 46  23  26  ar  
 47  23  45  1   
 48  24  26  ar  
 49  24  46  1   
 50  25  47  1   
 51  25  48  1   
 52  25  49  1   
 53  26  50  1   
@<TRIPOS>SUBSTRUCTURE
  1 ****   9 GROUP 4 **** **** 0

# MOE 2024.06 (io_trps.svl 2023.06)
