@<TRIPOS>MOLECULE
NONAME
56 58 1 0 0 
SMALL
USER_CHARGES


@<TRIPOS>ATOM
  1 CL       1.6650    -0.5760     2.2650 Cl    1 <1>  -0.1770 
  2 C        0.8930    -1.9800     1.5740 C.ar  1 <1>   0.1770 
  3 C        1.5740    -2.7360     0.6430 C.ar  1 <1>  -0.1500 
  4 C       -0.3900    -2.2990     1.9710 C.ar  1 <1>  -0.1500 
  5 C        0.9610    -3.8540     0.0850 C.ar  1 <1>   0.0830 
  6 C       -1.0130    -3.4130     1.4280 C.ar  1 <1>  -0.1440 
  7 O        1.5810    -4.6030    -0.8700 O.3   1 <1>  -0.3620 
  8 C       -0.3370    -4.2020     0.4980 C.ar  1 <1>   0.0830 
  9 C       -2.4280    -3.7650     1.8510 C.3   1 <1>   0.4870 
 10 C        2.8700    -4.2900    -1.3540 C.3   1 <1>   0.0400 
 11 O       -1.0140    -5.2870     0.0200 O.3   1 <1>  -0.3630 
 12 N       -3.2890    -3.7820     0.6460 N.4   1 <1>  -0.9590 
 13 C       -0.3530    -6.5310    -0.1050 C.3   1 <1>   0.1200 
 14 C       -4.6050    -4.4360     0.9090 C.3   1 <1>   0.3430 
 15 C       -3.4340    -2.4420     0.0160 C.3   1 <1>   0.3430 
 16 C       -1.4020    -7.6390    -0.0070 C.3   1 <1>  -0.1600 
 17 C       -5.4100    -4.6240    -0.3960 C.3   1 <1>   0.0000 
 18 C       -4.1950    -2.5760    -1.3050 C.3   1 <1>  -0.1600 
 19 C       -0.7530    -9.0250    -0.0860 C.3   1 <1>  -0.2400 
 20 C       -6.7810    -5.2510    -0.0810 C.3   1 <1>   0.2000 
 21 C       -5.5550    -3.2680    -1.1170 C.3   1 <1>  -0.1600 
 22 C       -4.7550    -5.6960    -1.2840 C.3   1 <1>  -0.1600 
 23 O       -7.2460    -4.8340     1.1550 O.3   1 <1>  -0.6800 
 24 C       -6.5860    -6.7700    -0.0810 C.3   1 <1>  -0.1600 
 25 C       -5.2010    -7.0300    -0.6850 C.3   1 <1>  -0.1600 
 26 H        2.5660    -2.4280     0.3730 H     1 <1>   0.1500 
 27 H       -0.8770    -1.6730     2.6980 H     1 <1>   0.1500 
 28 H       -2.7990    -3.0510     2.5670 H     1 <1>   0.0800 
 29 H       -2.4210    -4.7420     2.3080 H     1 <1>   0.0800 
 30 H        3.1330    -5.0190    -2.1010 H     1 <1>   0.0800 
 31 H        3.5730    -4.3360    -0.5410 H     1 <1>   0.0800 
 32 H        2.8520    -3.3100    -1.7950 H     1 <1>   0.0800 
 33 H       -2.7660    -4.3770    -0.0200 H     1 <1>   0.4500 
 34 H        0.1390    -6.5640    -1.0610 H     1 <1>   0.0800 
 35 H        0.3740    -6.6200     0.6850 H     1 <1>   0.0800 
 36 H       -4.4580    -5.3970     1.3720 H     1 <1>   0.0800 
 37 H       -5.1790    -3.8250     1.5870 H     1 <1>   0.0800 
 38 H       -3.9760    -1.7850     0.6780 H     1 <1>   0.0800 
 39 H       -2.4630    -2.0120    -0.1720 H     1 <1>   0.0800 
 40 H       -1.9290    -7.5540     0.9270 H     1 <1>   0.0800 
 41 H       -2.1020    -7.5380    -0.8180 H     1 <1>   0.0800 
 42 H       -4.3500    -1.5950    -1.7180 H     1 <1>   0.0800 
 43 H       -3.5910    -3.1250    -2.0070 H     1 <1>   0.0800 
 44 H       -0.0560    -9.1630     0.7210 H     1 <1>   0.0800 
 45 H       -0.2290    -9.1430    -1.0190 H     1 <1>   0.0800 
 46 H       -1.5060    -9.7900    -0.0200 H     1 <1>   0.0800 
 47 H       -7.5040    -4.9730    -0.8310 H     1 <1>   0.0800 
 48 H       -6.0290    -3.4020    -2.0750 H     1 <1>   0.0800 
 49 H       -6.1940    -2.6280    -0.5300 H     1 <1>   0.0800 
 50 H       -5.1480    -5.6250    -2.2850 H     1 <1>   0.0800 
 51 H       -3.6830    -5.6210    -1.3390 H     1 <1>   0.0800 
 52 H       -8.1370    -5.2070     1.3210 H     1 <1>   0.4000 
 53 H       -6.6420    -7.1860     0.9110 H     1 <1>   0.0800 
 54 H       -7.3420    -7.2260    -0.6960 H     1 <1>   0.0800 
 55 H       -4.5210    -7.3300     0.0940 H     1 <1>   0.0800 
 56 H       -5.2310    -7.8070    -1.4310 H     1 <1>   0.0800 
@<TRIPOS>BOND
  1   1   2  1   
  2   2   3  ar  
  3   2   4  ar  
  4   3   5  ar  
  5   3  26  1   
  6   4   6  ar  
  7   4  27  1   
  8   5   7  1   
  9   5   8  ar  
 10   6   8  ar  
 11   6   9  1   
 12   7  10  1   
 13   8  11  1   
 14   9  12  1   
 15   9  28  1   
 16   9  29  1   
 17  10  30  1   
 18  10  31  1   
 19  10  32  1   
 20  11  13  1   
 21  12  14  1   
 22  12  15  1   
 23  12  33  1   
 24  13  16  1   
 25  13  34  1   
 26  13  35  1   
 27  14  17  1   
 28  14  36  1   
 29  14  37  1   
 30  15  18  1   
 31  15  38  1   
 32  15  39  1   
 33  16  19  1   
 34  16  40  1   
 35  16  41  1   
 36  17  20  1   
 37  17  21  1   
 38  17  22  1   
 39  18  21  1   
 40  18  42  1   
 41  18  43  1   
 42  19  44  1   
 43  19  45  1   
 44  19  46  1   
 45  20  23  1   
 46  20  24  1   
 47  20  47  1   
 48  21  48  1   
 49  21  49  1   
 50  22  25  1   
 51  22  50  1   
 52  22  51  1   
 53  23  52  1   
 54  24  25  1   
 55  24  53  1   
 56  24  54  1   
 57  25  55  1   
 58  25  56  1   
@<TRIPOS>SUBSTRUCTURE
  1 ****  12 GROUP 4 **** **** 0

# MOE 2024.06 (io_trps.svl 2023.06)
