@<TRIPOS>MOLECULE
NONAME
54 57 1 0 0 
SMALL
USER_CHARGES


@<TRIPOS>ATOM
  1 O       -1.4320     0.6070     2.5100 O.2   1 <1>  -0.5700 
  2 C       -1.8650     0.9130     1.4170 C.2   1 <1>   0.5440 
  3 N       -2.6690     0.0140     0.7520 N.am  1 <1>  -0.6600 
  4 C       -1.5510     2.2120     0.8490 C.ar  1 <1>   0.0860 
  5 C       -3.7120     0.4010    -0.2290 C.3   1 <1>   0.1400 
  6 C       -2.9430    -1.3520     1.2740 C.3   1 <1>   0.1400 
  7 C       -1.6560     3.3730     1.6110 C.ar  1 <1>  -0.1500 
  8 C       -1.1330     2.3500    -0.4740 C.ar  1 <1>  -0.1500 
  9 C       -4.8830    -0.5280     0.0840 C.3   1 <1>   0.2000 
 10 C       -4.2250    -1.8240     0.5670 C.3   1 <1>  -0.0800 
 11 C       -1.3740     4.6160     1.0760 C.ar  1 <1>  -0.1500 
 12 C       -0.8480     3.5900    -1.0160 C.ar  1 <1>  -0.1500 
 13 O       -5.5930     0.0090     1.1440 O.3   1 <1>  -0.6800 
 14 C       -3.9270    -2.7630    -0.6190 C.3   1 <1>  -0.0170 
 15 C       -0.9670     4.7350    -0.2440 C.ar  1 <1>  -0.1430 
 16 C       -3.3790    -4.1060    -0.1630 C.ar  1 <1>   0.1670 
 17 C       -0.6510     6.1070    -0.8380 C.3   1 <1>   0.2390 
 18 N       -2.0660    -4.2590    -0.2140 N.ar  1 <1>  -0.6200 
 19 C       -4.2520    -5.1000     0.2760 C.ar  1 <1>   0.1600 
 20 N        0.2620     6.9000     0.0170 N.pl3 1 <1>   0.3140 
 21 C       -1.6880    -5.4560     0.2040 C.ar  1 <1>   0.1600 
 22 N       -3.8770    -6.2970     0.6940 N.ar  1 <1>  -0.6200 
 23 N       -0.1120     8.1060     0.4910 N.2   1 <1>  -0.7070 
 24 C        1.5260     6.5970     0.4030 C.2   1 <1>  -0.3320 
 25 C       -2.5640    -6.4410     0.6430 C.ar  1 <1>   0.1600 
 26 C        0.9080     8.5340     1.1630 C.2   1 <1>   0.1080 
 27 C        1.9650     7.6350     1.1450 C.2   1 <1>  -0.1500 
 28 C        2.2690     5.3180     0.0520 C.3   1 <1>  -0.0600 
 29 C        0.9070     9.8680     1.8710 C.3   1 <1>  -0.0590 
 30 H       -3.9950     1.4360    -0.1380 H     1 <1>   0.0800 
 31 H       -3.3450     0.2120    -1.2220 H     1 <1>   0.0800 
 32 H       -2.1010    -1.9950     1.0830 H     1 <1>   0.0800 
 33 H       -3.1030    -1.3020     2.3380 H     1 <1>   0.0800 
 34 H       -1.9610     3.2910     2.6410 H     1 <1>   0.1500 
 35 H       -1.0260     1.4660    -1.0790 H     1 <1>   0.1500 
 36 H       -5.5580    -0.6570    -0.7440 H     1 <1>   0.0800 
 37 H       -4.8680    -2.3420     1.2570 H     1 <1>   0.0800 
 38 H       -1.4660     5.4950     1.6940 H     1 <1>   0.1500 
 39 H       -0.5290     3.6550    -2.0430 H     1 <1>   0.1500 
 40 H       -4.9670     0.2200     1.8670 H     1 <1>   0.4000 
 41 H       -3.2220    -2.3030    -1.2900 H     1 <1>   0.0800 
 42 H       -4.8330    -2.9360    -1.1730 H     1 <1>   0.0800 
 43 H       -1.5640     6.6620    -0.9560 H     1 <1>   0.0800 
 44 H       -0.1930     6.0040    -1.8030 H     1 <1>   0.0800 
 45 H       -5.3080    -4.8950     0.2840 H     1 <1>   0.1500 
 46 H       -0.6330    -5.6680     0.1990 H     1 <1>   0.1500 
 47 H       -2.1600    -7.3850     0.9640 H     1 <1>   0.1500 
 48 H        2.9160     7.7640     1.6280 H     1 <1>   0.1500 
 49 H        3.2720     5.3560     0.4390 H     1 <1>   0.0800 
 50 H        2.3180     5.1940    -1.0150 H     1 <1>   0.0800 
 51 H        1.7710     4.4680     0.4840 H     1 <1>   0.0800 
 52 H        1.8450    10.0310     2.3680 H     1 <1>   0.0800 
 53 H        0.1140     9.8870     2.5960 H     1 <1>   0.0800 
 54 H        0.7440    10.6520     1.1550 H     1 <1>   0.0800 
@<TRIPOS>BOND
  1   1   2  2   
  2   2   3  am  
  3   2   4  1   
  4   3   5  1   
  5   3   6  1   
  6   4   7  ar  
  7   4   8  ar  
  8   5   9  1   
  9   5  30  1   
 10   5  31  1   
 11   6  10  1   
 12   6  32  1   
 13   6  33  1   
 14   7  11  ar  
 15   7  34  1   
 16   8  12  ar  
 17   8  35  1   
 18   9  10  1   
 19   9  13  1   
 20   9  36  1   
 21  10  14  1   
 22  10  37  1   
 23  11  15  ar  
 24  11  38  1   
 25  12  15  ar  
 26  12  39  1   
 27  13  40  1   
 28  14  16  1   
 29  14  41  1   
 30  14  42  1   
 31  15  17  1   
 32  16  18  ar  
 33  16  19  ar  
 34  17  20  1   
 35  17  43  1   
 36  17  44  1   
 37  18  21  ar  
 38  19  22  ar  
 39  19  45  1   
 40  20  23  1   
 41  20  24  1   
 42  21  25  ar  
 43  21  46  1   
 44  22  25  ar  
 45  23  26  2   
 46  24  27  2   
 47  24  28  1   
 48  25  47  1   
 49  26  27  1   
 50  26  29  1   
 51  27  48  1   
 52  28  49  1   
 53  28  50  1   
 54  28  51  1   
 55  29  52  1   
 56  29  53  1   
 57  29  54  1   
@<TRIPOS>SUBSTRUCTURE
  1 ****   4 GROUP 4 **** **** 0

# MOE 2024.06 (io_trps.svl 2023.06)
