@<TRIPOS>MOLECULE
NONAME
39 40 1 0 0 
SMALL
USER_CHARGES


@<TRIPOS>ATOM
  1 O       -0.2450     0.0400    -1.6870 O.2   1 <1>  -0.5700 
  2 C        0.6570    -0.6980    -1.3570 C.2   1 <1>   0.5690 
  3 N        1.8770    -0.2430    -0.9390 N.am  1 <1>  -0.4940 
  4 C        0.4650    -2.2330    -1.3990 C.3   1 <1>   0.2810 
  5 C        2.3690     1.0740    -0.7780 C.2   1 <1>  -0.0880 
  6 N        0.7270    -2.8880    -0.0840 N.am  1 <1>  -0.7300 
  7 C       -0.9310    -2.6780    -1.8510 C.3   1 <1>  -0.2400 
  8 N        3.5870     1.3850    -0.2530 N.pl3 1 <1>   0.3140 
  9 C        1.7710     2.2490    -1.0860 C.2   1 <1>  -0.1500 
 10 C        1.9500    -3.0920     0.4540 C.2   1 <1>   0.5690 
 11 N        3.7730     2.7330    -0.2260 N.2   1 <1>  -0.7070 
 12 C        4.5890     0.3790     0.2320 C.3   1 <1>   0.1760 
 13 C        2.6830     3.2290    -0.7230 C.2   1 <1>   0.1390 
 14 O        2.9560    -2.6900    -0.0800 O.2   1 <1>  -0.5700 
 15 C        2.0450    -3.8110     1.7730 C.3   1 <1>  -0.1790 
 16 C        4.2190    -0.1210     1.6310 C.3   1 <1>  -0.1600 
 17 C        5.9940     0.9600     0.4350 C.3   1 <1>  -0.1600 
 18 C        4.8320     0.8920     2.5990 C.3   1 <1>  -0.1600 
 19 C        6.0230     1.5180     1.8630 C.3   1 <1>  -0.1600 
 20 H        2.5070    -1.0040    -0.6440 H     1 <1>   0.3700 
 21 H        1.1790    -2.6140    -2.1090 H     1 <1>   0.0800 
 22 H       -0.1110    -3.1610     0.4320 H     1 <1>   0.3700 
 23 H       -1.6810    -2.3030    -1.1770 H     1 <1>   0.0800 
 24 H       -0.9880    -3.7500    -1.9030 H     1 <1>   0.0800 
 25 H       -1.1350    -2.2800    -2.8290 H     1 <1>   0.0800 
 26 H        0.8000     2.4070    -1.5170 H     1 <1>   0.1500 
 27 H        4.6160    -0.4310    -0.4740 H     1 <1>   0.0800 
 28 H        2.5140     4.2860    -0.8380 H     1 <1>   0.1500 
 29 H        1.5130    -4.7420     1.7210 H     1 <1>   0.0800 
 30 H        1.6260    -3.1990     2.5490 H     1 <1>   0.0800 
 31 H        3.0750    -4.0120     2.0040 H     1 <1>   0.0800 
 32 H        3.1570    -0.2260     1.7660 H     1 <1>   0.0800 
 33 H        4.6850    -1.0790     1.7870 H     1 <1>   0.0800 
 34 H        6.7080     0.1590     0.3650 H     1 <1>   0.0800 
 35 H        6.2420     1.7040    -0.3030 H     1 <1>   0.0800 
 36 H        4.1090     1.6620     2.8140 H     1 <1>   0.0800 
 37 H        5.1310     0.4270     3.5220 H     1 <1>   0.0800 
 38 H        6.9540     1.2810     2.3480 H     1 <1>   0.0800 
 39 H        5.9060     2.5890     1.8380 H     1 <1>   0.0800 
@<TRIPOS>BOND
  1   1   2  2   
  2   2   3  am  
  3   2   4  1   
  4   3   5  1   
  5   3  20  1   
  6   4   6  1   
  7   4   7  1   
  8   4  21  1   
  9   5   8  1   
 10   5   9  2   
 11   6  10  am  
 12   6  22  1   
 13   7  23  1   
 14   7  24  1   
 15   7  25  1   
 16   8  11  1   
 17   8  12  1   
 18   9  13  1   
 19   9  26  1   
 20  10  14  2   
 21  10  15  1   
 22  11  13  2   
 23  12  16  1   
 24  12  17  1   
 25  12  27  1   
 26  13  28  1   
 27  15  29  1   
 28  15  30  1   
 29  15  31  1   
 30  16  18  1   
 31  16  32  1   
 32  16  33  1   
 33  17  19  1   
 34  17  34  1   
 35  17  35  1   
 36  18  19  1   
 37  18  36  1   
 38  18  37  1   
 39  19  38  1   
 40  19  39  1   
@<TRIPOS>SUBSTRUCTURE
  1 ****   3 GROUP 4 **** **** 0

# MOE 2024.06 (io_trps.svl 2023.06)
