@<TRIPOS>MOLECULE
NONAME
21 22 1 0 0 
SMALL
USER_CHARGES


@<TRIPOS>ATOM
  1 N        0.2900     0.0120    -0.1660 N.ar  1 <1>  -0.6200 
  2 C        1.3180    -0.7150     0.2410 C.ar  1 <1>   0.2780 
  3 C       -0.8130    -0.6740    -0.4350 C.ar  1 <1>   0.1600 
  4 C        1.3040    -2.0920     0.3870 C.ar  1 <1>  -0.1500 
  5 C        2.5700     0.0730     0.5490 C.3   1 <1>  -0.0680 
  6 C       -0.9330    -2.0490    -0.3220 C.ar  1 <1>  -0.1500 
  7 C        0.1500    -2.7900     0.0990 C.ar  1 <1>  -0.1500 
  8 C        2.9470     1.0470    -0.5150 C.3   1 <1>   0.2960 
  9 C        3.8730    -0.0730    -0.1910 C.3   1 <1>  -0.2000 
 10 N        3.2610     2.4230    -0.1070 N.4   1 <1>  -0.7460 
 11 H       -1.6720    -0.1120    -0.7640 H     1 <1>   0.1500 
 12 H        2.1800    -2.6160     0.7240 H     1 <1>   0.1500 
 13 H        2.6080     0.3840     1.5770 H     1 <1>   0.1000 
 14 H       -1.8640    -2.5310    -0.5610 H     1 <1>   0.1500 
 15 H        0.0950    -3.8610     0.2000 H     1 <1>   0.1500 
 16 H        2.3880     0.9930    -1.4390 H     1 <1>   0.1000 
 17 H        3.9620    -0.8950    -0.8810 H     1 <1>   0.1000 
 18 H        4.7880     0.1160     0.3410 H     1 <1>   0.1000 
 19 H        3.7720     2.4320     0.7800 H     1 <1>   0.4500 
 20 H        2.3840     2.9430     0.0190 H     1 <1>   0.4500 
 21 H        3.8230     2.8960    -0.8220 H     1 <1>   0.4500 
@<TRIPOS>BOND
  1   1   2  ar  
  2   1   3  ar  
  3   2   4  ar  
  4   2   5  1   
  5   3   6  ar  
  6   3  11  1   
  7   4   7  ar  
  8   4  12  1   
  9   5   8  1   
 10   5   9  1   
 11   5  13  1   
 12   6   7  ar  
 13   6  14  1   
 14   7  15  1   
 15   8   9  1   
 16   8  10  1   
 17   8  16  1   
 18   9  17  1   
 19   9  18  1   
 20  10  19  1   
 21  10  20  1   
 22  10  21  1   
@<TRIPOS>SUBSTRUCTURE
  1 ****   2 GROUP 4 **** **** 0

# MOE 2024.06 (io_trps.svl 2023.06)
