@<TRIPOS>MOLECULE
NONAME
50 51 1 0 0 
SMALL
USER_CHARGES


@<TRIPOS>ATOM
  1 O        1.3650    -0.8330     1.8070 O.2   1 <1>  -0.5700 
  2 C        1.2970    -0.6860     0.6080 C.2   1 <1>   0.5690 
  3 N        1.5520     0.5130     0.0160 N.am  1 <1>  -0.7300 
  4 C        0.8810    -1.9180    -0.2400 C.3   1 <1>   0.4840 
  5 C        1.9720     1.7340     0.7300 C.3   1 <1>   0.2200 
  6 N        0.0020    -2.8790     0.5420 N.4   1 <1>  -0.9590 
  7 C        2.1400    -2.6370    -0.7410 C.3   1 <1>  -0.2400 
  8 C        1.0450     2.8750     0.3310 C.3   1 <1>  -0.1600 
  9 C        3.3240     2.1750     0.1840 C.3   1 <1>  -0.1600 
 10 C       -0.2680    -4.1880    -0.1430 C.3   1 <1>   0.3430 
 11 C       -1.2620    -2.1940     0.9740 C.3   1 <1>   0.2630 
 12 C        1.5600     3.3790    -1.0230 C.3   1 <1>  -0.1600 
 13 C        3.0240     2.9280    -1.1170 C.3   1 <1>  -0.1600 
 14 C       -0.9270    -5.2160     0.7770 C.3   1 <1>   0.0210 
 15 C       -0.9720    -6.5360     0.0370 C.2   1 <1>  -0.1810 
 16 C        0.0550    -7.4760    -0.0360 C.2   1 <1>   0.1080 
 17 C       -1.9750    -7.0610    -0.7010 C.2   1 <1>  -0.3320 
 18 N       -0.2680    -8.4930    -0.7650 N.2   1 <1>  -0.7070 
 19 C        1.4100    -7.3880     0.6340 C.3   1 <1>  -0.0590 
 20 N       -1.5240    -8.2450    -1.1690 N.pl3 1 <1>   0.3000 
 21 C       -3.3680    -6.5410    -1.0190 C.3   1 <1>  -0.0600 
 22 H        1.5320     0.6470    -0.9970 H     1 <1>   0.3700 
 23 H        0.3320    -1.5550    -1.0920 H     1 <1>   0.0800 
 24 H        1.9930     1.5760     1.7970 H     1 <1>   0.0800 
 25 H        0.5470    -3.0510     1.4050 H     1 <1>   0.4500 
 26 H        2.6580    -3.1120     0.0740 H     1 <1>   0.0800 
 27 H        2.8110    -1.9180    -1.1800 H     1 <1>   0.0800 
 28 H        1.9100    -3.3570    -1.5050 H     1 <1>   0.0800 
 29 H        1.1500     3.6640     1.0550 H     1 <1>   0.0800 
 30 H        0.0120     2.5770     0.3010 H     1 <1>   0.0800 
 31 H        4.0020     1.3520     0.0450 H     1 <1>   0.0800 
 32 H        3.7640     2.8620     0.8870 H     1 <1>   0.0800 
 33 H        0.6580    -4.6180    -0.4860 H     1 <1>   0.0800 
 34 H       -0.8950    -4.0340    -1.0060 H     1 <1>   0.0800 
 35 H       -1.8670    -1.9430     0.1180 H     1 <1>   0.0800 
 36 H       -1.0340    -1.2880     1.5150 H     1 <1>   0.0800 
 37 H       -1.8330    -2.8330     1.6270 H     1 <1>   0.0800 
 38 H        1.4770     4.4510    -1.0870 H     1 <1>   0.0800 
 39 H        0.9900     2.9410    -1.8240 H     1 <1>   0.0800 
 40 H        3.1520     2.2740    -1.9630 H     1 <1>   0.0800 
 41 H        3.6860     3.7700    -1.2320 H     1 <1>   0.0800 
 42 H       -1.9280    -4.9200     1.0310 H     1 <1>   0.0800 
 43 H       -0.3590    -5.3360     1.6820 H     1 <1>   0.0800 
 44 H        1.9570    -6.5460     0.2590 H     1 <1>   0.0800 
 45 H        1.9720    -8.2820     0.4290 H     1 <1>   0.0800 
 46 H        1.2880    -7.3000     1.6980 H     1 <1>   0.0800 
 47 H       -2.0440    -8.9060    -1.7600 H     1 <1>   0.2700 
 48 H       -3.5370    -5.5820    -0.5660 H     1 <1>   0.0800 
 49 H       -4.1100    -7.2260    -0.6450 H     1 <1>   0.0800 
 50 H       -3.4940    -6.4430    -2.0830 H     1 <1>   0.0800 
@<TRIPOS>BOND
  1   1   2  2   
  2   2   3  am  
  3   2   4  1   
  4   3   5  1   
  5   3  22  1   
  6   4   6  1   
  7   4   7  1   
  8   4  23  1   
  9   5   8  1   
 10   5   9  1   
 11   5  24  1   
 12   6  10  1   
 13   6  11  1   
 14   6  25  1   
 15   7  26  1   
 16   7  27  1   
 17   7  28  1   
 18   8  12  1   
 19   8  29  1   
 20   8  30  1   
 21   9  13  1   
 22   9  31  1   
 23   9  32  1   
 24  10  14  1   
 25  10  33  1   
 26  10  34  1   
 27  11  35  1   
 28  11  36  1   
 29  11  37  1   
 30  12  13  1   
 31  12  38  1   
 32  12  39  1   
 33  13  40  1   
 34  13  41  1   
 35  14  15  1   
 36  14  42  1   
 37  14  43  1   
 38  15  16  1   
 39  15  17  2   
 40  16  18  2   
 41  16  19  1   
 42  17  20  1   
 43  17  21  1   
 44  18  20  1   
 45  19  44  1   
 46  19  45  1   
 47  19  46  1   
 48  20  47  1   
 49  21  48  1   
 50  21  49  1   
 51  21  50  1   
@<TRIPOS>SUBSTRUCTURE
  1 ****   6 GROUP 4 **** **** 0

# MOE 2024.06 (io_trps.svl 2023.06)
