@<TRIPOS>MOLECULE
NONAME
47 50 1 0 0 
SMALL
USER_CHARGES


@<TRIPOS>ATOM
  1 S       -0.1700     0.5070     1.1870 S.3   1 <1>  -0.0800 
  2 C        0.8000     1.8050     0.4870 C.ar  1 <1>   0.0400 
  3 C        0.6210    -0.7350     0.1900 C.2   1 <1>  -0.0450 
  4 C        1.6780     1.2830    -0.4480 C.ar  1 <1>   0.0000 
  5 C        0.7280     3.1510     0.7950 C.ar  1 <1>  -0.1500 
  6 C        0.2380    -2.1190     0.3290 C.2   1 <1>   0.7150 
  7 C        1.5590    -0.1370    -0.5860 C.2   1 <1>  -0.1500 
  8 C        2.5300     2.1670    -1.1060 C.ar  1 <1>  -0.1500 
  9 C        1.5810     4.0130     0.1300 C.ar  1 <1>  -0.1500 
 10 O        1.0260    -2.9960     0.0130 O.2   1 <1>  -0.5700 
 11 N       -1.0000    -2.5150     0.7790 N.am  1 <1>  -0.6600 
 12 C        2.4770     3.5200    -0.8160 C.ar  1 <1>  -0.1500 
 13 C       -1.1880    -3.8860     1.3350 C.3   1 <1>   0.1400 
 14 C       -2.2550    -1.9250     0.2310 C.3   1 <1>   0.1400 
 15 C       -1.6640    -4.8120     0.1940 C.3   1 <1>   0.4230 
 16 C       -2.8210    -2.8560    -0.8570 C.3   1 <1>  -0.1600 
 17 N       -1.7600    -6.2680     0.5490 N.4   1 <1>  -0.9590 
 18 C       -3.0210    -4.3190    -0.3600 C.3   1 <1>  -0.1060 
 19 C       -2.1300    -7.1490    -0.5990 C.3   1 <1>   0.3430 
 20 C       -0.6340    -6.8140     1.3510 C.3   1 <1>   0.2630 
 21 C       -4.0470    -4.3810     0.7870 C.2   1 <1>   0.9060 
 22 C       -3.5060    -5.2140    -1.5380 C.3   1 <1>  -0.1600 
 23 C       -2.5300    -6.3590    -1.8540 C.3   1 <1>  -0.1600 
 24 O       -4.0220    -5.3650     1.5440 O.co2 1 <1>  -0.9000 
 25 O       -4.8500    -3.4640     0.9470 O.co2 1 <1>  -0.9000 
 26 H        0.0280     3.5070     1.5300 H     1 <1>   0.1500 
 27 H        2.1960    -0.6670    -1.2720 H     1 <1>   0.1500 
 28 H        3.2240     1.7910    -1.8360 H     1 <1>   0.1500 
 29 H        1.5550     5.0680     0.3420 H     1 <1>   0.1500 
 30 H        3.1360     4.2020    -1.3250 H     1 <1>   0.1500 
 31 H       -0.2520    -4.2280     1.7350 H     1 <1>   0.0800 
 32 H       -1.9080    -3.8500     2.1360 H     1 <1>   0.0800 
 33 H       -2.9700    -1.8000     1.0290 H     1 <1>   0.0800 
 34 H       -2.0690    -0.9570    -0.1980 H     1 <1>   0.0800 
 35 H       -0.9300    -4.7170    -0.5890 H     1 <1>   0.0800 
 36 H       -3.7670    -2.4570    -1.1830 H     1 <1>   0.0800 
 37 H       -2.1560    -2.8400    -1.7020 H     1 <1>   0.0800 
 38 H       -2.6250    -6.2460     1.1560 H     1 <1>   0.4500 
 39 H       -1.3060    -7.7970    -0.8450 H     1 <1>   0.0800 
 40 H       -2.9610    -7.7670    -0.2980 H     1 <1>   0.0800 
 41 H        0.2870    -6.7410     0.7970 H     1 <1>   0.0800 
 42 H       -0.8190    -7.8470     1.5930 H     1 <1>   0.0800 
 43 H       -0.5320    -6.2640     2.2720 H     1 <1>   0.0800 
 44 H       -4.4630    -5.6410    -1.2840 H     1 <1>   0.0800 
 45 H       -3.6620    -4.6270    -2.4270 H     1 <1>   0.0800 
 46 H       -1.6440    -5.9650    -2.3200 H     1 <1>   0.0800 
 47 H       -2.9850    -7.0320    -2.5600 H     1 <1>   0.0800 
@<TRIPOS>BOND
  1   1   2  1   
  2   1   3  1   
  3   2   4  ar  
  4   2   5  ar  
  5   3   6  1   
  6   3   7  2   
  7   4   7  1   
  8   4   8  ar  
  9   5   9  ar  
 10   5  26  1   
 11   6  10  2   
 12   6  11  am  
 13   7  27  1   
 14   8  12  ar  
 15   8  28  1   
 16   9  12  ar  
 17   9  29  1   
 18  11  13  1   
 19  11  14  1   
 20  12  30  1   
 21  13  15  1   
 22  13  31  1   
 23  13  32  1   
 24  14  16  1   
 25  14  33  1   
 26  14  34  1   
 27  15  17  1   
 28  15  18  1   
 29  15  35  1   
 30  16  18  1   
 31  16  36  1   
 32  16  37  1   
 33  17  19  1   
 34  17  20  1   
 35  17  38  1   
 36  18  21  1   
 37  18  22  1   
 38  19  23  1   
 39  19  39  1   
 40  19  40  1   
 41  20  41  1   
 42  20  42  1   
 43  20  43  1   
 44  21  24  ar  
 45  21  25  ar  
 46  22  23  1   
 47  22  44  1   
 48  22  45  1   
 49  23  46  1   
 50  23  47  1   
@<TRIPOS>SUBSTRUCTURE
  1 ****  11 GROUP 4 **** **** 0

# MOE 2024.06 (io_trps.svl 2023.06)
