@<TRIPOS>MOLECULE
NONAME
48 51 1 0 0 
SMALL
USER_CHARGES


@<TRIPOS>ATOM
  1 F       -1.5670    -0.2520     1.3250 F     1 <1>  -0.1900 
  2 C       -2.3260    -1.3140     1.2580 C.ar  1 <1>   0.1900 
  3 C       -2.2460    -2.1420     0.1490 C.ar  1 <1>  -0.1440 
  4 C       -3.1840    -1.5650     2.3110 C.ar  1 <1>  -0.1500 
  5 C       -3.0700    -3.2560     0.1090 C.ar  1 <1>  -0.1500 
  6 C       -1.2790    -1.8400    -0.9880 C.3   1 <1>  -0.0960 
  7 C       -3.9990    -2.6820     2.2560 C.ar  1 <1>  -0.1500 
  8 C       -3.9500    -3.5250     1.1520 C.ar  1 <1>  -0.1440 
  9 C       -4.8660    -4.7330     1.0770 C.3   1 <1>   0.4870 
 10 N       -5.9730    -4.4110     0.1390 N.4   1 <1>  -0.9590 
 11 C       -6.8450    -3.3150     0.6910 C.3   1 <1>   0.3430 
 12 C       -6.7750    -5.6170    -0.2120 C.3   1 <1>   0.3430 
 13 C       -7.9260    -2.8770    -0.3100 C.3   1 <1>   0.1430 
 14 C       -7.8300    -5.2480    -1.2610 C.3   1 <1>  -0.1600 
 15 C       -8.8260    -1.8820     0.3830 C.ar  1 <1>   0.1670 
 16 C       -8.7390    -4.0970    -0.7910 C.3   1 <1>  -0.1600 
 17 C       -7.3550    -2.0470    -1.4930 C.3   1 <1>  -0.1600 
 18 N       -9.3360    -2.0540     1.5760 N.ar  1 <1>  -0.6200 
 19 C       -9.0290    -0.7670    -0.3730 C.ar  1 <1>  -0.1430 
 20 C       -8.3040    -0.8480    -1.6920 C.3   1 <1>  -0.0170 
 21 C      -10.0750    -1.0320     1.9890 C.ar  1 <1>   0.7200 
 22 C       -9.8230     0.2220     0.1570 C.ar  1 <1>   0.1600 
 23 N      -10.3570     0.0940     1.3510 N.ar  1 <1>  -0.6200 
 24 N      -10.6200    -1.1590     3.1990 N.pl3 1 <1>  -0.9000 
 25 H       -3.2050    -0.8970     3.1540 H     1 <1>   0.1500 
 26 H       -3.0140    -3.9140    -0.7420 H     1 <1>   0.1500 
 27 H       -1.4920    -0.8710    -1.4050 H     1 <1>   0.0800 
 28 H       -1.3520    -2.5730    -1.7710 H     1 <1>   0.0800 
 29 H       -0.2690    -1.8360    -0.6170 H     1 <1>   0.0800 
 30 H       -4.6650    -2.8780     3.0800 H     1 <1>   0.1500 
 31 H       -5.2550    -4.9670     2.0550 H     1 <1>   0.0800 
 32 H       -4.3060    -5.5810     0.7180 H     1 <1>   0.0800 
 33 H       -5.5350    -4.0460    -0.7140 H     1 <1>   0.4500 
 34 H       -6.2480    -2.4560     0.9500 H     1 <1>   0.0800 
 35 H       -7.3330    -3.6590     1.5890 H     1 <1>   0.0800 
 36 H       -7.2670    -5.9980     0.6690 H     1 <1>   0.0800 
 37 H       -6.1340    -6.3900    -0.6050 H     1 <1>   0.0800 
 38 H       -8.4380    -6.1140    -1.4600 H     1 <1>   0.0800 
 39 H       -7.3410    -4.9880    -2.1830 H     1 <1>   0.0800 
 40 H       -9.4110    -3.8070    -1.5810 H     1 <1>   0.0800 
 41 H       -9.3470    -4.4510     0.0260 H     1 <1>   0.0800 
 42 H       -7.2600    -2.6160    -2.4000 H     1 <1>   0.0800 
 43 H       -6.3850    -1.6600    -1.2300 H     1 <1>   0.0800 
 44 H       -9.0100    -1.0440    -2.4810 H     1 <1>   0.0800 
 45 H       -7.7620     0.0580    -1.9060 H     1 <1>   0.0800 
 46 H      -10.0190     1.1240    -0.3980 H     1 <1>   0.1500 
 47 H      -11.3670    -0.4970     3.3980 H     1 <1>   0.4000 
 48 H      -10.7630    -2.1080     3.5300 H     1 <1>   0.4000 
@<TRIPOS>BOND
  1   1   2  1   
  2   2   3  ar  
  3   2   4  ar  
  4   3   5  ar  
  5   3   6  1   
  6   4   7  ar  
  7   4  25  1   
  8   5   8  ar  
  9   5  26  1   
 10   6  27  1   
 11   6  28  1   
 12   6  29  1   
 13   7   8  ar  
 14   7  30  1   
 15   8   9  1   
 16   9  10  1   
 17   9  31  1   
 18   9  32  1   
 19  10  11  1   
 20  10  12  1   
 21  10  33  1   
 22  11  13  1   
 23  11  34  1   
 24  11  35  1   
 25  12  14  1   
 26  12  36  1   
 27  12  37  1   
 28  13  15  1   
 29  13  16  1   
 30  13  17  1   
 31  14  16  1   
 32  14  38  1   
 33  14  39  1   
 34  15  18  ar  
 35  15  19  ar  
 36  16  40  1   
 37  16  41  1   
 38  17  20  1   
 39  17  42  1   
 40  17  43  1   
 41  18  21  ar  
 42  19  20  1   
 43  19  22  ar  
 44  20  44  1   
 45  20  45  1   
 46  21  23  ar  
 47  21  24  1   
 48  22  23  ar  
 49  22  46  1   
 50  24  47  1   
 51  24  48  1   
@<TRIPOS>SUBSTRUCTURE
  1 ****  11 GROUP 4 **** **** 0

# MOE 2024.06 (io_trps.svl 2023.06)
