@<TRIPOS>MOLECULE
NONAME
50 53 1 0 0 
SMALL
USER_CHARGES


@<TRIPOS>ATOM
  1 O       -0.1910     0.3190    -1.4940 O.2   1 <1>  -0.5700 
  2 C       -0.0760     1.5260    -1.3820 C.2   1 <1>   0.7160 
  3 N       -1.2050     2.3170    -1.4450 N.am  1 <1>  -0.6600 
  4 C        1.2310     2.1030    -1.1800 C.2   1 <1>  -0.0860 
  5 C       -2.5140     1.7850    -1.9210 C.3   1 <1>   0.1400 
  6 C       -1.2820     3.6940    -0.8840 C.3   1 <1>   0.1400 
  7 C        2.2250     1.8290    -0.2890 C.2   1 <1>  -0.3320 
  8 C        1.7590     3.1450    -1.9410 C.2   1 <1>   0.1390 
  9 C       -3.5180     1.7940    -0.7670 C.3   1 <1>  -0.1600 
 10 C       -2.2740     3.7070     0.2810 C.3   1 <1>  -0.1600 
 11 N        3.2720     2.6750    -0.5240 N.pl3 1 <1>   0.5930 
 12 C        2.1870     0.7620     0.7990 C.3   1 <1>  -0.0600 
 13 N        2.9400     3.5020    -1.5620 N.2   1 <1>  -0.7070 
 14 C       -3.6530     3.1860    -0.1440 C.3   1 <1>   0.4180 
 15 C        4.5270     2.7990     0.1770 C.ar  1 <1>   0.2870 
 16 O       -4.1740     4.0190    -1.1520 O.3   1 <1>  -0.5600 
 17 C       -4.6080     3.1250     1.0450 C.2   1 <1>  -0.2880 
 18 N        5.0640     1.7220     0.7700 N.ar  1 <1>  -0.6200 
 19 C        5.1550     4.0460     0.2180 C.ar  1 <1>  -0.1500 
 20 C       -4.7960     5.2080    -0.7500 C.3   1 <1>   0.1200 
 21 C       -5.6980     3.8850     1.1720 C.2   1 <1>  -0.2760 
 22 C        6.2170     1.8960     1.3940 C.ar  1 <1>   0.1600 
 23 C        6.3550     4.2130     0.8730 C.ar  1 <1>  -0.1500 
 24 C       -6.0350     4.9100     0.1040 C.3   1 <1>  -0.0220 
 25 C       -6.6760     3.8030     2.3300 C.3   1 <1>  -0.1020 
 26 C        6.8940     3.0980     1.4760 C.ar  1 <1>  -0.1500 
 27 H       -2.4060     0.7840    -2.3030 H     1 <1>   0.0800 
 28 H       -2.8740     2.4070    -2.7230 H     1 <1>   0.0800 
 29 H       -1.6110     4.3720    -1.6540 H     1 <1>   0.0800 
 30 H       -0.3220     4.0260    -0.5290 H     1 <1>   0.0800 
 31 H        1.2320     3.6050    -2.7600 H     1 <1>   0.1500 
 32 H       -3.1890     1.0920    -0.0230 H     1 <1>   0.0800 
 33 H       -4.4800     1.4690    -1.1190 H     1 <1>   0.0800 
 34 H       -2.3610     4.6990     0.6820 H     1 <1>   0.0800 
 35 H       -1.8880     3.0820     1.0650 H     1 <1>   0.0800 
 36 H        1.2200     0.2950     0.8450 H     1 <1>   0.0800 
 37 H        2.4020     1.1970     1.7590 H     1 <1>   0.0800 
 38 H        2.9180     0.0000     0.5920 H     1 <1>   0.0800 
 39 H       -4.3160     2.3920     1.7760 H     1 <1>   0.1500 
 40 H        4.6980     4.8880    -0.2720 H     1 <1>   0.1500 
 41 H       -5.0750     5.7490    -1.6370 H     1 <1>   0.0800 
 42 H       -4.0880     5.7970    -0.1950 H     1 <1>   0.0800 
 43 H        6.6470     1.0300     1.8670 H     1 <1>   0.1500 
 44 H        6.8490     5.1690     0.9100 H     1 <1>   0.1500 
 45 H       -6.8280     4.5390    -0.5200 H     1 <1>   0.0800 
 46 H       -6.3650     5.8270     0.5580 H     1 <1>   0.0800 
 47 H       -7.6580     3.5580     1.9680 H     1 <1>   0.0800 
 48 H       -6.7200     4.7450     2.8480 H     1 <1>   0.0800 
 49 H       -6.3700     3.0440     3.0280 H     1 <1>   0.0800 
 50 H        7.8290     3.1590     2.0030 H     1 <1>   0.1500 
@<TRIPOS>BOND
  1   1   2  2   
  2   2   3  am  
  3   2   4  1   
  4   3   5  1   
  5   3   6  1   
  6   4   7  2   
  7   4   8  1   
  8   5   9  1   
  9   5  27  1   
 10   5  28  1   
 11   6  10  1   
 12   6  29  1   
 13   6  30  1   
 14   7  11  1   
 15   7  12  1   
 16   8  13  2   
 17   8  31  1   
 18   9  14  1   
 19   9  32  1   
 20   9  33  1   
 21  10  14  1   
 22  10  34  1   
 23  10  35  1   
 24  11  13  1   
 25  11  15  1   
 26  12  36  1   
 27  12  37  1   
 28  12  38  1   
 29  14  16  1   
 30  14  17  1   
 31  15  18  ar  
 32  15  19  ar  
 33  16  20  1   
 34  17  21  2   
 35  17  39  1   
 36  18  22  ar  
 37  19  23  ar  
 38  19  40  1   
 39  20  24  1   
 40  20  41  1   
 41  20  42  1   
 42  21  24  1   
 43  21  25  1   
 44  22  26  ar  
 45  22  43  1   
 46  23  26  ar  
 47  23  44  1   
 48  24  45  1   
 49  24  46  1   
 50  25  47  1   
 51  25  48  1   
 52  25  49  1   
 53  26  50  1   
@<TRIPOS>SUBSTRUCTURE
  1 ****   6 GROUP 4 **** **** 0

# MOE 2024.06 (io_trps.svl 2023.06)
