@<TRIPOS>MOLECULE
NONAME
53 57 1 0 0 
SMALL
USER_CHARGES


@<TRIPOS>ATOM
  1 S       -0.1730     3.1020    -2.1470 S.3   1 <1>  -0.2860 
  2 C        1.1240     3.0320    -0.9520 C.2   1 <1>   0.2420 
  3 C       -1.4490     2.4500    -0.9780 C.3   1 <1>   0.0700 
  4 N        2.3680     3.3510    -1.0370 N.2   1 <1>  -0.5650 
  5 N        0.6930     2.5850     0.2260 N.pl3 1 <1>   0.0480 
  6 C       -0.7320     2.2210     0.3770 C.3   1 <1>   0.0960 
  7 C        2.7990     3.0940     0.2260 C.2   1 <1>   0.0460 
  8 C        1.7890     2.6280     1.0070 C.2   1 <1>  -0.3020 
  9 C        4.2410     3.3650     0.6280 C.3   1 <1>   0.3210 
 10 N        4.5970     4.7130     0.1520 N.am  1 <1>  -0.7300 
 11 C        4.8910     5.7750     0.9470 C.2   1 <1>   0.7160 
 12 O        5.1850     5.5740     2.1100 O.2   1 <1>  -0.5700 
 13 C        4.8980     7.0830     0.3860 C.2   1 <1>  -0.0860 
 14 C        3.7910     7.9210     0.2060 C.2   1 <1>   0.3720 
 15 C        5.9310     7.7970    -0.1330 C.2   1 <1>   0.0870 
 16 N        4.1390     9.0150    -0.3790 N.2   1 <1>  -0.4100 
 17 N        2.4770     7.6180     0.5990 N.pl3 1 <1>  -0.8210 
 18 O        5.4290     8.9230    -0.5720 O.3   1 <1>  -0.0190 
 19 C        7.3370     7.5190    -0.2710 C.ar  1 <1>   0.0530 
 20 C        1.8310     6.4890    -0.1210 C.3   1 <1>   0.2090 
 21 C        1.5040     8.7400     0.7000 C.3   1 <1>   0.2090 
 22 C        8.0550     8.0000    -1.3670 C.ar  1 <1>  -0.1500 
 23 C        8.0370     6.7640     0.6710 C.ar  1 <1>  -0.1500 
 24 C        0.3880     6.9060    -0.3690 C.3   1 <1>  -0.1600 
 25 C        0.4190     8.4260    -0.3200 C.3   1 <1>  -0.1600 
 26 C        9.4010     7.7310    -1.5210 C.ar  1 <1>  -0.1500 
 27 C        9.3840     6.4890     0.5240 C.ar  1 <1>  -0.1500 
 28 C       10.0790     6.9720    -0.5810 C.ar  1 <1>   0.0830 
 29 O       11.3950     6.7480    -0.8040 O.3   1 <1>  -0.3630 
 30 C       12.1820     6.0060     0.1010 C.3   1 <1>   0.0400 
 31 H       -1.8310     1.5340    -1.3920 H     1 <1>   0.0800 
 32 H       -2.2310     3.1840    -0.9040 H     1 <1>   0.0800 
 33 H       -0.8020     1.1890     0.6680 H     1 <1>   0.0800 
 34 H       -1.1720     2.8350     1.1420 H     1 <1>   0.0800 
 35 H        1.7910     2.3430     2.0440 H     1 <1>   0.1500 
 36 H        4.8860     2.6430     0.1610 H     1 <1>   0.0800 
 37 H        4.3500     3.2930     1.6970 H     1 <1>   0.0800 
 38 H        4.2020     4.8950    -0.7740 H     1 <1>   0.3700 
 39 H        1.8680     5.5990     0.4810 H     1 <1>   0.0800 
 40 H        2.3310     6.3110    -1.0590 H     1 <1>   0.0800 
 41 H        1.9490     9.7020     0.5150 H     1 <1>   0.0800 
 42 H        1.0880     8.7390     1.6930 H     1 <1>   0.0800 
 43 H        7.5480     8.5920    -2.1090 H     1 <1>   0.1500 
 44 H        7.5240     6.3910     1.5390 H     1 <1>   0.1500 
 45 H       -0.2250     6.5240     0.4270 H     1 <1>   0.0800 
 46 H        0.0240     6.5290    -1.3080 H     1 <1>   0.0800 
 47 H        0.7210     8.8190    -1.2750 H     1 <1>   0.0800 
 48 H       -0.5280     8.8530    -0.0430 H     1 <1>   0.0800 
 49 H        9.9400     8.1080    -2.3720 H     1 <1>   0.1500 
 50 H        9.8750     5.9010     1.2760 H     1 <1>   0.1500 
 51 H       13.1850     5.9670    -0.2840 H     1 <1>   0.0800 
 52 H       11.7810     5.0110     0.1780 H     1 <1>   0.0800 
 53 H       12.1750     6.5000     1.0560 H     1 <1>   0.0800 
@<TRIPOS>BOND
  1   1   2  1   
  2   1   3  1   
  3   2   4  2   
  4   2   5  1   
  5   3   6  1   
  6   3  31  1   
  7   3  32  1   
  8   4   7  1   
  9   5   6  1   
 10   5   8  1   
 11   6  33  1   
 12   6  34  1   
 13   7   8  2   
 14   7   9  1   
 15   8  35  1   
 16   9  10  1   
 17   9  36  1   
 18   9  37  1   
 19  10  11  am  
 20  10  38  1   
 21  11  12  2   
 22  11  13  1   
 23  13  14  1   
 24  13  15  2   
 25  14  16  2   
 26  14  17  1   
 27  15  18  1   
 28  15  19  1   
 29  16  18  1   
 30  17  20  1   
 31  17  21  1   
 32  19  22  ar  
 33  19  23  ar  
 34  20  24  1   
 35  20  39  1   
 36  20  40  1   
 37  21  25  1   
 38  21  41  1   
 39  21  42  1   
 40  22  26  ar  
 41  22  43  1   
 42  23  27  ar  
 43  23  44  1   
 44  24  25  1   
 45  24  45  1   
 46  24  46  1   
 47  25  47  1   
 48  25  48  1   
 49  26  28  ar  
 50  26  49  1   
 51  27  28  ar  
 52  27  50  1   
 53  28  29  1   
 54  29  30  1   
 55  30  51  1   
 56  30  52  1   
 57  30  53  1   
@<TRIPOS>SUBSTRUCTURE
  1 ****  11 GROUP 4 **** **** 0

# MOE 2024.06 (io_trps.svl 2023.06)
