@<TRIPOS>MOLECULE
NONAME
47 49 1 0 0 
SMALL
USER_CHARGES


@<TRIPOS>ATOM
  1 F       -1.0380     0.3810    -0.4360 F     1 <1>  -0.1900 
  2 C       -1.0470    -0.9200    -0.3030 C.ar  1 <1>   0.1900 
  3 C        0.0630    -1.6710    -0.6490 C.ar  1 <1>   0.1900 
  4 C       -2.1880    -1.5280     0.1880 C.ar  1 <1>  -0.1500 
  5 F        1.1380    -1.0910    -1.1160 F     1 <1>  -0.1900 
  6 C        0.0530    -3.0460    -0.5100 C.ar  1 <1>  -0.1500 
  7 C       -2.2130    -2.9120     0.3250 C.ar  1 <1>  -0.1440 
  8 C       -1.0900    -3.6630    -0.0190 C.ar  1 <1>  -0.1500 
  9 C       -3.4650    -3.5890     0.8570 C.3   1 <1>   0.4870 
 10 N       -4.1850    -4.2620    -0.2660 N.4   1 <1>  -0.9590 
 11 C       -4.6540    -3.2640    -1.2910 C.3   1 <1>   0.3430 
 12 C       -5.2870    -5.1230     0.2540 C.3   1 <1>   0.3430 
 13 C       -6.1750    -3.0830    -1.3150 C.3   1 <1>  -0.1600 
 14 C       -6.4140    -4.2930     0.8800 C.3   1 <1>  -0.1600 
 15 C       -6.7580    -3.0000     0.1060 C.3   1 <1>   0.2800 
 16 O       -6.0410    -1.9600     0.7390 O.3   1 <1>  -0.5600 
 17 C       -8.3000    -2.7580     0.1210 C.3   1 <1>   0.2000 
 18 C       -6.7390    -0.8530     1.2440 C.3   1 <1>   0.1200 
 19 O       -8.9580    -3.7080    -0.6680 O.3   1 <1>  -0.6800 
 20 C       -8.7320    -1.3030    -0.2360 C.3   1 <1>   0.2800 
 21 C       -7.6430    -0.2890     0.1480 C.3   1 <1>  -0.1600 
 22 O       -9.8370    -1.0270     0.5440 O.3   1 <1>  -0.6800 
 23 C       -9.1980    -1.0740    -1.6820 C.3   1 <1>  -0.2400 
 24 H       -3.0340    -0.9160     0.4550 H     1 <1>   0.1500 
 25 H        0.9270    -3.6160    -0.7780 H     1 <1>   0.1500 
 26 H       -1.0860    -4.7350     0.0950 H     1 <1>   0.1500 
 27 H       -4.1010    -2.8600     1.3280 H     1 <1>   0.0800 
 28 H       -3.1840    -4.3160     1.6010 H     1 <1>   0.0800 
 29 H       -3.4900    -4.8600    -0.7270 H     1 <1>   0.4500 
 30 H       -4.2090    -2.3040    -1.0860 H     1 <1>   0.0800 
 31 H       -4.3260    -3.5670    -2.2720 H     1 <1>   0.0800 
 32 H       -5.7010    -5.6880    -0.5670 H     1 <1>   0.0800 
 33 H       -4.9080    -5.8270     0.9770 H     1 <1>   0.0800 
 34 H       -6.6240    -3.8980    -1.8530 H     1 <1>   0.0800 
 35 H       -6.4000    -2.1880    -1.8610 H     1 <1>   0.0800 
 36 H       -6.1840    -4.0590     1.9040 H     1 <1>   0.0800 
 37 H       -7.2750    -4.9380     0.9070 H     1 <1>   0.0800 
 38 H       -8.6220    -2.9460     1.1310 H     1 <1>   0.0800 
 39 H       -7.3090    -1.1590     2.1070 H     1 <1>   0.0800 
 40 H       -6.0140    -0.1180     1.5500 H     1 <1>   0.0800 
 41 H       -9.9240    -3.5460    -0.6070 H     1 <1>   0.4000 
 42 H       -7.0240    -0.0640    -0.7020 H     1 <1>   0.0800 
 43 H       -8.0830     0.6370     0.4750 H     1 <1>   0.0800 
 44 H      -10.2210    -0.1670     0.2860 H     1 <1>   0.4000 
 45 H       -8.4260    -1.3440    -2.3760 H     1 <1>   0.0800 
 46 H       -9.4410    -0.0390    -1.8440 H     1 <1>   0.0800 
 47 H      -10.0640    -1.6710    -1.9060 H     1 <1>   0.0800 
@<TRIPOS>BOND
  1   1   2  1   
  2   2   3  ar  
  3   2   4  ar  
  4   3   5  1   
  5   3   6  ar  
  6   4   7  ar  
  7   4  24  1   
  8   6   8  ar  
  9   6  25  1   
 10   7   8  ar  
 11   7   9  1   
 12   8  26  1   
 13   9  10  1   
 14   9  27  1   
 15   9  28  1   
 16  10  11  1   
 17  10  12  1   
 18  10  29  1   
 19  11  13  1   
 20  11  30  1   
 21  11  31  1   
 22  12  14  1   
 23  12  32  1   
 24  12  33  1   
 25  13  15  1   
 26  13  34  1   
 27  13  35  1   
 28  14  15  1   
 29  14  36  1   
 30  14  37  1   
 31  15  16  1   
 32  15  17  1   
 33  16  18  1   
 34  17  19  1   
 35  17  20  1   
 36  17  38  1   
 37  18  21  1   
 38  18  39  1   
 39  18  40  1   
 40  19  41  1   
 41  20  21  1   
 42  20  22  1   
 43  20  23  1   
 44  21  42  1   
 45  21  43  1   
 46  22  44  1   
 47  23  45  1   
 48  23  46  1   
 49  23  47  1   
@<TRIPOS>SUBSTRUCTURE
  1 ****  11 GROUP 4 **** **** 0

# MOE 2024.06 (io_trps.svl 2023.06)
