@<TRIPOS>MOLECULE
NONAME
43 45 1 0 0 
SMALL
USER_CHARGES


@<TRIPOS>ATOM
  1 F        0.7620     0.5570    -0.4620 F     1 <1>  -0.3400 
  2 C        0.2940     1.7900    -0.3340 C.3   1 <1>   0.8800 
  3 F       -0.6520     1.9180    -1.2560 F     1 <1>  -0.3400 
  4 O        1.3400     2.6850    -0.6340 O.3   1 <1>  -0.3630 
  5 C        1.2480     4.0010    -0.3430 C.ar  1 <1>   0.0830 
  6 C        0.0800     4.6300     0.0790 C.ar  1 <1>  -0.1500 
  7 C        2.4050     4.7500    -0.4760 C.ar  1 <1>  -0.1500 
  8 C        0.0900     5.9830     0.3620 C.ar  1 <1>  -0.1500 
  9 C        2.4050     6.1020    -0.1900 C.ar  1 <1>  -0.1500 
 10 C        1.2450     6.7570     0.2310 C.ar  1 <1>   0.0860 
 11 C        1.2220     8.1780     0.5220 C.2   1 <1>   0.5440 
 12 O        0.4710     8.6170     1.3710 O.2   1 <1>  -0.5700 
 13 N        2.0510     9.0290    -0.1720 N.am  1 <1>  -0.4940 
 14 C        2.1850    10.4340    -0.0550 C.2   1 <1>  -0.0880 
 15 N        3.3670    11.0930     0.0980 N.pl3 1 <1>   0.3140 
 16 C        1.2200    11.3840    -0.0840 C.2   1 <1>  -0.1810 
 17 N        3.1790    12.4360     0.1430 N.2   1 <1>  -0.7070 
 18 C        4.7120    10.4640     0.2470 C.3   1 <1>   0.1760 
 19 C        1.8960    12.5910     0.0440 C.2   1 <1>   0.1390 
 20 C       -0.2820    11.2230    -0.2230 C.3   1 <1>  -0.0590 
 21 C        5.4760    10.9350     1.4840 C.3   1 <1>  -0.1600 
 22 C        5.6550    10.7850    -0.9140 C.3   1 <1>  -0.1600 
 23 C        6.9360    10.5950     1.1800 C.3   1 <1>  -0.1600 
 24 C        7.0720    10.6240    -0.3480 C.3   1 <1>  -0.1600 
 25 H       -0.1150     1.9290     0.6500 H     1 <1>   0.0800 
 26 H       -0.8470     4.0950     0.1860 H     1 <1>   0.1500 
 27 H        3.3070     4.2610    -0.8010 H     1 <1>   0.1500 
 28 H       -0.8170     6.4640     0.6920 H     1 <1>   0.1500 
 29 H        3.3260     6.6490    -0.2860 H     1 <1>   0.1500 
 30 H        2.5850     8.5980    -0.9250 H     1 <1>   0.3700 
 31 H        4.5930     9.3990     0.3130 H     1 <1>   0.0800 
 32 H        1.4180    13.5560     0.0580 H     1 <1>   0.1500 
 33 H       -0.5150    10.2760    -0.6730 H     1 <1>   0.0800 
 34 H       -0.6870    12.0070    -0.8360 H     1 <1>   0.0800 
 35 H       -0.7390    11.2610     0.7500 H     1 <1>   0.0800 
 36 H        5.1260    10.4520     2.3790 H     1 <1>   0.0800 
 37 H        5.3800    12.0030     1.5890 H     1 <1>   0.0800 
 38 H        5.5160    11.8100    -1.2160 H     1 <1>   0.0800 
 39 H        5.4860    10.1390    -1.7560 H     1 <1>   0.0800 
 40 H        7.1590     9.6060     1.5420 H     1 <1>   0.0800 
 41 H        7.6040    11.2950     1.6520 H     1 <1>   0.0800 
 42 H        7.6910    11.4480    -0.6600 H     1 <1>   0.0800 
 43 H        7.5170     9.7070    -0.6950 H     1 <1>   0.0800 
@<TRIPOS>BOND
  1   1   2  1   
  2   2   3  1   
  3   2   4  1   
  4   2  25  1   
  5   4   5  1   
  6   5   6  ar  
  7   5   7  ar  
  8   6   8  ar  
  9   6  26  1   
 10   7   9  ar  
 11   7  27  1   
 12   8  10  ar  
 13   8  28  1   
 14   9  10  ar  
 15   9  29  1   
 16  10  11  1   
 17  11  12  2   
 18  11  13  am  
 19  13  14  1   
 20  13  30  1   
 21  14  15  1   
 22  14  16  2   
 23  15  17  1   
 24  15  18  1   
 25  16  19  1   
 26  16  20  1   
 27  17  19  2   
 28  18  21  1   
 29  18  22  1   
 30  18  31  1   
 31  19  32  1   
 32  20  33  1   
 33  20  34  1   
 34  20  35  1   
 35  21  23  1   
 36  21  36  1   
 37  21  37  1   
 38  22  24  1   
 39  22  38  1   
 40  22  39  1   
 41  23  24  1   
 42  23  40  1   
 43  23  41  1   
 44  24  42  1   
 45  24  43  1   
@<TRIPOS>SUBSTRUCTURE
  1 ****  11 GROUP 4 **** **** 0

# MOE 2024.06 (io_trps.svl 2023.06)
