@<TRIPOS>MOLECULE
NONAME
51 53 1 0 0 
SMALL
USER_CHARGES


@<TRIPOS>ATOM
  1 O        5.0510    -1.3650    -0.0280 O.2   1 <1>  -0.5700 
  2 C        3.8930    -1.5090    -0.3880 C.2   1 <1>   0.5440 
  3 N        3.3890    -0.5120    -1.1910 N.am  1 <1>  -0.6600 
  4 C        3.0830    -2.6150     0.0730 C.ar  1 <1>   0.0860 
  5 C        4.2000     0.0070    -2.3420 C.3   1 <1>   0.1400 
  6 C        2.3350     0.3990    -0.6730 C.3   1 <1>   0.1400 
  7 C        1.9150    -2.9900    -0.5890 C.ar  1 <1>   0.1600 
  8 C        3.4210    -3.3610     1.1990 C.ar  1 <1>  -0.1500 
  9 C        5.0090     1.2750    -1.9930 C.3   1 <1>   0.3430 
 10 C        2.8970     1.2620     0.4680 C.3   1 <1>  -0.1600 
 11 N        1.0960    -3.9620    -0.2380 N.ar  1 <1>  -0.6200 
 12 C        2.5830    -4.3820     1.5760 C.ar  1 <1>  -0.1500 
 13 N        5.1960     1.4030    -0.5120 N.4   1 <1>  -0.9590 
 14 C        4.0770     2.1750     0.1060 C.3   1 <1>   0.3430 
 15 C        1.4310    -4.6620     0.8420 C.ar  1 <1>   0.4100 
 16 C        6.5650     1.8750    -0.1460 C.3   1 <1>   0.3430 
 17 N        0.5920    -5.6920     1.2180 N.pl3 1 <1>  -0.8380 
 18 C        6.9480     1.4360     1.2720 C.3   1 <1>   0.0960 
 19 C       -0.8440    -5.6750     0.8250 C.3   1 <1>   0.1290 
 20 C        1.1360    -7.0370     1.5440 C.3   1 <1>   0.1290 
 21 N        8.3300     1.8610     1.5390 N.pl3 1 <1>   0.0480 
 22 C        8.7650     3.0240     2.0260 C.2   1 <1>   0.0360 
 23 C        9.4640     1.2030     1.2950 C.2   1 <1>   0.0360 
 24 N       10.0500     3.0740     2.0620 N.2   1 <1>  -0.3380 
 25 N       10.4970     1.9080     1.5940 N.2   1 <1>  -0.3380 
 26 H        3.5560     0.2040    -3.1820 H     1 <1>   0.0800 
 27 H        4.8900    -0.7620    -2.6500 H     1 <1>   0.0800 
 28 H        1.5080    -0.1860    -0.3030 H     1 <1>   0.0800 
 29 H        1.9620     1.0220    -1.4700 H     1 <1>   0.0800 
 30 H        1.6390    -2.4470    -1.4750 H     1 <1>   0.1500 
 31 H        4.3140    -3.1400     1.7580 H     1 <1>   0.1500 
 32 H        4.5000     2.1440    -2.3760 H     1 <1>   0.0800 
 33 H        5.9640     1.2140    -2.4880 H     1 <1>   0.0800 
 34 H        3.1780     0.6270     1.2910 H     1 <1>   0.0800 
 35 H        2.1000     1.8870     0.8300 H     1 <1>   0.0800 
 36 H        2.7970    -4.9730     2.4450 H     1 <1>   0.1500 
 37 H        5.0970     0.4140    -0.1840 H     1 <1>   0.4500 
 38 H        4.4200     2.6570     1.0060 H     1 <1>   0.0800 
 39 H        3.7470     2.9450    -0.5730 H     1 <1>   0.0800 
 40 H        6.6180     2.9490    -0.2270 H     1 <1>   0.0800 
 41 H        7.2800     1.4470    -0.8310 H     1 <1>   0.0800 
 42 H        6.8950     0.3650     1.3590 H     1 <1>   0.0800 
 43 H        6.3020     1.8870     2.0030 H     1 <1>   0.0800 
 44 H       -1.2060    -4.6620     0.7940 H     1 <1>   0.0800 
 45 H       -1.4280    -6.2260     1.5400 H     1 <1>   0.0800 
 46 H       -0.9590    -6.1150    -0.1500 H     1 <1>   0.0800 
 47 H        2.2070    -7.0490     1.4450 H     1 <1>   0.0800 
 48 H        0.7270    -7.7700     0.8700 H     1 <1>   0.0800 
 49 H        0.8720    -7.2980     2.5530 H     1 <1>   0.0800 
 50 H        8.1200     3.8230     2.3470 H     1 <1>   0.1500 
 51 H        9.5060     0.2050     0.8940 H     1 <1>   0.1500 
@<TRIPOS>BOND
  1   1   2  2   
  2   2   3  am  
  3   2   4  1   
  4   3   5  1   
  5   3   6  1   
  6   4   7  ar  
  7   4   8  ar  
  8   5   9  1   
  9   5  26  1   
 10   5  27  1   
 11   6  10  1   
 12   6  28  1   
 13   6  29  1   
 14   7  11  ar  
 15   7  30  1   
 16   8  12  ar  
 17   8  31  1   
 18   9  13  1   
 19   9  32  1   
 20   9  33  1   
 21  10  14  1   
 22  10  34  1   
 23  10  35  1   
 24  11  15  ar  
 25  12  15  ar  
 26  12  36  1   
 27  13  14  1   
 28  13  16  1   
 29  13  37  1   
 30  14  38  1   
 31  14  39  1   
 32  15  17  1   
 33  16  18  1   
 34  16  40  1   
 35  16  41  1   
 36  17  19  1   
 37  17  20  1   
 38  18  21  1   
 39  18  42  1   
 40  18  43  1   
 41  19  44  1   
 42  19  45  1   
 43  19  46  1   
 44  20  47  1   
 45  20  48  1   
 46  20  49  1   
 47  21  22  1   
 48  21  23  1   
 49  22  24  2   
 50  22  50  1   
 51  23  25  2   
 52  23  51  1   
 53  24  25  1   
@<TRIPOS>SUBSTRUCTURE
  1 ****   1 GROUP 4 **** **** 0

# MOE 2024.06 (io_trps.svl 2023.06)
