@<TRIPOS>MOLECULE
NONAME
49 52 1 0 0 
SMALL
USER_CHARGES


@<TRIPOS>ATOM
  1 O       -0.5600    -1.6710    -1.2200 O.co2 1 <1>  -0.9000 
  2 C       -1.4330    -1.0480    -0.6100 C.2   1 <1>   0.9060 
  3 O       -1.2160    -0.3840     0.4060 O.co2 1 <1>  -0.9000 
  4 C       -2.8910    -1.2860    -1.0030 C.3   1 <1>   0.2370 
  5 N       -3.5090    -2.5470    -0.4150 N.4   1 <1>  -0.9590 
  6 C       -3.5100    -2.4970     1.0930 C.3   1 <1>   0.4230 
  7 C       -2.8730    -3.7640    -1.0110 C.3   1 <1>   0.3430 
  8 C       -2.2380    -3.0410     1.7940 C.3   1 <1>   0.1200 
  9 C       -4.7800    -3.2350     1.5890 C.3   1 <1>   0.1400 
 10 C       -3.0540    -5.0750    -0.2170 C.3   1 <1>  -0.0800 
 11 O       -2.2940    -4.4280     1.9860 O.3   1 <1>  -0.5600 
 12 N       -5.3250    -4.2110     0.5740 N.am  1 <1>  -0.6600 
 13 C       -1.9810    -5.1970     0.8770 C.3   1 <1>   0.1200 
 14 C       -4.4800    -5.4110     0.2910 C.3   1 <1>   0.1400 
 15 C       -6.3740    -3.8460    -0.2280 C.2   1 <1>   0.5690 
 16 O       -6.4990    -2.6810    -0.5280 O.2   1 <1>  -0.5700 
 17 C       -7.3550    -4.8500    -0.8300 C.3   1 <1>   0.0820 
 18 C       -7.5590    -6.1060     0.0080 C.2   1 <1>  -0.1810 
 19 C       -7.2230    -7.4190    -0.3980 C.ar  1 <1>   0.0000 
 20 C       -8.0660    -6.1810     1.2610 C.2   1 <1>  -0.3020 
 21 C       -7.5360    -8.2500     0.6730 C.ar  1 <1>  -0.1520 
 22 C       -6.6830    -7.9780    -1.5630 C.ar  1 <1>  -0.1500 
 23 N       -8.0610    -7.4810     1.6790 N.pl3 1 <1>   0.0330 
 24 C       -7.3060    -9.6260     0.6100 C.ar  1 <1>  -0.1500 
 25 C       -6.4570    -9.3330    -1.6260 C.ar  1 <1>  -0.1500 
 26 C       -6.7660   -10.1580    -0.5380 C.ar  1 <1>  -0.1500 
 27 H       -2.9300    -1.3280    -2.0760 H     1 <1>   0.0800 
 28 H       -3.4480    -0.4260    -0.6790 H     1 <1>   0.0800 
 29 H       -4.5190    -2.5760    -0.6500 H     1 <1>   0.4500 
 30 H       -3.5940    -1.4640     1.3880 H     1 <1>   0.0800 
 31 H       -3.2730    -3.9020    -2.0010 H     1 <1>   0.0800 
 32 H       -1.8140    -3.5880    -1.1210 H     1 <1>   0.0800 
 33 H       -2.1810    -2.6030     2.7740 H     1 <1>   0.0800 
 34 H       -1.3310    -2.7830     1.2760 H     1 <1>   0.0800 
 35 H       -5.5320    -2.4940     1.7990 H     1 <1>   0.0800 
 36 H       -4.5890    -3.7450     2.5160 H     1 <1>   0.0800 
 37 H       -2.8000    -5.8560    -0.9100 H     1 <1>   0.0800 
 38 H       -1.0080    -4.9050     0.5140 H     1 <1>   0.0800 
 39 H       -1.9210    -6.2170     1.2150 H     1 <1>   0.0800 
 40 H       -4.4270    -6.0200     1.1780 H     1 <1>   0.0800 
 41 H       -4.9580    -6.0050    -0.4660 H     1 <1>   0.0800 
 42 H       -8.3070    -4.3620    -0.9390 H     1 <1>   0.0800 
 43 H       -7.0150    -5.1110    -1.8130 H     1 <1>   0.0800 
 44 H       -8.4300    -5.3870     1.8900 H     1 <1>   0.1500 
 45 H       -6.4540    -7.3460    -2.4010 H     1 <1>   0.1500 
 46 H       -8.3920    -7.8350     2.5820 H     1 <1>   0.2700 
 47 H       -7.5510   -10.2530     1.4490 H     1 <1>   0.1500 
 48 H       -6.0430    -9.7770    -2.5140 H     1 <1>   0.1500 
 49 H       -6.5810   -11.2150    -0.6110 H     1 <1>   0.1500 
@<TRIPOS>BOND
  1   1   2  ar  
  2   2   3  ar  
  3   2   4  1   
  4   4   5  1   
  5   4  27  1   
  6   4  28  1   
  7   5   6  1   
  8   5   7  1   
  9   5  29  1   
 10   6   8  1   
 11   6   9  1   
 12   6  30  1   
 13   7  10  1   
 14   7  31  1   
 15   7  32  1   
 16   8  11  1   
 17   8  33  1   
 18   8  34  1   
 19   9  12  1   
 20   9  35  1   
 21   9  36  1   
 22  10  13  1   
 23  10  14  1   
 24  10  37  1   
 25  11  13  1   
 26  12  14  1   
 27  12  15  am  
 28  13  38  1   
 29  13  39  1   
 30  14  40  1   
 31  14  41  1   
 32  15  16  2   
 33  15  17  1   
 34  17  18  1   
 35  17  42  1   
 36  17  43  1   
 37  18  19  1   
 38  18  20  2   
 39  19  21  ar  
 40  19  22  ar  
 41  20  23  1   
 42  20  44  1   
 43  21  23  1   
 44  21  24  ar  
 45  22  25  ar  
 46  22  45  1   
 47  23  46  1   
 48  24  26  ar  
 49  24  47  1   
 50  25  26  ar  
 51  25  48  1   
 52  26  49  1   
@<TRIPOS>SUBSTRUCTURE
  1 ****  14 GROUP 4 **** **** 0

# MOE 2024.06 (io_trps.svl 2023.06)
