@<TRIPOS>MOLECULE
NONAME
45 46 1 0 0 
SMALL
USER_CHARGES


@<TRIPOS>ATOM
  1 CL      -4.1070     1.1710    -2.3470 Cl    1 <1>  -0.1770 
  2 C       -3.1630     1.0080    -0.8840 C.ar  1 <1>   0.1770 
  3 C       -2.7770    -0.2460    -0.4110 C.ar  1 <1>  -0.1440 
  4 C       -2.8140     2.1730    -0.2270 C.ar  1 <1>  -0.1500 
  5 C       -1.9980    -0.3090     0.7420 C.ar  1 <1>  -0.1500 
  6 C       -3.1550    -1.5410    -1.1330 C.3   1 <1>   0.2540 
  7 C       -2.0570     2.0660     0.9200 C.ar  1 <1>   0.1900 
  8 C       -1.6390     0.8470     1.4170 C.ar  1 <1>  -0.1500 
  9 N       -4.3960    -2.1690    -0.6160 N.3   1 <1>  -0.8100 
 10 F       -1.7230     3.1540     1.5580 F     1 <1>  -0.1900 
 11 C       -4.2630    -2.5390     0.8090 C.3   1 <1>   0.2900 
 12 C       -5.5900    -1.3460    -0.9250 C.3   1 <1>   0.1100 
 13 C       -5.3030    -3.5790     1.1490 C.2   1 <1>  -0.3320 
 14 C       -6.9180    -2.1160    -0.7930 C.3   1 <1>   0.3430 
 15 N       -5.3870    -4.7660     0.5220 N.pl3 1 <1>   0.0330 
 16 C       -6.3070    -3.5530     2.0520 C.2   1 <1>   0.0770 
 17 N       -8.0730    -1.4360    -1.4670 N.4   1 <1>  -0.9590 
 18 C       -6.4660    -5.3740     1.0580 C.2   1 <1>   0.0060 
 19 N       -7.0540    -4.6680     1.9670 N.2   1 <1>  -0.5650 
 20 C       -8.3530    -0.0860    -0.8870 C.3   1 <1>   0.2630 
 21 C       -9.2790    -2.3120    -1.3560 C.3   1 <1>   0.2630 
 22 C       -6.9280    -6.7520     0.6340 C.3   1 <1>  -0.0600 
 23 H       -3.1160     3.1350    -0.5980 H     1 <1>   0.1500 
 24 H       -1.6580    -1.2570     1.1220 H     1 <1>   0.1500 
 25 H       -2.3450    -2.2440    -1.0310 H     1 <1>   0.0800 
 26 H       -3.2600    -1.3580    -2.1890 H     1 <1>   0.0800 
 27 H       -1.0410     0.8090     2.3110 H     1 <1>   0.1500 
 28 H       -4.3760    -1.6710     1.4380 H     1 <1>   0.0800 
 29 H       -3.2900    -2.9650     0.9880 H     1 <1>   0.0800 
 30 H       -5.5140    -1.0270    -1.9490 H     1 <1>   0.0800 
 31 H       -5.6020    -0.4770    -0.2890 H     1 <1>   0.0800 
 32 H       -7.1490    -2.2420     0.2500 H     1 <1>   0.0800 
 33 H       -6.7810    -3.0940    -1.2240 H     1 <1>   0.0800 
 34 H       -4.7650    -5.1240    -0.2100 H     1 <1>   0.2700 
 35 H       -6.5490    -2.7780     2.7610 H     1 <1>   0.1500 
 36 H       -7.8380    -1.3290    -2.4660 H     1 <1>   0.4500 
 37 H       -8.5750    -0.1700     0.1650 H     1 <1>   0.0800 
 38 H       -9.1980     0.3650    -1.3820 H     1 <1>   0.0800 
 39 H       -7.5000     0.5620    -1.0100 H     1 <1>   0.0800 
 40 H       -9.5350    -2.4680    -0.3200 H     1 <1>   0.0800 
 41 H       -9.0880    -3.2730    -1.8080 H     1 <1>   0.0800 
 42 H      -10.1200    -1.8590    -1.8560 H     1 <1>   0.0800 
 43 H       -7.1540    -6.7650    -0.4160 H     1 <1>   0.0800 
 44 H       -7.8120    -7.0240     1.1830 H     1 <1>   0.0800 
 45 H       -6.1620    -7.4760     0.8430 H     1 <1>   0.0800 
@<TRIPOS>BOND
  1   1   2  1   
  2   2   3  ar  
  3   2   4  ar  
  4   3   5  ar  
  5   3   6  1   
  6   4   7  ar  
  7   4  23  1   
  8   5   8  ar  
  9   5  24  1   
 10   6   9  1   
 11   6  25  1   
 12   6  26  1   
 13   7   8  ar  
 14   7  10  1   
 15   8  27  1   
 16   9  11  1   
 17   9  12  1   
 18  11  13  1   
 19  11  28  1   
 20  11  29  1   
 21  12  14  1   
 22  12  30  1   
 23  12  31  1   
 24  13  15  1   
 25  13  16  2   
 26  14  17  1   
 27  14  32  1   
 28  14  33  1   
 29  15  18  1   
 30  15  34  1   
 31  16  19  1   
 32  16  35  1   
 33  17  20  1   
 34  17  21  1   
 35  17  36  1   
 36  18  19  2   
 37  18  22  1   
 38  20  37  1   
 39  20  38  1   
 40  20  39  1   
 41  21  40  1   
 42  21  41  1   
 43  21  42  1   
 44  22  43  1   
 45  22  44  1   
 46  22  45  1   
@<TRIPOS>SUBSTRUCTURE
  1 ****   9 GROUP 4 **** **** 0

# MOE 2024.06 (io_trps.svl 2023.06)
