@<TRIPOS>MOLECULE
NONAME
34 35 1 0 0 
SMALL
USER_CHARGES


@<TRIPOS>ATOM
  1 O       -0.5200     0.7640    -0.4820 O.2   1 <1>  -0.5700 
  2 C       -0.4370     1.9650    -0.5110 C.2   1 <1>   0.5690 
  3 N       -1.2810     2.7320     0.2130 N.am  1 <1>  -0.7300 
  4 C        0.6120     2.6450    -1.3960 C.3   1 <1>   0.1810 
  5 C       -1.2690     4.2160     0.1940 C.3   1 <1>   0.3640 
  6 O        0.8680     3.9760    -1.0080 O.3   1 <1>  -0.5600 
  7 C       -2.6930     4.7210    -0.0220 C.ar  1 <1>  -0.1440 
  8 C       -0.2980     4.7800    -0.8730 C.3   1 <1>   0.2610 
  9 C       -3.1560     5.8010     0.7180 C.ar  1 <1>  -0.1500 
 10 C       -3.5400     4.1310    -0.9520 C.ar  1 <1>  -0.1500 
 11 C        0.0320     6.2440    -0.5410 C.2   1 <1>   0.5690 
 12 C       -4.4420     6.2770     0.5370 C.ar  1 <1>  -0.1500 
 13 C       -4.8270     4.6060    -1.1330 C.ar  1 <1>  -0.1500 
 14 O       -0.5130     7.0840    -1.2220 O.2   1 <1>  -0.5700 
 15 N        0.8770     6.6100     0.4910 N.am  1 <1>  -0.6600 
 16 C       -5.2790     5.6800    -0.3880 C.ar  1 <1>  -0.1500 
 17 C        1.7280     5.6690     1.2750 C.3   1 <1>   0.0600 
 18 C        1.1630     8.0460     0.7770 C.3   1 <1>   0.0600 
 19 H       -2.0120     2.2780     0.7640 H     1 <1>   0.3700 
 20 H        0.2760     2.6460    -2.4170 H     1 <1>   0.0800 
 21 H        1.5370     2.1010    -1.3350 H     1 <1>   0.0800 
 22 H       -0.9400     4.5470     1.1630 H     1 <1>   0.0800 
 23 H       -0.7950     4.7740    -1.8270 H     1 <1>   0.0800 
 24 H       -2.5170     6.2860     1.4370 H     1 <1>   0.1500 
 25 H       -3.2060     3.2950    -1.5440 H     1 <1>   0.1500 
 26 H       -4.7910     7.1170     1.1130 H     1 <1>   0.1500 
 27 H       -5.4760     4.1420    -1.8550 H     1 <1>   0.1500 
 28 H       -6.2790     6.0510    -0.5290 H     1 <1>   0.1500 
 29 H        1.8530     6.0340     2.2790 H     1 <1>   0.0800 
 30 H        2.6950     5.5910     0.8080 H     1 <1>   0.0800 
 31 H        1.2920     4.6890     1.3260 H     1 <1>   0.0800 
 32 H        1.0260     8.2440     1.8250 H     1 <1>   0.0800 
 33 H        0.5040     8.6910     0.2220 H     1 <1>   0.0800 
 34 H        2.1770     8.2740     0.5020 H     1 <1>   0.0800 
@<TRIPOS>BOND
  1   1   2  2   
  2   2   3  am  
  3   2   4  1   
  4   3   5  1   
  5   3  19  1   
  6   4   6  1   
  7   4  20  1   
  8   4  21  1   
  9   5   7  1   
 10   5   8  1   
 11   5  22  1   
 12   6   8  1   
 13   7   9  ar  
 14   7  10  ar  
 15   8  11  1   
 16   8  23  1   
 17   9  12  ar  
 18   9  24  1   
 19  10  13  ar  
 20  10  25  1   
 21  11  14  2   
 22  11  15  am  
 23  12  16  ar  
 24  12  26  1   
 25  13  16  ar  
 26  13  27  1   
 27  15  17  1   
 28  15  18  1   
 29  16  28  1   
 30  17  29  1   
 31  17  30  1   
 32  17  31  1   
 33  18  32  1   
 34  18  33  1   
 35  18  34  1   
@<TRIPOS>SUBSTRUCTURE
  1 ****   5 GROUP 4 **** **** 0

# MOE 2024.06 (io_trps.svl 2023.06)
