@<TRIPOS>MOLECULE
NONAME
48 50 1 0 0 
SMALL
USER_CHARGES


@<TRIPOS>ATOM
  1 O       -4.4740    -0.0610    -2.2780 O.2   1 <1>  -0.5700 
  2 C       -3.9650    -0.6720    -1.3790 C.2   1 <1>   0.5690 
  3 N       -3.3400    -0.0210    -0.3830 N.am  1 <1>  -0.7300 
  4 C       -4.0650    -2.1730    -1.3470 C.3   1 <1>  -0.0190 
  5 C       -2.6800    -0.6540     0.7820 C.3   1 <1>   0.2200 
  6 C       -2.6730    -2.8400    -1.3960 C.3   1 <1>   0.1200 
  7 C       -4.9820    -2.5760    -0.1840 C.3   1 <1>   0.3430 
  8 C       -1.5420    -1.5940     0.3130 C.3   1 <1>   0.1200 
  9 C       -3.7330    -1.3520     1.6900 C.3   1 <1>   0.3430 
 10 O       -2.0100    -2.8330    -0.1590 O.3   1 <1>  -0.5600 
 11 N       -4.2900    -2.6450     1.1510 N.4   1 <1>  -0.9590 
 12 C       -5.0760    -3.3980     2.1640 C.3   1 <1>   0.4860 
 13 C       -5.2870    -4.8060     1.6470 C.ar  1 <1>  -0.1440 
 14 C       -6.5150    -5.1700     1.1190 C.ar  1 <1>  -0.1500 
 15 C       -4.2540    -5.7300     1.6680 C.ar  1 <1>  -0.1500 
 16 C       -6.7180    -6.4330     0.5880 C.ar  1 <1>  -0.1440 
 17 C       -4.4480    -6.9980     1.1520 C.ar  1 <1>  -0.1500 
 18 C       -5.6760    -7.3590     0.6050 C.ar  1 <1>   0.0820 
 19 C       -8.0870    -6.7510    -0.0050 C.3   1 <1>   0.1220 
 20 O       -5.9060    -8.5890     0.0770 O.3   1 <1>  -0.3620 
 21 C       -8.3490    -5.8560    -1.2060 C.2   1 <1>  -0.2880 
 22 C       -4.9410    -9.6180     0.1180 C.3   1 <1>   0.0400 
 23 C       -9.3250    -4.9480    -1.3010 C.2   1 <1>  -0.3000 
 24 H       -3.2610     0.9960    -0.4930 H     1 <1>   0.3700 
 25 H       -4.5730    -2.4510    -2.2530 H     1 <1>   0.0800 
 26 H       -2.2300     0.1410     1.3530 H     1 <1>   0.0800 
 27 H       -2.0430    -2.3620    -2.1300 H     1 <1>   0.0800 
 28 H       -2.7840    -3.8730    -1.6810 H     1 <1>   0.0800 
 29 H       -5.3790    -3.5490    -0.4210 H     1 <1>   0.0800 
 30 H       -5.8150    -1.8920    -0.1330 H     1 <1>   0.0800 
 31 H       -0.8960    -1.8090     1.1470 H     1 <1>   0.0800 
 32 H       -0.9450    -1.1270    -0.4530 H     1 <1>   0.0800 
 33 H       -4.5370    -0.6600     1.8780 H     1 <1>   0.0800 
 34 H       -3.2560    -1.5580     2.6340 H     1 <1>   0.0800 
 35 H       -3.4510    -3.2220     0.9400 H     1 <1>   0.4500 
 36 H       -4.5400    -3.4400     3.0980 H     1 <1>   0.0800 
 37 H       -6.0270    -2.9190     2.3320 H     1 <1>   0.0800 
 38 H       -7.3330    -4.4680     1.1030 H     1 <1>   0.1500 
 39 H       -3.2910    -5.4790     2.0800 H     1 <1>   0.1500 
 40 H       -3.6290    -7.6930     1.1820 H     1 <1>   0.1500 
 41 H       -8.1620    -7.7790    -0.3120 H     1 <1>   0.0800 
 42 H       -8.8400    -6.5880     0.7450 H     1 <1>   0.0800 
 43 H       -7.6470    -6.0380    -2.0030 H     1 <1>   0.1500 
 44 H       -5.3710   -10.4960    -0.3300 H     1 <1>   0.0800 
 45 H       -4.6880    -9.8190     1.1440 H     1 <1>   0.0800 
 46 H       -4.0760    -9.3100    -0.4420 H     1 <1>   0.0800 
 47 H       -9.4890    -4.3320    -2.1690 H     1 <1>   0.1500 
 48 H      -10.0460    -4.7460    -0.5270 H     1 <1>   0.1500 
@<TRIPOS>BOND
  1   1   2  2   
  2   2   3  am  
  3   2   4  1   
  4   3   5  1   
  5   3  24  1   
  6   4   6  1   
  7   4   7  1   
  8   4  25  1   
  9   5   8  1   
 10   5   9  1   
 11   5  26  1   
 12   6  10  1   
 13   6  27  1   
 14   6  28  1   
 15   7  11  1   
 16   7  29  1   
 17   7  30  1   
 18   8  10  1   
 19   8  31  1   
 20   8  32  1   
 21   9  11  1   
 22   9  33  1   
 23   9  34  1   
 24  11  12  1   
 25  11  35  1   
 26  12  13  1   
 27  12  36  1   
 28  12  37  1   
 29  13  14  ar  
 30  13  15  ar  
 31  14  16  ar  
 32  14  38  1   
 33  15  17  ar  
 34  15  39  1   
 35  16  18  ar  
 36  16  19  1   
 37  17  18  ar  
 38  17  40  1   
 39  18  20  1   
 40  19  21  1   
 41  19  41  1   
 42  19  42  1   
 43  20  22  1   
 44  21  23  2   
 45  21  43  1   
 46  22  44  1   
 47  22  45  1   
 48  22  46  1   
 49  23  47  1   
 50  23  48  1   
@<TRIPOS>SUBSTRUCTURE
  1 ****   7 GROUP 4 **** **** 0

# MOE 2024.06 (io_trps.svl 2023.06)
