@<TRIPOS>MOLECULE
NONAME
44 47 1 0 0 
SMALL
USER_CHARGES


@<TRIPOS>ATOM
  1 S       -0.9720     0.6910     1.9680 S.3   1 <1>  -0.0800 
  2 C       -1.1160     1.4980     0.4130 C.2   1 <1>  -0.1400 
  3 C       -2.4240    -0.2490     1.6480 C.2   1 <1>  -0.1100 
  4 C       -2.1950     1.0630    -0.2490 C.2   1 <1>  -0.1810 
  5 C       -0.1120     2.5410    -0.0680 C.3   1 <1>   0.4600 
  6 C       -2.9450     0.0620     0.4460 C.2   1 <1>  -0.1500 
  7 C       -2.5130     1.6340    -1.6120 C.3   1 <1>   0.0210 
  8 O       -0.4280     2.8890    -1.4010 O.3   1 <1>  -0.5600 
  9 C       -0.1820     3.8130     0.7940 C.3   1 <1>  -0.1600 
 10 C        1.3090     1.9500    -0.1250 C.3   1 <1>  -0.1600 
 11 C       -1.7840     2.9820    -1.7740 C.3   1 <1>   0.1200 
 12 C        1.0720     4.6630     0.6110 C.3   1 <1>   0.1400 
 13 C        2.1900     2.4140     1.0360 C.3   1 <1>   0.1400 
 14 N        2.2870     3.9080     1.0550 N.am  1 <1>  -0.6600 
 15 C        3.4780     4.5140     1.3880 C.2   1 <1>   0.5690 
 16 O        4.4410     3.8680     1.7330 O.2   1 <1>  -0.5700 
 17 C        3.6510     6.0250     1.3810 C.3   1 <1>   0.1570 
 18 N        3.3970     6.6140     0.0480 N.pl3 1 <1>   0.0480 
 19 C        2.6680     7.7160    -0.2630 C.2   1 <1>   0.0060 
 20 C        3.8190     6.1400    -1.1400 C.2   1 <1>  -0.3020 
 21 N        2.5970     7.9500    -1.5310 N.2   1 <1>  -0.5650 
 22 C        1.9930     8.6050     0.7620 C.3   1 <1>  -0.0600 
 23 C        3.3220     6.9630    -2.0860 C.2   1 <1>   0.0770 
 24 H       -2.7370    -0.9460     2.4060 H     1 <1>   0.1500 
 25 H       -3.8300    -0.3730     0.0150 H     1 <1>   0.1500 
 26 H       -3.5720     1.7870    -1.7120 H     1 <1>   0.0800 
 27 H       -2.1920     0.9510    -2.3770 H     1 <1>   0.0800 
 28 H       -0.2590     3.5460     1.8320 H     1 <1>   0.0800 
 29 H       -1.0560     4.3850     0.5510 H     1 <1>   0.0800 
 30 H        1.7930     2.2470    -1.0390 H     1 <1>   0.0800 
 31 H        1.2580     0.8770    -0.1230 H     1 <1>   0.0800 
 32 H       -2.2560     3.7340    -1.1670 H     1 <1>   0.0800 
 33 H       -1.8190     3.3010    -2.8010 H     1 <1>   0.0800 
 34 H        0.9700     5.5660     1.1850 H     1 <1>   0.0800 
 35 H        1.1780     4.9270    -0.4290 H     1 <1>   0.0800 
 36 H        3.1690     1.9780     0.9290 H     1 <1>   0.0800 
 37 H        1.7770     2.0760     1.9710 H     1 <1>   0.0800 
 38 H        4.6580     6.2630     1.6660 H     1 <1>   0.0800 
 39 H        2.9830     6.4530     2.1010 H     1 <1>   0.0800 
 40 H        4.4310     5.2620    -1.2470 H     1 <1>   0.1500 
 41 H        2.7190     8.9880     1.4560 H     1 <1>   0.0800 
 42 H        1.2380     8.0570     1.2940 H     1 <1>   0.0800 
 43 H        1.5250     9.4370     0.2660 H     1 <1>   0.0800 
 44 H        3.4490     6.8950    -3.1540 H     1 <1>   0.1500 
@<TRIPOS>BOND
  1   1   2  1   
  2   1   3  1   
  3   2   4  2   
  4   2   5  1   
  5   3   6  2   
  6   3  24  1   
  7   4   6  1   
  8   4   7  1   
  9   5   8  1   
 10   5   9  1   
 11   5  10  1   
 12   6  25  1   
 13   7  11  1   
 14   7  26  1   
 15   7  27  1   
 16   8  11  1   
 17   9  12  1   
 18   9  28  1   
 19   9  29  1   
 20  10  13  1   
 21  10  30  1   
 22  10  31  1   
 23  11  32  1   
 24  11  33  1   
 25  12  14  1   
 26  12  34  1   
 27  12  35  1   
 28  13  14  1   
 29  13  36  1   
 30  13  37  1   
 31  14  15  am  
 32  15  16  2   
 33  15  17  1   
 34  17  18  1   
 35  17  38  1   
 36  17  39  1   
 37  18  19  1   
 38  18  20  1   
 39  19  21  2   
 40  19  22  1   
 41  20  23  2   
 42  20  40  1   
 43  21  23  1   
 44  22  41  1   
 45  22  42  1   
 46  22  43  1   
 47  23  44  1   
@<TRIPOS>SUBSTRUCTURE
  1 ****  12 GROUP 4 **** **** 0

# MOE 2024.06 (io_trps.svl 2023.06)
