@<TRIPOS>MOLECULE
NONAME
41 42 1 0 0 
SMALL
USER_CHARGES


@<TRIPOS>ATOM
  1 O        0.0670     0.9920    -0.0770 O.3   1 <1>  -0.3630 
  2 C        1.3180     1.5160    -0.1170 C.ar  1 <1>   0.0830 
  3 C       -1.0020     1.5980    -0.7690 C.3   1 <1>   0.0400 
  4 C        1.6540     2.6700    -0.8180 C.ar  1 <1>  -0.1500 
  5 C        2.3010     0.8410     0.5890 C.ar  1 <1>  -0.1500 
  6 C        2.9580     3.1330    -0.8040 C.ar  1 <1>  -0.1500 
  7 C        3.6040     1.3070     0.6010 C.ar  1 <1>  -0.1500 
  8 C        3.9420     2.4570    -0.0980 C.ar  1 <1>  -0.1430 
  9 C        5.3740     2.9780    -0.0930 C.3   1 <1>   0.3530 
 10 N        5.4340     4.3270     0.5320 N.pl3 1 <1>  -0.8380 
 11 C        6.4440     5.1770     0.1430 C.ar  1 <1>   0.4100 
 12 C        4.9740     4.3800     1.9450 C.3   1 <1>   0.1290 
 13 N        7.6450     4.6440     0.0300 N.ar  1 <1>  -0.6200 
 14 C        6.2200     6.5270    -0.1080 C.ar  1 <1>  -0.1430 
 15 C        8.6130     5.4680    -0.3090 C.ar  1 <1>   0.4770 
 16 C        7.3200     7.2740    -0.4500 C.ar  1 <1>   0.1600 
 17 C        4.8120     7.1230     0.0000 C.3   1 <1>  -0.0170 
 18 N        8.5300     6.7610    -0.5560 N.ar  1 <1>  -0.6200 
 19 C        9.9900     4.8640    -0.4360 C.3   1 <1>  -0.0970 
 20 C        4.5970     8.4110    -0.8040 C.3   1 <1>  -0.2400 
 21 H       -1.8870     1.0120    -0.5950 H     1 <1>   0.0800 
 22 H       -0.7730     1.6110    -1.8200 H     1 <1>   0.0800 
 23 H       -1.1430     2.5950    -0.3910 H     1 <1>   0.0800 
 24 H        0.9200     3.2200    -1.3750 H     1 <1>   0.1500 
 25 H        2.0350    -0.0500     1.1280 H     1 <1>   0.1500 
 26 H        3.2170     4.0290    -1.3420 H     1 <1>   0.1500 
 27 H        4.3520     0.7680     1.1560 H     1 <1>   0.1500 
 28 H        5.7320     3.0390    -1.1070 H     1 <1>   0.0800 
 29 H        6.0200     2.3080     0.4470 H     1 <1>   0.0800 
 30 H        3.8990     4.3430     1.9770 H     1 <1>   0.0800 
 31 H        5.3070     5.2900     2.4120 H     1 <1>   0.0800 
 32 H        5.3730     3.5450     2.4930 H     1 <1>   0.0800 
 33 H        7.2300     8.3260    -0.6490 H     1 <1>   0.1500 
 34 H        4.5930     7.3100     1.0370 H     1 <1>   0.0800 
 35 H        4.1020     6.3950    -0.3520 H     1 <1>   0.0800 
 36 H       10.0310     3.9160     0.0670 H     1 <1>   0.0800 
 37 H       10.7170     5.5220     0.0010 H     1 <1>   0.0800 
 38 H       10.2190     4.7230    -1.4750 H     1 <1>   0.0800 
 39 H        5.1800     9.2180    -0.3980 H     1 <1>   0.0800 
 40 H        3.5600     8.6950    -0.7630 H     1 <1>   0.0800 
 41 H        4.8680     8.2580    -1.8340 H     1 <1>   0.0800 
@<TRIPOS>BOND
  1   1   2  1   
  2   1   3  1   
  3   2   4  ar  
  4   2   5  ar  
  5   3  21  1   
  6   3  22  1   
  7   3  23  1   
  8   4   6  ar  
  9   4  24  1   
 10   5   7  ar  
 11   5  25  1   
 12   6   8  ar  
 13   6  26  1   
 14   7   8  ar  
 15   7  27  1   
 16   8   9  1   
 17   9  10  1   
 18   9  28  1   
 19   9  29  1   
 20  10  11  1   
 21  10  12  1   
 22  11  13  ar  
 23  11  14  ar  
 24  12  30  1   
 25  12  31  1   
 26  12  32  1   
 27  13  15  ar  
 28  14  16  ar  
 29  14  17  1   
 30  15  18  ar  
 31  15  19  1   
 32  16  18  ar  
 33  16  33  1   
 34  17  20  1   
 35  17  34  1   
 36  17  35  1   
 37  19  36  1   
 38  19  37  1   
 39  19  38  1   
 40  20  39  1   
 41  20  40  1   
 42  20  41  1   
@<TRIPOS>SUBSTRUCTURE
  1 ****  10 GROUP 4 **** **** 0

# MOE 2024.06 (io_trps.svl 2023.06)
