@<TRIPOS>MOLECULE
NONAME
54 56 1 0 0 
SMALL
USER_CHARGES


@<TRIPOS>ATOM
  1 O       -1.8580    -1.1140     0.8520 O.3   1 <1>  -0.5600 
  2 C       -0.5830    -1.6900     0.9440 C.3   1 <1>   0.1200 
  3 C       -2.8290    -1.7410     1.6450 C.3   1 <1>   0.1200 
  4 C       -0.6180    -3.1730     0.5080 C.3   1 <1>   0.3430 
  5 C       -2.9880    -3.2270     1.2440 C.3   1 <1>   0.3430 
  6 N       -2.0230    -3.5970     0.1450 N.4   1 <1>  -0.9590 
  7 C       -2.2120    -4.9630    -0.4480 C.3   1 <1>   0.4230 
  8 C       -1.7590    -6.1320     0.4960 C.3   1 <1>   0.3430 
  9 C       -1.5170    -4.9590    -1.8110 C.3   1 <1>  -0.2400 
 10 N       -1.9470    -7.5480    -0.0070 N.4   1 <1>  -0.9590 
 11 C       -2.1000    -8.4920     1.1450 C.3   1 <1>   0.5230 
 12 C       -0.8310    -8.0170    -0.9050 C.3   1 <1>   0.2630 
 13 C       -2.2540    -9.9020     0.6260 C.2   1 <1>  -0.3320 
 14 N       -3.3830   -10.4660     0.1300 N.pl3 1 <1>   0.0480 
 15 C       -1.2940   -10.8530     0.5730 C.2   1 <1>   0.0770 
 16 C       -3.0070   -11.7190    -0.2110 C.2   1 <1>   0.0360 
 17 C       -4.7660    -9.9450     0.0190 C.3   1 <1>   0.2390 
 18 N       -1.7670   -11.9820     0.0300 N.2   1 <1>  -0.5650 
 19 C       -4.7970    -8.5980    -0.6940 C.ar  1 <1>  -0.1440 
 20 C       -5.3880    -7.4980    -0.0900 C.ar  1 <1>  -0.1500 
 21 C       -4.2730    -8.4720    -1.9730 C.ar  1 <1>  -0.1500 
 22 C       -5.4650    -6.2900    -0.7610 C.ar  1 <1>  -0.1500 
 23 C       -4.3420    -7.2620    -2.6400 C.ar  1 <1>  -0.1500 
 24 C       -4.9430    -6.1720    -2.0380 C.ar  1 <1>  -0.1500 
 25 H       -0.2300    -1.5910     1.9570 H     1 <1>   0.0800 
 26 H        0.0770    -1.1280     0.3040 H     1 <1>   0.0800 
 27 H       -3.7580    -1.2140     1.5040 H     1 <1>   0.0800 
 28 H       -2.5460    -1.6460     2.6800 H     1 <1>   0.0800 
 29 H       -0.2340    -3.7800     1.3100 H     1 <1>   0.0800 
 30 H        0.0380    -3.2940    -0.3390 H     1 <1>   0.0800 
 31 H       -4.0030    -3.3850     0.9160 H     1 <1>   0.0800 
 32 H       -2.8250    -3.8400     2.1150 H     1 <1>   0.0800 
 33 H       -2.2690    -2.9120    -0.5930 H     1 <1>   0.4500 
 34 H       -3.2660    -5.0880    -0.6250 H     1 <1>   0.0800 
 35 H       -2.3200    -6.0260     1.4090 H     1 <1>   0.0800 
 36 H       -0.7190    -5.9930     0.7370 H     1 <1>   0.0800 
 37 H       -0.4470    -4.9950    -1.7130 H     1 <1>   0.0800 
 38 H       -1.7910    -4.0840    -2.3750 H     1 <1>   0.0800 
 39 H       -1.8340    -5.8080    -2.3880 H     1 <1>   0.0800 
 40 H       -2.8360    -7.6360    -0.5400 H     1 <1>   0.4500 
 41 H       -2.9590    -8.2300     1.7410 H     1 <1>   0.0800 
 42 H       -1.2240    -8.4460     1.7730 H     1 <1>   0.0800 
 43 H        0.0990    -8.0610    -0.3610 H     1 <1>   0.0800 
 44 H       -0.7050    -7.3630    -1.7490 H     1 <1>   0.0800 
 45 H       -1.0450    -9.0040    -1.2840 H     1 <1>   0.0800 
 46 H       -0.2650   -10.8000     0.8930 H     1 <1>   0.1500 
 47 H       -3.6930   -12.4300    -0.6420 H     1 <1>   0.1500 
 48 H       -5.1810    -9.8650     1.0070 H     1 <1>   0.0800 
 49 H       -5.3600   -10.6520    -0.5340 H     1 <1>   0.0800 
 50 H       -5.8260    -7.5810     0.8920 H     1 <1>   0.1500 
 51 H       -3.8280    -9.3220    -2.4690 H     1 <1>   0.1500 
 52 H       -5.9620    -5.4500    -0.3040 H     1 <1>   0.1500 
 53 H       -3.9540    -7.1780    -3.6440 H     1 <1>   0.1500 
 54 H       -5.0300    -5.2420    -2.5770 H     1 <1>   0.1500 
@<TRIPOS>BOND
  1   1   2  1   
  2   1   3  1   
  3   2   4  1   
  4   2  25  1   
  5   2  26  1   
  6   3   5  1   
  7   3  27  1   
  8   3  28  1   
  9   4   6  1   
 10   4  29  1   
 11   4  30  1   
 12   5   6  1   
 13   5  31  1   
 14   5  32  1   
 15   6   7  1   
 16   6  33  1   
 17   7   8  1   
 18   7   9  1   
 19   7  34  1   
 20   8  10  1   
 21   8  35  1   
 22   8  36  1   
 23   9  37  1   
 24   9  38  1   
 25   9  39  1   
 26  10  11  1   
 27  10  12  1   
 28  10  40  1   
 29  11  13  1   
 30  11  41  1   
 31  11  42  1   
 32  12  43  1   
 33  12  44  1   
 34  12  45  1   
 35  13  14  1   
 36  13  15  2   
 37  14  16  1   
 38  14  17  1   
 39  15  18  1   
 40  15  46  1   
 41  16  18  2   
 42  16  47  1   
 43  17  19  1   
 44  17  48  1   
 45  17  49  1   
 46  19  20  ar  
 47  19  21  ar  
 48  20  22  ar  
 49  20  50  1   
 50  21  23  ar  
 51  21  51  1   
 52  22  24  ar  
 53  22  52  1   
 54  23  24  ar  
 55  23  53  1   
 56  24  54  1   
@<TRIPOS>SUBSTRUCTURE
  1 ****  10 GROUP 4 **** **** 0

# MOE 2024.06 (io_trps.svl 2023.06)
