@<TRIPOS>MOLECULE
NONAME
48 50 1 0 0 
SMALL
USER_CHARGES


@<TRIPOS>ATOM
  1 CL      -3.2280    -0.3030     1.4810 Cl    1 <1>  -0.1230 
  2 C       -2.6720    -1.8300     0.8190 C.2   1 <1>   0.1230 
  3 C       -1.6720    -1.9880    -0.1270 C.2   1 <1>   0.1390 
  4 C       -3.1150    -3.0640     1.1170 C.2   1 <1>  -0.3020 
  5 N       -1.4930    -3.2460    -0.4140 N.2   1 <1>  -0.7070 
  6 N       -2.3850    -3.9100     0.3580 N.pl3 1 <1>   0.3140 
  7 C       -2.4970    -5.3770     0.3190 C.3   1 <1>   0.0960 
  8 C       -3.0440    -5.8140    -1.0410 C.3   1 <1>   0.1400 
  9 N       -3.1270    -7.2970    -1.1210 N.am  1 <1>  -0.7300 
 10 C       -4.0950    -8.0590    -0.5260 C.2   1 <1>   0.7150 
 11 O       -4.8940    -7.5030     0.2060 O.2   1 <1>  -0.5700 
 12 C       -4.1630    -9.4860    -0.7630 C.2   1 <1>   0.0550 
 13 O       -5.0250   -10.2380    -0.0850 O.3   1 <1>  -0.2800 
 14 C       -3.4760   -10.3010    -1.6130 C.2   1 <1>  -0.1500 
 15 C       -4.9200   -11.4880    -0.4720 C.2   1 <1>  -0.0400 
 16 C       -3.9670   -11.5950    -1.4250 C.2   1 <1>  -0.1500 
 17 C       -5.8220   -12.5350     0.1620 C.3   1 <1>   0.5230 
 18 N       -7.2500   -12.1710    -0.0680 N.4   1 <1>  -0.9590 
 19 C       -7.7120   -11.1260     0.8970 C.3   1 <1>   0.3430 
 20 C       -8.1350   -13.3680    -0.0610 C.3   1 <1>   0.3430 
 21 C       -9.1280   -10.6810     0.5320 C.3   1 <1>  -0.1600 
 22 C       -9.5580   -12.9590    -0.4450 C.3   1 <1>  -0.1600 
 23 C      -10.1030   -11.8650     0.4850 C.3   1 <1>  -0.0800 
 24 C      -11.4890   -11.4050     0.0210 C.3   1 <1>  -0.2400 
 25 H       -1.1160    -1.1800    -0.5690 H     1 <1>   0.1500 
 26 H       -3.8820    -3.3750     1.8010 H     1 <1>   0.1500 
 27 H       -3.1550    -5.6960     1.1060 H     1 <1>   0.0800 
 28 H       -1.5190    -5.7910     0.4760 H     1 <1>   0.0800 
 29 H       -2.4010    -5.4530    -1.8260 H     1 <1>   0.0800 
 30 H       -4.0280    -5.3970    -1.1810 H     1 <1>   0.0800 
 31 H       -2.4370    -7.7510    -1.7210 H     1 <1>   0.3700 
 32 H       -2.7020   -10.0330    -2.3100 H     1 <1>   0.1500 
 33 H       -3.6250   -12.4680    -1.9550 H     1 <1>   0.1500 
 34 H       -5.6180   -12.6030     1.2180 H     1 <1>   0.0800 
 35 H       -5.6080   -13.4890    -0.2900 H     1 <1>   0.0800 
 36 H       -7.2890   -11.7400    -1.0000 H     1 <1>   0.4500 
 37 H       -7.0580   -10.2680     0.8700 H     1 <1>   0.0800 
 38 H       -7.7070   -11.5220     1.8990 H     1 <1>   0.0800 
 39 H       -8.1440   -13.8100     0.9230 H     1 <1>   0.0800 
 40 H       -7.7740   -14.1020    -0.7630 H     1 <1>   0.0800 
 41 H       -9.1050   -10.1750    -0.4180 H     1 <1>   0.0800 
 42 H       -9.4650    -9.9680     1.2650 H     1 <1>   0.0800 
 43 H      -10.1950   -13.8250    -0.3900 H     1 <1>   0.0800 
 44 H       -9.5650   -12.6180    -1.4660 H     1 <1>   0.0800 
 45 H      -10.2000   -12.2720     1.4790 H     1 <1>   0.0800 
 46 H      -11.4460   -10.9860    -0.9690 H     1 <1>   0.0800 
 47 H      -11.8790   -10.6570     0.6900 H     1 <1>   0.0800 
 48 H      -12.1770   -12.2330     0.0110 H     1 <1>   0.0800 
@<TRIPOS>BOND
  1   1   2  1   
  2   2   3  1   
  3   2   4  2   
  4   3   5  2   
  5   3  25  1   
  6   4   6  1   
  7   4  26  1   
  8   5   6  1   
  9   6   7  1   
 10   7   8  1   
 11   7  27  1   
 12   7  28  1   
 13   8   9  1   
 14   8  29  1   
 15   8  30  1   
 16   9  10  am  
 17   9  31  1   
 18  10  11  2   
 19  10  12  1   
 20  12  13  1   
 21  12  14  2   
 22  13  15  1   
 23  14  16  1   
 24  14  32  1   
 25  15  16  2   
 26  15  17  1   
 27  16  33  1   
 28  17  18  1   
 29  17  34  1   
 30  17  35  1   
 31  18  19  1   
 32  18  20  1   
 33  18  36  1   
 34  19  21  1   
 35  19  37  1   
 36  19  38  1   
 37  20  22  1   
 38  20  39  1   
 39  20  40  1   
 40  21  23  1   
 41  21  41  1   
 42  21  42  1   
 43  22  23  1   
 44  22  43  1   
 45  22  44  1   
 46  23  24  1   
 47  23  45  1   
 48  24  46  1   
 49  24  47  1   
 50  24  48  1   
@<TRIPOS>SUBSTRUCTURE
  1 ****  11 GROUP 4 **** **** 0

# MOE 2024.06 (io_trps.svl 2023.06)
