@<TRIPOS>MOLECULE
NONAME
48 51 1 0 0 
SMALL
USER_CHARGES


@<TRIPOS>ATOM
  1 O       -0.7690     0.0790     0.6520 O.2   1 <1>  -0.5700 
  2 C       -1.7050     0.6540     0.1230 C.2   1 <1>   0.7150 
  3 N       -2.9290     0.0250     0.1070 N.am  1 <1>  -0.6600 
  4 C       -1.5230     1.9650    -0.4510 C.2   1 <1>  -0.2370 
  5 C       -4.2170     0.7050    -0.1450 C.3   1 <1>   0.1400 
  6 C       -3.1280    -1.3210     0.6860 C.3   1 <1>   0.1400 
  7 N       -0.7150     2.9320     0.0970 N.pl3 1 <1>   0.0480 
  8 C       -2.0710     2.4940    -1.5940 C.2   1 <1>  -0.1500 
  9 C       -5.2750    -0.1520     0.5600 C.3   1 <1>  -0.0800 
 10 C       -4.6420    -1.5440     0.7560 C.3   1 <1>  -0.0800 
 11 C       -0.7780     4.0340    -0.6900 C.2   1 <1>  -0.3020 
 12 C        0.0920     2.8230     1.3270 C.3   1 <1>   0.0160 
 13 C       -1.6060     3.7960    -1.7400 C.2   1 <1>  -0.1500 
 14 C       -6.6800    -0.1450    -0.1010 C.3   1 <1>   0.4240 
 15 C       -5.1410    -2.5680    -0.2760 C.3   1 <1>  -0.1600 
 16 O       -6.5470    -0.1740    -1.4790 O.3   1 <1>  -0.6800 
 17 C       -7.4700     1.1150     0.3110 C.ar  1 <1>  -0.1440 
 18 C       -7.4190    -1.4510     0.2430 C.3   1 <1>  -0.1600 
 19 C       -6.6760    -2.7240    -0.2300 C.3   1 <1>  -0.1600 
 20 C       -7.9480     1.2430     1.6120 C.ar  1 <1>  -0.1500 
 21 C       -7.7160     2.1590    -0.5770 C.ar  1 <1>  -0.1500 
 22 C       -8.6530     2.3660     2.0100 C.ar  1 <1>  -0.1500 
 23 C       -8.4200     3.2840    -0.1830 C.ar  1 <1>  -0.1500 
 24 C       -8.8910     3.3890     1.1120 C.ar  1 <1>  -0.1500 
 25 H       -4.2110     1.7080     0.2480 H     1 <1>   0.0800 
 26 H       -4.3720     0.7470    -1.2070 H     1 <1>   0.0800 
 27 H       -2.6390    -2.0610     0.0760 H     1 <1>   0.0800 
 28 H       -2.7010    -1.3460     1.6750 H     1 <1>   0.0800 
 29 H       -2.7400     2.0040    -2.2790 H     1 <1>   0.1500 
 30 H       -5.3810     0.2610     1.5460 H     1 <1>   0.0800 
 31 H       -4.8890    -1.9190     1.7350 H     1 <1>   0.0800 
 32 H       -0.2330     4.9340    -0.4710 H     1 <1>   0.1500 
 33 H        0.5020     3.7820     1.5800 H     1 <1>   0.0800 
 34 H        0.8890     2.1210     1.1630 H     1 <1>   0.0800 
 35 H       -0.5310     2.4740     2.1310 H     1 <1>   0.0800 
 36 H       -1.8630     4.4670    -2.5420 H     1 <1>   0.1500 
 37 H       -4.8340    -2.2520    -1.2590 H     1 <1>   0.0800 
 38 H       -4.6810    -3.5250    -0.0950 H     1 <1>   0.0800 
 39 H       -6.1930    -1.0480    -1.7190 H     1 <1>   0.4000 
 40 H       -7.5260    -1.5100     1.3100 H     1 <1>   0.0800 
 41 H       -8.4120    -1.4220    -0.1700 H     1 <1>   0.0800 
 42 H       -6.9320    -3.5310     0.4360 H     1 <1>   0.0800 
 43 H       -7.0260    -3.0030    -1.2100 H     1 <1>   0.0800 
 44 H       -7.7750     0.4700     2.3380 H     1 <1>   0.1500 
 45 H       -7.3630     2.1100    -1.5920 H     1 <1>   0.1500 
 46 H       -9.0160     2.4440     3.0200 H     1 <1>   0.1500 
 47 H       -8.6010     4.0760    -0.8870 H     1 <1>   0.1500 
 48 H       -9.4400     4.2620     1.4180 H     1 <1>   0.1500 
@<TRIPOS>BOND
  1   1   2  2   
  2   2   3  am  
  3   2   4  1   
  4   3   5  1   
  5   3   6  1   
  6   4   7  1   
  7   4   8  2   
  8   5   9  1   
  9   5  25  1   
 10   5  26  1   
 11   6  10  1   
 12   6  27  1   
 13   6  28  1   
 14   7  11  1   
 15   7  12  1   
 16   8  13  1   
 17   8  29  1   
 18   9  10  1   
 19   9  14  1   
 20   9  30  1   
 21  10  15  1   
 22  10  31  1   
 23  11  13  2   
 24  11  32  1   
 25  12  33  1   
 26  12  34  1   
 27  12  35  1   
 28  13  36  1   
 29  14  16  1   
 30  14  17  1   
 31  14  18  1   
 32  15  19  1   
 33  15  37  1   
 34  15  38  1   
 35  16  39  1   
 36  17  20  ar  
 37  17  21  ar  
 38  18  19  1   
 39  18  40  1   
 40  18  41  1   
 41  19  42  1   
 42  19  43  1   
 43  20  22  ar  
 44  20  44  1   
 45  21  23  ar  
 46  21  45  1   
 47  22  24  ar  
 48  22  46  1   
 49  23  24  ar  
 50  23  47  1   
 51  24  48  1   
@<TRIPOS>SUBSTRUCTURE
  1 ****   5 GROUP 4 **** **** 0

# MOE 2024.06 (io_trps.svl 2023.06)
