@<TRIPOS>MOLECULE
NONAME
44 45 1 0 0 
SMALL
USER_CHARGES


@<TRIPOS>ATOM
  1 S        1.5680    -0.5890     0.0640 S.3   1 <1>  -0.0800 
  2 C        2.0150     1.0180     0.6500 C.2   1 <1>  -0.0450 
  3 C        1.9900    -1.3450     1.5850 C.2   1 <1>  -0.1100 
  4 C        1.8750     2.1510    -0.2300 C.2   1 <1>   0.7150 
  5 C        2.4500     0.9020     1.9330 C.2   1 <1>  -0.1500 
  6 C        2.4360    -0.4240     2.4580 C.2   1 <1>  -0.1500 
  7 O        1.4530     2.0320    -1.3650 O.2   1 <1>  -0.5700 
  8 N        2.2260     3.3860     0.2290 N.am  1 <1>  -0.7300 
  9 C        2.1940     4.7200    -0.4190 C.3   1 <1>   0.3610 
 10 C        2.7160     5.7890     0.5910 C.2   1 <1>   0.5690 
 11 C        3.1000     4.6840    -1.6590 C.3   1 <1>  -0.2400 
 12 C        0.7430     5.0360    -0.8170 C.3   1 <1>  -0.2400 
 13 O        3.0740     5.4330     1.6950 O.2   1 <1>  -0.5700 
 14 N        2.7700     7.1060     0.2310 N.am  1 <1>  -0.7300 
 15 C        3.2860     8.2020     1.0770 C.3   1 <1>   0.1400 
 16 C        4.4260     8.8990     0.3370 C.3   1 <1>  -0.1600 
 17 C        5.0510    10.0100     1.1870 C.3   1 <1>  -0.0170 
 18 C        6.1730    10.6900     0.4200 C.ar  1 <1>  -0.1440 
 19 C        7.4500    10.1440     0.4020 C.ar  1 <1>   0.1600 
 20 C        5.9430    11.8590    -0.2790 C.ar  1 <1>  -0.1500 
 21 N        8.4870    10.6570    -0.2400 N.ar  1 <1>  -0.6200 
 22 C        7.0130    12.4080    -0.9530 C.ar  1 <1>  -0.1500 
 23 C        8.2430    11.7760    -0.9010 C.ar  1 <1>   0.1600 
 24 H        1.8590    -2.4100     1.6650 H     1 <1>   0.1500 
 25 H        2.7880     1.7200     2.5450 H     1 <1>   0.1500 
 26 H        2.7610    -0.6270     3.4640 H     1 <1>   0.1500 
 27 H        2.5790     3.4640     1.1860 H     1 <1>   0.3700 
 28 H        4.1030     4.4220    -1.3740 H     1 <1>   0.0800 
 29 H        3.1240     5.6460    -2.1370 H     1 <1>   0.0800 
 30 H        2.7420     3.9700    -2.3780 H     1 <1>   0.0800 
 31 H        0.1110     5.0190     0.0530 H     1 <1>   0.0800 
 32 H        0.3750     4.3220    -1.5310 H     1 <1>   0.0800 
 33 H        0.6780     6.0100    -1.2640 H     1 <1>   0.0800 
 34 H        2.4620     7.3830    -0.7030 H     1 <1>   0.3700 
 35 H        3.6420     7.8070     2.0140 H     1 <1>   0.0800 
 36 H        2.4900     8.8980     1.2830 H     1 <1>   0.0800 
 37 H        4.0550     9.3250    -0.5790 H     1 <1>   0.0800 
 38 H        5.1840     8.1740     0.0960 H     1 <1>   0.0800 
 39 H        5.4430     9.5960     2.1010 H     1 <1>   0.0800 
 40 H        4.3020    10.7370     1.4520 H     1 <1>   0.0800 
 41 H        7.6280     9.2330     0.9460 H     1 <1>   0.1500 
 42 H        4.9740    12.3260    -0.3010 H     1 <1>   0.1500 
 43 H        6.8980    13.3170    -1.5140 H     1 <1>   0.1500 
 44 H        9.0710    12.2150    -1.4320 H     1 <1>   0.1500 
@<TRIPOS>BOND
  1   1   2  1   
  2   1   3  1   
  3   2   4  1   
  4   2   5  2   
  5   3   6  2   
  6   3  24  1   
  7   4   7  2   
  8   4   8  am  
  9   5   6  1   
 10   5  25  1   
 11   6  26  1   
 12   8   9  1   
 13   8  27  1   
 14   9  10  1   
 15   9  11  1   
 16   9  12  1   
 17  10  13  2   
 18  10  14  am  
 19  11  28  1   
 20  11  29  1   
 21  11  30  1   
 22  12  31  1   
 23  12  32  1   
 24  12  33  1   
 25  14  15  1   
 26  14  34  1   
 27  15  16  1   
 28  15  35  1   
 29  15  36  1   
 30  16  17  1   
 31  16  37  1   
 32  16  38  1   
 33  17  18  1   
 34  17  39  1   
 35  17  40  1   
 36  18  19  ar  
 37  18  20  ar  
 38  19  21  ar  
 39  19  41  1   
 40  20  22  ar  
 41  20  42  1   
 42  21  23  ar  
 43  22  23  ar  
 44  22  43  1   
 45  23  44  1   
@<TRIPOS>SUBSTRUCTURE
  1 ****  10 GROUP 4 **** **** 0

# MOE 2024.06 (io_trps.svl 2023.06)
