@<TRIPOS>MOLECULE
NONAME
51 53 1 0 0 
SMALL
USER_CHARGES


@<TRIPOS>ATOM
  1 O       -1.5880     0.3460    -1.9920 O.2   1 <1>  -0.5700 
  2 C       -1.7120     0.6790    -0.8400 C.2   1 <1>   0.5690 
  3 N       -1.8580    -0.2270     0.1550 N.am  1 <1>  -0.7300 
  4 C       -1.7060     2.1480    -0.4870 C.3   1 <1>  -0.0990 
  5 C       -1.8440    -1.6960    -0.0260 C.3   1 <1>   0.2200 
  6 C       -0.2800     2.6510    -0.2480 C.3   1 <1>  -0.0160 
  7 C       -3.2440    -2.2830     0.1030 C.3   1 <1>  -0.0800 
  8 C       -1.1650    -2.3300     1.1800 C.3   1 <1>   0.1200 
  9 C       -0.3030     4.1090     0.1740 C.ar  1 <1>  -0.1440 
 10 C       -3.4090    -2.4560     1.6170 C.3   1 <1>   0.1200 
 11 C       -4.3740    -1.4830    -0.5730 C.3   1 <1>  -0.0160 
 12 O       -2.1360    -2.3230     2.1810 O.3   1 <1>  -0.5600 
 13 C       -0.3340     5.1100    -0.7840 C.ar  1 <1>  -0.1500 
 14 C       -0.3030     4.4510     1.5170 C.ar  1 <1>  -0.1500 
 15 C       -5.7010    -2.2160    -0.4570 C.ar  1 <1>  -0.1440 
 16 C       -0.3650     6.4430    -0.4080 C.ar  1 <1>  -0.1440 
 17 C       -0.3330     5.7800     1.9050 C.ar  1 <1>  -0.1440 
 18 C       -6.6350    -1.8960     0.5080 C.ar  1 <1>  -0.1500 
 19 C       -6.0380    -3.2440    -1.3130 C.ar  1 <1>  -0.1500 
 20 C       -0.3660     6.7710     0.9370 C.ar  1 <1>  -0.1500 
 21 C       -0.4020     7.5330    -1.4630 C.3   1 <1>  -0.0970 
 22 C       -0.3340     6.1480     3.3770 C.3   1 <1>  -0.0970 
 23 C       -7.8240    -2.6040     0.5710 C.ar  1 <1>   0.1600 
 24 C       -7.2550    -3.8880    -1.1650 C.ar  1 <1>   0.1600 
 25 N       -8.1560    -3.5940    -0.2410 N.ar  1 <1>  -0.6200 
 26 H       -1.9820     0.0690     1.1260 H     1 <1>   0.3700 
 27 H       -2.1520     2.6990    -1.2950 H     1 <1>   0.0800 
 28 H       -2.3020     2.3090     0.3920 H     1 <1>   0.0800 
 29 H       -1.3650    -1.9620    -0.9540 H     1 <1>   0.0800 
 30 H        0.2970     2.5420    -1.1510 H     1 <1>   0.0800 
 31 H        0.1950     2.0590     0.5150 H     1 <1>   0.0800 
 32 H       -3.2260    -3.2670    -0.3310 H     1 <1>   0.0800 
 33 H       -0.2980    -1.7850     1.5070 H     1 <1>   0.0800 
 34 H       -0.9040    -3.3540     0.9780 H     1 <1>   0.0800 
 35 H       -3.8030    -3.4270     1.8660 H     1 <1>   0.0800 
 36 H       -4.0350    -1.6900     2.0420 H     1 <1>   0.0800 
 37 H       -4.1350    -1.3390    -1.6130 H     1 <1>   0.0800 
 38 H       -4.4660    -0.5090    -0.1260 H     1 <1>   0.0800 
 39 H       -0.3370     4.8500    -1.8270 H     1 <1>   0.1500 
 40 H       -0.2800     3.6800     2.2660 H     1 <1>   0.1500 
 41 H       -6.4520    -1.1040     1.2110 H     1 <1>   0.1500 
 42 H       -5.3660    -3.5500    -2.0950 H     1 <1>   0.1500 
 43 H       -0.3940     7.8040     1.2330 H     1 <1>   0.1500 
 44 H        0.0790     8.4240    -1.1000 H     1 <1>   0.0800 
 45 H       -1.4220     7.7640    -1.7100 H     1 <1>   0.0800 
 46 H        0.1080     7.2120    -2.3530 H     1 <1>   0.0800 
 47 H        0.1330     7.1050     3.5260 H     1 <1>   0.0800 
 48 H        0.2070     5.4150     3.9480 H     1 <1>   0.0800 
 49 H       -1.3450     6.1940     3.7390 H     1 <1>   0.0800 
 50 H       -8.5410    -2.3410     1.3300 H     1 <1>   0.1500 
 51 H       -7.5010    -4.6880    -1.8430 H     1 <1>   0.1500 
@<TRIPOS>BOND
  1   1   2  2   
  2   2   3  am  
  3   2   4  1   
  4   3   5  1   
  5   3  26  1   
  6   4   6  1   
  7   4  27  1   
  8   4  28  1   
  9   5   7  1   
 10   5   8  1   
 11   5  29  1   
 12   6   9  1   
 13   6  30  1   
 14   6  31  1   
 15   7  10  1   
 16   7  11  1   
 17   7  32  1   
 18   8  12  1   
 19   8  33  1   
 20   8  34  1   
 21   9  13  ar  
 22   9  14  ar  
 23  10  12  1   
 24  10  35  1   
 25  10  36  1   
 26  11  15  1   
 27  11  37  1   
 28  11  38  1   
 29  13  16  ar  
 30  13  39  1   
 31  14  17  ar  
 32  14  40  1   
 33  15  18  ar  
 34  15  19  ar  
 35  16  20  ar  
 36  16  21  1   
 37  17  20  ar  
 38  17  22  1   
 39  18  23  ar  
 40  18  41  1   
 41  19  24  ar  
 42  19  42  1   
 43  20  43  1   
 44  21  44  1   
 45  21  45  1   
 46  21  46  1   
 47  22  47  1   
 48  22  48  1   
 49  22  49  1   
 50  23  25  ar  
 51  23  50  1   
 52  24  25  ar  
 53  24  51  1   
@<TRIPOS>SUBSTRUCTURE
  1 ****   3 GROUP 4 **** **** 0

# MOE 2024.06 (io_trps.svl 2023.06)
