@<TRIPOS>MOLECULE
NONAME
54 58 1 0 0 
SMALL
USER_CHARGES


@<TRIPOS>ATOM
  1 S       -0.0330    -0.0040     1.8340 S.o2  1 <1>   1.4470 
  2 O       -0.7060    -1.1860     2.3290 O.2   1 <1>  -0.6500 
  3 O        0.1160     1.1500     2.6920 O.2   1 <1>  -0.6500 
  4 N       -0.8860     0.5080     0.4620 N.am  1 <1>  -0.8490 
  5 C        1.5920    -0.4450     1.1600 C.ar  1 <1>  -0.0090 
  6 C       -2.1190     1.2270     0.8420 C.3   1 <1>   0.1960 
  7 C       -1.2050    -0.6030    -0.4420 C.3   1 <1>   0.1960 
  8 C        2.3010     0.4480     0.3760 C.ar  1 <1>  -0.1500 
  9 C        2.1660    -1.6900     1.4150 C.ar  1 <1>  -0.1500 
 10 C       -2.8180     1.8460    -0.3850 C.3   1 <1>   0.1440 
 11 C       -1.8450    -0.0720    -1.7300 C.3   1 <1>  -0.1600 
 12 C        3.5540     0.1480    -0.1690 C.ar  1 <1>   0.0280 
 13 C        3.3980    -2.0220     0.8970 C.ar  1 <1>  -0.1500 
 14 C       -4.0760     2.5500     0.0840 C.ar  1 <1>   0.1660 
 15 C       -3.1110     0.7460    -1.4260 C.3   1 <1>  -0.1600 
 16 C       -1.9850     3.0120    -0.9840 C.3   1 <1>  -0.1600 
 17 C        4.1010    -1.1200     0.1060 C.ar  1 <1>   0.1170 
 18 C        4.3140     1.0550    -0.9930 C.2   1 <1>  -0.1670 
 19 N       -5.1790     1.9550     0.4810 N.ar  1 <1>  -0.6200 
 20 C       -3.9310     3.9050     0.0680 C.ar  1 <1>  -0.1440 
 21 C       -2.5610     4.3180    -0.4090 C.3   1 <1>  -0.0170 
 22 N        5.3420    -1.4580    -0.4180 N.am  1 <1>  -0.5470 
 23 C        5.5220     0.6690    -1.4770 C.2   1 <1>  -0.1360 
 24 C        3.7620     2.4380    -1.3140 C.3   1 <1>  -0.1020 
 25 C       -6.1450     2.7840     0.8530 C.ar  1 <1>   0.4770 
 26 C       -4.9950     4.6680     0.4760 C.ar  1 <1>   0.1600 
 27 C        6.0720    -0.6150    -1.1960 C.2   1 <1>   0.6160 
 28 N       -6.1200     4.1100     0.8740 N.ar  1 <1>  -0.6200 
 29 C       -7.4260     2.1330     1.3140 C.3   1 <1>  -0.0970 
 30 O        7.1510    -0.9890    -1.6160 O.2   1 <1>  -0.5700 
 31 H       -1.8840     2.0170     1.5350 H     1 <1>   0.0800 
 32 H       -2.7960     0.5490     1.3370 H     1 <1>   0.0800 
 33 H       -1.8810    -1.2910     0.0430 H     1 <1>   0.0800 
 34 H       -0.3060    -1.1400    -0.6950 H     1 <1>   0.0800 
 35 H        1.8570     1.4090     0.1870 H     1 <1>   0.1500 
 36 H        1.6320    -2.3980     2.0280 H     1 <1>   0.1500 
 37 H       -2.1000    -0.9000    -2.3670 H     1 <1>   0.0800 
 38 H       -1.1270     0.5350    -2.2530 H     1 <1>   0.0800 
 39 H        3.8250    -2.9880     1.1050 H     1 <1>   0.1500 
 40 H       -3.5090     1.1770    -2.3280 H     1 <1>   0.0800 
 41 H       -3.8610     0.0830    -1.0280 H     1 <1>   0.0800 
 42 H       -2.1120     3.0330    -2.0520 H     1 <1>   0.0800 
 43 H       -0.9340     2.9170    -0.7730 H     1 <1>   0.0800 
 44 H       -2.6150     5.0900    -1.1570 H     1 <1>   0.0800 
 45 H       -1.9740     4.6560     0.4270 H     1 <1>   0.0800 
 46 H        5.7730    -2.3620    -0.2370 H     1 <1>   0.3700 
 47 H        6.1320     1.3000    -2.0940 H     1 <1>   0.1500 
 48 H        3.6080     2.9950    -0.4070 H     1 <1>   0.0800 
 49 H        2.8270     2.3510    -1.8380 H     1 <1>   0.0800 
 50 H        4.4450     2.9890    -1.9350 H     1 <1>   0.0800 
 51 H       -4.9290     5.7420     0.4810 H     1 <1>   0.1500 
 52 H       -7.6790     1.3230     0.6550 H     1 <1>   0.0800 
 53 H       -8.2290     2.8460     1.3150 H     1 <1>   0.0800 
 54 H       -7.2910     1.7510     2.3080 H     1 <1>   0.0800 
@<TRIPOS>BOND
  1   1   2  2   
  2   1   3  2   
  3   1   4  am  
  4   1   5  1   
  5   4   6  1   
  6   4   7  1   
  7   5   8  ar  
  8   5   9  ar  
  9   6  10  1   
 10   6  31  1   
 11   6  32  1   
 12   7  11  1   
 13   7  33  1   
 14   7  34  1   
 15   8  12  ar  
 16   8  35  1   
 17   9  13  ar  
 18   9  36  1   
 19  10  14  1   
 20  10  15  1   
 21  10  16  1   
 22  11  15  1   
 23  11  37  1   
 24  11  38  1   
 25  12  17  ar  
 26  12  18  1   
 27  13  17  ar  
 28  13  39  1   
 29  14  19  ar  
 30  14  20  ar  
 31  15  40  1   
 32  15  41  1   
 33  16  21  1   
 34  16  42  1   
 35  16  43  1   
 36  17  22  1   
 37  18  23  2   
 38  18  24  1   
 39  19  25  ar  
 40  20  21  1   
 41  20  26  ar  
 42  21  44  1   
 43  21  45  1   
 44  22  27  am  
 45  22  46  1   
 46  23  27  1   
 47  23  47  1   
 48  24  48  1   
 49  24  49  1   
 50  24  50  1   
 51  25  28  ar  
 52  25  29  1   
 53  26  28  ar  
 54  26  51  1   
 55  27  30  2   
 56  29  52  1   
 57  29  53  1   
 58  29  54  1   
@<TRIPOS>SUBSTRUCTURE
  1 ****   4 GROUP 4 **** **** 0

# MOE 2024.06 (io_trps.svl 2023.06)
