@<TRIPOS>MOLECULE
NONAME
41 43 1 0 0 
SMALL
USER_CHARGES


@<TRIPOS>ATOM
  1 S        0.1350     0.1380     1.0780 S.o2  1 <1>   1.4470 
  2 O       -0.5280     1.3250     1.5720 O.2   1 <1>  -0.6500 
  3 O        0.6800    -0.8000     2.0290 O.2   1 <1>  -0.6500 
  4 N        1.4670     0.7390     0.2040 N.am  1 <1>  -0.8490 
  5 C       -0.9580    -0.6330    -0.1480 C.ar  1 <1>  -0.0090 
  6 C        2.2940     1.5770     1.1140 C.3   1 <1>   0.1960 
  7 C        2.2860    -0.3360    -0.3810 C.3   1 <1>   0.1960 
  8 C       -0.8390    -1.9710    -0.5100 C.ar  1 <1>   0.1900 
  9 C       -1.9560     0.1060    -0.7820 C.ar  1 <1>  -0.1500 
 10 C        3.4200     2.4230     0.4510 C.3   1 <1>   0.4230 
 11 C        3.3240     0.1960    -1.3930 C.3   1 <1>  -0.0800 
 12 F        0.0910    -2.7080     0.0330 F     1 <1>  -0.1900 
 13 C       -1.6540    -2.5840    -1.4430 C.ar  1 <1>  -0.1500 
 14 C       -2.7930    -0.4720    -1.7260 C.ar  1 <1>  -0.1500 
 15 N        3.1990     2.7530    -1.0140 N.4   1 <1>  -0.9590 
 16 C        4.8200     1.8230     0.7030 C.3   1 <1>   0.1200 
 17 C        4.7760     0.0800    -0.9070 C.3   1 <1>   0.1200 
 18 C        2.9640     1.5870    -1.9370 C.3   1 <1>   0.3430 
 19 C       -2.6260    -1.8080    -2.0380 C.ar  1 <1>   0.1900 
 20 C        2.0500     3.7030    -1.1440 C.3   1 <1>   0.2630 
 21 O        4.8840     0.4610     0.4220 O.3   1 <1>  -0.5600 
 22 F       -3.4110    -2.3520    -2.9260 F     1 <1>  -0.1900 
 23 H        1.6540     2.2830     1.6140 H     1 <1>   0.0800 
 24 H        2.7160     0.9590     1.8910 H     1 <1>   0.0800 
 25 H        2.7610    -0.9170     0.3950 H     1 <1>   0.0800 
 26 H        1.6410    -1.0060    -0.9210 H     1 <1>   0.0800 
 27 H       -2.0890     1.1470    -0.5300 H     1 <1>   0.1500 
 28 H        3.4320     3.3590     0.9830 H     1 <1>   0.0800 
 29 H        3.2650    -0.4620    -2.2420 H     1 <1>   0.0800 
 30 H       -1.5380    -3.6220    -1.6960 H     1 <1>   0.1500 
 31 H       -3.5660     0.0990    -2.2110 H     1 <1>   0.1500 
 32 H        4.0480     3.2330    -1.3410 H     1 <1>   0.4500 
 33 H        5.0560     1.9230     1.7480 H     1 <1>   0.0800 
 34 H        5.5810     2.3360     0.1420 H     1 <1>   0.0800 
 35 H        5.4600     0.6600    -1.5050 H     1 <1>   0.0800 
 36 H        5.0860    -0.9520    -0.9510 H     1 <1>   0.0800 
 37 H        1.9190     1.5590    -2.2010 H     1 <1>   0.0800 
 38 H        3.5140     1.7520    -2.8490 H     1 <1>   0.0800 
 39 H        1.1400     3.2290    -0.8070 H     1 <1>   0.0800 
 40 H        1.9220     4.0020    -2.1720 H     1 <1>   0.0800 
 41 H        2.2190     4.5850    -0.5480 H     1 <1>   0.0800 
@<TRIPOS>BOND
  1   1   2  2   
  2   1   3  2   
  3   1   4  am  
  4   1   5  1   
  5   4   6  1   
  6   4   7  1   
  7   5   8  ar  
  8   5   9  ar  
  9   6  10  1   
 10   6  23  1   
 11   6  24  1   
 12   7  11  1   
 13   7  25  1   
 14   7  26  1   
 15   8  12  1   
 16   8  13  ar  
 17   9  14  ar  
 18   9  27  1   
 19  10  15  1   
 20  10  16  1   
 21  10  28  1   
 22  11  17  1   
 23  11  18  1   
 24  11  29  1   
 25  13  19  ar  
 26  13  30  1   
 27  14  19  ar  
 28  14  31  1   
 29  15  18  1   
 30  15  20  1   
 31  15  32  1   
 32  16  21  1   
 33  16  33  1   
 34  16  34  1   
 35  17  21  1   
 36  17  35  1   
 37  17  36  1   
 38  18  37  1   
 39  18  38  1   
 40  19  22  1   
 41  20  39  1   
 42  20  40  1   
 43  20  41  1   
@<TRIPOS>SUBSTRUCTURE
  1 ****   4 GROUP 4 **** **** 0

# MOE 2024.06 (io_trps.svl 2023.06)
