@<TRIPOS>MOLECULE
NONAME
38 39 1 0 0 
SMALL
USER_CHARGES


@<TRIPOS>ATOM
  1 F       -2.2990    -1.6170     1.4620 F     1 <1>  -0.1900 
  2 C       -2.4280    -0.3980     1.0060 C.ar  1 <1>   0.1900 
  3 C       -2.7830    -0.2150    -0.3220 C.ar  1 <1>  -0.1440 
  4 C       -2.2190     0.6560     1.8750 C.ar  1 <1>  -0.1500 
  5 C       -2.9310     1.0860    -0.7840 C.ar  1 <1>  -0.1500 
  6 C       -2.9970    -1.4070    -1.2300 C.3   1 <1>   0.4870 
  7 C       -2.3730     1.9450     1.3980 C.ar  1 <1>  -0.1500 
  8 C       -2.7280     2.1560     0.0740 C.ar  1 <1>  -0.1500 
  9 N       -4.1740    -2.1670    -0.7370 N.4   1 <1>  -0.9590 
 10 C       -4.2140    -3.5370    -1.2920 C.3   1 <1>   0.5230 
 11 C       -5.4530    -1.4110    -0.9630 C.3   1 <1>   0.3430 
 12 C       -5.1210    -4.3480    -0.4070 C.2   1 <1>  -0.3320 
 13 C       -6.3590    -1.3880     0.2760 C.3   1 <1>   0.1200 
 14 N       -4.8150    -4.8310     0.8200 N.pl3 1 <1>   0.0480 
 15 C       -6.3870    -4.7430    -0.6720 C.2   1 <1>   0.0770 
 16 O       -7.4430    -0.5800    -0.0200 O.3   1 <1>  -0.6800 
 17 C       -5.9370    -5.4690     1.2190 C.2   1 <1>   0.0360 
 18 C       -3.5550    -4.7560     1.5890 C.3   1 <1>   0.0160 
 19 N       -6.8990    -5.4310     0.3580 N.2   1 <1>  -0.5650 
 20 H       -1.9420     0.4750     2.8990 H     1 <1>   0.1500 
 21 H       -3.2010     1.2870    -1.8080 H     1 <1>   0.1500 
 22 H       -2.1150    -2.0260    -1.2010 H     1 <1>   0.0800 
 23 H       -3.1570    -1.0810    -2.2450 H     1 <1>   0.0800 
 24 H       -2.2160     2.7870     2.0530 H     1 <1>   0.1500 
 25 H       -2.8430     3.1650    -0.2880 H     1 <1>   0.1500 
 26 H       -4.0470    -2.2620     0.2780 H     1 <1>   0.4500 
 27 H       -3.2300    -3.9780    -1.2980 H     1 <1>   0.0800 
 28 H       -4.5930    -3.5220    -2.3020 H     1 <1>   0.0800 
 29 H       -5.9990    -1.8430    -1.7860 H     1 <1>   0.0800 
 30 H       -5.2280    -0.3870    -1.2120 H     1 <1>   0.0800 
 31 H       -5.8490    -0.9590     1.1210 H     1 <1>   0.0800 
 32 H       -6.7320    -2.3670     0.5180 H     1 <1>   0.0800 
 33 H       -6.9810    -4.5680    -1.5560 H     1 <1>   0.1500 
 34 H       -8.1000    -0.5810     0.7080 H     1 <1>   0.4000 
 35 H       -6.0070    -5.9650     2.1730 H     1 <1>   0.1500 
 36 H       -2.7180    -4.6560     0.9230 H     1 <1>   0.0800 
 37 H       -3.4360    -5.6580     2.1630 H     1 <1>   0.0800 
 38 H       -3.5920    -3.9170     2.2600 H     1 <1>   0.0800 
@<TRIPOS>BOND
  1   1   2  1   
  2   2   3  ar  
  3   2   4  ar  
  4   3   5  ar  
  5   3   6  1   
  6   4   7  ar  
  7   4  20  1   
  8   5   8  ar  
  9   5  21  1   
 10   6   9  1   
 11   6  22  1   
 12   6  23  1   
 13   7   8  ar  
 14   7  24  1   
 15   8  25  1   
 16   9  10  1   
 17   9  11  1   
 18   9  26  1   
 19  10  12  1   
 20  10  27  1   
 21  10  28  1   
 22  11  13  1   
 23  11  29  1   
 24  11  30  1   
 25  12  14  1   
 26  12  15  2   
 27  13  16  1   
 28  13  31  1   
 29  13  32  1   
 30  14  17  1   
 31  14  18  1   
 32  15  19  1   
 33  15  33  1   
 34  16  34  1   
 35  17  19  2   
 36  17  35  1   
 37  18  36  1   
 38  18  37  1   
 39  18  38  1   
@<TRIPOS>SUBSTRUCTURE
  1 ****   9 GROUP 4 **** **** 0

# MOE 2024.06 (io_trps.svl 2023.06)
