@<TRIPOS>MOLECULE
NONAME
47 49 1 0 0 
SMALL
USER_CHARGES


@<TRIPOS>ATOM
  1 O        0.8700     1.4100     0.1900 O.2   1 <1>  -0.5700 
  2 C        0.4630     2.5350     0.0520 C.2   1 <1>   0.5690 
  3 N       -0.5670     2.9920     0.7950 N.am  1 <1>  -0.7300 
  4 C        1.0870     3.4580    -0.9940 C.3   1 <1>   0.1810 
  5 C       -1.1330     4.3600     0.6780 C.3   1 <1>   0.3640 
  6 O        0.8600     4.8190    -0.7100 O.3   1 <1>  -0.5600 
  7 C       -2.6430     4.2270     0.5080 C.ar  1 <1>  -0.1440 
  8 C       -0.5010     5.1720    -0.4910 C.3   1 <1>   0.2610 
  9 C       -3.1860     3.3310    -0.4060 C.ar  1 <1>   0.1600 
 10 C       -3.5070     5.0030     1.2570 C.ar  1 <1>  -0.1500 
 11 C       -0.6050     6.6860    -0.2530 C.2   1 <1>   0.5690 
 12 N       -4.4780     3.1580    -0.6280 N.ar  1 <1>  -0.6200 
 13 C       -4.8570     4.8330     1.0420 C.ar  1 <1>  -0.1500 
 14 O       -1.3670     7.1310     0.5740 O.2   1 <1>  -0.5700 
 15 N        0.1890     7.5100    -0.9860 N.am  1 <1>  -0.7300 
 16 C       -5.2840     3.9120     0.1010 C.ar  1 <1>   0.1600 
 17 C        0.3380     8.9780    -0.8100 C.3   1 <1>   0.1400 
 18 C        1.8010     9.3680    -0.5020 C.3   1 <1>   0.2800 
 19 O        2.6130     8.8320    -1.4870 O.3   1 <1>  -0.6800 
 20 C        1.9880    10.8950    -0.5360 C.3   1 <1>  -0.1600 
 21 C        2.2790     8.7930     0.8450 C.3   1 <1>  -0.1600 
 22 C        3.4120    11.3430    -0.1600 C.3   1 <1>  -0.1600 
 23 C        3.7020     9.2380     1.2280 C.3   1 <1>  -0.1600 
 24 C        3.8350    10.7660     1.1970 C.3   1 <1>  -0.1600 
 25 H       -0.9810     2.3690     1.4910 H     1 <1>   0.3700 
 26 H        0.6800     3.2370    -1.9630 H     1 <1>   0.0800 
 27 H        2.1510     3.3020    -1.0190 H     1 <1>   0.0800 
 28 H       -0.9280     4.8750     1.6020 H     1 <1>   0.0800 
 29 H       -1.0350     4.9540    -1.3970 H     1 <1>   0.0800 
 30 H       -2.5220     2.7160    -0.9900 H     1 <1>   0.1500 
 31 H       -3.1490     5.7210     1.9760 H     1 <1>   0.1500 
 32 H       -5.5750     5.4120     1.5940 H     1 <1>   0.1500 
 33 H        0.9550     7.0950    -1.5310 H     1 <1>   0.3700 
 34 H       -6.3410     3.7900    -0.0600 H     1 <1>   0.1500 
 35 H        0.0240     9.4680    -1.7150 H     1 <1>   0.0800 
 36 H       -0.3010     9.3180    -0.0130 H     1 <1>   0.0800 
 37 H        3.5340     9.0700    -1.2760 H     1 <1>   0.4000 
 38 H        1.7350    11.2670    -1.5140 H     1 <1>   0.0800 
 39 H        1.2990    11.3370     0.1620 H     1 <1>   0.0800 
 40 H        1.6010     9.1200     1.6130 H     1 <1>   0.0800 
 41 H        2.2310     7.7180     0.8200 H     1 <1>   0.0800 
 42 H        4.1070    11.0280    -0.9190 H     1 <1>   0.0800 
 43 H        3.4470    12.4180    -0.1170 H     1 <1>   0.0800 
 44 H        3.9320     8.8790     2.2170 H     1 <1>   0.0800 
 45 H        4.4160     8.7990     0.5520 H     1 <1>   0.0800 
 46 H        3.2160    11.1900     1.9710 H     1 <1>   0.0800 
 47 H        4.8540    11.0430     1.4060 H     1 <1>   0.0800 
@<TRIPOS>BOND
  1   1   2  2   
  2   2   3  am  
  3   2   4  1   
  4   3   5  1   
  5   3  25  1   
  6   4   6  1   
  7   4  26  1   
  8   4  27  1   
  9   5   7  1   
 10   5   8  1   
 11   5  28  1   
 12   6   8  1   
 13   7   9  ar  
 14   7  10  ar  
 15   8  11  1   
 16   8  29  1   
 17   9  12  ar  
 18   9  30  1   
 19  10  13  ar  
 20  10  31  1   
 21  11  14  2   
 22  11  15  am  
 23  12  16  ar  
 24  13  16  ar  
 25  13  32  1   
 26  15  17  1   
 27  15  33  1   
 28  16  34  1   
 29  17  18  1   
 30  17  35  1   
 31  17  36  1   
 32  18  19  1   
 33  18  20  1   
 34  18  21  1   
 35  19  37  1   
 36  20  22  1   
 37  20  38  1   
 38  20  39  1   
 39  21  23  1   
 40  21  40  1   
 41  21  41  1   
 42  22  24  1   
 43  22  42  1   
 44  22  43  1   
 45  23  24  1   
 46  23  44  1   
 47  23  45  1   
 48  24  46  1   
 49  24  47  1   
@<TRIPOS>SUBSTRUCTURE
  1 ****  11 GROUP 4 **** **** 0

# MOE 2024.06 (io_trps.svl 2023.06)
