@<TRIPOS>MOLECULE
NONAME
52 53 1 0 0 
SMALL
USER_CHARGES


@<TRIPOS>ATOM
  1 F       -0.5870     0.7200     0.2500 F     1 <1>  -0.1900 
  2 C       -1.8510     0.9430    -0.0030 C.ar  1 <1>   0.1900 
  3 C       -2.4380     2.1980     0.1930 C.ar  1 <1>   0.0820 
  4 C       -2.5810    -0.1310    -0.4760 C.ar  1 <1>  -0.1500 
  5 O       -1.8270     3.3290     0.6490 O.3   1 <1>  -0.3630 
  6 C       -3.7850     2.3300    -0.1010 C.ar  1 <1>  -0.1500 
  7 C       -3.9250     0.0350    -0.7590 C.ar  1 <1>  -0.1500 
  8 C       -0.4520     3.3880     0.9620 C.3   1 <1>   0.0400 
  9 C       -4.5570     1.2660    -0.5710 C.ar  1 <1>   0.0530 
 10 C       -5.9590     1.4410    -0.8500 C.2   1 <1>   0.0870 
 11 O       -6.4130     2.5770    -1.3160 O.3   1 <1>  -0.0190 
 12 C       -7.0320     0.6230    -0.7040 C.2   1 <1>  -0.0860 
 13 N       -7.7090     2.5710    -1.5010 N.2   1 <1>  -0.4100 
 14 C       -8.1020     1.3980    -1.1450 C.2   1 <1>   0.3720 
 15 C       -7.1610    -0.6940    -0.1800 C.2   1 <1>   0.7160 
 16 N       -9.4290     0.9530    -1.2080 N.pl3 1 <1>  -0.8210 
 17 O       -6.8930    -1.6610    -0.8760 O.2   1 <1>  -0.5700 
 18 N       -7.6150    -0.9230     1.1060 N.am  1 <1>  -0.6600 
 19 C       -9.7530     0.3840    -2.5440 C.3   1 <1>   0.1290 
 20 C      -10.4250     1.9930    -0.8200 C.3   1 <1>   0.1290 
 21 C       -7.9100    -2.3030     1.5800 C.3   1 <1>   0.1400 
 22 C       -7.9380     0.1830     2.0570 C.3   1 <1>   0.0600 
 23 C       -9.1330    -2.8720     0.8330 C.3   1 <1>   0.3430 
 24 N       -8.9570    -4.3010     0.3990 N.4   1 <1>  -0.9590 
 25 C       -7.9380    -4.4040    -0.6980 C.3   1 <1>   0.2630 
 26 C      -10.2600    -4.8660    -0.0650 C.3   1 <1>   0.2630 
 27 H       -2.0990    -1.0810    -0.6220 H     1 <1>   0.1500 
 28 H       -4.2470     3.2910     0.0450 H     1 <1>   0.1500 
 29 H       -4.4850    -0.8000    -1.1400 H     1 <1>   0.1500 
 30 H       -0.2230     4.3900     1.2750 H     1 <1>   0.0800 
 31 H        0.1180     3.1420     0.0830 H     1 <1>   0.0800 
 32 H       -0.2450     2.7000     1.7620 H     1 <1>   0.0800 
 33 H       -9.0450    -0.3870    -2.7960 H     1 <1>   0.0800 
 34 H       -9.7050     1.1550    -3.2950 H     1 <1>   0.0800 
 35 H      -10.7420    -0.0400    -2.5360 H     1 <1>   0.0800 
 36 H      -10.1310     2.4520     0.1080 H     1 <1>   0.0800 
 37 H      -11.3950     1.5450    -0.6930 H     1 <1>   0.0800 
 38 H      -10.4830     2.7560    -1.5780 H     1 <1>   0.0800 
 39 H       -8.1040    -2.2940     2.6390 H     1 <1>   0.0800 
 40 H       -7.0390    -2.9110     1.4070 H     1 <1>   0.0800 
 41 H       -7.4670     1.1040     1.7580 H     1 <1>   0.0800 
 42 H       -7.5870    -0.0630     3.0450 H     1 <1>   0.0800 
 43 H       -9.0030     0.3390     2.0870 H     1 <1>   0.0800 
 44 H       -9.3150    -2.2620    -0.0380 H     1 <1>   0.0800 
 45 H       -9.9930    -2.7910     1.4780 H     1 <1>   0.0800 
 46 H       -8.6290    -4.8550     1.2050 H     1 <1>   0.4500 
 47 H       -8.2350    -3.8010    -1.5420 H     1 <1>   0.0800 
 48 H       -7.8310    -5.4260    -1.0210 H     1 <1>   0.0800 
 49 H       -6.9790    -4.0490    -0.3590 H     1 <1>   0.0800 
 50 H      -10.6290    -4.3080    -0.9110 H     1 <1>   0.0800 
 51 H      -10.9930    -4.8200     0.7250 H     1 <1>   0.0800 
 52 H      -10.1380    -5.8960    -0.3590 H     1 <1>   0.0800 
@<TRIPOS>BOND
  1   1   2  1   
  2   2   3  ar  
  3   2   4  ar  
  4   3   5  1   
  5   3   6  ar  
  6   4   7  ar  
  7   4  27  1   
  8   5   8  1   
  9   6   9  ar  
 10   6  28  1   
 11   7   9  ar  
 12   7  29  1   
 13   8  30  1   
 14   8  31  1   
 15   8  32  1   
 16   9  10  1   
 17  10  11  1   
 18  10  12  2   
 19  11  13  1   
 20  12  14  1   
 21  12  15  1   
 22  13  14  2   
 23  14  16  1   
 24  15  17  2   
 25  15  18  am  
 26  16  19  1   
 27  16  20  1   
 28  18  21  1   
 29  18  22  1   
 30  19  33  1   
 31  19  34  1   
 32  19  35  1   
 33  20  36  1   
 34  20  37  1   
 35  20  38  1   
 36  21  23  1   
 37  21  39  1   
 38  21  40  1   
 39  22  41  1   
 40  22  42  1   
 41  22  43  1   
 42  23  24  1   
 43  23  44  1   
 44  23  45  1   
 45  24  25  1   
 46  24  26  1   
 47  24  46  1   
 48  25  47  1   
 49  25  48  1   
 50  25  49  1   
 51  26  50  1   
 52  26  51  1   
 53  26  52  1   
@<TRIPOS>SUBSTRUCTURE
  1 ****  12 GROUP 4 **** **** 0

# MOE 2024.06 (io_trps.svl 2023.06)
