@<TRIPOS>MOLECULE
NONAME
47 50 1 0 0 
SMALL
USER_CHARGES


@<TRIPOS>ATOM
  1 F       -3.4100    -0.8960    -2.1200 F     1 <1>  -0.1900 
  2 C       -3.2580     0.1620    -1.3700 C.ar  1 <1>   0.1900 
  3 C       -3.1360     0.0080     0.0100 C.ar  1 <1>   0.0860 
  4 C       -3.2410     1.3910    -2.0000 C.ar  1 <1>  -0.1500 
  5 C       -2.9910     1.1780     0.7670 C.ar  1 <1>  -0.1440 
  6 C       -3.1670    -1.3080     0.6100 C.2   1 <1>   0.5440 
  7 C       -3.0980     2.5300    -1.2310 C.ar  1 <1>  -0.1500 
  8 C       -2.9740     2.4190     0.1450 C.ar  1 <1>  -0.1500 
  9 C       -2.8450     1.0980     2.2810 C.3   1 <1>  -0.0960 
 10 O       -2.1270    -1.8190     0.9780 O.2   1 <1>  -0.5700 
 11 N       -4.3490    -1.9960     0.7890 N.am  1 <1>  -0.6600 
 12 C       -4.3820    -3.4170     1.2620 C.3   1 <1>   0.1400 
 13 C       -5.6810    -1.5340     0.2950 C.3   1 <1>   0.1400 
 14 C       -5.0370    -4.3310     0.2080 C.3   1 <1>   0.3430 
 15 C       -6.2510    -2.5400    -0.7250 C.3   1 <1>   0.2950 
 16 O       -6.2920    -3.8220    -0.1690 O.3   1 <1>  -0.5600 
 17 C       -5.1990    -5.7470     0.7530 C.ar  1 <1>  -0.1440 
 18 C       -7.6770    -2.1680    -1.1410 C.3   1 <1>  -0.1950 
 19 C       -4.1770    -6.6690     0.5750 C.ar  1 <1>  -0.1500 
 20 C       -6.3430    -6.1350     1.4390 C.ar  1 <1>  -0.1500 
 21 C       -8.2550    -2.6480    -2.4340 C.3   1 <1>  -0.2000 
 22 C       -7.9250    -1.1940    -2.2510 C.3   1 <1>  -0.2000 
 23 C       -4.2940    -7.9550     1.0730 C.ar  1 <1>  -0.1500 
 24 C       -6.4620    -7.4210     1.9380 C.ar  1 <1>  -0.1500 
 25 C       -5.4370    -8.3320     1.7560 C.ar  1 <1>  -0.1500 
 26 H       -3.3370     1.4520    -3.0690 H     1 <1>   0.1500 
 27 H       -3.0810     3.5010    -1.6970 H     1 <1>   0.1500 
 28 H       -2.8600     3.3150     0.7310 H     1 <1>   0.1500 
 29 H       -2.7740     2.0770     2.7190 H     1 <1>   0.0800 
 30 H       -1.9550     0.5480     2.5340 H     1 <1>   0.0800 
 31 H       -3.6920     0.5940     2.7100 H     1 <1>   0.0800 
 32 H       -3.3890    -3.7770     1.4670 H     1 <1>   0.0800 
 33 H       -4.9440    -3.4750     2.1770 H     1 <1>   0.0800 
 34 H       -6.3570    -1.4560     1.1280 H     1 <1>   0.0800 
 35 H       -5.6140    -0.5650    -0.1640 H     1 <1>   0.0800 
 36 H       -4.4180    -4.3620    -0.6720 H     1 <1>   0.0800 
 37 H       -5.6190    -2.5710    -1.5960 H     1 <1>   0.0800 
 38 H       -8.3430    -2.1270    -0.2970 H     1 <1>   0.1000 
 39 H       -3.2810    -6.3900     0.0470 H     1 <1>   0.1500 
 40 H       -7.1470    -5.4350     1.5820 H     1 <1>   0.1500 
 41 H       -7.6400    -3.2510    -3.0810 H     1 <1>   0.1000 
 42 H       -9.2870    -2.9550    -2.4480 H     1 <1>   0.1000 
 43 H       -8.7360    -0.4920    -2.1550 H     1 <1>   0.1000 
 44 H       -7.0930    -0.7900    -2.8020 H     1 <1>   0.1000 
 45 H       -3.4970    -8.6630     0.9300 H     1 <1>   0.1500 
 46 H       -7.3530    -7.7100     2.4660 H     1 <1>   0.1500 
 47 H       -5.5300    -9.3310     2.1430 H     1 <1>   0.1500 
@<TRIPOS>BOND
  1   1   2  1   
  2   2   3  ar  
  3   2   4  ar  
  4   3   5  ar  
  5   3   6  1   
  6   4   7  ar  
  7   4  26  1   
  8   5   8  ar  
  9   5   9  1   
 10   6  10  2   
 11   6  11  am  
 12   7   8  ar  
 13   7  27  1   
 14   8  28  1   
 15   9  29  1   
 16   9  30  1   
 17   9  31  1   
 18  11  12  1   
 19  11  13  1   
 20  12  14  1   
 21  12  32  1   
 22  12  33  1   
 23  13  15  1   
 24  13  34  1   
 25  13  35  1   
 26  14  16  1   
 27  14  17  1   
 28  14  36  1   
 29  15  16  1   
 30  15  18  1   
 31  15  37  1   
 32  17  19  ar  
 33  17  20  ar  
 34  18  21  1   
 35  18  22  1   
 36  18  38  1   
 37  19  23  ar  
 38  19  39  1   
 39  20  24  ar  
 40  20  40  1   
 41  21  22  1   
 42  21  41  1   
 43  21  42  1   
 44  22  43  1   
 45  22  44  1   
 46  23  25  ar  
 47  23  45  1   
 48  24  25  ar  
 49  24  46  1   
 50  25  47  1   
@<TRIPOS>SUBSTRUCTURE
  1 ****  11 GROUP 4 **** **** 0

# MOE 2024.06 (io_trps.svl 2023.06)
