@<TRIPOS>MOLECULE
NONAME
31 31 1 0 0 
SMALL
USER_CHARGES


@<TRIPOS>ATOM
  1 F      -10.7490     1.3920    -1.2830 F     1 <1>  -0.3400 
  2 C       -9.9120     0.7980    -0.4320 C.3   1 <1>   0.2600 
  3 C       -9.3690    -0.4510    -1.1200 C.3   1 <1>   0.2200 
  4 C      -10.7440     0.2540     0.7390 C.3   1 <1>   0.1100 
  5 N       -8.1220    -0.9300    -0.4600 N.am  1 <1>  -0.7300 
  6 C      -10.5020    -1.4490    -0.8670 C.3   1 <1>   0.1100 
  7 N      -10.9930    -1.1830     0.4940 N.3   1 <1>  -0.9000 
  8 C       -6.9250    -0.3160    -0.5240 C.2   1 <1>   0.7800 
  9 O       -6.7750     0.7420    -1.0970 O.2   1 <1>  -0.5700 
 10 O       -5.9300    -0.9440     0.0950 O.3   1 <1>  -0.4300 
 11 C       -4.5860    -0.5210     0.1860 C.3   1 <1>   0.2800 
 12 C       -4.4990     0.8100     0.9410 C.3   1 <1>  -0.2400 
 13 C       -3.9590    -0.4430    -1.2110 C.3   1 <1>  -0.2400 
 14 C       -3.8790    -1.6080     0.9960 C.3   1 <1>  -0.2400 
 15 H       -9.1700     1.5280    -0.1640 H     1 <1>   0.0800 
 16 H       -9.1850    -0.2850    -2.1680 H     1 <1>   0.0800 
 17 H      -11.6740     0.7900     0.8270 H     1 <1>   0.0800 
 18 H      -10.1910     0.3600     1.6560 H     1 <1>   0.0800 
 19 H       -8.1700    -1.8120     0.0460 H     1 <1>   0.3700 
 20 H      -10.1850    -2.4710    -0.9840 H     1 <1>   0.0800 
 21 H      -11.3020    -1.2540    -1.5620 H     1 <1>   0.0800 
 22 H      -10.4170    -1.7170     1.1570 H     1 <1>   0.3600 
 23 H       -3.4700     1.0590     1.1270 H     1 <1>   0.0800 
 24 H       -5.0080     0.7400     1.8850 H     1 <1>   0.0800 
 25 H       -4.9260     1.6120     0.3670 H     1 <1>   0.0800 
 26 H       -2.9050    -0.2550    -1.1290 H     1 <1>   0.0800 
 27 H       -4.3870     0.3580    -1.7850 H     1 <1>   0.0800 
 28 H       -4.1000    -1.3700    -1.7370 H     1 <1>   0.0800 
 29 H       -2.8380    -1.3660     1.1160 H     1 <1>   0.0800 
 30 H       -3.9500    -2.5550     0.4930 H     1 <1>   0.0800 
 31 H       -4.3210    -1.6940     1.9720 H     1 <1>   0.0800 
@<TRIPOS>BOND
  1   1   2  1   
  2   2   3  1   
  3   2   4  1   
  4   2  15  1   
  5   3   5  1   
  6   3   6  1   
  7   3  16  1   
  8   4   7  1   
  9   4  17  1   
 10   4  18  1   
 11   5   8  am  
 12   5  19  1   
 13   6   7  1   
 14   6  20  1   
 15   6  21  1   
 16   7  22  1   
 17   8   9  2   
 18   8  10  1   
 19  10  11  1   
 20  11  12  1   
 21  11  13  1   
 22  11  14  1   
 23  12  23  1   
 24  12  24  1   
 25  12  25  1   
 26  13  26  1   
 27  13  27  1   
 28  13  28  1   
 29  14  29  1   
 30  14  30  1   
 31  14  31  1   
@<TRIPOS>SUBSTRUCTURE
  1 ****   8 GROUP 4 **** **** 0

# MOE 2024.06 (io_trps.svl 2023.06)
