@<TRIPOS>MOLECULE
NONAME
56 60 1 0 0 
SMALL
USER_CHARGES


@<TRIPOS>ATOM
  1 N       -1.2730     1.9310     0.4270 N.ar  1 <1>  -0.6200 
  2 C        0.0660     2.0290     0.2050 C.ar  1 <1>   0.3100 
  3 C       -1.6640     1.4160     1.5600 C.ar  1 <1>   0.1660 
  4 C        1.0250     1.5880     1.1430 C.ar  1 <1>   0.0000 
  5 C        0.5180     2.5850    -1.0030 C.ar  1 <1>  -0.1500 
  6 C       -0.7820     0.9570     2.5520 C.ar  1 <1>  -0.1500 
  7 C       -3.1690     1.3080     1.8030 C.3   1 <1>   0.4870 
  8 C        0.5620     1.0390     2.3500 C.ar  1 <1>  -0.1500 
  9 C        2.3940     1.7170     0.8350 C.ar  1 <1>  -0.1500 
 10 C        1.8540     2.7010    -1.2830 C.ar  1 <1>  -0.1500 
 11 N       -3.8610     1.1270     0.4930 N.4   1 <1>  -0.9590 
 12 C        2.8010     2.2610    -0.3530 C.ar  1 <1>  -0.1500 
 13 C       -5.2690     1.6370     0.5000 C.3   1 <1>   0.3430 
 14 C       -3.7540    -0.2720    -0.0060 C.3   1 <1>   0.3430 
 15 C       -5.9010     1.5860    -0.9010 C.3   1 <1>   0.1430 
 16 C       -4.3280    -0.3600    -1.4230 C.3   1 <1>  -0.1600 
 17 C       -7.3530     1.9710    -0.7690 C.ar  1 <1>   0.1670 
 18 C       -5.7720     0.1690    -1.5000 C.3   1 <1>  -0.1600 
 19 C       -5.3500     2.6780    -1.8590 C.3   1 <1>  -0.1600 
 20 N       -8.1630     1.4860     0.1350 N.ar  1 <1>  -0.6200 
 21 C       -7.7190     2.9030    -1.6900 C.ar  1 <1>  -0.1430 
 22 C       -6.5680     3.2800    -2.5880 C.3   1 <1>  -0.0170 
 23 C       -9.4070     1.9710     0.0910 C.ar  1 <1>   0.7200 
 24 C       -9.0170     3.3440    -1.6590 C.ar  1 <1>   0.1600 
 25 N       -9.8670     2.8850    -0.7700 N.ar  1 <1>  -0.6200 
 26 N      -10.2950     1.4890     1.0290 N.pl3 1 <1>  -0.8380 
 27 C      -11.5840     2.1810     1.3090 C.3   1 <1>   0.1290 
 28 C      -10.1580     0.1360     1.6360 C.3   1 <1>   0.1290 
 29 H       -0.2180     2.9220    -1.7090 H     1 <1>   0.1500 
 30 H       -1.1660     0.5440     3.4680 H     1 <1>   0.1500 
 31 H       -3.5000     2.2220     2.2670 H     1 <1>   0.0800 
 32 H       -3.3880     0.4850     2.4630 H     1 <1>   0.0800 
 33 H        1.2730     0.6990     3.0830 H     1 <1>   0.1500 
 34 H        3.1210     1.3790     1.5530 H     1 <1>   0.1500 
 35 H        2.1910     3.1290    -2.2120 H     1 <1>   0.1500 
 36 H       -3.2810     1.7050    -0.1430 H     1 <1>   0.4500 
 37 H        3.8480     2.3590    -0.5860 H     1 <1>   0.1500 
 38 H       -5.2990     2.6520     0.8600 H     1 <1>   0.0800 
 39 H       -5.8670     1.0330     1.1630 H     1 <1>   0.0800 
 40 H       -4.3010    -0.9350     0.6440 H     1 <1>   0.0800 
 41 H       -2.7190    -0.5810    -0.0190 H     1 <1>   0.0800 
 42 H       -4.3120    -1.3880    -1.7400 H     1 <1>   0.0800 
 43 H       -3.6910     0.1860    -2.0960 H     1 <1>   0.0800 
 44 H       -6.1150     0.1660    -2.5210 H     1 <1>   0.0800 
 45 H       -6.4150    -0.4990    -0.9490 H     1 <1>   0.0800 
 46 H       -4.6290     2.2990    -2.5620 H     1 <1>   0.0800 
 47 H       -4.8850     3.4620    -1.2870 H     1 <1>   0.0800 
 48 H       -6.7010     2.8250    -3.5550 H     1 <1>   0.0800 
 49 H       -6.4800     4.3480    -2.6980 H     1 <1>   0.0800 
 50 H       -9.3640     4.0800    -2.3650 H     1 <1>   0.1500 
 51 H      -11.4740     3.2450     1.1810 H     1 <1>   0.0800 
 52 H      -11.8930     1.9920     2.3220 H     1 <1>   0.0800 
 53 H      -12.3400     1.8250     0.6310 H     1 <1>   0.0800 
 54 H       -9.4380    -0.4550     1.0980 H     1 <1>   0.0800 
 55 H      -11.1040    -0.3760     1.6050 H     1 <1>   0.0800 
 56 H       -9.8410     0.2320     2.6590 H     1 <1>   0.0800 
@<TRIPOS>BOND
  1   1   2  ar  
  2   1   3  ar  
  3   2   4  ar  
  4   2   5  ar  
  5   3   6  ar  
  6   3   7  1   
  7   4   8  ar  
  8   4   9  ar  
  9   5  10  ar  
 10   5  29  1   
 11   6   8  ar  
 12   6  30  1   
 13   7  11  1   
 14   7  31  1   
 15   7  32  1   
 16   8  33  1   
 17   9  12  ar  
 18   9  34  1   
 19  10  12  ar  
 20  10  35  1   
 21  11  13  1   
 22  11  14  1   
 23  11  36  1   
 24  12  37  1   
 25  13  15  1   
 26  13  38  1   
 27  13  39  1   
 28  14  16  1   
 29  14  40  1   
 30  14  41  1   
 31  15  17  1   
 32  15  18  1   
 33  15  19  1   
 34  16  18  1   
 35  16  42  1   
 36  16  43  1   
 37  17  20  ar  
 38  17  21  ar  
 39  18  44  1   
 40  18  45  1   
 41  19  22  1   
 42  19  46  1   
 43  19  47  1   
 44  20  23  ar  
 45  21  22  1   
 46  21  24  ar  
 47  22  48  1   
 48  22  49  1   
 49  23  25  ar  
 50  23  26  1   
 51  24  25  ar  
 52  24  50  1   
 53  26  27  1   
 54  26  28  1   
 55  27  51  1   
 56  27  52  1   
 57  27  53  1   
 58  28  54  1   
 59  28  55  1   
 60  28  56  1   
@<TRIPOS>SUBSTRUCTURE
  1 ****  11 GROUP 4 **** **** 0

# MOE 2024.06 (io_trps.svl 2023.06)
