@<TRIPOS>MOLECULE
NONAME
50 52 1 0 0 
SMALL
USER_CHARGES


@<TRIPOS>ATOM
  1 O        1.7020     0.1450     2.9870 O.2   1 <1>  -0.5700 
  2 C        1.5180    -0.5810     2.0390 C.2   1 <1>   0.5690 
  3 N        1.6050    -0.1790     0.7460 N.am  1 <1>  -0.4930 
  4 C        1.1250    -2.0390     2.2880 C.3   1 <1>   0.1710 
  5 C        1.8050     1.0780     0.1960 C.2   1 <1>   0.3520 
  6 N        0.1520    -2.5880     1.2890 N.3   1 <1>  -0.8100 
  7 N        1.5730     1.2540    -1.0650 N.2   1 <1>  -0.7070 
  8 C        2.2390     2.2390     0.8270 C.2   1 <1>  -0.1500 
  9 C       -1.1590    -1.9080     1.3820 C.3   1 <1>   0.1100 
 10 C       -0.0040    -4.0460     1.4360 C.3   1 <1>   0.1100 
 11 N        1.8650     2.5540    -1.2820 N.pl3 1 <1>   0.3140 
 12 C        2.2660     3.1670    -0.1520 C.2   1 <1>  -0.3020 
 13 C       -2.1500    -2.4480     0.3310 C.3   1 <1>   0.3430 
 14 C       -0.9810    -4.6140     0.3840 C.3   1 <1>   0.3430 
 15 C        1.7360     3.1550    -2.6140 C.3   1 <1>   0.0160 
 16 N       -2.3340    -3.9440     0.4280 N.4   1 <1>  -0.9590 
 17 C       -3.2770    -4.4760    -0.6060 C.3   1 <1>   0.4230 
 18 C       -4.6460    -3.7760    -0.4890 C.3   1 <1>  -0.1600 
 19 C       -3.4450    -5.9990    -0.4410 C.3   1 <1>  -0.1600 
 20 C       -5.6820    -4.3600    -1.4600 C.3   1 <1>  -0.1600 
 21 C       -4.4840    -6.5780    -1.4120 C.3   1 <1>  -0.1600 
 22 C       -5.8340    -5.8710    -1.2670 C.3   1 <1>  -0.1600 
 23 H        1.3720    -0.8770     0.0430 H     1 <1>   0.3700 
 24 H        0.7160    -2.1170     3.2810 H     1 <1>   0.0800 
 25 H        2.0300    -2.6190     2.2600 H     1 <1>   0.0800 
 26 H        2.4880     2.3340     1.8690 H     1 <1>   0.1500 
 27 H       -1.0340    -0.8510     1.2140 H     1 <1>   0.0800 
 28 H       -1.5740    -2.0340     2.3680 H     1 <1>   0.0800 
 29 H       -0.3570    -4.2840     2.4250 H     1 <1>   0.0800 
 30 H        0.9550    -4.5190     1.3040 H     1 <1>   0.0800 
 31 H        2.5440     4.2040    -0.1050 H     1 <1>   0.1500 
 32 H       -1.7790    -2.1900    -0.6480 H     1 <1>   0.0800 
 33 H       -3.0930    -1.9480     0.4700 H     1 <1>   0.0800 
 34 H       -1.0860    -5.6710     0.5590 H     1 <1>   0.0800 
 35 H       -0.5430    -4.4810    -0.5910 H     1 <1>   0.0800 
 36 H        2.2250     2.5210    -3.3310 H     1 <1>   0.0800 
 37 H        2.1930     4.1270    -2.6170 H     1 <1>   0.0800 
 38 H        0.6940     3.2390    -2.8590 H     1 <1>   0.0800 
 39 H       -2.7480    -4.1430     1.3450 H     1 <1>   0.4500 
 40 H       -2.8780    -4.2820    -1.5900 H     1 <1>   0.0800 
 41 H       -4.5590    -2.7300    -0.7180 H     1 <1>   0.0800 
 42 H       -5.0220    -3.8800     0.5140 H     1 <1>   0.0800 
 43 H       -3.7580    -6.2230     0.5650 H     1 <1>   0.0800 
 44 H       -2.5190    -6.5080    -0.6360 H     1 <1>   0.0800 
 45 H       -5.3830    -4.1590    -2.4750 H     1 <1>   0.0800 
 46 H       -6.6360    -3.8840    -1.3020 H     1 <1>   0.0800 
 47 H       -4.6120    -7.6300    -1.2210 H     1 <1>   0.0800 
 48 H       -4.1350    -6.4720    -2.4250 H     1 <1>   0.0800 
 49 H       -6.5240    -6.2590    -1.9980 H     1 <1>   0.0800 
 50 H       -6.2470    -6.0730    -0.2930 H     1 <1>   0.0800 
@<TRIPOS>BOND
  1   1   2  2   
  2   2   3  am  
  3   2   4  1   
  4   3   5  1   
  5   3  23  1   
  6   4   6  1   
  7   4  24  1   
  8   4  25  1   
  9   5   7  2   
 10   5   8  1   
 11   6   9  1   
 12   6  10  1   
 13   7  11  1   
 14   8  12  2   
 15   8  26  1   
 16   9  13  1   
 17   9  27  1   
 18   9  28  1   
 19  10  14  1   
 20  10  29  1   
 21  10  30  1   
 22  11  12  1   
 23  11  15  1   
 24  12  31  1   
 25  13  16  1   
 26  13  32  1   
 27  13  33  1   
 28  14  16  1   
 29  14  34  1   
 30  14  35  1   
 31  15  36  1   
 32  15  37  1   
 33  15  38  1   
 34  16  17  1   
 35  16  39  1   
 36  17  18  1   
 37  17  19  1   
 38  17  40  1   
 39  18  20  1   
 40  18  41  1   
 41  18  42  1   
 42  19  21  1   
 43  19  43  1   
 44  19  44  1   
 45  20  22  1   
 46  20  45  1   
 47  20  46  1   
 48  21  22  1   
 49  21  47  1   
 50  21  48  1   
 51  22  49  1   
 52  22  50  1   
@<TRIPOS>SUBSTRUCTURE
  1 ****   9 GROUP 4 **** **** 0

# MOE 2024.06 (io_trps.svl 2023.06)
