@<TRIPOS>MOLECULE
NONAME
51 54 1 0 0 
SMALL
USER_CHARGES


@<TRIPOS>ATOM
  1 S        3.7010    -3.7070     0.0140 S.3   1 <1>  -0.0800 
  2 C        2.4540    -2.5240     0.4010 C.2   1 <1>   0.3250 
  3 C        2.8800    -4.9010     0.9640 C.2   1 <1>  -0.1100 
  4 N        1.5340    -3.0230     1.1560 N.2   1 <1>  -0.5650 
  5 C        2.5640    -1.1750    -0.1190 C.ar  1 <1>   0.0530 
  6 C        1.7700    -4.3500     1.4760 C.2   1 <1>   0.0460 
  7 C        1.6950    -0.1790     0.3270 C.ar  1 <1>  -0.1500 
  8 C        3.5160    -0.7930    -1.0680 C.ar  1 <1>  -0.1500 
  9 C        0.7680    -5.0710     2.3720 C.3   1 <1>   0.5240 
 10 C        1.7690     1.1210    -0.1390 C.ar  1 <1>  -0.1500 
 11 C        3.5960     0.5050    -1.5380 C.ar  1 <1>  -0.1500 
 12 N       -0.5010    -5.3170     1.6360 N.4   1 <1>  -0.9590 
 13 C        2.7220     1.4860    -1.0830 C.ar  1 <1>  -0.1430 
 14 C       -1.2940    -4.0970     1.3060 C.3   1 <1>   0.3430 
 15 C       -1.4410    -6.3050     2.2020 C.3   1 <1>   0.3430 
 16 C        2.8170     2.9330    -1.6010 C.3   1 <1>   1.1630 
 17 C       -2.7400    -4.5820     1.1230 C.3   1 <1>   0.2000 
 18 C       -2.7330    -6.0900     1.4140 C.3   1 <1>  -0.0800 
 19 F        1.6520     3.5690    -1.5690 F     1 <1>  -0.3400 
 20 F        3.2400     3.0010    -2.8580 F     1 <1>  -0.3400 
 21 F        3.6610     3.6630    -0.8840 F     1 <1>  -0.3400 
 22 O       -3.5660    -3.9500     2.0460 O.3   1 <1>  -0.6800 
 23 C       -2.7900    -6.9500     0.1280 C.3   1 <1>   0.0210 
 24 C       -1.5010    -7.0250    -0.6820 C.2   1 <1>   0.1080 
 25 N       -0.8440    -5.9860    -1.1040 N.2   1 <1>  -0.7070 
 26 C       -0.8910    -8.2130    -1.0670 C.2   1 <1>  -0.1500 
 27 N        0.1860    -6.4920    -1.8180 N.pl3 1 <1>   0.3000 
 28 C        0.1870    -7.8390    -1.7870 C.2   1 <1>  -0.3320 
 29 C        1.2220    -8.7050    -2.4830 C.3   1 <1>  -0.0600 
 30 H        3.3260    -5.8780     1.0310 H     1 <1>   0.1500 
 31 H        0.9470    -0.4270     1.0600 H     1 <1>   0.1500 
 32 H        4.2140    -1.5120    -1.4570 H     1 <1>   0.1500 
 33 H        0.5820    -4.4770     3.2520 H     1 <1>   0.0800 
 34 H        1.1940    -6.0110     2.6780 H     1 <1>   0.0800 
 35 H        1.0750     1.8530     0.2440 H     1 <1>   0.1500 
 36 H        4.3510     0.7500    -2.2680 H     1 <1>   0.1500 
 37 H       -0.2540    -5.6760     0.6880 H     1 <1>   0.4500 
 38 H       -1.2410    -3.3730     2.1010 H     1 <1>   0.0800 
 39 H       -0.9250    -3.6560     0.3930 H     1 <1>   0.0800 
 40 H       -1.0720    -7.3130     2.0920 H     1 <1>   0.0800 
 41 H       -1.6110    -6.0930     3.2450 H     1 <1>   0.0800 
 42 H       -3.1070    -4.3470     0.1370 H     1 <1>   0.0800 
 43 H       -3.5830    -6.3610     2.0160 H     1 <1>   0.0800 
 44 H       -3.3420    -4.1610     2.9730 H     1 <1>   0.4000 
 45 H       -3.5730    -6.5830    -0.5140 H     1 <1>   0.0800 
 46 H       -3.0650    -7.9530     0.4020 H     1 <1>   0.0800 
 47 H       -1.2300    -9.2110    -0.8430 H     1 <1>   0.1500 
 48 H        0.8580    -5.9020    -2.3280 H     1 <1>   0.2700 
 49 H        1.0050    -9.7470    -2.3210 H     1 <1>   0.0800 
 50 H        2.2060    -8.4980    -2.1020 H     1 <1>   0.0800 
 51 H        1.2120    -8.5190    -3.5430 H     1 <1>   0.0800 
@<TRIPOS>BOND
  1   1   2  1   
  2   1   3  1   
  3   2   4  2   
  4   2   5  1   
  5   3   6  2   
  6   3  30  1   
  7   4   6  1   
  8   5   7  ar  
  9   5   8  ar  
 10   6   9  1   
 11   7  10  ar  
 12   7  31  1   
 13   8  11  ar  
 14   8  32  1   
 15   9  12  1   
 16   9  33  1   
 17   9  34  1   
 18  10  13  ar  
 19  10  35  1   
 20  11  13  ar  
 21  11  36  1   
 22  12  14  1   
 23  12  15  1   
 24  12  37  1   
 25  13  16  1   
 26  14  17  1   
 27  14  38  1   
 28  14  39  1   
 29  15  18  1   
 30  15  40  1   
 31  15  41  1   
 32  16  19  1   
 33  16  20  1   
 34  16  21  1   
 35  17  18  1   
 36  17  22  1   
 37  17  42  1   
 38  18  23  1   
 39  18  43  1   
 40  22  44  1   
 41  23  24  1   
 42  23  45  1   
 43  23  46  1   
 44  24  25  2   
 45  24  26  1   
 46  25  27  1   
 47  26  28  2   
 48  26  47  1   
 49  27  28  1   
 50  27  48  1   
 51  28  29  1   
 52  29  49  1   
 53  29  50  1   
 54  29  51  1   
@<TRIPOS>SUBSTRUCTURE
  1 ****   4 GROUP 4 **** **** 0

# MOE 2024.06 (io_trps.svl 2023.06)
