@<TRIPOS>MOLECULE
NONAME
44 47 1 0 0 
SMALL
USER_CHARGES


@<TRIPOS>ATOM
  1 O       -1.6960    -0.7150    -2.7620 O.2   1 <1>  -0.5700 
  2 C       -1.9410    -1.0350    -1.6320 C.2   1 <1>   0.5690 
  3 N       -1.9750    -0.1140    -0.6550 N.am  1 <1>  -0.7300 
  4 C       -2.2550    -2.4730    -1.3170 C.3   1 <1>  -0.0190 
  5 C       -2.2860    -0.3740     0.7700 C.3   1 <1>   0.2200 
  6 C       -1.2460    -3.0690    -0.3100 C.3   1 <1>   0.1200 
  7 C       -3.7430    -2.5780    -0.9510 C.3   1 <1>   0.3430 
  8 C       -1.2590    -1.3640     1.3750 C.3   1 <1>   0.1200 
  9 C       -3.7640    -0.8350     0.9260 C.3   1 <1>   0.3430 
 10 O       -1.5090    -2.7010     1.0190 O.3   1 <1>  -0.5600 
 11 N       -4.0500    -2.2500     0.4840 N.4   1 <1>  -0.9590 
 12 C       -5.4020    -2.7080     0.9000 C.3   1 <1>   0.4860 
 13 C       -5.5070    -4.2120     0.7070 C.ar  1 <1>  -0.1440 
 14 C       -6.3490    -4.7310    -0.2650 C.ar  1 <1>  -0.1500 
 15 C       -4.7720    -5.0820     1.5000 C.ar  1 <1>  -0.1500 
 16 C       -6.4530    -6.0990    -0.4430 C.ar  1 <1>  -0.1500 
 17 C       -4.8790    -6.4500     1.3210 C.ar  1 <1>  -0.1500 
 18 C       -5.7220    -6.9780     0.3490 C.ar  1 <1>  -0.0230 
 19 N       -5.8450    -8.3830     0.1730 N.pl3 1 <1>   0.3260 
 20 C       -4.8670    -9.3290     0.1690 C.2   1 <1>   0.0360 
 21 C       -6.9720    -9.1000    -0.0380 C.2   1 <1>  -0.3020 
 22 N       -5.2820   -10.5390    -0.0210 N.2   1 <1>  -0.5650 
 23 C       -6.6140   -10.3960    -0.1520 C.2   1 <1>   0.0770 
 24 H       -1.6980     0.8370    -0.9250 H     1 <1>   0.3700 
 25 H       -2.1230    -3.0090    -2.2400 H     1 <1>   0.0800 
 26 H       -2.1780     0.5640     1.2880 H     1 <1>   0.0800 
 27 H       -0.2380    -2.7780    -0.5580 H     1 <1>   0.0800 
 28 H       -1.2980    -4.1440    -0.3490 H     1 <1>   0.0800 
 29 H       -4.0470    -3.5940    -1.1450 H     1 <1>   0.0800 
 30 H       -4.3150    -1.9390    -1.6050 H     1 <1>   0.0800 
 31 H       -1.3150    -1.3170     2.4490 H     1 <1>   0.0800 
 32 H       -0.2540    -1.1030     1.0870 H     1 <1>   0.0800 
 33 H       -4.3950    -0.1490     0.3850 H     1 <1>   0.0800 
 34 H       -4.0160    -0.7500     1.9700 H     1 <1>   0.0800 
 35 H       -3.3590    -2.8260     1.0050 H     1 <1>   0.4500 
 36 H       -5.5670    -2.4770     1.9400 H     1 <1>   0.0800 
 37 H       -6.1580    -2.2100     0.3170 H     1 <1>   0.0800 
 38 H       -6.9380    -4.0810    -0.8930 H     1 <1>   0.1500 
 39 H       -4.1140    -4.7120     2.2680 H     1 <1>   0.1500 
 40 H       -7.1100    -6.4870    -1.2030 H     1 <1>   0.1500 
 41 H       -4.3080    -7.1130     1.9500 H     1 <1>   0.1500 
 42 H       -3.8360    -9.0640     0.3120 H     1 <1>   0.1500 
 43 H       -7.9460    -8.6510    -0.0880 H     1 <1>   0.1500 
 44 H       -7.2510   -11.2490    -0.3230 H     1 <1>   0.1500 
@<TRIPOS>BOND
  1   1   2  2   
  2   2   3  am  
  3   2   4  1   
  4   3   5  1   
  5   3  24  1   
  6   4   6  1   
  7   4   7  1   
  8   4  25  1   
  9   5   8  1   
 10   5   9  1   
 11   5  26  1   
 12   6  10  1   
 13   6  27  1   
 14   6  28  1   
 15   7  11  1   
 16   7  29  1   
 17   7  30  1   
 18   8  10  1   
 19   8  31  1   
 20   8  32  1   
 21   9  11  1   
 22   9  33  1   
 23   9  34  1   
 24  11  12  1   
 25  11  35  1   
 26  12  13  1   
 27  12  36  1   
 28  12  37  1   
 29  13  14  ar  
 30  13  15  ar  
 31  14  16  ar  
 32  14  38  1   
 33  15  17  ar  
 34  15  39  1   
 35  16  18  ar  
 36  16  40  1   
 37  17  18  ar  
 38  17  41  1   
 39  18  19  1   
 40  19  20  1   
 41  19  21  1   
 42  20  22  2   
 43  20  42  1   
 44  21  23  2   
 45  21  43  1   
 46  22  23  1   
 47  23  44  1   
@<TRIPOS>SUBSTRUCTURE
  1 ****  13 GROUP 4 **** **** 0

# MOE 2024.06 (io_trps.svl 2023.06)
