@<TRIPOS>MOLECULE
NONAME
49 51 1 0 0 
SMALL
USER_CHARGES


@<TRIPOS>ATOM
  1 S       -1.2700     0.2090    -0.3690 S.3   1 <1>  -0.0800 
  2 C       -1.7340    -1.3440     0.3000 C.2   1 <1>  -0.1100 
  3 C       -2.1290    -0.1280    -1.8590 C.2   1 <1>  -0.1100 
  4 C       -2.4980    -2.0340    -0.5700 C.2   1 <1>  -0.1810 
  5 C       -2.7140    -1.3390    -1.8080 C.2   1 <1>  -0.1500 
  6 C       -3.0840    -3.4050    -0.3110 C.3   1 <1>   0.5240 
  7 N       -4.3530    -3.2220     0.4380 N.4   1 <1>  -0.9590 
  8 C       -4.7640    -4.4980     1.1260 C.3   1 <1>   0.3430 
  9 C       -5.4360    -2.6990    -0.4510 C.3   1 <1>   0.3430 
 10 C       -5.8820    -4.3150     2.1760 C.3   1 <1>   0.1400 
 11 C       -6.2840    -1.6490     0.2730 C.3   1 <1>  -0.1600 
 12 N       -7.0580    -3.5920     1.6080 N.am  1 <1>  -0.6600 
 13 C       -6.9150    -2.1110     1.5920 C.3   1 <1>   0.1400 
 14 C       -8.1180    -4.1990     0.9540 C.2   1 <1>   0.5690 
 15 O       -8.9060    -3.5040     0.3520 O.2   1 <1>  -0.5700 
 16 C       -8.3010    -5.7420     0.9470 C.3   1 <1>   0.4040 
 17 O       -7.1100    -6.3870     0.5140 O.3   1 <1>  -0.5600 
 18 C       -9.4840    -6.2320     0.1000 C.ar  1 <1>  -0.1430 
 19 C       -7.1220    -7.7830     0.6170 C.3   1 <1>   0.0400 
 20 C      -10.6060    -6.7720     0.7160 C.ar  1 <1>  -0.1500 
 21 C       -9.4490    -6.1550    -1.2860 C.ar  1 <1>  -0.1500 
 22 C      -11.6710    -7.2300    -0.0410 C.ar  1 <1>  -0.1500 
 23 C      -10.5130    -6.6140    -2.0430 C.ar  1 <1>  -0.1500 
 24 C      -11.6250    -7.1520    -1.4210 C.ar  1 <1>  -0.1500 
 25 H       -1.3720    -1.5620     1.2910 H     1 <1>   0.1500 
 26 H       -2.0970     0.6270    -2.6260 H     1 <1>   0.1500 
 27 H       -3.2860    -1.7650    -2.6150 H     1 <1>   0.1500 
 28 H       -2.3870    -3.9720     0.2850 H     1 <1>   0.0800 
 29 H       -3.2530    -3.9310    -1.2370 H     1 <1>   0.0800 
 30 H       -4.1660    -2.4950     1.1380 H     1 <1>   0.4500 
 31 H       -5.1020    -5.2080     0.3880 H     1 <1>   0.0800 
 32 H       -3.9110    -4.9310     1.6210 H     1 <1>   0.0800 
 33 H       -5.0130    -2.2420    -1.3300 H     1 <1>   0.0800 
 34 H       -6.0700    -3.5100    -0.7730 H     1 <1>   0.0800 
 35 H       -5.4970    -3.7720     3.0210 H     1 <1>   0.0800 
 36 H       -6.1830    -5.2800     2.5440 H     1 <1>   0.0800 
 37 H       -5.7100    -0.7550     0.4360 H     1 <1>   0.0800 
 38 H       -7.0870    -1.3780    -0.3900 H     1 <1>   0.0800 
 39 H       -7.8830    -1.6510     1.7110 H     1 <1>   0.0800 
 40 H       -6.3090    -1.7960     2.4240 H     1 <1>   0.0800 
 41 H       -8.4650    -6.0360     1.9670 H     1 <1>   0.0800 
 42 H       -6.1420    -8.1510     0.3720 H     1 <1>   0.0800 
 43 H       -7.8350    -8.1930    -0.0800 H     1 <1>   0.0800 
 44 H       -7.3780    -8.0720     1.6220 H     1 <1>   0.0800 
 45 H      -10.6650    -6.8390     1.7880 H     1 <1>   0.1500 
 46 H       -8.5910    -5.7350    -1.7790 H     1 <1>   0.1500 
 47 H      -12.5380    -7.6450     0.4430 H     1 <1>   0.1500 
 48 H      -10.4780    -6.5480    -3.1170 H     1 <1>   0.1500 
 49 H      -12.4530    -7.5070    -2.0100 H     1 <1>   0.1500 
@<TRIPOS>BOND
  1   1   2  1   
  2   1   3  1   
  3   2   4  2   
  4   2  25  1   
  5   3   5  2   
  6   3  26  1   
  7   4   5  1   
  8   4   6  1   
  9   5  27  1   
 10   6   7  1   
 11   6  28  1   
 12   6  29  1   
 13   7   8  1   
 14   7   9  1   
 15   7  30  1   
 16   8  10  1   
 17   8  31  1   
 18   8  32  1   
 19   9  11  1   
 20   9  33  1   
 21   9  34  1   
 22  10  12  1   
 23  10  35  1   
 24  10  36  1   
 25  11  13  1   
 26  11  37  1   
 27  11  38  1   
 28  12  13  1   
 29  12  14  am  
 30  13  39  1   
 31  13  40  1   
 32  14  15  2   
 33  14  16  1   
 34  16  17  1   
 35  16  18  1   
 36  16  41  1   
 37  17  19  1   
 38  18  20  ar  
 39  18  21  ar  
 40  19  42  1   
 41  19  43  1   
 42  19  44  1   
 43  20  22  ar  
 44  20  45  1   
 45  21  23  ar  
 46  21  46  1   
 47  22  24  ar  
 48  22  47  1   
 49  23  24  ar  
 50  23  48  1   
 51  24  49  1   
@<TRIPOS>SUBSTRUCTURE
  1 ****  12 GROUP 4 **** **** 0

# MOE 2024.06 (io_trps.svl 2023.06)
