@<TRIPOS>MOLECULE
NONAME
50 52 1 0 0 
SMALL
USER_CHARGES


@<TRIPOS>ATOM
  1 O        1.0600    -0.4380    -1.9510 O.2   1 <1>  -0.5700 
  2 C        2.0370    -0.1610    -1.2970 C.2   1 <1>   0.5690 
  3 N        2.3190     1.0610    -0.7720 N.am  1 <1>  -0.6600 
  4 C        3.1080    -1.1590    -0.9610 C.3   1 <1>  -0.0990 
  5 C        3.6410     1.0780    -0.0970 C.3   1 <1>   0.3000 
  6 C        1.4660     2.2610    -1.0000 C.3   1 <1>   0.0600 
  7 C        3.8470    -0.4340     0.1750 C.3   1 <1>  -0.1860 
  8 C        4.6370     1.6890    -1.1110 C.3   1 <1>  -0.1600 
  9 C        3.6240     1.9030     1.2170 C.3   1 <1>  -0.1600 
 10 C        5.2880    -0.8010     0.3960 C.2   1 <1>   0.9060 
 11 C        6.0550     1.9120    -0.5730 C.3   1 <1>   0.3430 
 12 C        4.8830     2.7480     1.4430 C.3   1 <1>   0.3430 
 13 O        6.0140    -1.0590    -0.5610 O.co2 1 <1>  -0.9000 
 14 O        5.7630    -0.5650     1.5140 O.co2 1 <1>  -0.9000 
 15 N        6.0680     2.0430     0.9100 N.4   1 <1>  -0.9590 
 16 C        7.3740     2.5140     1.4150 C.3   1 <1>   0.5240 
 17 C        7.5840     3.9620     1.0170 C.2   1 <1>  -0.1810 
 18 C        7.1550     5.0690     1.7380 C.2   1 <1>   0.1390 
 19 C        8.2000     4.4810    -0.0690 C.2   1 <1>  -0.3020 
 20 N        7.4540     6.1810     1.1480 N.2   1 <1>  -0.7070 
 21 N        8.1150     5.8250     0.0250 N.pl3 1 <1>   0.3140 
 22 C        8.6720     6.8120    -0.9460 C.3   1 <1>   0.1760 
 23 C        9.7610     7.6660    -0.2830 C.3   1 <1>  -0.2400 
 24 C        7.5600     7.6990    -1.5230 C.3   1 <1>  -0.2400 
 25 H        3.7390    -1.3070    -1.8190 H     1 <1>   0.0800 
 26 H        2.6900    -2.0950    -0.6410 H     1 <1>   0.0800 
 27 H        0.7600     2.0630    -1.7890 H     1 <1>   0.0800 
 28 H        2.0660     3.1060    -1.2830 H     1 <1>   0.0800 
 29 H        0.9160     2.4910    -0.1050 H     1 <1>   0.0800 
 30 H        3.3310    -0.6960     1.0800 H     1 <1>   0.0800 
 31 H        4.2720     2.6450    -1.4360 H     1 <1>   0.0800 
 32 H        4.7060     1.0630    -1.9840 H     1 <1>   0.0800 
 33 H        3.5180     1.2470     2.0620 H     1 <1>   0.0800 
 34 H        2.7860     2.5700     1.2460 H     1 <1>   0.0800 
 35 H        6.4670     2.7960    -1.0300 H     1 <1>   0.0800 
 36 H        6.6760     1.0740    -0.8540 H     1 <1>   0.0800 
 37 H        5.0020     2.9330     2.4980 H     1 <1>   0.0800 
 38 H        4.7820     3.6960     0.9390 H     1 <1>   0.0800 
 39 H        6.0090     1.0520     1.2600 H     1 <1>   0.4500 
 40 H        8.1590     1.9040     1.0000 H     1 <1>   0.0800 
 41 H        7.4080     2.4190     2.4880 H     1 <1>   0.0800 
 42 H        6.6330     5.0350     2.6800 H     1 <1>   0.1500 
 43 H        8.6890     3.9870    -0.8890 H     1 <1>   0.1500 
 44 H        9.1180     6.2570    -1.7520 H     1 <1>   0.0800 
 45 H        9.3440     8.2410     0.5260 H     1 <1>   0.0800 
 46 H       10.1890     8.3450    -0.9980 H     1 <1>   0.0800 
 47 H       10.5440     7.0380     0.1020 H     1 <1>   0.0800 
 48 H        7.0970     8.2750    -0.7390 H     1 <1>   0.0800 
 49 H        6.8110     7.0930    -2.0020 H     1 <1>   0.0800 
 50 H        7.9660     8.3780    -2.2500 H     1 <1>   0.0800 
@<TRIPOS>BOND
  1   1   2  2   
  2   2   3  am  
  3   2   4  1   
  4   3   5  1   
  5   3   6  1   
  6   4   7  1   
  7   4  25  1   
  8   4  26  1   
  9   5   7  1   
 10   5   8  1   
 11   5   9  1   
 12   6  27  1   
 13   6  28  1   
 14   6  29  1   
 15   7  10  1   
 16   7  30  1   
 17   8  11  1   
 18   8  31  1   
 19   8  32  1   
 20   9  12  1   
 21   9  33  1   
 22   9  34  1   
 23  10  13  ar  
 24  10  14  ar  
 25  11  15  1   
 26  11  35  1   
 27  11  36  1   
 28  12  15  1   
 29  12  37  1   
 30  12  38  1   
 31  15  16  1   
 32  15  39  1   
 33  16  17  1   
 34  16  40  1   
 35  16  41  1   
 36  17  18  1   
 37  17  19  2   
 38  18  20  2   
 39  18  42  1   
 40  19  21  1   
 41  19  43  1   
 42  20  21  1   
 43  21  22  1   
 44  22  23  1   
 45  22  24  1   
 46  22  44  1   
 47  23  45  1   
 48  23  46  1   
 49  23  47  1   
 50  24  48  1   
 51  24  49  1   
 52  24  50  1   
@<TRIPOS>SUBSTRUCTURE
  1 ****  11 GROUP 4 **** **** 0

# MOE 2024.06 (io_trps.svl 2023.06)
