@<TRIPOS>MOLECULE
NONAME
42 43 1 0 0 
SMALL
USER_CHARGES


@<TRIPOS>ATOM
  1 CL      -2.7340    -0.2150     2.2550 Cl    1 <1>  -0.1770 
  2 C       -2.8090     0.2840     0.5800 C.ar  1 <1>   0.1770 
  3 C       -2.8860    -0.6580    -0.4380 C.ar  1 <1>  -0.1440 
  4 C       -2.7970     1.6410     0.3090 C.ar  1 <1>  -0.1500 
  5 C       -2.9540    -0.2080    -1.7490 C.ar  1 <1>  -0.1500 
  6 C       -2.9050    -2.1550    -0.1560 C.3   1 <1>  -0.0160 
  7 C       -2.8640     2.0750    -1.0030 C.ar  1 <1>  -0.1500 
  8 C       -2.9430     1.1490    -2.0290 C.ar  1 <1>  -0.1500 
  9 C       -4.3280    -2.6160     0.1900 C.3   1 <1>  -0.0990 
 10 C       -4.4240    -4.0990     0.5190 C.2   1 <1>   0.5690 
 11 O       -3.5780    -4.8340     0.0620 O.2   1 <1>  -0.5700 
 12 N       -5.4390    -4.5780     1.3050 N.am  1 <1>  -0.6600 
 13 C       -5.5680    -6.0500     1.5390 C.3   1 <1>   0.3210 
 14 C       -6.5350    -3.7500     1.9110 C.3   1 <1>   0.1400 
 15 C       -6.7240    -6.6260     0.7260 C.2   1 <1>   0.0460 
 16 C       -7.4920    -3.0980     0.8900 C.3   1 <1>   0.1200 
 17 N       -7.9950    -6.5670     1.1830 N.2   1 <1>  -0.5650 
 18 C       -6.6820    -7.2160    -0.4920 C.2   1 <1>  -0.3320 
 19 O       -7.7560    -3.9420    -0.1770 O.3   1 <1>  -0.6800 
 20 C       -8.6890    -7.1240     0.2450 C.2   1 <1>   0.0360 
 21 N       -7.9490    -7.5410    -0.8020 N.pl3 1 <1>   0.0330 
 22 C       -5.5090    -7.4840    -1.4200 C.3   1 <1>  -0.0600 
 23 H       -2.7350     2.3450     1.1190 H     1 <1>   0.1500 
 24 H       -3.0180    -0.9130    -2.5600 H     1 <1>   0.1500 
 25 H       -2.2380    -2.3890     0.6550 H     1 <1>   0.0800 
 26 H       -2.5530    -2.6920    -1.0200 H     1 <1>   0.0800 
 27 H       -2.8560     3.1280    -1.2250 H     1 <1>   0.1500 
 28 H       -2.9960     1.4850    -3.0510 H     1 <1>   0.1500 
 29 H       -4.9740    -2.4200    -0.6460 H     1 <1>   0.0800 
 30 H       -4.6700    -2.0390     1.0260 H     1 <1>   0.0800 
 31 H       -5.7410    -6.2370     2.5830 H     1 <1>   0.0800 
 32 H       -4.6600    -6.5580     1.2690 H     1 <1>   0.0800 
 33 H       -6.1020    -2.9830     2.5280 H     1 <1>   0.0800 
 34 H       -7.1250    -4.3690     2.5650 H     1 <1>   0.0800 
 35 H       -7.0770    -2.1890     0.4950 H     1 <1>   0.0800 
 36 H       -8.4270    -2.8650     1.3670 H     1 <1>   0.0800 
 37 H       -7.7420    -4.8810     0.1420 H     1 <1>   0.4000 
 38 H       -9.7580    -7.2510     0.2760 H     1 <1>   0.1500 
 39 H       -8.2860    -7.9950    -1.6550 H     1 <1>   0.2700 
 40 H       -4.5920    -7.1260    -0.9890 H     1 <1>   0.0800 
 41 H       -5.6580    -6.9760    -2.3570 H     1 <1>   0.0800 
 42 H       -5.4110    -8.5390    -1.6040 H     1 <1>   0.0800 
@<TRIPOS>BOND
  1   1   2  1   
  2   2   3  ar  
  3   2   4  ar  
  4   3   5  ar  
  5   3   6  1   
  6   4   7  ar  
  7   4  23  1   
  8   5   8  ar  
  9   5  24  1   
 10   6   9  1   
 11   6  25  1   
 12   6  26  1   
 13   7   8  ar  
 14   7  27  1   
 15   8  28  1   
 16   9  10  1   
 17   9  29  1   
 18   9  30  1   
 19  10  11  2   
 20  10  12  am  
 21  12  13  1   
 22  12  14  1   
 23  13  15  1   
 24  13  31  1   
 25  13  32  1   
 26  14  16  1   
 27  14  33  1   
 28  14  34  1   
 29  15  17  1   
 30  15  18  2   
 31  16  19  1   
 32  16  35  1   
 33  16  36  1   
 34  17  20  2   
 35  18  21  1   
 36  18  22  1   
 37  19  37  1   
 38  20  21  1   
 39  20  38  1   
 40  21  39  1   
 41  22  40  1   
 42  22  41  1   
 43  22  42  1   
@<TRIPOS>SUBSTRUCTURE
  1 ****   9 GROUP 4 **** **** 0

# MOE 2024.06 (io_trps.svl 2023.06)
