@<TRIPOS>MOLECULE
NONAME
55 58 1 0 0 
SMALL
USER_CHARGES


@<TRIPOS>ATOM
  1 O       -0.9220    -0.3610     1.0010 O.2   1 <1>  -0.5700 
  2 C       -1.8250     0.4480     0.9080 C.2   1 <1>   0.7160 
  3 N       -3.0760     0.0450     1.2600 N.am  1 <1>  -0.7300 
  4 C       -1.6080     1.7760     0.4140 C.2   1 <1>  -0.0860 
  5 C       -3.4830    -1.3010     1.7270 C.3   1 <1>   0.1400 
  6 C       -2.6050     2.7020     0.0750 C.2   1 <1>   0.3720 
  7 C       -0.4570     2.4670     0.1780 C.2   1 <1>   0.0870 
  8 C       -4.1040    -2.1140     0.5800 C.3   1 <1>   0.0000 
  9 N       -2.0970     3.8200    -0.3060 N.2   1 <1>  -0.4100 
 10 N       -3.9890     2.4730     0.1120 N.pl3 1 <1>  -0.8210 
 11 O       -0.8050     3.6590    -0.2330 O.3   1 <1>  -0.0190 
 12 C        0.9450     2.1570     0.2990 C.ar  1 <1>   0.0530 
 13 C       -4.8490    -3.3800     1.0970 C.3   1 <1>   0.0000 
 14 C       -5.4780    -1.5520     0.1090 C.3   1 <1>   0.0000 
 15 C       -3.0810    -2.3880    -0.5460 C.3   1 <1>   0.1200 
 16 C       -4.7630     3.5920     0.7420 C.3   1 <1>   0.2090 
 17 C       -4.5510     2.1750    -1.2430 C.3   1 <1>   0.2090 
 18 C        1.8150     3.0590     0.9130 C.ar  1 <1>  -0.1500 
 19 C        1.4920     0.9750    -0.1990 C.ar  1 <1>  -0.1500 
 20 C       -6.0690    -2.9810     0.2250 C.3   1 <1>   0.0000 
 21 O       -3.6450    -3.1250    -1.5860 O.3   1 <1>  -0.5600 
 22 C       -6.2730     3.2980     0.7280 C.3   1 <1>   0.1200 
 23 C       -6.0750     1.9590    -1.1870 C.3   1 <1>   0.1200 
 24 C        3.1660     2.7920     1.0310 C.ar  1 <1>  -0.1500 
 25 C        2.8420     0.7000    -0.0830 C.ar  1 <1>  -0.1500 
 26 C       -2.7500    -3.4410    -2.6010 C.3   1 <1>   0.0400 
 27 O       -6.7160     3.0430    -0.5750 O.3   1 <1>  -0.5600 
 28 C        3.6840     1.6090     0.5340 C.ar  1 <1>  -0.1500 
 29 H       -3.8230     0.7290     1.0630 H     1 <1>   0.3700 
 30 H       -4.1900    -1.1890     2.5300 H     1 <1>   0.0800 
 31 H       -2.6250    -1.8260     2.1150 H     1 <1>   0.0800 
 32 H       -5.0800    -3.3380     2.1480 H     1 <1>   0.0000 
 33 H       -4.3980    -4.3110     0.8040 H     1 <1>   0.0000 
 34 H       -5.4770    -1.1700    -0.8970 H     1 <1>   0.0000 
 35 H       -5.9240    -0.8760     0.8180 H     1 <1>   0.0000 
 36 H       -2.2450    -2.9400    -0.1500 H     1 <1>   0.0800 
 37 H       -2.7250    -1.4590    -0.9550 H     1 <1>   0.0800 
 38 H       -4.5830     4.5110     0.2100 H     1 <1>   0.0800 
 39 H       -4.4320     3.7260     1.7570 H     1 <1>   0.0800 
 40 H       -4.0830     1.2900    -1.6370 H     1 <1>   0.0800 
 41 H       -4.3350     2.9910    -1.9120 H     1 <1>   0.0800 
 42 H        1.4220     3.9820     1.3020 H     1 <1>   0.1500 
 43 H        0.8520     0.2620    -0.6850 H     1 <1>   0.1500 
 44 H       -7.0040    -3.0160     0.7560 H     1 <1>   0.0000 
 45 H       -6.0980    -3.5000    -0.7170 H     1 <1>   0.0000 
 46 H       -6.8190     4.1470     1.0990 H     1 <1>   0.0800 
 47 H       -6.4980     2.4450     1.3440 H     1 <1>   0.0800 
 48 H       -6.3120     1.0690    -0.6340 H     1 <1>   0.0800 
 49 H       -6.4720     1.8630    -2.1820 H     1 <1>   0.0800 
 50 H        3.8170     3.5020     1.5100 H     1 <1>   0.1500 
 51 H        3.2380    -0.2220    -0.4710 H     1 <1>   0.1500 
 52 H       -3.2790    -4.0010    -3.3520 H     1 <1>   0.0800 
 53 H       -1.9520    -4.0400    -2.1970 H     1 <1>   0.0800 
 54 H       -2.3630    -2.5330    -3.0300 H     1 <1>   0.0800 
 55 H        4.7350     1.3970     0.6260 H     1 <1>   0.1500 
@<TRIPOS>BOND
  1   1   2  2   
  2   2   3  am  
  3   2   4  1   
  4   3   5  1   
  5   3  29  1   
  6   4   6  1   
  7   4   7  2   
  8   5   8  1   
  9   5  30  1   
 10   5  31  1   
 11   6   9  2   
 12   6  10  1   
 13   7  11  1   
 14   7  12  1   
 15   8  13  1   
 16   8  14  1   
 17   8  15  1   
 18   9  11  1   
 19  10  16  1   
 20  10  17  1   
 21  12  18  ar  
 22  12  19  ar  
 23  13  20  1   
 24  13  32  1   
 25  13  33  1   
 26  14  20  1   
 27  14  34  1   
 28  14  35  1   
 29  15  21  1   
 30  15  36  1   
 31  15  37  1   
 32  16  22  1   
 33  16  38  1   
 34  16  39  1   
 35  17  23  1   
 36  17  40  1   
 37  17  41  1   
 38  18  24  ar  
 39  18  42  1   
 40  19  25  ar  
 41  19  43  1   
 42  20  44  1   
 43  20  45  1   
 44  21  26  1   
 45  22  27  1   
 46  22  46  1   
 47  22  47  1   
 48  23  27  1   
 49  23  48  1   
 50  23  49  1   
 51  24  28  ar  
 52  24  50  1   
 53  25  28  ar  
 54  25  51  1   
 55  26  52  1   
 56  26  53  1   
 57  26  54  1   
 58  28  55  1   
@<TRIPOS>SUBSTRUCTURE
  1 ****   2 GROUP 4 **** **** 0

# MOE 2024.06 (io_trps.svl 2023.06)
