@<TRIPOS>MOLECULE
NONAME
50 52 1 0 0 
SMALL
USER_CHARGES


@<TRIPOS>ATOM
  1 O        0.3270    -0.3280    -1.3270 O.2   1 <1>  -0.5700 
  2 C        1.2420    -0.8880    -0.7510 C.2   1 <1>   0.5440 
  3 N        2.2260    -0.1120    -0.1690 N.am  1 <1>  -0.6600 
  4 C        1.2560    -2.3380    -0.6800 C.ar  1 <1>   0.0860 
  5 C        2.3720     1.3300    -0.5950 C.3   1 <1>   0.2200 
  6 C        2.9680    -0.5740     1.0440 C.3   1 <1>   0.0600 
  7 C        2.4150    -3.0770    -0.9170 C.ar  1 <1>  -0.1500 
  8 C        0.0980    -3.0530    -0.3770 C.ar  1 <1>  -0.1500 
  9 C        3.8200     1.8080    -0.6760 C.3   1 <1>   0.2000 
 10 C        1.7510     2.2890     0.4280 C.3   1 <1>   0.1200 
 11 C        2.4200    -4.4570    -0.8380 C.ar  1 <1>  -0.1500 
 12 C        0.1020    -4.4330    -0.2980 C.ar  1 <1>  -0.1500 
 13 O        3.9320     2.7900    -1.6560 O.3   1 <1>  -0.6800 
 14 C        4.0380     2.4730     0.6780 C.3   1 <1>   0.1200 
 15 O        2.7960     2.9830     1.0610 O.3   1 <1>  -0.5600 
 16 C        1.2630    -5.1640    -0.5240 C.ar  1 <1>   0.0000 
 17 C        1.2670    -6.6060    -0.4440 C.ar  1 <1>   0.0000 
 18 C        2.1130    -7.2770     0.4340 C.ar  1 <1>  -0.1500 
 19 C        0.4220    -7.3700    -1.2430 C.ar  1 <1>  -0.1500 
 20 C        2.1170    -8.6580     0.5100 C.ar  1 <1>  -0.1500 
 21 C        0.4230    -8.7520    -1.1700 C.ar  1 <1>  -0.1500 
 22 C        1.2720    -9.4060    -0.2930 C.ar  1 <1>  -0.1430 
 23 C        1.2750   -10.9240    -0.2110 C.3   1 <1>  -0.0170 
 24 C        0.2680   -11.4090     0.8380 C.3   1 <1>  -0.1600 
 25 C        0.2520   -12.9370     0.9410 C.3   1 <1>  -0.2400 
 26 H        1.9000     1.4590    -1.5540 H     1 <1>   0.0800 
 27 H        2.8310     0.1270     1.8490 H     1 <1>   0.0800 
 28 H        4.0170    -0.6630     0.8220 H     1 <1>   0.0800 
 29 H        2.6040    -1.5300     1.3780 H     1 <1>   0.0800 
 30 H        3.3210    -2.5560    -1.1730 H     1 <1>   0.1500 
 31 H       -0.8150    -2.5090    -0.2050 H     1 <1>   0.1500 
 32 H        4.5200     1.0240    -0.9020 H     1 <1>   0.0800 
 33 H        1.1730     1.7670     1.1700 H     1 <1>   0.0800 
 34 H        1.1310     3.0160    -0.0660 H     1 <1>   0.0800 
 35 H        3.3270    -5.0030    -1.0300 H     1 <1>   0.1500 
 36 H       -0.8070    -4.9570    -0.0560 H     1 <1>   0.1500 
 37 H        3.4210     3.5780    -1.3780 H     1 <1>   0.4000 
 38 H        4.7600     3.2700     0.6370 H     1 <1>   0.0800 
 39 H        4.3420     1.7560     1.4180 H     1 <1>   0.0800 
 40 H        2.7710    -6.7090     1.0670 H     1 <1>   0.1500 
 41 H       -0.2390    -6.8750    -1.9320 H     1 <1>   0.1500 
 42 H        2.7800    -9.1510     1.1990 H     1 <1>   0.1500 
 43 H       -0.2410    -9.3180    -1.7990 H     1 <1>   0.1500 
 44 H        1.0260   -11.3360    -1.1730 H     1 <1>   0.0800 
 45 H        2.2620   -11.2680     0.0450 H     1 <1>   0.0800 
 46 H        0.5230   -10.9880     1.7960 H     1 <1>   0.0800 
 47 H       -0.7150   -11.0570     0.5750 H     1 <1>   0.0800 
 48 H        1.2220   -13.3060     1.2260 H     1 <1>   0.0800 
 49 H       -0.0230   -13.3760    -0.0020 H     1 <1>   0.0800 
 50 H       -0.4620   -13.2470     1.6830 H     1 <1>   0.0800 
@<TRIPOS>BOND
  1   1   2  2   
  2   2   3  am  
  3   2   4  1   
  4   3   5  1   
  5   3   6  1   
  6   4   7  ar  
  7   4   8  ar  
  8   5   9  1   
  9   5  10  1   
 10   5  26  1   
 11   6  27  1   
 12   6  28  1   
 13   6  29  1   
 14   7  11  ar  
 15   7  30  1   
 16   8  12  ar  
 17   8  31  1   
 18   9  13  1   
 19   9  14  1   
 20   9  32  1   
 21  10  15  1   
 22  10  33  1   
 23  10  34  1   
 24  11  16  ar  
 25  11  35  1   
 26  12  16  ar  
 27  12  36  1   
 28  13  37  1   
 29  14  15  1   
 30  14  38  1   
 31  14  39  1   
 32  16  17  1   
 33  17  18  ar  
 34  17  19  ar  
 35  18  20  ar  
 36  18  40  1   
 37  19  21  ar  
 38  19  41  1   
 39  20  22  ar  
 40  20  42  1   
 41  21  22  ar  
 42  21  43  1   
 43  22  23  1   
 44  23  24  1   
 45  23  44  1   
 46  23  45  1   
 47  24  25  1   
 48  24  46  1   
 49  24  47  1   
 50  25  48  1   
 51  25  49  1   
 52  25  50  1   
@<TRIPOS>SUBSTRUCTURE
  1 ****  11 GROUP 4 **** **** 0

# MOE 2024.06 (io_trps.svl 2023.06)
