@<TRIPOS>MOLECULE
NONAME
46 48 1 0 0 
SMALL
USER_CHARGES


@<TRIPOS>ATOM
  1 F       -1.7990    -2.3360     0.9640 F     1 <1>  -0.1900 
  2 C       -2.2350    -1.1370     0.6770 C.ar  1 <1>   0.1900 
  3 C       -3.5060    -0.7710     1.0860 C.ar  1 <1>  -0.1440 
  4 C       -1.4060    -0.2870    -0.0290 C.ar  1 <1>  -0.1500 
  5 C       -3.9490     0.5050     0.7690 C.ar  1 <1>  -0.1500 
  6 C       -4.3810    -1.7370     1.8560 C.3   1 <1>   0.4870 
  7 C       -1.8640     0.9810    -0.3440 C.ar  1 <1>  -0.1500 
  8 C       -3.1400     1.3780     0.0550 C.ar  1 <1>   0.0830 
  9 N       -5.0220    -2.6790     0.9060 N.4   1 <1>  -0.9590 
 10 O       -3.6680     2.5970    -0.2120 O.3   1 <1>  -0.3630 
 11 C       -5.8110    -2.0620    -0.2010 C.3   1 <1>   0.3430 
 12 C       -5.8530    -3.7510     1.4970 C.3   1 <1>   0.3430 
 13 C       -2.9250     3.5900    -0.8860 C.3   1 <1>   0.0400 
 14 C       -6.8670    -3.1030    -0.5960 C.3   1 <1>   0.2000 
 15 C       -6.6540    -4.3140     0.3220 C.3   1 <1>  -0.0800 
 16 O       -8.1370    -2.5840    -0.3680 O.3   1 <1>  -0.6800 
 17 C       -5.9290    -5.4810    -0.3910 C.3   1 <1>   0.0210 
 18 C       -4.4260    -5.3150    -0.5730 C.2   1 <1>   0.1080 
 19 N       -3.8660    -4.2840    -1.1330 N.2   1 <1>  -0.7070 
 20 C       -3.4890    -6.2560    -0.1620 C.2   1 <1>  -0.1500 
 21 N       -2.5430    -4.5650    -1.1240 N.pl3 1 <1>   0.3000 
 22 C       -2.2950    -5.7450    -0.5230 C.2   1 <1>  -0.3320 
 23 C       -0.9060    -6.3300    -0.3420 C.3   1 <1>  -0.0600 
 24 H       -0.4220    -0.6090    -0.3250 H     1 <1>   0.1500 
 25 H       -4.9230     0.8510     1.0660 H     1 <1>   0.1500 
 26 H       -5.1330    -1.1910     2.4010 H     1 <1>   0.0800 
 27 H       -3.7750    -2.2830     2.5610 H     1 <1>   0.0800 
 28 H       -1.2200     1.6420    -0.8940 H     1 <1>   0.1500 
 29 H       -4.2620    -3.1800     0.3930 H     1 <1>   0.4500 
 30 H       -6.2920    -1.1540     0.1210 H     1 <1>   0.0800 
 31 H       -5.1640    -1.8520    -1.0370 H     1 <1>   0.0800 
 32 H       -5.2440    -4.5100     1.9620 H     1 <1>   0.0800 
 33 H       -6.5260    -3.3310     2.2260 H     1 <1>   0.0800 
 34 H       -3.5380     4.4700    -0.9650 H     1 <1>   0.0800 
 35 H       -2.6710     3.2340    -1.8680 H     1 <1>   0.0800 
 36 H       -2.0400     3.8140    -0.3150 H     1 <1>   0.0800 
 37 H       -6.7970    -3.3490    -1.6430 H     1 <1>   0.0800 
 38 H       -7.6000    -4.6930     0.6680 H     1 <1>   0.0800 
 39 H       -8.3330    -2.4470     0.5790 H     1 <1>   0.4000 
 40 H       -6.3730    -5.6480    -1.3570 H     1 <1>   0.0800 
 41 H       -6.0910    -6.3790     0.1800 H     1 <1>   0.0800 
 42 H       -3.6920    -7.1930     0.3290 H     1 <1>   0.1500 
 43 H       -1.8340    -3.9420    -1.5350 H     1 <1>   0.2700 
 44 H       -0.9650    -7.2780     0.1630 H     1 <1>   0.0800 
 45 H       -0.2940    -5.6680     0.2460 H     1 <1>   0.0800 
 46 H       -0.4370    -6.4830    -1.2980 H     1 <1>   0.0800 
@<TRIPOS>BOND
  1   1   2  1   
  2   2   3  ar  
  3   2   4  ar  
  4   3   5  ar  
  5   3   6  1   
  6   4   7  ar  
  7   4  24  1   
  8   5   8  ar  
  9   5  25  1   
 10   6   9  1   
 11   6  26  1   
 12   6  27  1   
 13   7   8  ar  
 14   7  28  1   
 15   8  10  1   
 16   9  11  1   
 17   9  12  1   
 18   9  29  1   
 19  10  13  1   
 20  11  14  1   
 21  11  30  1   
 22  11  31  1   
 23  12  15  1   
 24  12  32  1   
 25  12  33  1   
 26  13  34  1   
 27  13  35  1   
 28  13  36  1   
 29  14  15  1   
 30  14  16  1   
 31  14  37  1   
 32  15  17  1   
 33  15  38  1   
 34  16  39  1   
 35  17  18  1   
 36  17  40  1   
 37  17  41  1   
 38  18  19  2   
 39  18  20  1   
 40  19  21  1   
 41  20  22  2   
 42  20  42  1   
 43  21  22  1   
 44  21  43  1   
 45  22  23  1   
 46  23  44  1   
 47  23  45  1   
 48  23  46  1   
@<TRIPOS>SUBSTRUCTURE
  1 ****   9 GROUP 4 **** **** 0

# MOE 2024.06 (io_trps.svl 2023.06)
