@<TRIPOS>MOLECULE
NONAME
32 32 1 0 0 
SMALL
USER_CHARGES


@<TRIPOS>ATOM
  1 O        0.5840     1.1360     1.3300 O.3   1 <1>  -0.6800 
  2 C       -0.0990     1.6670     0.2590 C.3   1 <1>   0.2800 
  3 C       -0.2040     3.2170     0.4440 C.3   1 <1>  -0.0800 
  4 C       -1.4660     0.9770     0.2840 C.3   1 <1>  -0.2400 
  5 C        0.6800     1.2330    -0.9860 C.3   1 <1>  -0.2400 
  6 C        1.1600     3.9480     0.5360 C.3   1 <1>   0.2000 
  7 C       -1.0640     3.8920    -0.6550 C.3   1 <1>  -0.1600 
  8 O        1.8700     3.4640     1.6100 O.3   1 <1>  -0.6800 
  9 C        1.0190     5.4590     0.7400 C.3   1 <1>  -0.1600 
 10 C       -1.2030     5.4050    -0.4370 C.3   1 <1>  -0.1600 
 11 C        0.1660     6.0940    -0.3670 C.3   1 <1>  -0.0800 
 12 C        0.0000     7.5970    -0.1220 C.3   1 <1>  -0.2400 
 13 H        0.5820     0.1630     1.2600 H     1 <1>   0.4000 
 14 H       -0.7170     3.3900     1.3750 H     1 <1>   0.0800 
 15 H       -2.0320     1.2260    -0.5950 H     1 <1>   0.0800 
 16 H       -2.0260     1.2910     1.1470 H     1 <1>   0.0800 
 17 H       -1.3580    -0.0920     0.3050 H     1 <1>   0.0800 
 18 H        0.2000     1.5960    -1.8760 H     1 <1>   0.0800 
 19 H        0.7220     0.1600    -1.0530 H     1 <1>   0.0800 
 20 H        1.6850     1.6130    -0.9630 H     1 <1>   0.0800 
 21 H        1.7410     3.7620    -0.3500 H     1 <1>   0.0800 
 22 H       -0.6210     3.7260    -1.6210 H     1 <1>   0.0800 
 23 H       -2.0530     3.4720    -0.6670 H     1 <1>   0.0800 
 24 H        1.5950     2.5180     1.7290 H     1 <1>   0.4000 
 25 H        0.5590     5.6430     1.6950 H     1 <1>   0.0800 
 26 H        1.9980     5.9050     0.7410 H     1 <1>   0.0800 
 27 H       -1.7420     5.5830     0.4790 H     1 <1>   0.0800 
 28 H       -1.7780     5.8280    -1.2430 H     1 <1>   0.0800 
 29 H        0.6700     5.9580    -1.3100 H     1 <1>   0.0800 
 30 H       -0.4990     7.7760     0.8140 H     1 <1>   0.0800 
 31 H       -0.5780     8.0430    -0.9120 H     1 <1>   0.0800 
 32 H        0.9630     8.0780    -0.0940 H     1 <1>   0.0800 
@<TRIPOS>BOND
  1   1   2  1   
  2   1  13  1   
  3   2   3  1   
  4   2   4  1   
  5   2   5  1   
  6   3   6  1   
  7   3   7  1   
  8   3  14  1   
  9   4  15  1   
 10   4  16  1   
 11   4  17  1   
 12   5  18  1   
 13   5  19  1   
 14   5  20  1   
 15   6   8  1   
 16   6   9  1   
 17   6  21  1   
 18   7  10  1   
 19   7  22  1   
 20   7  23  1   
 21   8  24  1   
 22   9  11  1   
 23   9  25  1   
 24   9  26  1   
 25  10  11  1   
 26  10  27  1   
 27  10  28  1   
 28  11  12  1   
 29  11  29  1   
 30  12  30  1   
 31  12  31  1   
 32  12  32  1   
@<TRIPOS>SUBSTRUCTURE
  1 ****   3 GROUP 4 **** **** 0

# MOE 2024.06 (io_trps.svl 2023.06)
