@<TRIPOS>MOLECULE
NONAME
44 46 1 0 0 
SMALL
USER_CHARGES


@<TRIPOS>ATOM
  1 O        1.8530     0.0720    -2.0200 O.2   1 <1>  -0.5700 
  2 C        2.1540    -0.6230    -1.0690 C.2   1 <1>   0.5440 
  3 N        2.8550    -0.0540    -0.0250 N.am  1 <1>  -0.6600 
  4 C        1.7870    -2.0240    -1.0860 C.ar  1 <1>   0.0860 
  5 C        3.6080    -0.8270     1.0160 C.3   1 <1>   0.1400 
  6 C        3.0300     1.4220     0.0640 C.3   1 <1>   0.1400 
  7 C        1.0640    -2.6300    -0.0730 C.ar  1 <1>  -0.1500 
  8 C        2.1290    -2.8570    -2.1410 C.ar  1 <1>  -0.1500 
  9 C        5.1120    -0.9160     0.7080 C.3   1 <1>   0.1400 
 10 C        4.1820     1.9140    -0.8240 C.3   1 <1>  -0.1600 
 11 C        0.7540    -3.9760    -0.1390 C.ar  1 <1>   0.3920 
 12 C        1.7720    -4.1900    -2.1220 C.ar  1 <1>   0.1600 
 13 N        5.7310     0.4270     0.4620 N.am  1 <1>  -0.6600 
 14 C        5.4100     0.9960    -0.8800 C.3   1 <1>   0.1400 
 15 O        0.0580    -4.4930     0.8950 O.3   1 <1>  -0.3630 
 16 N        1.1010    -4.7740    -1.1440 N.ar  1 <1>  -0.6200 
 17 C        6.5470     1.0130     1.3960 C.2   1 <1>   0.5690 
 18 C       -0.3270    -5.8540     0.9040 C.3   1 <1>   0.0400 
 19 O        6.7720     0.4910     2.4620 O.2   1 <1>  -0.5700 
 20 C        7.2180     2.3430     1.1450 C.3   1 <1>   0.1570 
 21 N        8.4090     2.1280     0.3230 N.pl3 1 <1>   0.3140 
 22 N        8.6380     2.7820    -0.7940 N.2   1 <1>  -0.4180 
 23 C        9.4140     1.2930     0.5080 C.2   1 <1>   0.0360 
 24 N        9.7540     2.3360    -1.2510 N.2   1 <1>   0.0000 
 25 N       10.2530     1.4020    -0.4480 N.2   1 <1>  -0.3380 
 26 H        3.2230    -1.8250     1.1010 H     1 <1>   0.0800 
 27 H        3.4760    -0.3560     1.9750 H     1 <1>   0.0800 
 28 H        3.2240     1.6940     1.0870 H     1 <1>   0.0800 
 29 H        2.1160     1.9090    -0.2330 H     1 <1>   0.0800 
 30 H        0.7320    -2.0580     0.7730 H     1 <1>   0.1500 
 31 H        2.6700    -2.4520    -2.9780 H     1 <1>   0.1500 
 32 H        5.2580    -1.5400    -0.1560 H     1 <1>   0.0800 
 33 H        5.6020    -1.4030     1.5330 H     1 <1>   0.0800 
 34 H        4.4760     2.8930    -0.4940 H     1 <1>   0.0800 
 35 H        3.8090     2.0300    -1.8260 H     1 <1>   0.0800 
 36 H        2.0510    -4.8130    -2.9560 H     1 <1>   0.1500 
 37 H        6.2510     1.5320    -1.2820 H     1 <1>   0.0800 
 38 H        5.2020     0.1890    -1.5630 H     1 <1>   0.0800 
 39 H       -0.8740    -6.0460     1.8090 H     1 <1>   0.0800 
 40 H        0.5570    -6.4660     0.8670 H     1 <1>   0.0800 
 41 H       -0.9510    -6.0440     0.0480 H     1 <1>   0.0800 
 42 H        7.5170     2.7810     2.0780 H     1 <1>   0.0800 
 43 H        6.5510     3.0150     0.6420 H     1 <1>   0.0800 
 44 H        9.4930     0.6230     1.3460 H     1 <1>   0.1500 
@<TRIPOS>BOND
  1   1   2  2   
  2   2   3  am  
  3   2   4  1   
  4   3   5  1   
  5   3   6  1   
  6   4   7  ar  
  7   4   8  ar  
  8   5   9  1   
  9   5  26  1   
 10   5  27  1   
 11   6  10  1   
 12   6  28  1   
 13   6  29  1   
 14   7  11  ar  
 15   7  30  1   
 16   8  12  ar  
 17   8  31  1   
 18   9  13  1   
 19   9  32  1   
 20   9  33  1   
 21  10  14  1   
 22  10  34  1   
 23  10  35  1   
 24  11  15  1   
 25  11  16  ar  
 26  12  16  ar  
 27  12  36  1   
 28  13  14  1   
 29  13  17  am  
 30  14  37  1   
 31  14  38  1   
 32  15  18  1   
 33  17  19  2   
 34  17  20  1   
 35  18  39  1   
 36  18  40  1   
 37  18  41  1   
 38  20  21  1   
 39  20  42  1   
 40  20  43  1   
 41  21  22  1   
 42  21  23  1   
 43  22  24  2   
 44  23  25  2   
 45  23  44  1   
 46  24  25  1   
@<TRIPOS>SUBSTRUCTURE
  1 ****   9 GROUP 4 **** **** 0

# MOE 2024.06 (io_trps.svl 2023.06)
