@<TRIPOS>MOLECULE
NONAME
50 52 1 0 0 
SMALL
USER_CHARGES


@<TRIPOS>ATOM
  1 F        0.3980     3.0500     1.3420 F     1 <1>  -0.1900 
  2 C        1.6220     3.4020     1.6270 C.ar  1 <1>   0.1900 
  3 C        2.0010     3.5490     2.9500 C.ar  1 <1>   0.1600 
  4 C        2.5090     3.6220     0.6000 C.ar  1 <1>  -0.1500 
  5 N        3.2260     3.9030     3.3160 N.ar  1 <1>  -0.6200 
  6 C        3.7990     4.0020     0.9550 C.ar  1 <1>   0.0860 
  7 C        4.0790     4.1090     2.3210 C.ar  1 <1>   0.1600 
  8 C        4.8260     4.2790    -0.0300 C.2   1 <1>   0.5440 
  9 O        6.0060     4.2380     0.2640 O.2   1 <1>  -0.5700 
 10 N        4.5300     4.6690    -1.3140 N.am  1 <1>  -0.6600 
 11 C        5.3380     4.1640    -2.4760 C.3   1 <1>   0.1400 
 12 C        3.7630     5.9160    -1.5660 C.3   1 <1>   0.1400 
 13 C        6.6960     4.8840    -2.6540 C.3   1 <1>   0.3430 
 14 C        4.6470     7.1450    -1.3060 C.3   1 <1>  -0.1600 
 15 N        6.8390     6.0550    -1.7340 N.4   1 <1>  -0.9590 
 16 C        5.9510     7.1920    -2.1100 C.3   1 <1>   0.3430 
 17 C        8.2590     6.4200    -1.4990 C.3   1 <1>   0.3430 
 18 C        8.3730     7.1940    -0.1870 C.3   1 <1>  -0.1600 
 19 C        9.8390     7.4260     0.2040 C.3   1 <1>   0.0960 
 20 N        9.8980     8.1730     1.4750 N.pl3 1 <1>   0.0480 
 21 C       10.0810     9.5010     1.6840 C.2   1 <1>   0.0060 
 22 C        9.7260     7.6530     2.7040 C.2   1 <1>  -0.3020 
 23 N       10.0330     9.8390     2.9300 N.2   1 <1>  -0.5650 
 24 C       10.3210    10.5110     0.5800 C.3   1 <1>  -0.0600 
 25 C        9.8120     8.6800     3.5750 C.2   1 <1>   0.0770 
 26 H        1.2750     3.3680     3.7230 H     1 <1>   0.1500 
 27 H        2.2060     3.4980    -0.4240 H     1 <1>   0.1500 
 28 H        5.0810     4.3870     2.6090 H     1 <1>   0.1500 
 29 H        4.7630     4.2570    -3.3810 H     1 <1>   0.0800 
 30 H        5.5270     3.1130    -2.3360 H     1 <1>   0.0800 
 31 H        2.9040     5.9520    -0.9160 H     1 <1>   0.0800 
 32 H        3.4010     5.9230    -2.5810 H     1 <1>   0.0800 
 33 H        6.8170     5.1910    -3.6800 H     1 <1>   0.0800 
 34 H        7.4710     4.1680    -2.4360 H     1 <1>   0.0800 
 35 H        4.8690     7.2160    -0.2550 H     1 <1>   0.0800 
 36 H        4.0730     8.0190    -1.5560 H     1 <1>   0.0800 
 37 H        6.4750     5.6660    -0.8360 H     1 <1>   0.4500 
 38 H        6.4480     8.1250    -1.8990 H     1 <1>   0.0800 
 39 H        5.7370     7.1630    -3.1660 H     1 <1>   0.0800 
 40 H        8.6370     7.0070    -2.3210 H     1 <1>   0.0800 
 41 H        8.8490     5.5210    -1.4210 H     1 <1>   0.0800 
 42 H        7.8980     6.6290     0.5980 H     1 <1>   0.0800 
 43 H        7.8860     8.1490    -0.2770 H     1 <1>   0.0800 
 44 H       10.3540     7.9860    -0.5550 H     1 <1>   0.0800 
 45 H       10.3470     6.4870     0.3410 H     1 <1>   0.0800 
 46 H        9.5570     6.6100     2.8970 H     1 <1>   0.1500 
 47 H        9.4970    10.5170    -0.1070 H     1 <1>   0.0800 
 48 H       11.2300    10.2780     0.0570 H     1 <1>   0.0800 
 49 H       10.4180    11.4940     1.0070 H     1 <1>   0.0800 
 50 H        9.7250     8.6480     4.6480 H     1 <1>   0.1500 
@<TRIPOS>BOND
  1   1   2  1   
  2   2   3  ar  
  3   2   4  ar  
  4   3   5  ar  
  5   3  26  1   
  6   4   6  ar  
  7   4  27  1   
  8   5   7  ar  
  9   6   7  ar  
 10   6   8  1   
 11   7  28  1   
 12   8   9  2   
 13   8  10  am  
 14  10  11  1   
 15  10  12  1   
 16  11  13  1   
 17  11  29  1   
 18  11  30  1   
 19  12  14  1   
 20  12  31  1   
 21  12  32  1   
 22  13  15  1   
 23  13  33  1   
 24  13  34  1   
 25  14  16  1   
 26  14  35  1   
 27  14  36  1   
 28  15  16  1   
 29  15  17  1   
 30  15  37  1   
 31  16  38  1   
 32  16  39  1   
 33  17  18  1   
 34  17  40  1   
 35  17  41  1   
 36  18  19  1   
 37  18  42  1   
 38  18  43  1   
 39  19  20  1   
 40  19  44  1   
 41  19  45  1   
 42  20  21  1   
 43  20  22  1   
 44  21  23  2   
 45  21  24  1   
 46  22  25  2   
 47  22  46  1   
 48  23  25  1   
 49  24  47  1   
 50  24  48  1   
 51  24  49  1   
 52  25  50  1   
@<TRIPOS>SUBSTRUCTURE
  1 ****   9 GROUP 4 **** **** 0

# MOE 2024.06 (io_trps.svl 2023.06)
