@<TRIPOS>MOLECULE
NONAME
31 33 1 0 0 
SMALL
USER_CHARGES


@<TRIPOS>ATOM
  1 CL      -2.6560    -0.2180    -2.8050 Cl    1 <1>  -0.1770 
  2 C       -3.0000     0.6920    -1.3550 C.ar  1 <1>   0.1770 
  3 C       -3.2250     0.0330    -0.1450 C.ar  1 <1>   0.0860 
  4 C       -3.0500     2.0730    -1.4670 C.ar  1 <1>  -0.1500 
  5 C       -3.1680    -1.4050    -0.0340 C.2   1 <1>   0.5440 
  6 C       -3.5150     0.8170     0.9720 C.ar  1 <1>  -0.1500 
  7 C       -3.3340     2.8400    -0.3500 C.ar  1 <1>  -0.1500 
  8 O       -2.0940    -1.9710    -0.1110 O.2   1 <1>  -0.5700 
  9 N       -4.3060    -2.1240     0.2050 N.am  1 <1>  -0.6600 
 10 C       -3.5620     2.1910     0.8490 C.ar  1 <1>   0.1900 
 11 C       -5.6890    -1.5700     0.2030 C.3   1 <1>   0.2350 
 12 C       -4.3460    -3.6060     0.3480 C.3   1 <1>   0.2350 
 13 F       -3.8300     2.9080     1.9060 F     1 <1>  -0.1900 
 14 C       -6.5970    -2.7420    -0.1120 C.3   1 <1>  -0.2420 
 15 C       -5.7710    -4.0020    -0.0050 C.3   1 <1>  -0.2420 
 16 C       -8.0410    -2.4110     0.2810 C.2   1 <1>   0.9470 
 17 C       -6.3580    -3.5950    -1.3320 C.3   1 <1>  -0.2000 
 18 C       -6.1160    -5.3740     0.5790 C.2   1 <1>   0.9470 
 19 O       -8.9400    -2.4900    -0.5670 O.co2 1 <1>  -0.9000 
 20 O       -8.2520    -1.8940     1.3870 O.co2 1 <1>  -0.9000 
 21 O       -6.4170    -6.3030    -0.1840 O.co2 1 <1>  -0.9000 
 22 O       -5.9380    -5.5730     1.7890 O.co2 1 <1>  -0.9000 
 23 H       -2.8680     2.5370    -2.4210 H     1 <1>   0.1500 
 24 H       -3.7020     0.3490     1.9220 H     1 <1>   0.1500 
 25 H       -3.3820     3.9140    -0.4030 H     1 <1>   0.1500 
 26 H       -5.9140    -1.1800     1.1810 H     1 <1>   0.0800 
 27 H       -5.8080    -0.7990    -0.5360 H     1 <1>   0.0800 
 28 H       -3.6400    -4.0810    -0.3090 H     1 <1>   0.0800 
 29 H       -4.1270    -3.8700     1.3690 H     1 <1>   0.0800 
 30 H       -5.7100    -3.2400    -2.1110 H     1 <1>   0.1000 
 31 H       -7.1830    -4.1760    -1.7120 H     1 <1>   0.1000 
@<TRIPOS>BOND
  1   1   2  1   
  2   2   3  ar  
  3   2   4  ar  
  4   3   5  1   
  5   3   6  ar  
  6   4   7  ar  
  7   4  23  1   
  8   5   8  2   
  9   5   9  am  
 10   6  10  ar  
 11   6  24  1   
 12   7  10  ar  
 13   7  25  1   
 14   9  11  1   
 15   9  12  1   
 16  10  13  1   
 17  11  14  1   
 18  11  26  1   
 19  11  27  1   
 20  12  15  1   
 21  12  28  1   
 22  12  29  1   
 23  14  15  1   
 24  14  16  1   
 25  14  17  1   
 26  15  17  1   
 27  15  18  1   
 28  16  19  ar  
 29  16  20  ar  
 30  17  30  1   
 31  17  31  1   
 32  18  21  ar  
 33  18  22  ar  
@<TRIPOS>SUBSTRUCTURE
  1 ****  11 GROUP 4 **** **** 0

# MOE 2024.06 (io_trps.svl 2023.06)
