@<TRIPOS>MOLECULE
NONAME
58 59 1 0 0 
SMALL
USER_CHARGES


@<TRIPOS>ATOM
  1 O       -1.1630    -0.2020     1.6250 O.2   1 <1>  -0.5700 
  2 C       -1.6300     0.4930     0.7530 C.2   1 <1>   0.5690 
  3 N       -2.3050    -0.0710    -0.3080 N.am  1 <1>  -0.6600 
  4 C       -1.3960     2.0040     0.9280 C.3   1 <1>  -0.0190 
  5 C       -2.3460    -1.5630    -0.4380 C.3   1 <1>   0.2840 
  6 C       -2.9600     0.6680    -1.4280 C.3   1 <1>   0.1400 
  7 C       -2.6810     2.8470     1.0720 C.3   1 <1>  -0.1600 
  8 C       -0.4010     2.5930    -0.1030 C.3   1 <1>  -0.1600 
  9 C       -3.7030    -2.1250    -0.0380 C.ar  1 <1>  -0.1440 
 10 C       -4.4740     0.7890    -1.2070 C.3   1 <1>  -0.1600 
 11 C       -2.3760     4.3000     1.4930 C.3   1 <1>   0.2000 
 12 C       -0.5730     4.1090    -0.3180 C.3   1 <1>  -0.1600 
 13 C       -4.4660    -2.8460    -0.9440 C.ar  1 <1>  -0.1500 
 14 C       -4.1930    -1.9230     1.2420 C.ar  1 <1>  -0.1500 
 15 C       -5.0950     1.8300    -2.1460 C.3   1 <1>  -0.2400 
 16 O       -3.3950     5.1230     0.9760 O.3   1 <1>  -0.5600 
 17 C       -0.9990     4.8030     0.9790 C.3   1 <1>   0.2000 
 18 C       -5.7020    -3.3480    -0.5760 C.ar  1 <1>  -0.1500 
 19 C       -5.4290    -2.4250     1.6080 C.ar  1 <1>  -0.1500 
 20 C       -4.5850     5.1230     1.7030 C.3   1 <1>   0.0400 
 21 O       -1.0740     6.1580     0.7300 O.3   1 <1>  -0.6800 
 22 C       -6.1980    -3.1410     0.7030 C.ar  1 <1>  -0.1440 
 23 C       -7.5660    -3.6990     1.0900 C.3   1 <1>   0.0630 
 24 C       -8.5310    -2.5680     1.4600 C.3   1 <1>  -0.2400 
 25 C       -7.4410    -4.7060     2.2380 C.3   1 <1>  -0.2400 
 26 H       -0.9050     2.0960     1.8820 H     1 <1>   0.0800 
 27 H       -2.1200    -1.8350    -1.4530 H     1 <1>   0.0800 
 28 H       -1.5920    -2.0180     0.1810 H     1 <1>   0.0800 
 29 H       -2.5380     1.6490    -1.5200 H     1 <1>   0.0800 
 30 H       -2.7730     0.1580    -2.3570 H     1 <1>   0.0800 
 31 H       -3.3250     2.3900     1.8000 H     1 <1>   0.0800 
 32 H       -3.1960     2.8790     0.1330 H     1 <1>   0.0800 
 33 H        0.5970     2.4000     0.2550 H     1 <1>   0.0800 
 34 H       -0.4850     2.0960    -1.0520 H     1 <1>   0.0800 
 35 H       -4.9450    -0.1600    -1.3900 H     1 <1>   0.0800 
 36 H       -4.6750     1.0660    -0.1880 H     1 <1>   0.0800 
 37 H       -2.3740     4.3820     2.5670 H     1 <1>   0.0800 
 38 H       -1.3310     4.2770    -1.0640 H     1 <1>   0.0800 
 39 H        0.3510     4.5290    -0.6720 H     1 <1>   0.0800 
 40 H       -4.1040    -3.0200    -1.9420 H     1 <1>   0.1500 
 41 H       -3.6070    -1.3700     1.9570 H     1 <1>   0.1500 
 42 H       -4.9240     1.5610    -3.1730 H     1 <1>   0.0800 
 43 H       -4.6730     2.8030    -1.9650 H     1 <1>   0.0800 
 44 H       -6.1560     1.8830    -1.9800 H     1 <1>   0.0800 
 45 H       -0.2430     4.6470     1.7280 H     1 <1>   0.0800 
 46 H       -6.2780    -3.9030    -1.2960 H     1 <1>   0.1500 
 47 H       -5.7870    -2.2530     2.6070 H     1 <1>   0.1500 
 48 H       -5.2680     5.8030     1.2250 H     1 <1>   0.0800 
 49 H       -4.3890     5.4560     2.7080 H     1 <1>   0.0800 
 50 H       -5.0070     4.1330     1.7060 H     1 <1>   0.0800 
 51 H       -2.0220     6.3370     0.5300 H     1 <1>   0.4000 
 52 H       -7.9790    -4.2190     0.2430 H     1 <1>   0.0800 
 53 H       -8.1890    -2.0440     2.3340 H     1 <1>   0.0800 
 54 H       -9.5110    -2.9640     1.6570 H     1 <1>   0.0800 
 55 H       -8.6000    -1.8680     0.6470 H     1 <1>   0.0800 
 56 H       -7.0770    -4.2280     3.1290 H     1 <1>   0.0800 
 57 H       -6.7530    -5.4860     1.9640 H     1 <1>   0.0800 
 58 H       -8.3970    -5.1500     2.4500 H     1 <1>   0.0800 
@<TRIPOS>BOND
  1   1   2  2   
  2   2   3  am  
  3   2   4  1   
  4   3   5  1   
  5   3   6  1   
  6   4   7  1   
  7   4   8  1   
  8   4  26  1   
  9   5   9  1   
 10   5  27  1   
 11   5  28  1   
 12   6  10  1   
 13   6  29  1   
 14   6  30  1   
 15   7  11  1   
 16   7  31  1   
 17   7  32  1   
 18   8  12  1   
 19   8  33  1   
 20   8  34  1   
 21   9  13  ar  
 22   9  14  ar  
 23  10  15  1   
 24  10  35  1   
 25  10  36  1   
 26  11  16  1   
 27  11  17  1   
 28  11  37  1   
 29  12  17  1   
 30  12  38  1   
 31  12  39  1   
 32  13  18  ar  
 33  13  40  1   
 34  14  19  ar  
 35  14  41  1   
 36  15  42  1   
 37  15  43  1   
 38  15  44  1   
 39  16  20  1   
 40  17  21  1   
 41  17  45  1   
 42  18  22  ar  
 43  18  46  1   
 44  19  22  ar  
 45  19  47  1   
 46  20  48  1   
 47  20  49  1   
 48  20  50  1   
 49  21  51  1   
 50  22  23  1   
 51  23  24  1   
 52  23  25  1   
 53  23  52  1   
 54  24  53  1   
 55  24  54  1   
 56  24  55  1   
 57  25  56  1   
 58  25  57  1   
 59  25  58  1   
@<TRIPOS>SUBSTRUCTURE
  1 ****   3 GROUP 4 **** **** 0

# MOE 2024.06 (io_trps.svl 2023.06)
