@<TRIPOS>MOLECULE
NONAME
63 67 1 0 0 
SMALL
USER_CHARGES


@<TRIPOS>ATOM
  1 O        0.1870     0.2870    -0.9620 O.3   1 <1>  -0.0190 
  2 N        1.4510     0.2000    -0.6860 N.2   1 <1>  -0.4100 
  3 C       -0.2860    -0.8320    -1.4380 C.2   1 <1>  -0.0400 
  4 C        1.8130    -0.9940    -1.0070 C.2   1 <1>   0.1080 
  5 C        0.7260    -1.7120    -1.5010 C.2   1 <1>  -0.1500 
  6 C       -1.7580    -0.9300    -1.7930 C.3   1 <1>   0.5230 
  7 C        3.2270    -1.5490    -0.8630 C.3   1 <1>   0.1010 
  8 N       -2.6180    -0.7450    -0.5860 N.4   1 <1>  -0.9590 
  9 C        3.6420    -1.6150     0.6170 C.3   1 <1>  -0.1600 
 10 C        4.2350    -0.7150    -1.6740 C.3   1 <1>  -0.1600 
 11 C       -2.6480     0.6770    -0.1100 C.3   1 <1>   0.3430 
 12 C       -2.2850    -1.6750     0.5270 C.3   1 <1>   0.3430 
 13 C        5.0720    -2.1520     0.7780 C.3   1 <1>  -0.1600 
 14 C        5.6650    -1.2510    -1.5160 C.3   1 <1>  -0.1600 
 15 C       -3.7720     0.8690     0.9250 C.3   1 <1>   0.1430 
 16 C       -3.3510    -1.5650     1.6250 C.3   1 <1>  -0.1600 
 17 C        6.0710    -1.3210    -0.0380 C.3   1 <1>  -0.1600 
 18 C       -5.1190     0.6790     0.2470 C.ar  1 <1>   0.1670 
 19 C       -3.5740    -0.1150     2.1000 C.3   1 <1>  -0.1600 
 20 C       -3.8600     2.3310     1.4340 C.3   1 <1>  -0.1600 
 21 N       -5.4300    -0.3110    -0.5570 N.ar  1 <1>  -0.6200 
 22 C       -5.9790     1.6900     0.5490 C.ar  1 <1>  -0.1430 
 23 C       -5.3570     2.6950     1.4860 C.3   1 <1>  -0.0170 
 24 C       -6.6630    -0.2560    -1.0640 C.ar  1 <1>   0.7200 
 25 C       -7.2260     1.6600    -0.0230 C.ar  1 <1>   0.1600 
 26 N       -7.5750     0.6910    -0.8370 N.ar  1 <1>  -0.6200 
 27 N       -7.0080    -1.2820    -1.9100 N.pl3 1 <1>  -0.8380 
 28 C       -8.0410    -1.0620    -2.9620 C.3   1 <1>   0.1290 
 29 C       -6.8940    -2.6900    -1.4500 C.3   1 <1>   0.1290 
 30 H        0.7480    -2.7330    -1.8400 H     1 <1>   0.1500 
 31 H       -1.9490    -1.8980    -2.2240 H     1 <1>   0.0800 
 32 H       -1.9990    -0.1830    -2.5320 H     1 <1>   0.0800 
 33 H        3.2350    -2.5510    -1.2560 H     1 <1>   0.0800 
 34 H       -3.6080    -0.9340    -0.8560 H     1 <1>   0.4500 
 35 H        2.9580    -2.2450     1.1560 H     1 <1>   0.0800 
 36 H        3.5870    -0.6280     1.0430 H     1 <1>   0.0800 
 37 H        4.2020     0.3070    -1.3360 H     1 <1>   0.0800 
 38 H        3.9580    -0.7260    -2.7130 H     1 <1>   0.0800 
 39 H       -2.8270     1.3370    -0.9430 H     1 <1>   0.0800 
 40 H       -1.7020     0.9370     0.3350 H     1 <1>   0.0800 
 41 H       -1.3180    -1.4240     0.9340 H     1 <1>   0.0800 
 42 H       -2.2490    -2.6900     0.1650 H     1 <1>   0.0800 
 43 H        5.1100    -3.1770     0.4520 H     1 <1>   0.0800 
 44 H        5.3500    -2.1270     1.8180 H     1 <1>   0.0800 
 45 H        6.3500    -0.6100    -2.0460 H     1 <1>   0.0800 
 46 H        5.7310    -2.2340    -1.9510 H     1 <1>   0.0800 
 47 H       -3.0520    -2.1700     2.4630 H     1 <1>   0.0800 
 48 H       -4.2760    -1.9750     1.2580 H     1 <1>   0.0800 
 49 H        7.0530    -1.7520     0.0470 H     1 <1>   0.0800 
 50 H        6.1150    -0.3230     0.3650 H     1 <1>   0.0800 
 51 H       -4.4300    -0.0810     2.7540 H     1 <1>   0.0800 
 52 H       -2.7160     0.1900     2.6740 H     1 <1>   0.0800 
 53 H       -3.3840     2.9910     0.7290 H     1 <1>   0.0800 
 54 H       -3.3910     2.4700     2.3930 H     1 <1>   0.0800 
 55 H       -5.5330     3.7070     1.1640 H     1 <1>   0.0800 
 56 H       -5.7510     2.5550     2.4790 H     1 <1>   0.0800 
 57 H       -7.9440     2.4360     0.1840 H     1 <1>   0.1500 
 58 H       -7.9720    -0.0580    -3.3450 H     1 <1>   0.0800 
 59 H       -9.0230    -1.2060    -2.5440 H     1 <1>   0.0800 
 60 H       -7.8940    -1.7520    -3.7740 H     1 <1>   0.0800 
 61 H       -6.3210    -2.7500    -0.5410 H     1 <1>   0.0800 
 62 H       -6.4110    -3.2810    -2.2080 H     1 <1>   0.0800 
 63 H       -7.8740    -3.0920    -1.2600 H     1 <1>   0.0800 
@<TRIPOS>BOND
  1   1   2  1   
  2   1   3  1   
  3   2   4  2   
  4   3   5  2   
  5   3   6  1   
  6   4   5  1   
  7   4   7  1   
  8   5  30  1   
  9   6   8  1   
 10   6  31  1   
 11   6  32  1   
 12   7   9  1   
 13   7  10  1   
 14   7  33  1   
 15   8  11  1   
 16   8  12  1   
 17   8  34  1   
 18   9  13  1   
 19   9  35  1   
 20   9  36  1   
 21  10  14  1   
 22  10  37  1   
 23  10  38  1   
 24  11  15  1   
 25  11  39  1   
 26  11  40  1   
 27  12  16  1   
 28  12  41  1   
 29  12  42  1   
 30  13  17  1   
 31  13  43  1   
 32  13  44  1   
 33  14  17  1   
 34  14  45  1   
 35  14  46  1   
 36  15  18  1   
 37  15  19  1   
 38  15  20  1   
 39  16  19  1   
 40  16  47  1   
 41  16  48  1   
 42  17  49  1   
 43  17  50  1   
 44  18  21  ar  
 45  18  22  ar  
 46  19  51  1   
 47  19  52  1   
 48  20  23  1   
 49  20  53  1   
 50  20  54  1   
 51  21  24  ar  
 52  22  23  1   
 53  22  25  ar  
 54  23  55  1   
 55  23  56  1   
 56  24  26  ar  
 57  24  27  1   
 58  25  26  ar  
 59  25  57  1   
 60  27  28  1   
 61  27  29  1   
 62  28  58  1   
 63  28  59  1   
 64  28  60  1   
 65  29  61  1   
 66  29  62  1   
 67  29  63  1   
@<TRIPOS>SUBSTRUCTURE
  1 ****   8 GROUP 4 **** **** 0

# MOE 2024.06 (io_trps.svl 2023.06)
