@<TRIPOS>MOLECULE
NONAME
53 55 1 0 0 
SMALL
USER_CHARGES


@<TRIPOS>ATOM
  1 O       -0.2710    -0.0680     0.2230 O.2   1 <1>  -0.5700 
  2 C       -0.0380     1.1070     0.4160 C.2   1 <1>   0.5690 
  3 N       -1.0770     2.0200     0.3470 N.am  1 <1>  -0.6600 
  4 C        1.4360     1.4940     0.7640 C.3   1 <1>   0.2040 
  5 C       -0.9590     3.4820     0.6440 C.3   1 <1>   0.1400 
  6 C       -2.4360     1.5520    -0.0730 C.3   1 <1>   0.1400 
  7 C        1.8960     2.7760     0.0290 C.ar  1 <1>  -0.1440 
  8 C        2.4250     0.3910     0.3230 C.3   1 <1>  -0.2400 
  9 C        1.5600     1.5910     2.3020 C.3   1 <1>  -0.2400 
 10 C       -2.2890     4.0170     1.1700 C.3   1 <1>  -0.1600 
 11 C       -3.2100     2.6680    -0.7790 C.3   1 <1>  -0.1600 
 12 C        1.6320     2.8970    -1.3310 C.ar  1 <1>  -0.1500 
 13 C        2.5690     3.8190     0.6600 C.ar  1 <1>  -0.1500 
 14 C       -3.3940     3.9320     0.0960 C.3   1 <1>   0.2800 
 15 C        2.0120     4.0240    -2.0370 C.ar  1 <1>  -0.1500 
 16 C        2.9510     4.9480    -0.0440 C.ar  1 <1>  -0.1500 
 17 O       -3.2340     5.0100    -0.7950 O.3   1 <1>  -0.5600 
 18 C       -4.8030     3.9740     0.7420 C.3   1 <1>  -0.1600 
 19 C        2.6720     5.0540    -1.3930 C.ar  1 <1>  -0.1500 
 20 C       -3.7470     6.2590    -0.4240 C.3   1 <1>   0.1200 
 21 C       -5.8100     4.7850    -0.0780 C.3   1 <1>   0.2800 
 22 C       -5.2770     6.2060    -0.2840 C.3   1 <1>  -0.1600 
 23 O       -5.9100     4.2120    -1.3180 O.3   1 <1>  -0.6800 
 24 C       -7.2100     4.7710     0.5270 C.3   1 <1>  -0.2400 
 25 H       -0.6890     4.0100    -0.2570 H     1 <1>   0.0800 
 26 H       -0.1980     3.6590     1.3790 H     1 <1>   0.0800 
 27 H       -2.9760     1.2210     0.7970 H     1 <1>   0.0800 
 28 H       -2.3440     0.7140    -0.7450 H     1 <1>   0.0800 
 29 H        2.3320     0.2050    -0.7320 H     1 <1>   0.0800 
 30 H        2.2250    -0.5300     0.8420 H     1 <1>   0.0800 
 31 H        3.4380     0.6880     0.5280 H     1 <1>   0.0800 
 32 H        0.9790     2.4060     2.6890 H     1 <1>   0.0800 
 33 H        2.5840     1.7200     2.6000 H     1 <1>   0.0800 
 34 H        1.1950     0.6840     2.7510 H     1 <1>   0.0800 
 35 H       -2.1610     5.0250     1.5120 H     1 <1>   0.0800 
 36 H       -2.5620     3.4260     2.0260 H     1 <1>   0.0800 
 37 H       -4.1620     2.2770    -1.0870 H     1 <1>   0.0800 
 38 H       -2.6640     2.9170    -1.6720 H     1 <1>   0.0800 
 39 H        1.1190     2.1080    -1.8550 H     1 <1>   0.1500 
 40 H        2.8110     3.7790     1.7060 H     1 <1>   0.1500 
 41 H        1.7940     4.0980    -3.0880 H     1 <1>   0.1500 
 42 H        3.4680     5.7460     0.4600 H     1 <1>   0.1500 
 43 H       -4.7310     4.4310     1.7130 H     1 <1>   0.0800 
 44 H       -5.1720     2.9780     0.9090 H     1 <1>   0.0800 
 45 H        2.9680     5.9310    -1.9410 H     1 <1>   0.1500 
 46 H       -3.4660     6.9670    -1.1850 H     1 <1>   0.0800 
 47 H       -3.2900     6.5590     0.5010 H     1 <1>   0.0800 
 48 H       -5.7440     6.6540    -1.1440 H     1 <1>   0.0800 
 49 H       -5.5420     6.8140     0.5620 H     1 <1>   0.0800 
 50 H       -5.0240     4.2900    -1.7320 H     1 <1>   0.4000 
 51 H       -7.1970     5.2040     1.5110 H     1 <1>   0.0800 
 52 H       -7.5710     3.7610     0.6040 H     1 <1>   0.0800 
 53 H       -7.8850     5.3390    -0.0870 H     1 <1>   0.0800 
@<TRIPOS>BOND
  1   1   2  2   
  2   2   3  am  
  3   2   4  1   
  4   3   5  1   
  5   3   6  1   
  6   4   7  1   
  7   4   8  1   
  8   4   9  1   
  9   5  10  1   
 10   5  25  1   
 11   5  26  1   
 12   6  11  1   
 13   6  27  1   
 14   6  28  1   
 15   7  12  ar  
 16   7  13  ar  
 17   8  29  1   
 18   8  30  1   
 19   8  31  1   
 20   9  32  1   
 21   9  33  1   
 22   9  34  1   
 23  10  14  1   
 24  10  35  1   
 25  10  36  1   
 26  11  14  1   
 27  11  37  1   
 28  11  38  1   
 29  12  15  ar  
 30  12  39  1   
 31  13  16  ar  
 32  13  40  1   
 33  14  17  1   
 34  14  18  1   
 35  15  19  ar  
 36  15  41  1   
 37  16  19  ar  
 38  16  42  1   
 39  17  20  1   
 40  18  21  1   
 41  18  43  1   
 42  18  44  1   
 43  19  45  1   
 44  20  22  1   
 45  20  46  1   
 46  20  47  1   
 47  21  22  1   
 48  21  23  1   
 49  21  24  1   
 50  22  48  1   
 51  22  49  1   
 52  23  50  1   
 53  24  51  1   
 54  24  52  1   
 55  24  53  1   
@<TRIPOS>SUBSTRUCTURE
  1 ****   5 GROUP 4 **** **** 0

# MOE 2024.06 (io_trps.svl 2023.06)
