@<TRIPOS>MOLECULE
NONAME
43 46 1 0 0 
SMALL
USER_CHARGES


@<TRIPOS>ATOM
  1 O        3.1120    -1.2950     2.5190 O.2   1 <1>  -0.5700 
  2 C        2.3760    -1.5500     1.5800 C.2   1 <1>   0.5440 
  3 N        1.8380    -0.4720     0.8970 N.am  1 <1>  -0.6600 
  4 C        2.1460    -2.9560     1.2320 C.ar  1 <1>   0.3960 
  5 C        2.1870     0.9310     1.2170 C.3   1 <1>   0.1400 
  6 C        0.9740    -0.5360    -0.3040 C.3   1 <1>   0.1400 
  7 N        1.0030    -3.3570     0.6460 N.ar  1 <1>  -0.6200 
  8 C        3.1580    -3.8720     1.5410 C.ar  1 <1>   0.1600 
  9 C        1.8240     1.7140    -0.0370 C.3   1 <1>  -0.1600 
 10 C        0.6890     0.9170    -0.6710 C.3   1 <1>  -0.1600 
 11 C        0.9520    -4.6540     0.4030 C.ar  1 <1>   0.4100 
 12 N        3.1280    -5.1760     1.2980 N.ar  1 <1>  -0.6200 
 13 N       -0.2100    -5.1270    -0.1710 N.pl3 1 <1>  -0.8380 
 14 C        1.9990    -5.5300     0.7210 C.ar  1 <1>   0.1600 
 15 C       -1.2160    -5.6860     0.7780 C.3   1 <1>   0.3900 
 16 C       -0.8150    -4.3500    -1.2950 C.3   1 <1>   0.2090 
 17 C       -2.3850    -6.2950     0.0190 C.2   1 <1>  -0.1810 
 18 C       -1.6550    -5.2680    -2.1880 C.3   1 <1>   0.0210 
 19 C       -2.5930    -6.0940    -1.3380 C.2   1 <1>   0.1080 
 20 C       -3.4090    -7.0840     0.4120 C.2   1 <1>  -0.3320 
 21 N       -3.6550    -6.6930    -1.7760 N.2   1 <1>  -0.7070 
 22 N       -4.1590    -7.3100    -0.6900 N.pl3 1 <1>   0.3000 
 23 C       -3.7380    -7.6490     1.7830 C.3   1 <1>  -0.0600 
 24 H        3.2330     1.0270     1.4580 H     1 <1>   0.0800 
 25 H        1.5930     1.2550     2.0540 H     1 <1>   0.0800 
 26 H        0.0590    -1.0620    -0.0910 H     1 <1>   0.0800 
 27 H        1.5060    -1.0330    -1.0980 H     1 <1>   0.0800 
 28 H        4.0480    -3.4970     2.0180 H     1 <1>   0.1500 
 29 H        2.6750     1.7290    -0.6960 H     1 <1>   0.0800 
 30 H        1.5400     2.7260     0.1920 H     1 <1>   0.0800 
 31 H       -0.2490     1.2080    -0.2320 H     1 <1>   0.0800 
 32 H        0.6340     1.0570    -1.7360 H     1 <1>   0.0800 
 33 H        1.8650    -6.5670     0.4730 H     1 <1>   0.1500 
 34 H       -1.5780    -4.8980     1.4160 H     1 <1>   0.0800 
 35 H       -0.7570    -6.4410     1.3920 H     1 <1>   0.0800 
 36 H       -0.0390    -3.8850    -1.8790 H     1 <1>   0.0800 
 37 H       -1.4420    -3.5740    -0.8870 H     1 <1>   0.0800 
 38 H       -1.0090    -5.9270    -2.7370 H     1 <1>   0.0800 
 39 H       -2.2220    -4.6830    -2.8870 H     1 <1>   0.0800 
 40 H       -5.0140    -7.8760    -0.7360 H     1 <1>   0.2700 
 41 H       -3.0100    -7.3290     2.5060 H     1 <1>   0.0800 
 42 H       -3.7360    -8.7240     1.7500 H     1 <1>   0.0800 
 43 H       -4.7080    -7.3100     2.1010 H     1 <1>   0.0800 
@<TRIPOS>BOND
  1   1   2  2   
  2   2   3  am  
  3   2   4  1   
  4   3   5  1   
  5   3   6  1   
  6   4   7  ar  
  7   4   8  ar  
  8   5   9  1   
  9   5  24  1   
 10   5  25  1   
 11   6  10  1   
 12   6  26  1   
 13   6  27  1   
 14   7  11  ar  
 15   8  12  ar  
 16   8  28  1   
 17   9  10  1   
 18   9  29  1   
 19   9  30  1   
 20  10  31  1   
 21  10  32  1   
 22  11  13  1   
 23  11  14  ar  
 24  12  14  ar  
 25  13  15  1   
 26  13  16  1   
 27  14  33  1   
 28  15  17  1   
 29  15  34  1   
 30  15  35  1   
 31  16  18  1   
 32  16  36  1   
 33  16  37  1   
 34  17  19  1   
 35  17  20  2   
 36  18  19  1   
 37  18  38  1   
 38  18  39  1   
 39  19  21  2   
 40  20  22  1   
 41  20  23  1   
 42  21  22  1   
 43  22  40  1   
 44  23  41  1   
 45  23  42  1   
 46  23  43  1   
@<TRIPOS>SUBSTRUCTURE
  1 ****   7 GROUP 4 **** **** 0

# MOE 2024.06 (io_trps.svl 2023.06)
