@<TRIPOS>MOLECULE
NONAME
49 53 1 0 0 
SMALL
USER_CHARGES


@<TRIPOS>ATOM
  1 O       -0.0420    -1.3810     1.6460 O.2   1 <1>  -0.5700 
  2 C       -1.0350    -1.9690     1.3090 C.2   1 <1>   0.5690 
  3 N       -1.3260    -2.3390     0.0570 N.am  1 <1>  -0.7300 
  4 C       -2.1010    -2.4400     2.2560 C.3   1 <1>  -0.0990 
  5 C       -2.5190    -3.2070    -0.0520 C.3   1 <1>   0.2810 
  6 C       -2.8580    -3.4950     1.4270 C.3   1 <1>  -0.1600 
  7 C       -2.3120    -4.4860    -0.9000 C.2   1 <1>   0.5690 
  8 O       -1.1820    -4.7680    -1.2340 O.2   1 <1>  -0.5700 
  9 N       -3.3770    -5.2840    -1.2590 N.am  1 <1>  -0.6600 
 10 C       -4.8040    -5.0500    -0.9070 C.3   1 <1>   0.1400 
 11 C       -3.1750    -6.5410    -2.0350 C.3   1 <1>   0.1400 
 12 C       -5.2830    -6.2030    -0.0240 C.3   1 <1>  -0.1600 
 13 C       -3.6430    -7.7260    -1.1890 C.3   1 <1>  -0.1600 
 14 C       -5.0940    -7.5550    -0.7270 C.3   1 <1>   0.4600 
 15 O       -5.8840    -7.5750    -1.8960 O.3   1 <1>  -0.5600 
 16 C       -5.5000    -8.7110     0.1790 C.2   1 <1>  -0.3320 
 17 C       -7.2510    -7.8910    -1.7720 C.3   1 <1>   0.1200 
 18 N       -4.8710    -9.1060     1.3270 N.pl3 1 <1>   0.0330 
 19 C       -6.5580    -9.5150    -0.0470 C.2   1 <1>  -0.1810 
 20 C       -7.4490    -9.3230    -1.2470 C.3   1 <1>   0.0210 
 21 C       -5.5510   -10.1870     1.8340 C.ar  1 <1>  -0.1520 
 22 C       -6.6200   -10.4720     0.9880 C.ar  1 <1>   0.0000 
 23 C       -5.3180   -10.9560     2.9770 C.ar  1 <1>  -0.1500 
 24 C       -7.4720   -11.5400     1.2840 C.ar  1 <1>  -0.1500 
 25 C       -6.1650   -12.0040     3.2570 C.ar  1 <1>  -0.1500 
 26 C       -7.2420   -12.2960     2.4100 C.ar  1 <1>  -0.1500 
 27 H       -0.5920    -2.4110    -0.6530 H     1 <1>   0.3700 
 28 H       -1.6630    -2.8600     3.1430 H     1 <1>   0.0800 
 29 H       -2.7320    -1.6090     2.5100 H     1 <1>   0.0800 
 30 H       -3.3010    -2.6210    -0.5010 H     1 <1>   0.0800 
 31 H       -3.9170    -3.4630     1.6100 H     1 <1>   0.0800 
 32 H       -2.4930    -4.4750     1.6840 H     1 <1>   0.0800 
 33 H       -4.9420    -4.1160    -0.3970 H     1 <1>   0.0800 
 34 H       -5.3880    -5.0190    -1.8130 H     1 <1>   0.0800 
 35 H       -3.7470    -6.4910    -2.9470 H     1 <1>   0.0800 
 36 H       -2.1400    -6.6720    -2.3010 H     1 <1>   0.0800 
 37 H       -6.3150    -6.0680     0.2380 H     1 <1>   0.0800 
 38 H       -4.7190    -6.1970     0.8900 H     1 <1>   0.0800 
 39 H       -2.9940    -7.8120    -0.3380 H     1 <1>   0.0800 
 40 H       -3.5590    -8.6360    -1.7550 H     1 <1>   0.0800 
 41 H       -7.7080    -7.1840    -1.1040 H     1 <1>   0.0800 
 42 H       -7.7010    -7.7880    -2.7440 H     1 <1>   0.0800 
 43 H       -4.0270    -8.6980     1.7400 H     1 <1>   0.2700 
 44 H       -8.4780    -9.4700    -0.9740 H     1 <1>   0.0800 
 45 H       -7.1890   -10.0340    -2.0100 H     1 <1>   0.0800 
 46 H       -4.4890   -10.7270     3.6210 H     1 <1>   0.1500 
 47 H       -8.2920   -11.7530     0.6240 H     1 <1>   0.1500 
 48 H       -6.0080   -12.6110     4.1310 H     1 <1>   0.1500 
 49 H       -7.8890   -13.1210     2.6510 H     1 <1>   0.1500 
@<TRIPOS>BOND
  1   1   2  2   
  2   2   3  am  
  3   2   4  1   
  4   3   5  1   
  5   3  27  1   
  6   4   6  1   
  7   4  28  1   
  8   4  29  1   
  9   5   6  1   
 10   5   7  1   
 11   5  30  1   
 12   6  31  1   
 13   6  32  1   
 14   7   8  2   
 15   7   9  am  
 16   9  10  1   
 17   9  11  1   
 18  10  12  1   
 19  10  33  1   
 20  10  34  1   
 21  11  13  1   
 22  11  35  1   
 23  11  36  1   
 24  12  14  1   
 25  12  37  1   
 26  12  38  1   
 27  13  14  1   
 28  13  39  1   
 29  13  40  1   
 30  14  15  1   
 31  14  16  1   
 32  15  17  1   
 33  16  18  1   
 34  16  19  2   
 35  17  20  1   
 36  17  41  1   
 37  17  42  1   
 38  18  21  1   
 39  18  43  1   
 40  19  20  1   
 41  19  22  1   
 42  20  44  1   
 43  20  45  1   
 44  21  22  ar  
 45  21  23  ar  
 46  22  24  ar  
 47  23  25  ar  
 48  23  46  1   
 49  24  26  ar  
 50  24  47  1   
 51  25  26  ar  
 52  25  48  1   
 53  26  49  1   
@<TRIPOS>SUBSTRUCTURE
  1 ****  12 GROUP 4 **** **** 0

# MOE 2024.06 (io_trps.svl 2023.06)
