@<TRIPOS>MOLECULE
NONAME
52 55 1 0 0 
SMALL
USER_CHARGES


@<TRIPOS>ATOM
  1 O        0.6730     0.0260    -0.2830 O.2   1 <1>  -0.5700 
  2 C        1.2430    -1.0230    -0.1110 C.2   1 <1>   0.5690 
  3 N        2.5140    -1.0720     0.4130 N.am  1 <1>  -0.6600 
  4 C        0.5010    -2.2800    -0.5050 C.3   1 <1>  -0.1790 
  5 C        3.1490     0.1990     0.9090 C.3   1 <1>   0.1400 
  6 C        3.3530    -2.3080     0.4060 C.3   1 <1>   0.1400 
  7 C        4.4060     0.6330     0.1110 C.3   1 <1>   0.4230 
  8 C        4.7550    -2.0870    -0.1990 C.3   1 <1>  -0.0800 
  9 N        5.6750     0.0860     0.6930 N.4   1 <1>  -0.9590 
 10 C        4.3630     0.1740    -1.3580 C.3   1 <1>  -0.1600 
 11 C        5.6760    -1.4030     0.8270 C.3   1 <1>   0.3430 
 12 C        4.7170    -1.3210    -1.5420 C.3   1 <1>  -0.1600 
 13 C        6.0980     0.7780     1.9420 C.3   1 <1>   0.4860 
 14 C        6.3250     2.2330     1.6030 C.ar  1 <1>  -0.1440 
 15 C        7.4440     2.6240     0.8540 C.ar  1 <1>  -0.1520 
 16 C        5.4120     3.1930     1.9860 C.ar  1 <1>  -0.1500 
 17 N        8.5350     1.9250     0.3870 N.pl3 1 <1>   0.0330 
 18 C        7.5930     3.9470     0.4510 C.ar  1 <1>   0.0000 
 19 C        5.5750     4.5280     1.6030 C.ar  1 <1>  -0.1500 
 20 C        9.3280     2.7740    -0.3260 C.2   1 <1>  -0.3320 
 21 C        8.7810     4.0130    -0.3090 C.2   1 <1>  -0.1810 
 22 C        6.6490     4.9040     0.8350 C.ar  1 <1>  -0.1500 
 23 C       10.6130     2.2840    -0.9760 C.3   1 <1>  -0.0600 
 24 C        9.2800     5.2990    -0.9440 C.3   1 <1>  -0.0590 
 25 H        0.5420    -3.0000     0.2900 H     1 <1>   0.0800 
 26 H        0.9280    -2.6910    -1.4000 H     1 <1>   0.0800 
 27 H       -0.5300    -2.0430    -0.6960 H     1 <1>   0.0800 
 28 H        2.4410     1.0060     0.8350 H     1 <1>   0.0800 
 29 H        3.3780     0.0970     1.9530 H     1 <1>   0.0800 
 30 H        3.4340    -2.6820     1.4130 H     1 <1>   0.0800 
 31 H        2.8700    -3.0740    -0.1740 H     1 <1>   0.0800 
 32 H        4.4460     1.7110     0.1240 H     1 <1>   0.0800 
 33 H        5.1600    -3.0680    -0.3790 H     1 <1>   0.0800 
 34 H        6.3750     0.3440    -0.0130 H     1 <1>   0.4500 
 35 H        3.3770     0.3640    -1.7500 H     1 <1>   0.0800 
 36 H        5.0390     0.7790    -1.9360 H     1 <1>   0.0800 
 37 H        6.6820    -1.7660     0.6900 H     1 <1>   0.0800 
 38 H        5.3570    -1.6840     1.8180 H     1 <1>   0.0800 
 39 H        5.6840    -1.3930    -2.0100 H     1 <1>   0.0800 
 40 H        4.0080    -1.7810    -2.2110 H     1 <1>   0.0800 
 41 H        5.3370     0.6880     2.7000 H     1 <1>   0.0800 
 42 H        7.0120     0.3520     2.3200 H     1 <1>   0.0800 
 43 H        4.5480     2.9440     2.5800 H     1 <1>   0.1500 
 44 H        8.7930     0.9600     0.6080 H     1 <1>   0.2700 
 45 H        4.8500     5.2610     1.9130 H     1 <1>   0.1500 
 46 H        6.7840     5.9260     0.5270 H     1 <1>   0.1500 
 47 H       11.1150     3.0840    -1.4880 H     1 <1>   0.0800 
 48 H       10.3970     1.5110    -1.6910 H     1 <1>   0.0800 
 49 H       11.2810     1.8950    -0.2290 H     1 <1>   0.0800 
 50 H        8.5380     5.6820    -1.6200 H     1 <1>   0.0800 
 51 H       10.1890     5.1370    -1.4900 H     1 <1>   0.0800 
 52 H        9.4660     6.0320    -0.1800 H     1 <1>   0.0800 
@<TRIPOS>BOND
  1   1   2  2   
  2   2   3  am  
  3   2   4  1   
  4   3   5  1   
  5   3   6  1   
  6   4  25  1   
  7   4  26  1   
  8   4  27  1   
  9   5   7  1   
 10   5  28  1   
 11   5  29  1   
 12   6   8  1   
 13   6  30  1   
 14   6  31  1   
 15   7   9  1   
 16   7  10  1   
 17   7  32  1   
 18   8  11  1   
 19   8  12  1   
 20   8  33  1   
 21   9  11  1   
 22   9  13  1   
 23   9  34  1   
 24  10  12  1   
 25  10  35  1   
 26  10  36  1   
 27  11  37  1   
 28  11  38  1   
 29  12  39  1   
 30  12  40  1   
 31  13  14  1   
 32  13  41  1   
 33  13  42  1   
 34  14  15  ar  
 35  14  16  ar  
 36  15  17  1   
 37  15  18  ar  
 38  16  19  ar  
 39  16  43  1   
 40  17  20  1   
 41  17  44  1   
 42  18  21  1   
 43  18  22  ar  
 44  19  22  ar  
 45  19  45  1   
 46  20  21  2   
 47  20  23  1   
 48  21  24  1   
 49  22  46  1   
 50  23  47  1   
 51  23  48  1   
 52  23  49  1   
 53  24  50  1   
 54  24  51  1   
 55  24  52  1   
@<TRIPOS>SUBSTRUCTURE
  1 ****   9 GROUP 4 **** **** 0

# MOE 2024.06 (io_trps.svl 2023.06)
