@<TRIPOS>MOLECULE
NONAME
50 52 1 0 0 
SMALL
USER_CHARGES


@<TRIPOS>ATOM
  1 O       -0.8540     0.4680     1.3700 O.2   1 <1>  -0.5700 
  2 C       -1.3710     1.1180     0.4900 C.2   1 <1>   0.5690 
  3 N       -2.6620     0.8560     0.0840 N.am  1 <1>  -0.6600 
  4 C       -0.5480     2.2390    -0.1470 C.3   1 <1>  -0.0190 
  5 C       -3.4260    -0.2830     0.6870 C.3   1 <1>   0.1400 
  6 C       -3.4130     1.6500    -0.9320 C.3   1 <1>   0.1400 
  7 C        0.9350     2.2020     0.1960 C.3   1 <1>   0.1200 
  8 C       -0.9340     3.6460     0.3020 C.3   1 <1>  -0.1600 
  9 C       -4.6980     0.1790     1.4130 C.3   1 <1>   0.1400 
 10 C       -4.3480     2.6380    -0.2250 C.3   1 <1>  -0.1600 
 11 O        1.3740     3.5000    -0.0380 O.3   1 <1>  -0.5600 
 12 C        0.3900     4.4070     0.3400 C.3   1 <1>   0.1200 
 13 N       -5.7440     0.6240     0.4390 N.am  1 <1>  -0.6600 
 14 C       -5.7410     2.0790     0.1000 C.3   1 <1>   0.1400 
 15 C       -6.6710    -0.2180    -0.1280 C.2   1 <1>   0.5690 
 16 O       -7.4510     0.1720    -0.9650 O.2   1 <1>  -0.5700 
 17 C       -6.7310    -1.6860     0.2770 C.3   1 <1>  -0.0990 
 18 C       -7.8650    -2.4710    -0.3990 C.3   1 <1>   0.0200 
 19 C       -7.8430    -3.9230     0.0520 C.2   1 <1>  -0.3320 
 20 N       -7.0470    -4.8920    -0.4580 N.pl3 1 <1>   0.3140 
 21 C       -8.5910    -4.5040     1.0130 C.2   1 <1>  -0.1500 
 22 N       -7.2560    -6.0690     0.1540 N.2   1 <1>  -0.7070 
 23 C       -6.0690    -4.7740    -1.5480 C.3   1 <1>   0.0160 
 24 C       -8.1820    -5.8310     1.0300 C.2   1 <1>   0.1390 
 25 H       -0.6120     2.1620    -1.2160 H     1 <1>   0.0800 
 26 H       -2.8110    -0.8070     1.3970 H     1 <1>   0.0800 
 27 H       -3.6830    -0.9840    -0.0870 H     1 <1>   0.0800 
 28 H       -3.9760     0.9910    -1.5720 H     1 <1>   0.0800 
 29 H       -2.7340     2.1950    -1.5600 H     1 <1>   0.0800 
 30 H        1.4890     1.5180    -0.4220 H     1 <1>   0.0800 
 31 H        1.1020     1.9810     1.2370 H     1 <1>   0.0800 
 32 H       -1.3600     3.6300     1.2900 H     1 <1>   0.0800 
 33 H       -1.6290     4.1090    -0.3750 H     1 <1>   0.0800 
 34 H       -4.4550     0.9790     2.0900 H     1 <1>   0.0800 
 35 H       -5.0730    -0.6330     2.0090 H     1 <1>   0.0800 
 36 H       -4.4890     3.4910    -0.8640 H     1 <1>   0.0800 
 37 H       -3.8840     3.0000     0.6750 H     1 <1>   0.0800 
 38 H        0.6170     4.7540     1.3340 H     1 <1>   0.0800 
 39 H        0.4080     5.2320    -0.3510 H     1 <1>   0.0800 
 40 H       -6.3720     2.2490    -0.7560 H     1 <1>   0.0800 
 41 H       -6.1670     2.6300     0.9200 H     1 <1>   0.0800 
 42 H       -6.8780    -1.7430     1.3390 H     1 <1>   0.0800 
 43 H       -5.7940    -2.1470     0.0370 H     1 <1>   0.0800 
 44 H       -7.7790    -2.4120    -1.4700 H     1 <1>   0.0800 
 45 H       -8.8080    -2.0300    -0.1250 H     1 <1>   0.0800 
 46 H       -9.3440    -4.0670     1.6440 H     1 <1>   0.1500 
 47 H       -5.2330    -4.1920    -1.2120 H     1 <1>   0.0800 
 48 H       -6.5340    -4.3030    -2.3930 H     1 <1>   0.0800 
 49 H       -5.7340    -5.7570    -1.8260 H     1 <1>   0.0800 
 50 H       -8.5810    -6.5830     1.6890 H     1 <1>   0.1500 
@<TRIPOS>BOND
  1   1   2  2   
  2   2   3  am  
  3   2   4  1   
  4   3   5  1   
  5   3   6  1   
  6   4   7  1   
  7   4   8  1   
  8   4  25  1   
  9   5   9  1   
 10   5  26  1   
 11   5  27  1   
 12   6  10  1   
 13   6  28  1   
 14   6  29  1   
 15   7  11  1   
 16   7  30  1   
 17   7  31  1   
 18   8  12  1   
 19   8  32  1   
 20   8  33  1   
 21   9  13  1   
 22   9  34  1   
 23   9  35  1   
 24  10  14  1   
 25  10  36  1   
 26  10  37  1   
 27  11  12  1   
 28  12  38  1   
 29  12  39  1   
 30  13  14  1   
 31  13  15  am  
 32  14  40  1   
 33  14  41  1   
 34  15  16  2   
 35  15  17  1   
 36  17  18  1   
 37  17  42  1   
 38  17  43  1   
 39  18  19  1   
 40  18  44  1   
 41  18  45  1   
 42  19  20  1   
 43  19  21  2   
 44  20  22  1   
 45  20  23  1   
 46  21  24  1   
 47  21  46  1   
 48  22  24  2   
 49  23  47  1   
 50  23  48  1   
 51  23  49  1   
 52  24  50  1   
@<TRIPOS>SUBSTRUCTURE
  1 ****   5 GROUP 4 **** **** 0

# MOE 2024.06 (io_trps.svl 2023.06)
