@<TRIPOS>MOLECULE
NONAME
38 39 1 0 0 
SMALL
USER_CHARGES


@<TRIPOS>ATOM
  1 O       -0.3660    -0.2490     0.1100 O.2   1 <1>  -0.5700 
  2 C       -1.3870    -0.9000    -0.0080 C.2   1 <1>   0.5440 
  3 N       -2.5820    -0.2390    -0.2240 N.am  1 <1>  -0.6600 
  4 C       -1.3150    -2.3470     0.0910 C.ar  1 <1>   0.0860 
  5 C       -2.6160     1.2140    -0.5520 C.3   1 <1>   0.0600 
  6 C       -3.9180    -0.8470     0.0200 C.3   1 <1>   0.0600 
  7 C       -0.6610    -2.9580     1.1570 C.ar  1 <1>  -0.1500 
  8 C       -1.8820    -3.1790    -0.8720 C.ar  1 <1>  -0.1500 
  9 C       -0.5860    -4.3350     1.2660 C.ar  1 <1>  -0.1500 
 10 C       -1.8110    -4.5560    -0.7700 C.ar  1 <1>  -0.1500 
 11 C       -1.1620    -5.1510     0.3040 C.ar  1 <1>  -0.1430 
 12 C       -1.0610    -6.6660     0.4390 C.3   1 <1>   0.0630 
 13 C       -0.2660    -7.2720    -0.7270 C.3   1 <1>  -0.1600 
 14 C       -2.4500    -7.3130     0.5410 C.3   1 <1>  -0.1600 
 15 C       -0.2000    -8.7940    -0.6240 C.3   1 <1>   0.3430 
 16 C       -2.3500    -8.8350     0.6250 C.3   1 <1>   0.3430 
 17 N       -1.5790    -9.3500    -0.5410 N.4   1 <1>  -0.9060 
 18 H       -1.6540     1.5440    -0.9070 H     1 <1>   0.0800 
 19 H       -2.8710     1.7770     0.3280 H     1 <1>   0.0800 
 20 H       -3.3450     1.4000    -1.3210 H     1 <1>   0.0800 
 21 H       -3.8260    -1.7780     0.5510 H     1 <1>   0.0800 
 22 H       -4.4120    -1.0240    -0.9190 H     1 <1>   0.0800 
 23 H       -4.5190    -0.1800     0.6130 H     1 <1>   0.0800 
 24 H       -0.2030    -2.3330     1.9050 H     1 <1>   0.1500 
 25 H       -2.3780    -2.7280    -1.7140 H     1 <1>   0.1500 
 26 H       -0.0690    -4.7570     2.1110 H     1 <1>   0.1500 
 27 H       -2.2640    -5.1520    -1.5410 H     1 <1>   0.1500 
 28 H       -0.5280    -6.8880     1.3500 H     1 <1>   0.0800 
 29 H        0.7340    -6.8730    -0.7150 H     1 <1>   0.0800 
 30 H       -0.7060    -6.9970    -1.6690 H     1 <1>   0.0800 
 31 H       -3.0580    -7.0430    -0.3040 H     1 <1>   0.0800 
 32 H       -2.9460    -6.9430     1.4230 H     1 <1>   0.0800 
 33 H        0.3590    -9.0710     0.2560 H     1 <1>   0.0800 
 34 H        0.3110    -9.1940    -1.4870 H     1 <1>   0.0800 
 35 H       -3.3400    -9.2640     0.6350 H     1 <1>   0.0800 
 36 H       -1.8530    -9.1120     1.5420 H     1 <1>   0.0800 
 37 H       -1.5340   -10.3770    -0.4980 H     1 <1>   0.4500 
 38 H       -2.0850    -9.1140    -1.4040 H     1 <1>   0.4500 
@<TRIPOS>BOND
  1   1   2  2   
  2   2   3  am  
  3   2   4  1   
  4   3   5  1   
  5   3   6  1   
  6   4   7  ar  
  7   4   8  ar  
  8   5  18  1   
  9   5  19  1   
 10   5  20  1   
 11   6  21  1   
 12   6  22  1   
 13   6  23  1   
 14   7   9  ar  
 15   7  24  1   
 16   8  10  ar  
 17   8  25  1   
 18   9  11  ar  
 19   9  26  1   
 20  10  11  ar  
 21  10  27  1   
 22  11  12  1   
 23  12  13  1   
 24  12  14  1   
 25  12  28  1   
 26  13  15  1   
 27  13  29  1   
 28  13  30  1   
 29  14  16  1   
 30  14  31  1   
 31  14  32  1   
 32  15  17  1   
 33  15  33  1   
 34  15  34  1   
 35  16  17  1   
 36  16  35  1   
 37  16  36  1   
 38  17  37  1   
 39  17  38  1   
@<TRIPOS>SUBSTRUCTURE
  1 ****  10 GROUP 4 **** **** 0

# MOE 2024.06 (io_trps.svl 2023.06)
