@<TRIPOS>MOLECULE
NONAME
50 52 1 0 0 
SMALL
USER_CHARGES


@<TRIPOS>ATOM
  1 CL      -1.2600    -0.4250    -0.9470 Cl    1 <1>  -0.1770 
  2 C       -2.2470     0.7070    -0.0350 C.ar  1 <1>   0.1770 
  3 C       -2.0540     2.0720    -0.2080 C.ar  1 <1>   0.0830 
  4 C       -3.2060     0.1970     0.8270 C.ar  1 <1>  -0.1440 
  5 O       -1.0840     2.4410    -1.0960 O.3   1 <1>  -0.3630 
  6 C       -2.8720     2.9570     0.5110 C.ar  1 <1>   0.0830 
  7 C       -3.9730     1.0810     1.5670 C.ar  1 <1>  -0.1500 
  8 C       -3.4260    -1.2960     0.9440 C.3   1 <1>   0.4860 
  9 C       -0.3490     3.6340    -0.9290 C.3   1 <1>   0.0400 
 10 O       -2.7790     4.3010     0.3160 O.3   1 <1>  -0.3630 
 11 C       -3.8040     2.4440     1.4090 C.ar  1 <1>  -0.1500 
 12 N       -3.9230    -1.8660    -0.3520 N.4   1 <1>  -0.9590 
 13 C       -3.9210     5.1220     0.4600 C.3   1 <1>   0.0400 
 14 C       -5.3310    -1.5780    -0.7710 C.3   1 <1>   0.4230 
 15 C       -3.6710    -3.3370    -0.3780 C.3   1 <1>   0.2630 
 16 C       -6.3690    -1.5870     0.3440 C.3   1 <1>  -0.1600 
 17 C       -5.5170    -0.2280    -1.4510 C.3   1 <1>  -0.1600 
 18 C       -7.5890    -0.8810    -0.2700 C.3   1 <1>  -0.0800 
 19 C       -7.0280     0.0550    -1.3760 C.3   1 <1>  -0.0800 
 20 C       -8.4510    -0.1790     0.7990 C.3   1 <1>   0.1400 
 21 C       -7.3150     1.5580    -1.1470 C.3   1 <1>  -0.0990 
 22 N       -7.7910     1.0760     1.2090 N.am  1 <1>  -0.7300 
 23 C       -7.2620     1.9400     0.3190 C.2   1 <1>   0.5690 
 24 O       -6.7780     2.9850     0.6690 O.2   1 <1>  -0.5700 
 25 H       -4.7180     0.7340     2.2640 H     1 <1>   0.1500 
 26 H       -4.1180    -1.5100     1.7410 H     1 <1>   0.0800 
 27 H       -2.4820    -1.7500     1.1970 H     1 <1>   0.0800 
 28 H        0.5630     3.5470    -1.4910 H     1 <1>   0.0800 
 29 H       -0.1270     3.7700     0.1150 H     1 <1>   0.0800 
 30 H       -0.9290     4.4570    -1.3050 H     1 <1>   0.0800 
 31 H       -4.4230     3.1030     1.9920 H     1 <1>   0.1500 
 32 H       -3.3180    -1.4380    -1.0710 H     1 <1>   0.4500 
 33 H       -3.7070     6.0760     0.0130 H     1 <1>   0.0800 
 34 H       -4.1340     5.2520     1.5050 H     1 <1>   0.0800 
 35 H       -4.7540     4.6610    -0.0440 H     1 <1>   0.0800 
 36 H       -5.6320    -2.3220    -1.4920 H     1 <1>   0.0800 
 37 H       -4.2690    -3.8340     0.3690 H     1 <1>   0.0800 
 38 H       -2.6300    -3.5420    -0.1830 H     1 <1>   0.0800 
 39 H       -3.9200    -3.7420    -1.3450 H     1 <1>   0.0800 
 40 H       -6.6140    -2.5860     0.6570 H     1 <1>   0.0800 
 41 H       -6.0340    -1.0130     1.1870 H     1 <1>   0.0800 
 42 H       -4.9930     0.5480    -0.9320 H     1 <1>   0.0800 
 43 H       -5.1820    -0.2540    -2.4730 H     1 <1>   0.0800 
 44 H       -8.2010    -1.6320    -0.7430 H     1 <1>   0.0800 
 45 H       -7.4690    -0.2270    -2.3180 H     1 <1>   0.0800 
 46 H       -8.5900    -0.8190     1.6550 H     1 <1>   0.0800 
 47 H       -9.4210     0.0580     0.3930 H     1 <1>   0.0800 
 48 H       -8.3050     1.7860    -1.4970 H     1 <1>   0.0800 
 49 H       -6.6280     2.1690    -1.7050 H     1 <1>   0.0800 
 50 H       -7.9090     1.4060     2.1710 H     1 <1>   0.3700 
@<TRIPOS>BOND
  1   1   2  1   
  2   2   3  ar  
  3   2   4  ar  
  4   3   5  1   
  5   3   6  ar  
  6   4   7  ar  
  7   4   8  1   
  8   5   9  1   
  9   6  10  1   
 10   6  11  ar  
 11   7  11  ar  
 12   7  25  1   
 13   8  12  1   
 14   8  26  1   
 15   8  27  1   
 16   9  28  1   
 17   9  29  1   
 18   9  30  1   
 19  10  13  1   
 20  11  31  1   
 21  12  14  1   
 22  12  15  1   
 23  12  32  1   
 24  13  33  1   
 25  13  34  1   
 26  13  35  1   
 27  14  16  1   
 28  14  17  1   
 29  14  36  1   
 30  15  37  1   
 31  15  38  1   
 32  15  39  1   
 33  16  18  1   
 34  16  40  1   
 35  16  41  1   
 36  17  19  1   
 37  17  42  1   
 38  17  43  1   
 39  18  19  1   
 40  18  20  1   
 41  18  44  1   
 42  19  21  1   
 43  19  45  1   
 44  20  22  1   
 45  20  46  1   
 46  20  47  1   
 47  21  23  1   
 48  21  48  1   
 49  21  49  1   
 50  22  23  am  
 51  22  50  1   
 52  23  24  2   
@<TRIPOS>SUBSTRUCTURE
  1 ****   7 GROUP 4 **** **** 0

# MOE 2024.06 (io_trps.svl 2023.06)
