@<TRIPOS>MOLECULE
NONAME
48 50 1 0 0 
SMALL
USER_CHARGES


@<TRIPOS>ATOM
  1 O       -2.3650     0.5930    -2.5470 O.2   1 <1>  -0.5700 
  2 C       -2.0680     0.6990    -1.3730 C.2   1 <1>   0.5440 
  3 N       -1.8900    -0.4410    -0.6470 N.am  1 <1>  -0.7300 
  4 C       -1.9620     2.0000    -0.7370 C.ar  1 <1>   0.0860 
  5 C       -1.9870    -1.8230    -1.1690 C.3   1 <1>   0.2200 
  6 C       -0.8530     2.4080     0.0140 C.ar  1 <1>  -0.1440 
  7 C       -3.0220     2.8950    -0.8640 C.ar  1 <1>  -0.1500 
  8 C       -3.2910    -2.4820    -0.7410 C.3   1 <1>  -0.0800 
  9 C       -0.9800    -2.6970    -0.4350 C.3   1 <1>   0.1200 
 10 C       -0.8500     3.6510     0.6250 C.ar  1 <1>  -0.1500 
 11 C        0.3800     1.5250     0.1710 C.3   1 <1>  -0.0970 
 12 C       -3.0190     4.1390    -0.2580 C.ar  1 <1>  -0.1430 
 13 C       -2.9690    -3.0050     0.6630 C.3   1 <1>   0.1200 
 14 C       -4.5490    -1.5960    -0.8170 C.3   1 <1>  -0.0170 
 15 O       -1.5760    -2.9880     0.7930 O.3   1 <1>  -0.5600 
 16 C       -1.9210     4.5200     0.5010 C.ar  1 <1>  -0.1430 
 17 C       -4.2190     5.0580    -0.4430 C.3   1 <1>  -0.0970 
 18 C       -5.7940    -2.3870    -0.4480 C.ar  1 <1>  -0.1430 
 19 C       -1.8630     5.8750     1.1930 C.3   1 <1>  -0.0970 
 20 C       -6.4240    -3.2110    -1.3580 C.ar  1 <1>  -0.1500 
 21 C       -6.3570    -2.3240     0.8100 C.ar  1 <1>  -0.1500 
 22 C       -7.5520    -3.9180    -0.9740 C.ar  1 <1>   0.1600 
 23 C       -7.4880    -3.0730     1.0920 C.ar  1 <1>   0.1600 
 24 N       -8.0980    -3.8700     0.2300 N.ar  1 <1>  -0.6200 
 25 H       -1.7250    -0.3800     0.3600 H     1 <1>   0.3700 
 26 H       -1.8420    -1.8390    -2.2360 H     1 <1>   0.0800 
 27 H       -3.8670     2.5920    -1.4590 H     1 <1>   0.1500 
 28 H       -3.4470    -3.3380    -1.3740 H     1 <1>   0.0800 
 29 H       -0.0370    -2.2040    -0.2760 H     1 <1>   0.0800 
 30 H       -0.8280    -3.6250    -0.9570 H     1 <1>   0.0800 
 31 H        0.0040     3.9520     1.2060 H     1 <1>   0.1500 
 32 H        1.2330     2.1080     0.4660 H     1 <1>   0.0800 
 33 H        0.6180     1.0420    -0.7610 H     1 <1>   0.0800 
 34 H        0.2050     0.7740     0.9200 H     1 <1>   0.0800 
 35 H       -3.3230    -4.0120     0.8050 H     1 <1>   0.0800 
 36 H       -3.3740    -2.3660     1.4280 H     1 <1>   0.0800 
 37 H       -4.6520    -1.2090    -1.8160 H     1 <1>   0.0800 
 38 H       -4.4560    -0.7520    -0.1550 H     1 <1>   0.0800 
 39 H       -4.9650     4.5980    -1.0660 H     1 <1>   0.0800 
 40 H       -3.9110     5.9760    -0.9090 H     1 <1>   0.0800 
 41 H       -4.6640     5.2790     0.5100 H     1 <1>   0.0800 
 42 H       -0.9460     5.9910     1.7410 H     1 <1>   0.0800 
 43 H       -2.6820     5.9720     1.8820 H     1 <1>   0.0800 
 44 H       -1.9220     6.6630     0.4640 H     1 <1>   0.0800 
 45 H       -6.0490    -3.3100    -2.3600 H     1 <1>   0.1500 
 46 H       -5.9300    -1.7010     1.5740 H     1 <1>   0.1500 
 47 H       -8.0300    -4.5570    -1.6970 H     1 <1>   0.1500 
 48 H       -7.9140    -3.0120     2.0790 H     1 <1>   0.1500 
@<TRIPOS>BOND
  1   1   2  2   
  2   2   3  am  
  3   2   4  1   
  4   3   5  1   
  5   3  25  1   
  6   4   6  ar  
  7   4   7  ar  
  8   5   8  1   
  9   5   9  1   
 10   5  26  1   
 11   6  10  ar  
 12   6  11  1   
 13   7  12  ar  
 14   7  27  1   
 15   8  13  1   
 16   8  14  1   
 17   8  28  1   
 18   9  15  1   
 19   9  29  1   
 20   9  30  1   
 21  10  16  ar  
 22  10  31  1   
 23  11  32  1   
 24  11  33  1   
 25  11  34  1   
 26  12  16  ar  
 27  12  17  1   
 28  13  15  1   
 29  13  35  1   
 30  13  36  1   
 31  14  18  1   
 32  14  37  1   
 33  14  38  1   
 34  16  19  1   
 35  17  39  1   
 36  17  40  1   
 37  17  41  1   
 38  18  20  ar  
 39  18  21  ar  
 40  19  42  1   
 41  19  43  1   
 42  19  44  1   
 43  20  22  ar  
 44  20  45  1   
 45  21  23  ar  
 46  21  46  1   
 47  22  24  ar  
 48  22  47  1   
 49  23  24  ar  
 50  23  48  1   
@<TRIPOS>SUBSTRUCTURE
  1 ****   3 GROUP 4 **** **** 0

# MOE 2024.06 (io_trps.svl 2023.06)
