@<TRIPOS>MOLECULE
NONAME
48 50 1 0 0 
SMALL
USER_CHARGES


@<TRIPOS>ATOM
  1 O       -1.0610     1.1270    -1.9990 O.2   1 <1>  -0.5700 
  2 C       -1.8410     1.2850    -1.0880 C.2   1 <1>   0.5690 
  3 N       -3.0700     0.6750    -1.0770 N.am  1 <1>  -0.6600 
  4 C       -1.4290     2.1880     0.0680 C.3   1 <1>  -0.0990 
  5 C       -3.4650    -0.2940    -2.1380 C.3   1 <1>   0.1400 
  6 C       -4.1160     0.8440    -0.0300 C.3   1 <1>   0.1400 
  7 C        0.0200     2.6890    -0.0120 C.3   1 <1>  -0.0220 
  8 C       -3.7180    -1.6640    -1.5020 C.3   1 <1>  -0.1600 
  9 C       -4.3660    -0.5040     0.6510 C.3   1 <1>  -0.1600 
 10 C        0.3470     3.5610     1.1890 C.2   1 <1>  -0.2880 
 11 C       -4.7550    -1.5970    -0.3660 C.3   1 <1>   0.4240 
 12 C        1.2670     3.2710     2.1120 C.2   1 <1>  -0.3000 
 13 O       -5.9290    -1.1470    -1.0110 O.3   1 <1>  -0.5600 
 14 C       -4.9630    -2.9880     0.3010 C.ar  1 <1>  -0.1440 
 15 C       -7.1490    -1.4000    -0.3960 C.3   1 <1>   0.1200 
 16 C       -3.9250    -3.6640     0.9570 C.ar  1 <1>   0.0820 
 17 C       -6.2170    -3.5980     0.2580 C.ar  1 <1>  -0.1440 
 18 C       -7.3830    -2.9020    -0.4130 C.3   1 <1>  -0.0170 
 19 O       -2.7000    -3.0780     1.0310 O.3   1 <1>  -0.3630 
 20 C       -4.1520    -4.9150     1.5270 C.ar  1 <1>  -0.1500 
 21 C       -6.4300    -4.8430     0.8250 C.ar  1 <1>  -0.1500 
 22 C       -1.5570    -3.7550     1.5060 C.3   1 <1>   0.0400 
 23 C       -5.3980    -5.5030     1.4590 C.ar  1 <1>  -0.1500 
 24 H       -1.5450     1.6400     0.9840 H     1 <1>   0.0800 
 25 H       -2.0890     3.0340     0.0870 H     1 <1>   0.0800 
 26 H       -2.6930    -0.3820    -2.8840 H     1 <1>   0.0800 
 27 H       -4.3570     0.0590    -2.6260 H     1 <1>   0.0800 
 28 H       -5.0230     1.1920    -0.4970 H     1 <1>   0.0800 
 29 H       -3.8270     1.5720     0.7050 H     1 <1>   0.0800 
 30 H        0.1620     3.2570    -0.9160 H     1 <1>   0.0800 
 31 H        0.6880     1.8450    -0.0450 H     1 <1>   0.0800 
 32 H       -2.7770    -2.0290    -1.1430 H     1 <1>   0.0800 
 33 H       -4.0620    -2.3540    -2.2490 H     1 <1>   0.0800 
 34 H       -5.1320    -0.4060     1.3950 H     1 <1>   0.0800 
 35 H       -3.4660    -0.7770     1.1650 H     1 <1>   0.0800 
 36 H       -0.2460     4.4600     1.2270 H     1 <1>   0.1500 
 37 H        1.4890     3.9000     2.9570 H     1 <1>   0.1500 
 38 H        1.8770     2.3840     2.1020 H     1 <1>   0.1500 
 39 H       -7.9140    -0.8910    -0.9560 H     1 <1>   0.0800 
 40 H       -7.1300    -1.0180     0.6100 H     1 <1>   0.0800 
 41 H       -7.4750    -3.2410    -1.4290 H     1 <1>   0.0800 
 42 H       -8.2990    -3.1220     0.1050 H     1 <1>   0.0800 
 43 H       -3.3730    -5.4500     2.0340 H     1 <1>   0.1500 
 44 H       -7.4010    -5.3040     0.7770 H     1 <1>   0.1500 
 45 H       -0.7110    -3.1030     1.3830 H     1 <1>   0.0800 
 46 H       -1.4160    -4.6500     0.9270 H     1 <1>   0.0800 
 47 H       -1.6930    -3.9830     2.5480 H     1 <1>   0.0800 
 48 H       -5.5660    -6.4700     1.9000 H     1 <1>   0.1500 
@<TRIPOS>BOND
  1   1   2  2   
  2   2   3  am  
  3   2   4  1   
  4   3   5  1   
  5   3   6  1   
  6   4   7  1   
  7   4  24  1   
  8   4  25  1   
  9   5   8  1   
 10   5  26  1   
 11   5  27  1   
 12   6   9  1   
 13   6  28  1   
 14   6  29  1   
 15   7  10  1   
 16   7  30  1   
 17   7  31  1   
 18   8  11  1   
 19   8  32  1   
 20   8  33  1   
 21   9  11  1   
 22   9  34  1   
 23   9  35  1   
 24  10  12  2   
 25  10  36  1   
 26  11  13  1   
 27  11  14  1   
 28  12  37  1   
 29  12  38  1   
 30  13  15  1   
 31  14  16  ar  
 32  14  17  ar  
 33  15  18  1   
 34  15  39  1   
 35  15  40  1   
 36  16  19  1   
 37  16  20  ar  
 38  17  18  1   
 39  17  21  ar  
 40  18  41  1   
 41  18  42  1   
 42  19  22  1   
 43  20  23  ar  
 44  20  43  1   
 45  21  23  ar  
 46  21  44  1   
 47  22  45  1   
 48  22  46  1   
 49  22  47  1   
 50  23  48  1   
@<TRIPOS>SUBSTRUCTURE
  1 ****   9 GROUP 4 **** **** 0

# MOE 2024.06 (io_trps.svl 2023.06)
