@<TRIPOS>MOLECULE
NONAME
51 53 1 0 0 
SMALL
USER_CHARGES


@<TRIPOS>ATOM
  1 O       -3.1670    -1.7520    -1.3640 O.2   1 <1>  -0.5700 
  2 C       -2.2460    -2.3020    -0.7940 C.2   1 <1>   0.6900 
  3 N       -2.3610    -3.6100    -0.3800 N.am  1 <1>  -0.4200 
  4 N       -1.1170    -1.6020    -0.4770 N.am  1 <1>  -0.5390 
  5 C       -1.4530    -4.1270     0.5220 C.2   1 <1>   0.6160 
  6 C       -3.4650    -4.4670    -0.9010 C.3   1 <1>   0.1400 
  7 C       -0.1230    -2.1220     0.3280 C.2   1 <1>  -0.0290 
  8 O       -1.6980    -5.1880     1.0630 O.2   1 <1>  -0.5700 
  9 C       -0.2880    -3.3660     0.8290 C.2   1 <1>  -0.1360 
 10 C       -4.7070    -4.4260     0.0070 C.3   1 <1>   0.3430 
 11 C        1.0820    -1.2410     0.5910 C.3   1 <1>  -0.1020 
 12 N       -5.1420    -3.0230     0.3080 N.4   1 <1>  -0.9590 
 13 C       -6.6200    -2.8400     0.1580 C.3   1 <1>   0.3430 
 14 C       -4.6670    -2.5850     1.6510 C.3   1 <1>   0.3430 
 15 C       -7.0420    -1.3670     0.3410 C.3   1 <1>   0.0000 
 16 C       -4.9950    -1.1070     1.8480 C.3   1 <1>  -0.1600 
 17 C       -8.5780    -1.2900     0.2290 C.3   1 <1>   0.2000 
 18 C       -6.4980    -0.8360     1.6890 C.3   1 <1>  -0.1600 
 19 C       -6.5750    -0.5190    -0.8560 C.3   1 <1>  -0.1600 
 20 O       -9.0070    -0.0730     0.7560 O.3   1 <1>  -0.5600 
 21 C       -8.8620    -1.3030    -1.2800 C.3   1 <1>  -0.1600 
 22 C       -7.5980    -0.7690    -1.9690 C.3   1 <1>  -0.1600 
 23 C      -10.3450    -0.0230     1.1470 C.3   1 <1>   0.0400 
 24 H       -1.0570    -0.6580    -0.8670 H     1 <1>   0.3700 
 25 H       -3.7350    -4.1470    -1.8930 H     1 <1>   0.0800 
 26 H       -3.1210    -5.4850    -0.9810 H     1 <1>   0.0800 
 27 H        0.4320    -3.8370     1.4720 H     1 <1>   0.1500 
 28 H       -4.4890    -4.9510     0.9230 H     1 <1>   0.0800 
 29 H       -5.5030    -4.9560    -0.4890 H     1 <1>   0.0800 
 30 H        1.5730    -0.9990    -0.3350 H     1 <1>   0.0800 
 31 H        1.7880    -1.7450     1.2280 H     1 <1>   0.0800 
 32 H        0.7790    -0.3290     1.0740 H     1 <1>   0.0800 
 33 H       -4.6850    -2.3930    -0.3840 H     1 <1>   0.4500 
 34 H       -6.9290    -3.1710    -0.8200 H     1 <1>   0.0800 
 35 H       -7.1290    -3.4420     0.8930 H     1 <1>   0.0800 
 36 H       -5.1500    -3.1680     2.4190 H     1 <1>   0.0800 
 37 H       -3.6020    -2.7300     1.7340 H     1 <1>   0.0800 
 38 H       -4.6840    -0.8070     2.8340 H     1 <1>   0.0800 
 39 H       -4.4340    -0.5180     1.1430 H     1 <1>   0.0800 
 40 H       -9.0680    -2.0920     0.7560 H     1 <1>   0.0800 
 41 H       -6.6790     0.2230     1.7720 H     1 <1>   0.0800 
 42 H       -7.0300    -1.3100     2.4960 H     1 <1>   0.0800 
 43 H       -6.6270     0.5240    -0.5870 H     1 <1>   0.0800 
 44 H       -5.5730    -0.7290    -1.1800 H     1 <1>   0.0800 
 45 H       -9.0420    -2.3120    -1.6030 H     1 <1>   0.0800 
 46 H       -9.7220    -0.7090    -1.5320 H     1 <1>   0.0800 
 47 H       -7.2240    -1.4920    -2.6730 H     1 <1>   0.0800 
 48 H       -7.8060     0.1480    -2.4950 H     1 <1>   0.0800 
 49 H      -10.5480     0.9700     1.5080 H     1 <1>   0.0800 
 50 H      -10.5120    -0.7340     1.9360 H     1 <1>   0.0800 
 51 H      -10.9790    -0.2350     0.3040 H     1 <1>   0.0800 
@<TRIPOS>BOND
  1   1   2  2   
  2   2   3  am  
  3   2   4  am  
  4   3   5  am  
  5   3   6  1   
  6   4   7  1   
  7   4  24  1   
  8   5   8  2   
  9   5   9  1   
 10   6  10  1   
 11   6  25  1   
 12   6  26  1   
 13   7   9  2   
 14   7  11  1   
 15   9  27  1   
 16  10  12  1   
 17  10  28  1   
 18  10  29  1   
 19  11  30  1   
 20  11  31  1   
 21  11  32  1   
 22  12  13  1   
 23  12  14  1   
 24  12  33  1   
 25  13  15  1   
 26  13  34  1   
 27  13  35  1   
 28  14  16  1   
 29  14  36  1   
 30  14  37  1   
 31  15  17  1   
 32  15  18  1   
 33  15  19  1   
 34  16  18  1   
 35  16  38  1   
 36  16  39  1   
 37  17  20  1   
 38  17  21  1   
 39  17  40  1   
 40  18  41  1   
 41  18  42  1   
 42  19  22  1   
 43  19  43  1   
 44  19  44  1   
 45  20  23  1   
 46  21  22  1   
 47  21  45  1   
 48  21  46  1   
 49  22  47  1   
 50  22  48  1   
 51  23  49  1   
 52  23  50  1   
 53  23  51  1   
@<TRIPOS>SUBSTRUCTURE
  1 ****  12 GROUP 4 **** **** 0

# MOE 2024.06 (io_trps.svl 2023.06)
