@<TRIPOS>MOLECULE
NONAME
45 48 1 0 0 
SMALL
USER_CHARGES


@<TRIPOS>ATOM
  1 O       -0.7830    -0.9320    -2.0000 O.2   1 <1>  -0.5700 
  2 C       -1.5740    -1.3640    -1.1920 C.2   1 <1>   0.6340 
  3 O       -2.2710    -0.4720    -0.4920 O.3   1 <1>  -0.4300 
  4 C       -1.7720    -2.7740    -0.9510 C.ar  1 <1>   0.0860 
  5 C       -3.5420    -0.7560     0.0450 C.3   1 <1>   0.2640 
  6 C       -2.8050    -3.1760    -0.0690 C.ar  1 <1>   0.0000 
  7 C       -0.9680    -3.7380    -1.5200 C.ar  1 <1>  -0.1500 
  8 C       -3.6720    -2.2120     0.4820 C.ar  1 <1>  -0.1440 
  9 C       -2.9700    -4.5390     0.2710 C.ar  1 <1>   0.0000 
 10 C       -1.1250    -5.0870    -1.2050 C.ar  1 <1>  -0.1500 
 11 C       -4.6370    -2.5760     1.3800 C.ar  1 <1>  -0.1500 
 12 C       -4.0000    -4.8850     1.1830 C.ar  1 <1>  -0.1430 
 13 C       -2.0920    -5.4760    -0.3210 C.ar  1 <1>  -0.1500 
 14 C       -4.7970    -3.9170     1.7360 C.ar  1 <1>  -0.1500 
 15 C       -4.2480    -6.3360     1.5510 C.3   1 <1>   0.4860 
 16 N       -4.9150    -7.0070     0.4010 N.4   1 <1>  -0.9590 
 17 C       -6.2600    -6.3960     0.0980 C.3   1 <1>   0.3430 
 18 C       -5.0470    -8.4920     0.6090 C.3   1 <1>   0.3430 
 19 C       -7.0080    -7.1670    -1.0130 C.3   1 <1>   0.2000 
 20 C       -5.8590    -9.1670    -0.5220 C.3   1 <1>   0.2000 
 21 O       -7.0840    -8.5180    -0.6770 O.3   1 <1>  -0.5600 
 22 C       -8.4420    -6.6720    -1.1840 C.3   1 <1>  -0.2400 
 23 C       -6.1710   -10.6280    -0.2080 C.3   1 <1>  -0.2400 
 24 H       -3.6960    -0.0920     0.8770 H     1 <1>   0.0800 
 25 H       -4.2690    -0.5340    -0.7170 H     1 <1>   0.0800 
 26 H       -0.1900    -3.4490    -2.2080 H     1 <1>   0.1500 
 27 H       -0.4610    -5.8040    -1.6610 H     1 <1>   0.1500 
 28 H       -5.2930    -1.8420     1.8200 H     1 <1>   0.1500 
 29 H       -2.1580    -6.5190    -0.0770 H     1 <1>   0.1500 
 30 H       -5.5700    -4.1540     2.4490 H     1 <1>   0.1500 
 31 H       -4.8760    -6.3900     2.4260 H     1 <1>   0.0800 
 32 H       -3.3100    -6.8150     1.7770 H     1 <1>   0.0800 
 33 H       -4.3270    -6.8380    -0.4240 H     1 <1>   0.4500 
 34 H       -6.8730    -6.4070     0.9830 H     1 <1>   0.0800 
 35 H       -6.1390    -5.3700    -0.2070 H     1 <1>   0.0800 
 36 H       -4.0730    -8.9480     0.6630 H     1 <1>   0.0800 
 37 H       -5.5540    -8.6860     1.5400 H     1 <1>   0.0800 
 38 H       -6.4870    -7.0770    -1.9520 H     1 <1>   0.0800 
 39 H       -5.3250    -9.1120    -1.4560 H     1 <1>   0.0800 
 40 H       -8.9970    -6.7900    -0.2700 H     1 <1>   0.0800 
 41 H       -8.9290    -7.2330    -1.9620 H     1 <1>   0.0800 
 42 H       -8.4510    -5.6340    -1.4640 H     1 <1>   0.0800 
 43 H       -6.7420   -10.7080     0.7000 H     1 <1>   0.0800 
 44 H       -5.2620   -11.1930    -0.0980 H     1 <1>   0.0800 
 45 H       -6.7370   -11.0600    -1.0150 H     1 <1>   0.0800 
@<TRIPOS>BOND
  1   1   2  2   
  2   2   3  1   
  3   2   4  1   
  4   3   5  1   
  5   4   6  ar  
  6   4   7  ar  
  7   5   8  1   
  8   5  24  1   
  9   5  25  1   
 10   6   8  ar  
 11   6   9  ar  
 12   7  10  ar  
 13   7  26  1   
 14   8  11  ar  
 15   9  12  ar  
 16   9  13  ar  
 17  10  13  ar  
 18  10  27  1   
 19  11  14  ar  
 20  11  28  1   
 21  12  14  ar  
 22  12  15  1   
 23  13  29  1   
 24  14  30  1   
 25  15  16  1   
 26  15  31  1   
 27  15  32  1   
 28  16  17  1   
 29  16  18  1   
 30  16  33  1   
 31  17  19  1   
 32  17  34  1   
 33  17  35  1   
 34  18  20  1   
 35  18  36  1   
 36  18  37  1   
 37  19  21  1   
 38  19  22  1   
 39  19  38  1   
 40  20  21  1   
 41  20  23  1   
 42  20  39  1   
 43  22  40  1   
 44  22  41  1   
 45  22  42  1   
 46  23  43  1   
 47  23  44  1   
 48  23  45  1   
@<TRIPOS>SUBSTRUCTURE
  1 ****   9 GROUP 4 **** **** 0

# MOE 2024.06 (io_trps.svl 2023.06)
