@<TRIPOS>MOLECULE
NONAME
48 51 1 0 0 
SMALL
USER_CHARGES


@<TRIPOS>ATOM
  1 O        0.8090     0.8590     1.1590 O.2   1 <1>  -0.5700 
  2 C        1.7090     0.6240     0.3570 C.2   1 <1>   0.6900 
  3 N        2.7930     1.3910     0.1440 N.am  1 <1>  -0.4200 
  4 N        1.8170    -0.4450    -0.4760 N.am  1 <1>  -0.2980 
  5 C        3.5240     0.7240    -0.8120 C.2   1 <1>   0.4490 
  6 C        3.2510     2.5460     0.9400 C.3   1 <1>   0.1400 
  7 N        2.9800    -0.3610    -1.2060 N.2   1 <1>  -0.5120 
  8 C        0.8810    -1.5750    -0.6130 C.3   1 <1>   0.0600 
  9 C        4.8350     1.3030    -1.3130 C.3   1 <1>  -0.0990 
 10 C        4.3580     3.3080     0.1870 C.3   1 <1>  -0.0190 
 11 C        5.4360     2.3310    -0.3340 C.3   1 <1>  -0.1600 
 12 C        4.9700     4.3720     1.0890 C.2   1 <1>   0.5690 
 13 O        5.2460     4.0760     2.2220 O.2   1 <1>  -0.5700 
 14 N        5.1920     5.6090     0.5590 N.am  1 <1>  -0.4940 
 15 C        5.7130     6.7350     1.1600 C.2   1 <1>   0.5420 
 16 O        5.8900     7.7780     0.4230 O.3   1 <1>  -0.2800 
 17 N        6.0670     6.9430     2.3770 N.2   1 <1>  -0.3380 
 18 C        6.3710     8.6850     1.2320 C.2   1 <1>   0.4250 
 19 N        6.4960     8.2010     2.4230 N.2   1 <1>  -0.3380 
 20 C        6.7280    10.0090     0.7760 C.ar  1 <1>   0.0530 
 21 C        6.0620    10.6740    -0.2670 C.ar  1 <1>   0.0820 
 22 C        7.7840    10.6780     1.3990 C.ar  1 <1>  -0.1500 
 23 O        5.0090    10.0480    -0.8550 O.3   1 <1>  -0.3630 
 24 C        6.4720    11.9440    -0.6660 C.ar  1 <1>  -0.1500 
 25 C        8.1830    11.9400     1.0030 C.ar  1 <1>  -0.1500 
 26 C        4.1920    10.6750    -1.8170 C.3   1 <1>   0.1200 
 27 C        7.5270    12.5740    -0.0350 C.ar  1 <1>  -0.1500 
 28 C        3.0750     9.7050    -2.1890 C.3   1 <1>  -0.2400 
 29 H        3.6260     2.1770     1.8800 H     1 <1>   0.0800 
 30 H        2.4160     3.1950     1.1440 H     1 <1>   0.0800 
 31 H        0.0450    -1.4400     0.0500 H     1 <1>   0.0800 
 32 H        1.3900    -2.4900    -0.3670 H     1 <1>   0.0800 
 33 H        0.5300    -1.6240    -1.6280 H     1 <1>   0.0800 
 34 H        4.6410     1.7780    -2.2570 H     1 <1>   0.0800 
 35 H        5.5320     0.5020    -1.4840 H     1 <1>   0.0800 
 36 H        3.9000     3.7990    -0.6520 H     1 <1>   0.0800 
 37 H        6.2270     2.8730    -0.8240 H     1 <1>   0.0800 
 38 H        5.8680     1.8090     0.5040 H     1 <1>   0.0800 
 39 H        4.9610     5.7510    -0.4180 H     1 <1>   0.3700 
 40 H        8.3040    10.1960     2.2090 H     1 <1>   0.1500 
 41 H        5.9830    12.4670    -1.4660 H     1 <1>   0.1500 
 42 H        9.0030    12.4290     1.5010 H     1 <1>   0.1500 
 43 H        4.7950    10.9090    -2.6780 H     1 <1>   0.0800 
 44 H        3.7860    11.5750    -1.3860 H     1 <1>   0.0800 
 45 H        7.8380    13.5560    -0.3470 H     1 <1>   0.1500 
 46 H        3.4910     8.8070    -2.6090 H     1 <1>   0.0800 
 47 H        2.4290    10.1580    -2.9190 H     1 <1>   0.0800 
 48 H        2.4920     9.4620    -1.3190 H     1 <1>   0.0800 
@<TRIPOS>BOND
  1   1   2  2   
  2   2   3  am  
  3   2   4  am  
  4   3   5  1   
  5   3   6  1   
  6   4   7  1   
  7   4   8  1   
  8   5   7  2   
  9   5   9  1   
 10   6  10  1   
 11   6  29  1   
 12   6  30  1   
 13   8  31  1   
 14   8  32  1   
 15   8  33  1   
 16   9  11  1   
 17   9  34  1   
 18   9  35  1   
 19  10  11  1   
 20  10  12  1   
 21  10  36  1   
 22  11  37  1   
 23  11  38  1   
 24  12  13  2   
 25  12  14  am  
 26  14  15  1   
 27  14  39  1   
 28  15  16  1   
 29  15  17  2   
 30  16  18  1   
 31  17  19  1   
 32  18  19  2   
 33  18  20  1   
 34  20  21  ar  
 35  20  22  ar  
 36  21  23  1   
 37  21  24  ar  
 38  22  25  ar  
 39  22  40  1   
 40  23  26  1   
 41  24  27  ar  
 42  24  41  1   
 43  25  27  ar  
 44  25  42  1   
 45  26  28  1   
 46  26  43  1   
 47  26  44  1   
 48  27  45  1   
 49  28  46  1   
 50  28  47  1   
 51  28  48  1   
@<TRIPOS>SUBSTRUCTURE
  1 ****  14 GROUP 4 **** **** 0

# MOE 2024.06 (io_trps.svl 2023.06)
