@<TRIPOS>MOLECULE
NONAME
49 50 1 0 0 
SMALL
USER_CHARGES


@<TRIPOS>ATOM
  1 S        1.4770    -0.6070     1.8400 S.o2  1 <1>   1.4470 
  2 O        2.3200    -1.7820     1.8950 O.2   1 <1>  -0.6500 
  3 O        1.3580     0.2330     3.0140 O.2   1 <1>  -0.6500 
  4 N       -0.0860    -1.0980     1.4020 N.am  1 <1>  -0.8490 
  5 C        2.0070     0.4290     0.4420 C.ar  1 <1>  -0.0090 
  6 C       -0.1120    -1.8420     0.1270 C.3   1 <1>   0.1960 
  7 C       -1.0760    -0.0190     1.4340 C.3   1 <1>   0.1960 
  8 C        1.7420     1.7920     0.4180 C.ar  1 <1>  -0.1500 
  9 C        2.6520    -0.1230    -0.6580 C.ar  1 <1>  -0.1500 
 10 C       -1.4740    -2.5070    -0.1350 C.3   1 <1>  -0.1060 
 11 C       -2.4840    -0.5670     1.2000 C.3   1 <1>  -0.1600 
 12 C        2.0870     2.6110    -0.6560 C.ar  1 <1>   0.0860 
 13 C        3.0100     0.6580    -1.7410 C.ar  1 <1>  -0.1500 
 14 C       -1.4750    -3.0540    -1.5640 C.2   1 <1>   0.9060 
 15 C       -2.5260    -1.3790    -0.0940 C.3   1 <1>   0.2000 
 16 C       -1.7600    -3.6400     0.9030 C.3   1 <1>  -0.1600 
 17 C        1.7730     4.0290    -0.6360 C.2   1 <1>   0.5440 
 18 C        2.7260     2.0100    -1.7400 C.ar  1 <1>  -0.1500 
 19 O       -0.4240    -3.0740    -2.2160 O.co2 1 <1>  -0.9000 
 20 O       -2.5520    -3.4250    -2.0550 O.co2 1 <1>  -0.9000 
 21 O       -3.7950    -1.8980    -0.2490 O.3   1 <1>  -0.6800 
 22 C       -0.7500    -4.8010     0.8820 C.3   1 <1>  -0.1600 
 23 O        0.7900     4.4310    -0.0440 O.2   1 <1>  -0.5700 
 24 N        2.5810     4.9330    -1.2690 N.am  1 <1>  -0.7300 
 25 C       -1.1730    -5.9110     1.8470 C.3   1 <1>  -0.2400 
 26 C        2.3610     6.4020    -1.3180 C.3   1 <1>   0.0600 
 27 H        0.1000    -1.1650    -0.6850 H     1 <1>   0.0800 
 28 H        0.6590    -2.5930     0.1180 H     1 <1>   0.0800 
 29 H       -1.0520     0.4700     2.3940 H     1 <1>   0.0800 
 30 H       -0.8470     0.7110     0.6750 H     1 <1>   0.0800 
 31 H        1.2440     2.2410     1.2620 H     1 <1>   0.1500 
 32 H        2.8680    -1.1800    -0.6710 H     1 <1>   0.1500 
 33 H       -3.1750     0.2510     1.1280 H     1 <1>   0.0800 
 34 H       -2.7690    -1.1790     2.0350 H     1 <1>   0.0800 
 35 H        3.5000     0.2040    -2.5870 H     1 <1>   0.1500 
 36 H       -2.3580    -0.7190    -0.9290 H     1 <1>   0.0800 
 37 H       -1.7800    -3.2270     1.8950 H     1 <1>   0.0800 
 38 H       -2.7370    -4.0450     0.7040 H     1 <1>   0.0800 
 39 H        2.9930     2.6010    -2.5970 H     1 <1>   0.1500 
 40 H       -3.7130    -2.5690    -0.9860 H     1 <1>   0.4000 
 41 H       -0.6820    -5.2080    -0.1140 H     1 <1>   0.0800 
 42 H        0.2250    -4.4490     1.1680 H     1 <1>   0.0800 
 43 H        3.4610     4.6060    -1.6710 H     1 <1>   0.3700 
 44 H       -2.1350    -6.3020     1.5660 H     1 <1>   0.0800 
 45 H       -1.2310    -5.5300     2.8520 H     1 <1>   0.0800 
 46 H       -0.4550    -6.7110     1.8220 H     1 <1>   0.0800 
 47 H        1.4060     6.6560    -0.8880 H     1 <1>   0.0800 
 48 H        2.3790     6.7410    -2.3390 H     1 <1>   0.0800 
 49 H        3.1340     6.9050    -0.7630 H     1 <1>   0.0800 
@<TRIPOS>BOND
  1   1   2  2   
  2   1   3  2   
  3   1   4  am  
  4   1   5  1   
  5   4   6  1   
  6   4   7  1   
  7   5   8  ar  
  8   5   9  ar  
  9   6  10  1   
 10   6  27  1   
 11   6  28  1   
 12   7  11  1   
 13   7  29  1   
 14   7  30  1   
 15   8  12  ar  
 16   8  31  1   
 17   9  13  ar  
 18   9  32  1   
 19  10  14  1   
 20  10  15  1   
 21  10  16  1   
 22  11  15  1   
 23  11  33  1   
 24  11  34  1   
 25  12  17  1   
 26  12  18  ar  
 27  13  18  ar  
 28  13  35  1   
 29  14  19  ar  
 30  14  20  ar  
 31  15  21  1   
 32  15  36  1   
 33  16  22  1   
 34  16  37  1   
 35  16  38  1   
 36  17  23  2   
 37  17  24  am  
 38  18  39  1   
 39  21  40  1   
 40  22  25  1   
 41  22  41  1   
 42  22  42  1   
 43  24  26  1   
 44  24  43  1   
 45  25  44  1   
 46  25  45  1   
 47  25  46  1   
 48  26  47  1   
 49  26  48  1   
 50  26  49  1   
@<TRIPOS>SUBSTRUCTURE
  1 ****   6 GROUP 4 **** **** 0

# MOE 2024.06 (io_trps.svl 2023.06)
