@<TRIPOS>MOLECULE
NONAME
51 54 1 0 0 
SMALL
USER_CHARGES


@<TRIPOS>ATOM
  1 O       -0.3350    -1.4850    -0.7720 O.2   1 <1>  -0.5700 
  2 C       -1.4680    -1.6390    -0.3820 C.2   1 <1>   0.5690 
  3 N       -2.0140    -0.8550     0.5920 N.am  1 <1>  -0.6600 
  4 C       -2.2820    -2.7460    -1.0120 C.3   1 <1>  -0.0190 
  5 C       -3.4380    -0.9970     1.0120 C.3   1 <1>   0.2200 
  6 C       -1.2390     0.2320     1.2560 C.3   1 <1>   0.0600 
  7 C       -2.6610    -3.8030     0.0420 C.3   1 <1>   0.1200 
  8 C       -3.4070    -2.1680    -1.8950 C.3   1 <1>   0.1400 
  9 C       -3.7010    -2.3750     1.6740 C.3   1 <1>   0.1200 
 10 C       -4.3940    -0.6100    -0.1410 C.3   1 <1>   0.1400 
 11 O       -3.7860    -3.4690     0.7960 O.3   1 <1>  -0.5600 
 12 N       -4.6180    -1.6910    -1.1560 N.am  1 <1>  -0.6600 
 13 C       -5.8740    -2.2480    -1.2680 C.2   1 <1>   0.5690 
 14 O       -6.8560    -1.6340    -0.9170 O.2   1 <1>  -0.5700 
 15 C       -6.0740    -3.6440    -1.8550 C.3   1 <1>   0.0440 
 16 C       -7.1630    -4.4540    -1.1580 C.ar  1 <1>  -0.1440 
 17 C       -8.4250    -4.5760    -1.7150 C.ar  1 <1>  -0.1500 
 18 C       -6.8950    -5.0830     0.0480 C.ar  1 <1>  -0.1500 
 19 C       -9.4000    -5.3250    -1.0800 C.ar  1 <1>  -0.1500 
 20 C       -7.8730    -5.8300     0.6790 C.ar  1 <1>  -0.1500 
 21 C       -9.1420    -5.9670     0.1270 C.ar  1 <1>   0.0000 
 22 C      -10.1630    -6.7480     0.7870 C.ar  1 <1>   0.0000 
 23 C      -11.3650    -6.1670     1.1800 C.ar  1 <1>  -0.1500 
 24 C       -9.9750    -8.1020     1.0490 C.ar  1 <1>  -0.1500 
 25 C      -12.3470    -6.9110     1.8110 C.ar  1 <1>  -0.1500 
 26 C      -10.9520    -8.8510     1.6790 C.ar  1 <1>  -0.1500 
 27 C      -12.1410    -8.2560     2.0610 C.ar  1 <1>  -0.1500 
 28 H       -1.6070    -3.2400    -1.6860 H     1 <1>   0.0800 
 29 H       -3.6040    -0.2670     1.7850 H     1 <1>   0.0800 
 30 H       -1.2220     0.0710     2.3200 H     1 <1>   0.0800 
 31 H       -1.6930     1.1850     1.0470 H     1 <1>   0.0800 
 32 H       -0.2230     0.2530     0.8990 H     1 <1>   0.0800 
 33 H       -1.8400    -3.9820     0.7160 H     1 <1>   0.0800 
 34 H       -2.8940    -4.7280    -0.4550 H     1 <1>   0.0800 
 35 H       -3.6890    -2.9060    -2.6220 H     1 <1>   0.0800 
 36 H       -3.0080    -1.3370    -2.4520 H     1 <1>   0.0800 
 37 H       -4.6470    -2.3310     2.1820 H     1 <1>   0.0800 
 38 H       -2.9400    -2.5860     2.4050 H     1 <1>   0.0800 
 39 H       -4.0200     0.2680    -0.6360 H     1 <1>   0.0800 
 40 H       -5.3350    -0.3400     0.3050 H     1 <1>   0.0800 
 41 H       -6.3090    -3.5380    -2.8970 H     1 <1>   0.0800 
 42 H       -5.1660    -4.2060    -1.7730 H     1 <1>   0.0800 
 43 H       -8.6560    -4.0850    -2.6440 H     1 <1>   0.1500 
 44 H       -5.9230    -4.9870     0.5020 H     1 <1>   0.1500 
 45 H      -10.3750    -5.4150    -1.5230 H     1 <1>   0.1500 
 46 H       -7.6550    -6.3090     1.6160 H     1 <1>   0.1500 
 47 H      -11.5250    -5.1200     0.9900 H     1 <1>   0.1500 
 48 H       -9.0530    -8.5670     0.7490 H     1 <1>   0.1500 
 49 H      -13.2690    -6.4430     2.1070 H     1 <1>   0.1500 
 50 H      -10.7880    -9.8970     1.8720 H     1 <1>   0.1500 
 51 H      -12.9030    -8.8370     2.5520 H     1 <1>   0.1500 
@<TRIPOS>BOND
  1   1   2  2   
  2   2   3  am  
  3   2   4  1   
  4   3   5  1   
  5   3   6  1   
  6   4   7  1   
  7   4   8  1   
  8   4  28  1   
  9   5   9  1   
 10   5  10  1   
 11   5  29  1   
 12   6  30  1   
 13   6  31  1   
 14   6  32  1   
 15   7  11  1   
 16   7  33  1   
 17   7  34  1   
 18   8  12  1   
 19   8  35  1   
 20   8  36  1   
 21   9  11  1   
 22   9  37  1   
 23   9  38  1   
 24  10  12  1   
 25  10  39  1   
 26  10  40  1   
 27  12  13  am  
 28  13  14  2   
 29  13  15  1   
 30  15  16  1   
 31  15  41  1   
 32  15  42  1   
 33  16  17  ar  
 34  16  18  ar  
 35  17  19  ar  
 36  17  43  1   
 37  18  20  ar  
 38  18  44  1   
 39  19  21  ar  
 40  19  45  1   
 41  20  21  ar  
 42  20  46  1   
 43  21  22  1   
 44  22  23  ar  
 45  22  24  ar  
 46  23  25  ar  
 47  23  47  1   
 48  24  26  ar  
 49  24  48  1   
 50  25  27  ar  
 51  25  49  1   
 52  26  27  ar  
 53  26  50  1   
 54  27  51  1   
@<TRIPOS>SUBSTRUCTURE
  1 ****  18 GROUP 4 **** **** 0

# MOE 2024.06 (io_trps.svl 2023.06)
