@<TRIPOS>MOLECULE
NONAME
43 44 1 0 0 
SMALL
USER_CHARGES


@<TRIPOS>ATOM
  1 N       -0.3340    -0.4310     0.9440 N.2   1 <1>  -0.7070 
  2 N       -0.1590    -1.4580     0.1080 N.pl3 1 <1>   0.3140 
  3 C       -1.1190    -0.8650     1.8760 C.2   1 <1>   0.1390 
  4 C       -0.8620    -2.5430     0.5170 C.2   1 <1>  -0.3320 
  5 C        0.7150    -1.3020    -1.0680 C.3   1 <1>   0.0160 
  6 C       -1.4870    -2.1870     1.6670 C.2   1 <1>  -0.1500 
  7 C       -0.8620    -3.8470    -0.2420 C.3   1 <1>   0.5230 
  8 N       -2.1850    -4.4900    -0.0250 N.4   1 <1>  -0.9590 
  9 C       -2.1720    -5.9630    -0.3590 C.3   1 <1>   0.3430 
 10 C       -3.2310    -3.6890    -0.7410 C.3   1 <1>   0.3430 
 11 C       -3.0390    -6.8450     0.6000 C.3   1 <1>   0.4230 
 12 C       -4.6190    -4.3370    -0.7290 C.3   1 <1>  -0.1600 
 13 N       -2.7860    -8.3290     0.4870 N.4   1 <1>  -0.9590 
 14 C       -4.5510    -6.6090     0.4540 C.3   1 <1>  -0.1600 
 15 C       -4.9960    -5.1380     0.5310 C.3   1 <1>  -0.1600 
 16 C       -1.4840    -8.7550     1.1030 C.3   1 <1>   0.2630 
 17 C       -2.9220    -8.9120    -0.8950 C.3   1 <1>   0.2630 
 18 H       -1.4380    -0.2580     2.7090 H     1 <1>   0.1500 
 19 H        1.1450    -0.3150    -1.0530 H     1 <1>   0.0800 
 20 H        0.1390    -1.4180    -1.9660 H     1 <1>   0.0800 
 21 H        1.5070    -2.0260    -1.0290 H     1 <1>   0.0800 
 22 H       -2.1310    -2.7330     2.3330 H     1 <1>   0.1500 
 23 H       -0.0650    -4.4710     0.1300 H     1 <1>   0.0800 
 24 H       -0.7030    -3.6710    -1.2940 H     1 <1>   0.0800 
 25 H       -2.3590    -4.3480     0.9780 H     1 <1>   0.4500 
 26 H       -1.1580    -6.3190    -0.2930 H     1 <1>   0.0800 
 27 H       -2.5080    -6.1010    -1.3730 H     1 <1>   0.0800 
 28 H       -2.9360    -3.5240    -1.7650 H     1 <1>   0.0800 
 29 H       -3.3040    -2.7190    -0.2720 H     1 <1>   0.0800 
 30 H       -2.7750    -6.5560     1.6040 H     1 <1>   0.0800 
 31 H       -4.7370    -4.9470    -1.6080 H     1 <1>   0.0800 
 32 H       -5.3300    -3.5350    -0.8400 H     1 <1>   0.0800 
 33 H       -3.5230    -8.7830     1.0550 H     1 <1>   0.4500 
 34 H       -5.0510    -7.1350     1.2500 H     1 <1>   0.0800 
 35 H       -4.9100    -7.0170    -0.4750 H     1 <1>   0.0800 
 36 H       -6.0730    -5.1350     0.6020 H     1 <1>   0.0800 
 37 H       -4.6320    -4.6580     1.4240 H     1 <1>   0.0800 
 38 H       -0.6490    -8.3570     0.5510 H     1 <1>   0.0800 
 39 H       -1.4070    -9.8320     1.1030 H     1 <1>   0.0800 
 40 H       -1.4200    -8.4160     2.1250 H     1 <1>   0.0800 
 41 H       -2.1680    -8.5150    -1.5550 H     1 <1>   0.0800 
 42 H       -3.8940    -8.6960    -1.3070 H     1 <1>   0.0800 
 43 H       -2.8070    -9.9840    -0.8590 H     1 <1>   0.0800 
@<TRIPOS>BOND
  1   1   2  1   
  2   1   3  2   
  3   2   4  1   
  4   2   5  1   
  5   3   6  1   
  6   3  18  1   
  7   4   6  2   
  8   4   7  1   
  9   5  19  1   
 10   5  20  1   
 11   5  21  1   
 12   6  22  1   
 13   7   8  1   
 14   7  23  1   
 15   7  24  1   
 16   8   9  1   
 17   8  10  1   
 18   8  25  1   
 19   9  11  1   
 20   9  26  1   
 21   9  27  1   
 22  10  12  1   
 23  10  28  1   
 24  10  29  1   
 25  11  13  1   
 26  11  14  1   
 27  11  30  1   
 28  12  15  1   
 29  12  31  1   
 30  12  32  1   
 31  13  16  1   
 32  13  17  1   
 33  13  33  1   
 34  14  15  1   
 35  14  34  1   
 36  14  35  1   
 37  15  36  1   
 38  15  37  1   
 39  16  38  1   
 40  16  39  1   
 41  16  40  1   
 42  17  41  1   
 43  17  42  1   
 44  17  43  1   
@<TRIPOS>SUBSTRUCTURE
  1 ****   8 GROUP 4 **** **** 0

# MOE 2024.06 (io_trps.svl 2023.06)
