@<TRIPOS>MOLECULE
NONAME
52 55 1 0 0 
SMALL
USER_CHARGES


@<TRIPOS>ATOM
  1 O       -1.3810     0.0910    -0.3090 O.3   1 <1>  -0.3630 
  2 C       -2.3260     1.0490    -0.5130 C.ar  1 <1>   0.0830 
  3 C       -0.0590     0.4620     0.0410 C.3   1 <1>   0.1200 
  4 C       -3.4810     0.6840    -1.1990 C.ar  1 <1>  -0.1440 
  5 C       -2.1800     2.3600    -0.0650 C.ar  1 <1>  -0.1500 
  6 C        0.8480    -0.7620    -0.0780 C.3   1 <1>   0.0960 
  7 C       -4.4690     1.6260    -1.4430 C.ar  1 <1>  -0.1500 
  8 C       -3.6580    -0.7430    -1.6730 C.3   1 <1>   0.4870 
  9 C       -3.1730     3.2910    -0.3090 C.ar  1 <1>  -0.1500 
 10 N        2.2220    -0.3900     0.2960 N.pl3 1 <1>   0.0480 
 11 C       -4.3150     2.9270    -0.9980 C.ar  1 <1>  -0.1500 
 12 N       -3.7990    -1.6030    -0.4720 N.4   1 <1>  -0.9590 
 13 C        2.8240    -0.5380     1.4980 C.2   1 <1>   0.0360 
 14 C        3.1490     0.2010    -0.4800 C.2   1 <1>  -0.3020 
 15 C       -3.5960    -3.0460    -0.8160 C.3   1 <1>   0.3430 
 16 C       -5.0860    -1.3550     0.2380 C.3   1 <1>   0.3430 
 17 N        4.0360    -0.0910     1.5360 N.2   1 <1>  -0.5650 
 18 C        4.2450     0.3740     0.2910 C.2   1 <1>   0.0770 
 19 C       -3.6590    -3.9550     0.4250 C.3   1 <1>   0.1000 
 20 C       -5.1490    -2.2100     1.5070 C.3   1 <1>  -0.1600 
 21 C       -3.5460    -5.4030    -0.0260 C.2   1 <1>   0.0060 
 22 C       -4.9610    -3.7070     1.2070 C.3   1 <1>  -0.1600 
 23 N       -3.4130    -5.7460    -1.2670 N.2   1 <1>  -0.5650 
 24 N       -3.5630    -6.4580     0.8230 N.pl3 1 <1>   0.0330 
 25 C       -3.3440    -7.0910    -1.2290 C.2   1 <1>   0.0770 
 26 C       -3.4330    -7.5410     0.0390 C.2   1 <1>  -0.3020 
 27 H       -0.0660     0.8300     1.0530 H     1 <1>   0.0800 
 28 H        0.2700     1.2330    -0.6360 H     1 <1>   0.0800 
 29 H       -1.3100     2.6810     0.4770 H     1 <1>   0.1500 
 30 H        0.8550    -1.1220    -1.0910 H     1 <1>   0.0800 
 31 H        0.5110    -1.5410     0.5800 H     1 <1>   0.0800 
 32 H       -5.3660     1.3660    -1.9810 H     1 <1>   0.1500 
 33 H       -2.7860    -1.0340    -2.2360 H     1 <1>   0.0800 
 34 H       -4.5260    -0.8300    -2.3060 H     1 <1>   0.0800 
 35 H       -3.0570     4.3060     0.0370 H     1 <1>   0.1500 
 36 H       -5.0810     3.6600    -1.1890 H     1 <1>   0.1500 
 37 H       -3.0320    -1.2920     0.1430 H     1 <1>   0.4500 
 38 H        2.3260    -0.9880     2.3390 H     1 <1>   0.1500 
 39 H        2.9920     0.4610    -1.5100 H     1 <1>   0.1500 
 40 H       -2.6430    -3.1860    -1.2990 H     1 <1>   0.0800 
 41 H       -4.3610    -3.3650    -1.5060 H     1 <1>   0.0800 
 42 H       -5.9120    -1.6090    -0.4060 H     1 <1>   0.0800 
 43 H       -5.1690    -0.3120     0.5020 H     1 <1>   0.0800 
 44 H        5.1880     0.8140     0.0120 H     1 <1>   0.1500 
 45 H       -2.8130    -3.7340     1.0510 H     1 <1>   0.0800 
 46 H       -6.1060    -2.0610     1.9770 H     1 <1>   0.0800 
 47 H       -4.3970    -1.8730     2.2000 H     1 <1>   0.0800 
 48 H       -4.9480    -4.2600     2.1310 H     1 <1>   0.0800 
 49 H       -5.7960    -4.0620     0.6250 H     1 <1>   0.0800 
 50 H       -3.6580    -6.4470     1.8440 H     1 <1>   0.2700 
 51 H       -3.2310    -7.6740    -2.1300 H     1 <1>   0.1500 
 52 H       -3.4120    -8.5500     0.4140 H     1 <1>   0.1500 
@<TRIPOS>BOND
  1   1   2  1   
  2   1   3  1   
  3   2   4  ar  
  4   2   5  ar  
  5   3   6  1   
  6   3  27  1   
  7   3  28  1   
  8   4   7  ar  
  9   4   8  1   
 10   5   9  ar  
 11   5  29  1   
 12   6  10  1   
 13   6  30  1   
 14   6  31  1   
 15   7  11  ar  
 16   7  32  1   
 17   8  12  1   
 18   8  33  1   
 19   8  34  1   
 20   9  11  ar  
 21   9  35  1   
 22  10  13  1   
 23  10  14  1   
 24  11  36  1   
 25  12  15  1   
 26  12  16  1   
 27  12  37  1   
 28  13  17  2   
 29  13  38  1   
 30  14  18  2   
 31  14  39  1   
 32  15  19  1   
 33  15  40  1   
 34  15  41  1   
 35  16  20  1   
 36  16  42  1   
 37  16  43  1   
 38  17  18  1   
 39  18  44  1   
 40  19  21  1   
 41  19  22  1   
 42  19  45  1   
 43  20  22  1   
 44  20  46  1   
 45  20  47  1   
 46  21  23  2   
 47  21  24  1   
 48  22  48  1   
 49  22  49  1   
 50  23  25  1   
 51  24  26  1   
 52  24  50  1   
 53  25  26  2   
 54  25  51  1   
 55  26  52  1   
@<TRIPOS>SUBSTRUCTURE
  1 ****   1 GROUP 4 **** **** 0

# MOE 2024.06 (io_trps.svl 2023.06)
