@<TRIPOS>MOLECULE
NONAME
51 53 1 0 0 
SMALL
USER_CHARGES


@<TRIPOS>ATOM
  1 O        0.0460     0.2980     0.8160 O.2   1 <1>  -0.5700 
  2 C        1.0770    -0.2760     0.5630 C.2   1 <1>   0.5690 
  3 N        2.2800     0.3010     0.7720 N.am  1 <1>  -0.7300 
  4 C        1.0270    -1.6770    -0.0090 C.3   1 <1>  -0.0990 
  5 C        2.4660     1.6890     1.2820 C.3   1 <1>   0.3200 
  6 C       -0.2730    -2.4140     0.3390 C.3   1 <1>   0.2000 
  7 C        3.7990     2.2760     0.8400 C.2   1 <1>   0.2980 
  8 O       -0.1140    -3.7390    -0.0820 O.3   1 <1>  -0.5600 
  9 C       -1.5310    -1.8040    -0.3350 C.3   1 <1>   0.3430 
 10 O        4.8960     1.6470     1.1830 O.3   1 <1>  -0.0190 
 11 N        3.9670     3.3350     0.1530 N.2   1 <1>  -0.5650 
 12 C       -1.1840    -4.5920     0.2120 C.3   1 <1>   0.1200 
 13 N       -2.7520    -2.6580    -0.1350 N.4   1 <1>  -0.9590 
 14 N        5.8450     2.3680     0.6720 N.2   1 <1>  -0.4100 
 15 C        5.2950     3.3590     0.0850 C.2   1 <1>   0.3350 
 16 C       -2.4700    -4.0960    -0.4750 C.3   1 <1>   0.3430 
 17 C       -3.9250    -2.1260    -0.8800 C.3   1 <1>   0.4860 
 18 C        6.0480     4.4620    -0.6540 C.3   1 <1>   0.3010 
 19 C       -5.1450    -2.9390    -0.4960 C.ar  1 <1>  -0.1440 
 20 O        6.1420     5.6220     0.1280 O.3   1 <1>  -0.5600 
 21 C       -5.6620    -3.8810    -1.3750 C.ar  1 <1>  -0.1500 
 22 C       -5.7510    -2.7530     0.7390 C.ar  1 <1>  -0.1500 
 23 C        6.8060     6.6750    -0.4910 C.3   1 <1>   0.0400 
 24 C       -6.7630    -4.6380    -1.0160 C.ar  1 <1>  -0.1500 
 25 C       -6.8520    -3.5120     1.0950 C.ar  1 <1>  -0.1500 
 26 C       -7.3570    -4.4550     0.2190 C.ar  1 <1>  -0.1500 
 27 H        3.1490    -0.1930     0.5490 H     1 <1>   0.3700 
 28 H        1.8550    -2.2340     0.3900 H     1 <1>   0.0800 
 29 H        1.1390    -1.6160    -1.0760 H     1 <1>   0.0800 
 30 H        2.4300     1.6800     2.3560 H     1 <1>   0.0800 
 31 H        1.6690     2.3180     0.9230 H     1 <1>   0.0800 
 32 H       -0.3960    -2.4160     1.4100 H     1 <1>   0.0800 
 33 H       -1.3280    -1.6980    -1.3880 H     1 <1>   0.0800 
 34 H       -1.7120    -0.8200     0.0630 H     1 <1>   0.0800 
 35 H       -1.3080    -4.6430     1.2800 H     1 <1>   0.0800 
 36 H       -0.9290    -5.5740    -0.1490 H     1 <1>   0.0800 
 37 H       -3.0060    -2.6300     0.8600 H     1 <1>   0.4500 
 38 H       -3.2990    -4.7160    -0.1720 H     1 <1>   0.0800 
 39 H       -2.3490    -4.2030    -1.5400 H     1 <1>   0.0800 
 40 H       -3.7560    -2.1940    -1.9420 H     1 <1>   0.0800 
 41 H       -4.0900    -1.0920    -0.6250 H     1 <1>   0.0800 
 42 H        5.5270     4.7010    -1.5640 H     1 <1>   0.0800 
 43 H        7.0430     4.1240    -0.8820 H     1 <1>   0.0800 
 44 H       -5.2220    -4.0370    -2.3460 H     1 <1>   0.1500 
 45 H       -5.3840    -2.0180     1.4350 H     1 <1>   0.1500 
 46 H        6.8220     7.5060     0.1920 H     1 <1>   0.0800 
 47 H        6.2760     6.9540    -1.3860 H     1 <1>   0.0800 
 48 H        7.8140     6.3770    -0.7210 H     1 <1>   0.0800 
 49 H       -7.1650    -5.3690    -1.6980 H     1 <1>   0.1500 
 50 H       -7.3230    -3.3680     2.0540 H     1 <1>   0.1500 
 51 H       -8.2150    -5.0440     0.4970 H     1 <1>   0.1500 
@<TRIPOS>BOND
  1   1   2  2   
  2   2   3  am  
  3   2   4  1   
  4   3   5  1   
  5   3  27  1   
  6   4   6  1   
  7   4  28  1   
  8   4  29  1   
  9   5   7  1   
 10   5  30  1   
 11   5  31  1   
 12   6   8  1   
 13   6   9  1   
 14   6  32  1   
 15   7  10  1   
 16   7  11  2   
 17   8  12  1   
 18   9  13  1   
 19   9  33  1   
 20   9  34  1   
 21  10  14  1   
 22  11  15  1   
 23  12  16  1   
 24  12  35  1   
 25  12  36  1   
 26  13  16  1   
 27  13  17  1   
 28  13  37  1   
 29  14  15  2   
 30  15  18  1   
 31  16  38  1   
 32  16  39  1   
 33  17  19  1   
 34  17  40  1   
 35  17  41  1   
 36  18  20  1   
 37  18  42  1   
 38  18  43  1   
 39  19  21  ar  
 40  19  22  ar  
 41  20  23  1   
 42  21  24  ar  
 43  21  44  1   
 44  22  25  ar  
 45  22  45  1   
 46  23  46  1   
 47  23  47  1   
 48  23  48  1   
 49  24  26  ar  
 50  24  49  1   
 51  25  26  ar  
 52  25  50  1   
 53  26  51  1   
@<TRIPOS>SUBSTRUCTURE
  1 ****   1 GROUP 4 **** **** 0

# MOE 2024.06 (io_trps.svl 2023.06)
