@<TRIPOS>MOLECULE
NONAME
56 58 1 0 0 
SMALL
USER_CHARGES


@<TRIPOS>ATOM
  1 O        0.1330    -3.9500     1.5420 O.co2 1 <1>  -0.9000 
  2 C        1.0570    -4.6150     1.0590 C.2   1 <1>   1.0330 
  3 O        1.0810    -5.8260     1.3630 O.co2 1 <1>  -0.9000 
  4 C        1.8350    -4.1330    -0.0350 C.2   1 <1>  -0.2330 
  5 C        2.1460    -4.9420    -1.1230 C.2   1 <1>   0.3720 
  6 C        2.3700    -2.9290    -0.3780 C.2   1 <1>   0.0870 
  7 N        2.7410    -4.2910    -2.0510 N.2   1 <1>  -0.4100 
  8 N        1.8360    -6.2930    -1.1990 N.pl3 1 <1>  -0.8520 
  9 O        2.8820    -3.0790    -1.5800 O.3   1 <1>  -0.0190 
 10 C        2.4800    -1.6460     0.2720 C.ar  1 <1>   0.0530 
 11 C        0.6960    -6.6290    -2.0900 C.3   1 <1>   0.2090 
 12 C        1.4670    -1.1070     1.0650 C.ar  1 <1>  -0.1500 
 13 C        3.6360    -0.8790     0.1130 C.ar  1 <1>  -0.1500 
 14 C       -0.6950    -6.1630    -1.5690 C.3   1 <1>   0.4230 
 15 C        1.5980     0.1250     1.6790 C.ar  1 <1>  -0.1500 
 16 C        3.7760     0.3550     0.7200 C.ar  1 <1>  -0.1500 
 17 N       -0.9930    -6.6690    -0.1850 N.4   1 <1>  -0.9590 
 18 C       -1.7680    -6.5740    -2.6060 C.3   1 <1>  -0.1600 
 19 C        2.7620     0.8690     1.5100 C.ar  1 <1>   0.0830 
 20 C       -1.1450    -8.1520    -0.0020 C.3   1 <1>   0.3430 
 21 C       -1.9920    -5.8510     0.5860 C.3   1 <1>   0.3430 
 22 C       -3.1950    -6.0590    -2.3640 C.3   1 <1>  -0.2400 
 23 O        2.9730     2.0820     2.0740 O.3   1 <1>  -0.3630 
 24 C       -2.4780    -8.5490     0.6700 C.3   1 <1>   0.1100 
 25 C       -2.2150    -6.4470     1.9890 C.3   1 <1>   0.1100 
 26 C        2.0130     2.6730     2.9200 C.3   1 <1>   0.0400 
 27 N       -2.6970    -7.8580     1.9600 N.3   1 <1>  -0.8100 
 28 C       -4.0790    -7.9960     2.4310 C.3   1 <1>   0.0300 
 29 H        1.6840    -6.6100    -0.2200 H     1 <1>   0.4000 
 30 H        0.6860    -7.6930    -2.2440 H     1 <1>   0.0800 
 31 H        0.8770    -6.1720    -3.0480 H     1 <1>   0.0800 
 32 H        0.5550    -1.6570     1.2030 H     1 <1>   0.1500 
 33 H        4.4370    -1.2610    -0.4940 H     1 <1>   0.1500 
 34 H       -0.6660    -5.0860    -1.5320 H     1 <1>   0.0800 
 35 H        0.7870     0.4840     2.2820 H     1 <1>   0.1500 
 36 H        4.6740     0.9300     0.5860 H     1 <1>   0.1500 
 37 H       -0.1350    -6.4490     0.3790 H     1 <1>   0.4500 
 38 H       -1.7880    -7.6440    -2.7170 H     1 <1>   0.0800 
 39 H       -1.4550    -6.1760    -3.5560 H     1 <1>   0.0800 
 40 H       -0.3430    -8.5050     0.6250 H     1 <1>   0.0800 
 41 H       -1.0630    -8.6530    -0.9500 H     1 <1>   0.0800 
 42 H       -2.9370    -5.8240     0.0810 H     1 <1>   0.0800 
 43 H       -1.6420    -4.8380     0.6830 H     1 <1>   0.0800 
 44 H       -3.6760    -6.6010    -1.5720 H     1 <1>   0.0800 
 45 H       -3.7850    -6.1990    -3.2540 H     1 <1>   0.0800 
 46 H       -3.1890    -5.0080    -2.1310 H     1 <1>   0.0800 
 47 H       -2.4820    -9.6110     0.8420 H     1 <1>   0.0800 
 48 H       -3.2850    -8.3240    -0.0050 H     1 <1>   0.0800 
 49 H       -2.9030    -5.8230     2.5330 H     1 <1>   0.0800 
 50 H       -1.2770    -6.4100     2.5190 H     1 <1>   0.0800 
 51 H        2.3990     3.6180     3.2560 H     1 <1>   0.0800 
 52 H        1.8450     2.0250     3.7630 H     1 <1>   0.0800 
 53 H        1.1040     2.8250     2.3650 H     1 <1>   0.0800 
 54 H       -4.3530    -9.0360     2.4690 H     1 <1>   0.0800 
 55 H       -4.7570    -7.4750     1.7770 H     1 <1>   0.0800 
 56 H       -4.1670    -7.5890     3.4250 H     1 <1>   0.0800 
@<TRIPOS>BOND
  1   1   2  ar  
  2   2   3  ar  
  3   2   4  1   
  4   4   5  1   
  5   4   6  2   
  6   5   7  2   
  7   5   8  1   
  8   6   9  1   
  9   6  10  1   
 10   7   9  1   
 11   8  11  1   
 12   8  29  1   
 13  10  12  ar  
 14  10  13  ar  
 15  11  14  1   
 16  11  30  1   
 17  11  31  1   
 18  12  15  ar  
 19  12  32  1   
 20  13  16  ar  
 21  13  33  1   
 22  14  17  1   
 23  14  18  1   
 24  14  34  1   
 25  15  19  ar  
 26  15  35  1   
 27  16  19  ar  
 28  16  36  1   
 29  17  20  1   
 30  17  21  1   
 31  17  37  1   
 32  18  22  1   
 33  18  38  1   
 34  18  39  1   
 35  19  23  1   
 36  20  24  1   
 37  20  40  1   
 38  20  41  1   
 39  21  25  1   
 40  21  42  1   
 41  21  43  1   
 42  22  44  1   
 43  22  45  1   
 44  22  46  1   
 45  23  26  1   
 46  24  27  1   
 47  24  47  1   
 48  24  48  1   
 49  25  27  1   
 50  25  49  1   
 51  25  50  1   
 52  26  51  1   
 53  26  52  1   
 54  26  53  1   
 55  27  28  1   
 56  28  54  1   
 57  28  55  1   
 58  28  56  1   
@<TRIPOS>SUBSTRUCTURE
  1 ****   2 GROUP 4 **** **** 0

# MOE 2024.06 (io_trps.svl 2023.06)
