@<TRIPOS>MOLECULE
NONAME
46 47 1 0 0 
SMALL
USER_CHARGES


@<TRIPOS>ATOM
  1 F       -0.7960     1.7330    -2.3130 F     1 <1>  -0.1900 
  2 C       -1.3800     2.1740    -1.2280 C.ar  1 <1>   0.1900 
  3 C       -2.0050     1.2710    -0.3820 C.ar  1 <1>  -0.1440 
  4 C       -1.3400     3.5310    -0.9770 C.ar  1 <1>  -0.1500 
  5 C       -2.6090     1.7730     0.7590 C.ar  1 <1>  -0.1500 
  6 C       -2.0310    -0.2190    -0.6910 C.3   1 <1>  -0.0960 
  7 C       -1.9500     4.0310     0.1680 C.ar  1 <1>   0.1170 
  8 C       -2.5790     3.1330     1.0270 C.ar  1 <1>  -0.1500 
  9 N       -1.9470     5.3930     0.5070 N.am  1 <1>  -0.5470 
 10 C       -1.7560     6.5110    -0.2620 C.2   1 <1>   0.5690 
 11 O       -1.5720     6.4800    -1.4550 O.2   1 <1>  -0.5700 
 12 C       -1.7900     7.8820     0.4280 C.3   1 <1>   0.1710 
 13 N       -0.5050     8.3500     1.0170 N.3   1 <1>  -0.8100 
 14 C        0.5690     8.3900    -0.0040 C.3   1 <1>   0.2900 
 15 C       -0.0860     7.5630     2.1880 C.3   1 <1>   0.0300 
 16 C        1.7740     9.1850     0.4800 C.2   1 <1>   0.0070 
 17 N        2.9750     8.7160     0.5230 N.2   1 <1>  -0.3380 
 18 N        1.7290    10.4520     0.9110 N.pl3 1 <1>   0.0480 
 19 N        3.7600     9.6850     0.9950 N.2   1 <1>  -0.3380 
 20 C        3.0030    10.7010     1.2180 C.2   1 <1>   0.0360 
 21 C        0.5880    11.3830     1.0270 C.3   1 <1>   0.0960 
 22 C        0.2230    11.9400    -0.3460 C.3   1 <1>   0.1200 
 23 O       -0.8030    12.8610    -0.1760 O.3   1 <1>  -0.5600 
 24 C       -1.2440    13.4440    -1.3600 C.3   1 <1>   0.0400 
 25 H       -0.8340     4.1760    -1.6690 H     1 <1>   0.1500 
 26 H       -3.1070     1.1080     1.4440 H     1 <1>   0.1500 
 27 H       -2.5190    -0.3880    -1.6340 H     1 <1>   0.0800 
 28 H       -2.5600    -0.7630     0.0710 H     1 <1>   0.0800 
 29 H       -1.0270    -0.5980    -0.7490 H     1 <1>   0.0800 
 30 H       -3.0580     3.4960     1.9180 H     1 <1>   0.1500 
 31 H       -2.1250     5.5810     1.4910 H     1 <1>   0.3700 
 32 H       -2.5420     7.8670     1.1960 H     1 <1>   0.0800 
 33 H       -2.1090     8.6040    -0.3030 H     1 <1>   0.0800 
 34 H        0.1980     8.8460    -0.9050 H     1 <1>   0.0800 
 35 H        0.8830     7.3890    -0.2500 H     1 <1>   0.0800 
 36 H       -0.8750     7.5390     2.9200 H     1 <1>   0.0800 
 37 H        0.7790     8.0140     2.6450 H     1 <1>   0.0800 
 38 H        0.1690     6.5560     1.9020 H     1 <1>   0.0800 
 39 H        3.3420    11.6430     1.6060 H     1 <1>   0.1500 
 40 H        0.8640    12.1900     1.6810 H     1 <1>   0.0800 
 41 H       -0.2520    10.8650     1.4490 H     1 <1>   0.0800 
 42 H       -0.1260    11.1550    -0.9940 H     1 <1>   0.0800 
 43 H        1.0670    12.4450    -0.7860 H     1 <1>   0.0800 
 44 H       -2.0310    14.1370    -1.1190 H     1 <1>   0.0800 
 45 H       -1.6230    12.6790    -2.0150 H     1 <1>   0.0800 
 46 H       -0.4280    13.9720    -1.8230 H     1 <1>   0.0800 
@<TRIPOS>BOND
  1   1   2  1   
  2   2   3  ar  
  3   2   4  ar  
  4   3   5  ar  
  5   3   6  1   
  6   4   7  ar  
  7   4  25  1   
  8   5   8  ar  
  9   5  26  1   
 10   6  27  1   
 11   6  28  1   
 12   6  29  1   
 13   7   8  ar  
 14   7   9  1   
 15   8  30  1   
 16   9  10  am  
 17   9  31  1   
 18  10  11  2   
 19  10  12  1   
 20  12  13  1   
 21  12  32  1   
 22  12  33  1   
 23  13  14  1   
 24  13  15  1   
 25  14  16  1   
 26  14  34  1   
 27  14  35  1   
 28  15  36  1   
 29  15  37  1   
 30  15  38  1   
 31  16  17  2   
 32  16  18  1   
 33  17  19  1   
 34  18  20  1   
 35  18  21  1   
 36  19  20  2   
 37  20  39  1   
 38  21  22  1   
 39  21  40  1   
 40  21  41  1   
 41  22  23  1   
 42  22  42  1   
 43  22  43  1   
 44  23  24  1   
 45  24  44  1   
 46  24  45  1   
 47  24  46  1   
@<TRIPOS>SUBSTRUCTURE
  1 ****  10 GROUP 4 **** **** 0

# MOE 2024.06 (io_trps.svl 2023.06)
