@<TRIPOS>MOLECULE
NONAME
41 43 1 0 0 
SMALL
USER_CHARGES


@<TRIPOS>ATOM
  1 O        0.1340    -0.1560     0.7910 O.2   1 <1>  -0.5700 
  2 C        1.1030    -0.6670     0.2620 C.2   1 <1>   0.5440 
  3 N        2.0470     0.1130    -0.3530 N.am  1 <1>  -0.4930 
  4 C        1.2580    -2.1090     0.2720 C.ar  1 <1>   0.0860 
  5 C        2.1300     1.5240    -0.4690 C.2   1 <1>   0.0630 
  6 C        0.1360    -2.9400     0.1790 C.ar  1 <1>  -0.1500 
  7 C        2.5230    -2.7150     0.3730 C.ar  1 <1>  -0.1500 
  8 C        1.1390     2.4540    -0.7990 C.2   1 <1>   0.1080 
  9 C        3.2520     2.2600    -0.3070 C.2   1 <1>  -0.3320 
 10 C        0.3080    -4.3080     0.1710 C.ar  1 <1>   0.0830 
 11 C        2.6800    -4.0940     0.3640 C.ar  1 <1>  -0.1500 
 12 N        1.5990     3.6660    -0.8390 N.2   1 <1>  -0.7070 
 13 C       -0.3120     2.1550    -1.1020 C.3   1 <1>  -0.0590 
 14 N        2.9010     3.5530    -0.5280 N.pl3 1 <1>   0.3140 
 15 C        4.6580     1.8080     0.0610 C.3   1 <1>  -0.0600 
 16 O       -0.6250    -5.2620     0.0830 O.3   1 <1>  -0.3630 
 17 C        1.5460    -4.8730     0.2590 C.ar  1 <1>   0.0830 
 18 C        3.7650     4.7500    -0.4530 C.3   1 <1>   0.0960 
 19 C        0.0610    -6.5120     0.1240 C.3   1 <1>   0.4000 
 20 O        1.4490    -6.2020     0.2300 O.3   1 <1>  -0.3630 
 21 C        3.7850     5.3230     0.9710 C.3   1 <1>  -0.1600 
 22 C        4.6910     6.5560     1.0650 C.3   1 <1>  -0.2400 
 23 H        2.8300    -0.3780    -0.7760 H     1 <1>   0.3700 
 24 H       -0.8520    -2.5200     0.1150 H     1 <1>   0.1500 
 25 H        3.3990    -2.1000     0.4730 H     1 <1>   0.1500 
 26 H        3.6480    -4.5580     0.4410 H     1 <1>   0.1500 
 27 H       -0.4040     1.1950    -1.5730 H     1 <1>   0.0800 
 28 H       -0.7110     2.9060    -1.7580 H     1 <1>   0.0800 
 29 H       -0.8740     2.1540    -0.1870 H     1 <1>   0.0800 
 30 H        4.6820     0.7480     0.2340 H     1 <1>   0.0800 
 31 H        4.9810     2.3020     0.9600 H     1 <1>   0.0800 
 32 H        5.3430     2.0410    -0.7340 H     1 <1>   0.0800 
 33 H        3.3760     5.4820    -1.1370 H     1 <1>   0.0800 
 34 H        4.7550     4.4820    -0.7670 H     1 <1>   0.0800 
 35 H       -0.1210    -7.0550    -0.7860 H     1 <1>   0.0800 
 36 H       -0.2520    -7.0680     0.9900 H     1 <1>   0.0800 
 37 H        4.1340     4.5730     1.6590 H     1 <1>   0.0800 
 38 H        2.7820     5.5980     1.2510 H     1 <1>   0.0800 
 39 H        5.7040     6.3030     0.8060 H     1 <1>   0.0800 
 40 H        4.6820     6.9410     2.0700 H     1 <1>   0.0800 
 41 H        4.3440     7.3290     0.4020 H     1 <1>   0.0800 
@<TRIPOS>BOND
  1   1   2  2   
  2   2   3  am  
  3   2   4  1   
  4   3   5  1   
  5   3  23  1   
  6   4   6  ar  
  7   4   7  ar  
  8   5   8  1   
  9   5   9  2   
 10   6  10  ar  
 11   6  24  1   
 12   7  11  ar  
 13   7  25  1   
 14   8  12  2   
 15   8  13  1   
 16   9  14  1   
 17   9  15  1   
 18  10  16  1   
 19  10  17  ar  
 20  11  17  ar  
 21  11  26  1   
 22  12  14  1   
 23  13  27  1   
 24  13  28  1   
 25  13  29  1   
 26  14  18  1   
 27  15  30  1   
 28  15  31  1   
 29  15  32  1   
 30  16  19  1   
 31  17  20  1   
 32  18  21  1   
 33  18  33  1   
 34  18  34  1   
 35  19  20  1   
 36  19  35  1   
 37  19  36  1   
 38  21  22  1   
 39  21  37  1   
 40  21  38  1   
 41  22  39  1   
 42  22  40  1   
 43  22  41  1   
@<TRIPOS>SUBSTRUCTURE
  1 ****   3 GROUP 4 **** **** 0

# MOE 2024.06 (io_trps.svl 2023.06)
