@<TRIPOS>MOLECULE
NONAME
40 41 1 0 0 
SMALL
USER_CHARGES


@<TRIPOS>ATOM
  1 S        0.0240    -0.3520     0.6940 S.3   1 <1>  -0.0800 
  2 C       -0.5340    -1.7560    -0.1700 C.2   1 <1>   0.4620 
  3 C        1.2030    -0.1350    -0.5540 C.2   1 <1>   0.1980 
  4 N        0.1460    -1.9480    -1.2490 N.2   1 <1>  -0.3380 
  5 N       -1.5870    -2.5050     0.3240 N.pl3 1 <1>  -0.8220 
  6 N        1.1310    -1.0220    -1.4600 N.2   1 <1>  -0.3380 
  7 C        2.1550     1.0420    -0.4470 C.3   1 <1>   0.0200 
  8 C       -2.0950    -3.7080    -0.4130 C.3   1 <1>   0.2090 
  9 C       -2.3670    -2.1940     1.5570 C.3   1 <1>   0.2090 
 10 C        3.1850     0.8460     0.6720 C.3   1 <1>  -0.2400 
 11 C       -3.5800    -3.5220    -0.7730 C.3   1 <1>   0.2000 
 12 C       -3.8380    -1.9800     1.1750 C.3   1 <1>  -0.1600 
 13 O       -4.0390    -4.6620    -1.4170 O.3   1 <1>  -0.6800 
 14 C       -4.4500    -3.2310     0.4810 C.3   1 <1>  -0.1060 
 15 C       -4.4060    -4.4450     1.4380 C.2   1 <1>   0.9060 
 16 C       -5.9420    -2.9700     0.1200 C.3   1 <1>  -0.1600 
 17 O       -4.3710    -5.5930     0.9670 O.co2 1 <1>  -0.9000 
 18 O       -4.4190    -4.2610     2.6620 O.co2 1 <1>  -0.9000 
 19 C       -6.2200    -1.8410    -0.8910 C.3   1 <1>  -0.1600 
 20 C       -7.7230    -1.6950    -1.1400 C.3   1 <1>  -0.2400 
 21 H        2.6680     1.1520    -1.3860 H     1 <1>   0.0800 
 22 H        1.5880     1.9380    -0.2720 H     1 <1>   0.0800 
 23 H       -1.5320    -3.8610    -1.3170 H     1 <1>   0.0800 
 24 H       -1.9770    -4.5760     0.2130 H     1 <1>   0.0800 
 25 H       -2.2750    -3.0130     2.2510 H     1 <1>   0.0800 
 26 H       -1.9980    -1.3130     2.0470 H     1 <1>   0.0800 
 27 H        3.7500    -0.0540     0.4990 H     1 <1>   0.0800 
 28 H        2.6950     0.7670     1.6270 H     1 <1>   0.0800 
 29 H        3.8630     1.6790     0.7000 H     1 <1>   0.0800 
 30 H       -3.6460    -2.7140    -1.4780 H     1 <1>   0.0800 
 31 H       -4.3950    -1.7570     2.0690 H     1 <1>   0.0800 
 32 H       -3.8890    -1.1210     0.5340 H     1 <1>   0.0800 
 33 H       -4.2310    -5.3130    -0.6750 H     1 <1>   0.4000 
 34 H       -6.3540    -3.8850    -0.2730 H     1 <1>   0.0800 
 35 H       -6.4730    -2.7610     1.0330 H     1 <1>   0.0800 
 36 H       -5.8390    -0.9050    -0.5230 H     1 <1>   0.0800 
 37 H       -5.7360    -2.0620    -1.8260 H     1 <1>   0.0800 
 38 H       -8.2330    -1.4580    -0.2240 H     1 <1>   0.0800 
 39 H       -8.1250    -2.6130    -1.5330 H     1 <1>   0.0800 
 40 H       -7.9040    -0.9090    -1.8510 H     1 <1>   0.0800 
@<TRIPOS>BOND
  1   1   2  1   
  2   1   3  1   
  3   2   4  2   
  4   2   5  1   
  5   3   6  2   
  6   3   7  1   
  7   4   6  1   
  8   5   8  1   
  9   5   9  1   
 10   7  10  1   
 11   7  21  1   
 12   7  22  1   
 13   8  11  1   
 14   8  23  1   
 15   8  24  1   
 16   9  12  1   
 17   9  25  1   
 18   9  26  1   
 19  10  27  1   
 20  10  28  1   
 21  10  29  1   
 22  11  13  1   
 23  11  14  1   
 24  11  30  1   
 25  12  14  1   
 26  12  31  1   
 27  12  32  1   
 28  13  33  1   
 29  14  15  1   
 30  14  16  1   
 31  15  17  ar  
 32  15  18  ar  
 33  16  19  1   
 34  16  34  1   
 35  16  35  1   
 36  19  20  1   
 37  19  36  1   
 38  19  37  1   
 39  20  38  1   
 40  20  39  1   
 41  20  40  1   
@<TRIPOS>SUBSTRUCTURE
  1 ****   5 GROUP 4 **** **** 0

# MOE 2024.06 (io_trps.svl 2023.06)
