@<TRIPOS>MOLECULE
NONAME
49 51 1 0 0 
SMALL
USER_CHARGES


@<TRIPOS>ATOM
  1 CL      -0.3990    -0.9650    -1.5500 Cl    1 <1>  -0.1230 
  2 C       -1.9150    -1.7100    -1.0750 C.2   1 <1>   0.1230 
  3 C       -2.0960    -3.0440    -0.7450 C.2   1 <1>   0.1390 
  4 C       -3.1170    -1.1200    -0.9560 C.2   1 <1>  -0.3020 
  5 N       -3.3400    -3.2840    -0.4360 N.2   1 <1>  -0.7070 
  6 N       -3.9680    -2.0920    -0.5680 N.pl3 1 <1>   0.3140 
  7 C       -5.4090    -1.9390    -0.3050 C.3   1 <1>   0.0960 
  8 C       -6.0130    -3.3140     0.0170 C.3   1 <1>   0.3430 
  9 N       -7.4800    -3.2690     0.3430 N.4   1 <1>  -0.9590 
 10 C       -7.8920    -4.6010     0.9230 C.3   1 <1>   0.3430 
 11 C       -8.3080    -2.9400    -0.8600 C.3   1 <1>   0.3430 
 12 C       -9.2840    -4.6050     1.5980 C.3   1 <1>   0.1400 
 13 C       -9.4790    -2.0270    -0.4890 C.3   1 <1>  -0.1600 
 14 N      -10.3440    -4.0070     0.7270 N.am  1 <1>  -0.6600 
 15 C      -10.3400    -2.5200     0.6780 C.3   1 <1>   0.1400 
 16 C      -11.2780    -4.7110     0.0080 C.2   1 <1>   0.5690 
 17 O      -11.9930    -4.1580    -0.7910 O.2   1 <1>  -0.5700 
 18 C      -11.4160    -6.2130     0.1750 C.3   1 <1>  -0.0990 
 19 C      -12.4470    -6.8240    -0.7890 C.3   1 <1>   0.0960 
 20 N      -12.5450    -8.2840    -0.5900 N.pl3 1 <1>   0.3140 
 21 N      -11.4960    -9.0760    -0.6450 N.2   1 <1>  -0.4180 
 22 C      -13.6000    -9.0380    -0.3200 C.2   1 <1>   0.0060 
 23 N      -11.9250   -10.2630    -0.4120 N.2   1 <1>   0.0000 
 24 N      -13.2370   -10.2570    -0.2060 N.2   1 <1>  -0.3380 
 25 C      -15.0290    -8.5490    -0.1640 C.3   1 <1>  -0.0600 
 26 H       -1.3120    -3.7820    -0.7440 H     1 <1>   0.1500 
 27 H       -3.3920    -0.0950    -1.1240 H     1 <1>   0.1500 
 28 H       -5.8620    -1.5140    -1.1800 H     1 <1>   0.0800 
 29 H       -5.5260    -1.2730     0.5300 H     1 <1>   0.0800 
 30 H       -5.4740    -3.7200     0.8580 H     1 <1>   0.0800 
 31 H       -5.8480    -3.9710    -0.8230 H     1 <1>   0.0800 
 32 H       -7.6480    -2.5470     1.0560 H     1 <1>   0.4500 
 33 H       -7.1680    -4.9100     1.6590 H     1 <1>   0.0800 
 34 H       -7.8890    -5.3450     0.1440 H     1 <1>   0.0800 
 35 H       -8.6940    -3.8480    -1.2960 H     1 <1>   0.0800 
 36 H       -7.7110    -2.4470    -1.6090 H     1 <1>   0.0800 
 37 H       -9.2330    -4.0560     2.5230 H     1 <1>   0.0800 
 38 H       -9.5370    -5.6170     1.8590 H     1 <1>   0.0800 
 39 H      -10.1160    -1.9520    -1.3540 H     1 <1>   0.0800 
 40 H       -9.1270    -1.0330    -0.2830 H     1 <1>   0.0800 
 41 H      -11.3480    -2.1530     0.5630 H     1 <1>   0.0800 
 42 H       -9.9660    -2.1280     1.6090 H     1 <1>   0.0800 
 43 H      -11.7170    -6.4160     1.1870 H     1 <1>   0.0800 
 44 H      -10.4600    -6.6650    -0.0090 H     1 <1>   0.0800 
 45 H      -12.1540    -6.6430    -1.8080 H     1 <1>   0.0800 
 46 H      -13.4120    -6.3780    -0.6290 H     1 <1>   0.0800 
 47 H      -15.0970    -7.8500     0.6490 H     1 <1>   0.0800 
 48 H      -15.6770    -9.3820     0.0460 H     1 <1>   0.0800 
 49 H      -15.3610    -8.0780    -1.0720 H     1 <1>   0.0800 
@<TRIPOS>BOND
  1   1   2  1   
  2   2   3  1   
  3   2   4  2   
  4   3   5  2   
  5   3  26  1   
  6   4   6  1   
  7   4  27  1   
  8   5   6  1   
  9   6   7  1   
 10   7   8  1   
 11   7  28  1   
 12   7  29  1   
 13   8   9  1   
 14   8  30  1   
 15   8  31  1   
 16   9  10  1   
 17   9  11  1   
 18   9  32  1   
 19  10  12  1   
 20  10  33  1   
 21  10  34  1   
 22  11  13  1   
 23  11  35  1   
 24  11  36  1   
 25  12  14  1   
 26  12  37  1   
 27  12  38  1   
 28  13  15  1   
 29  13  39  1   
 30  13  40  1   
 31  14  15  1   
 32  14  16  am  
 33  15  41  1   
 34  15  42  1   
 35  16  17  2   
 36  16  18  1   
 37  18  19  1   
 38  18  43  1   
 39  18  44  1   
 40  19  20  1   
 41  19  45  1   
 42  19  46  1   
 43  20  21  1   
 44  20  22  1   
 45  21  23  2   
 46  22  24  2   
 47  22  25  1   
 48  23  24  1   
 49  25  47  1   
 50  25  48  1   
 51  25  49  1   
@<TRIPOS>SUBSTRUCTURE
  1 ****  10 GROUP 4 **** **** 0

# MOE 2024.06 (io_trps.svl 2023.06)
