@<TRIPOS>MOLECULE
NONAME
56 59 1 0 0 
SMALL
USER_CHARGES


@<TRIPOS>ATOM
  1 O       -0.0430     3.7590     0.8970 O.2   1 <1>  -0.5700 
  2 C       -0.5060     2.9800     0.0920 C.2   1 <1>   0.5690 
  3 N       -0.4530     1.6270     0.2960 N.am  1 <1>  -0.6600 
  4 C       -1.1540     3.5850    -1.1540 C.3   1 <1>  -0.0190 
  5 C       -1.1990     0.5830    -0.4820 C.3   1 <1>   0.1400 
  6 C        0.3230     1.0400     1.4380 C.3   1 <1>   0.1400 
  7 C       -0.3070     4.7750    -1.6390 C.3   1 <1>   0.3430 
  8 C       -2.6240     3.9850    -0.8660 C.3   1 <1>  -0.1600 
  9 C       -1.9730    -0.3600     0.4570 C.3   1 <1>   0.1200 
 10 C       -0.5460     0.0780     2.2630 C.3   1 <1>   0.1200 
 11 N       -0.5490     5.9430    -0.7510 N.4   1 <1>  -0.9590 
 12 C       -2.9420     5.4220    -1.3170 C.3   1 <1>  -0.1600 
 13 O       -1.1240    -0.8860     1.4330 O.3   1 <1>  -0.5600 
 14 C       -1.9550     6.4550    -0.7500 C.3   1 <1>   0.3430 
 15 C        0.4420     7.0160    -0.9300 C.3   1 <1>   0.5230 
 16 C        0.5210     7.7390     0.3910 C.2   1 <1>  -0.3320 
 17 N        1.2430     7.3500     1.4740 N.pl3 1 <1>   0.0480 
 18 C       -0.0920     8.8950     0.7300 C.2   1 <1>   0.0770 
 19 C        0.9910     8.3050     2.3970 C.2   1 <1>   0.0360 
 20 C        2.1650     6.2000     1.6940 C.3   1 <1>   0.2390 
 21 N        0.1960     9.2390     1.9920 N.2   1 <1>  -0.5650 
 22 C        2.9530     5.8490     0.4380 C.ar  1 <1>  -0.1440 
 23 C        3.6710     6.8260    -0.2400 C.ar  1 <1>  -0.1500 
 24 C        2.9580     4.5480    -0.0450 C.ar  1 <1>  -0.1500 
 25 C        4.3550     6.5110    -1.4010 C.ar  1 <1>  -0.1500 
 26 C        3.6440     4.2330    -1.2050 C.ar  1 <1>  -0.1500 
 27 C        4.3380     5.2160    -1.8860 C.ar  1 <1>  -0.1500 
 28 H       -1.1270     2.8640    -1.9490 H     1 <1>   0.0800 
 29 H       -0.4990     0.0010    -1.0570 H     1 <1>   0.0800 
 30 H       -1.9030     1.0280    -1.1600 H     1 <1>   0.0800 
 31 H        0.6990     1.8120     2.0860 H     1 <1>   0.0800 
 32 H        1.1670     0.4970     1.0490 H     1 <1>   0.0800 
 33 H       -0.5760     5.0270    -2.6510 H     1 <1>   0.0800 
 34 H        0.7370     4.5020    -1.6180 H     1 <1>   0.0800 
 35 H       -2.8180     3.9150     0.1920 H     1 <1>   0.0800 
 36 H       -3.2920     3.2960    -1.3550 H     1 <1>   0.0800 
 37 H       -2.3820    -1.1850    -0.0990 H     1 <1>   0.0800 
 38 H       -2.7780     0.1610     0.9450 H     1 <1>   0.0800 
 39 H       -1.3290     0.6120     2.7740 H     1 <1>   0.0800 
 40 H        0.0550    -0.4350     2.9920 H     1 <1>   0.0800 
 41 H       -0.3730     5.5710     0.2010 H     1 <1>   0.4500 
 42 H       -3.9380     5.6870    -1.0080 H     1 <1>   0.0800 
 43 H       -2.9250     5.4760    -2.3920 H     1 <1>   0.0800 
 44 H       -2.0220     7.3580    -1.3340 H     1 <1>   0.0800 
 45 H       -2.2330     6.7000     0.2640 H     1 <1>   0.0800 
 46 H        0.1260     7.6900    -1.7100 H     1 <1>   0.0800 
 47 H        1.4020     6.6100    -1.1990 H     1 <1>   0.0800 
 48 H       -0.7390     9.5160     0.1320 H     1 <1>   0.1500 
 49 H        1.4260     8.2800     3.3830 H     1 <1>   0.1500 
 50 H        1.5860     5.3580     2.0260 H     1 <1>   0.0800 
 51 H        2.8550     6.4570     2.4780 H     1 <1>   0.0800 
 52 H        3.7010     7.8380     0.1290 H     1 <1>   0.1500 
 53 H        2.4390     3.7660     0.4820 H     1 <1>   0.1500 
 54 H        4.9100     7.2730    -1.9230 H     1 <1>   0.1500 
 55 H        3.6490     3.2210    -1.5730 H     1 <1>   0.1500 
 56 H        4.8770     4.9720    -2.7860 H     1 <1>   0.1500 
@<TRIPOS>BOND
  1   1   2  2   
  2   2   3  am  
  3   2   4  1   
  4   3   5  1   
  5   3   6  1   
  6   4   7  1   
  7   4   8  1   
  8   4  28  1   
  9   5   9  1   
 10   5  29  1   
 11   5  30  1   
 12   6  10  1   
 13   6  31  1   
 14   6  32  1   
 15   7  11  1   
 16   7  33  1   
 17   7  34  1   
 18   8  12  1   
 19   8  35  1   
 20   8  36  1   
 21   9  13  1   
 22   9  37  1   
 23   9  38  1   
 24  10  13  1   
 25  10  39  1   
 26  10  40  1   
 27  11  14  1   
 28  11  15  1   
 29  11  41  1   
 30  12  14  1   
 31  12  42  1   
 32  12  43  1   
 33  14  44  1   
 34  14  45  1   
 35  15  16  1   
 36  15  46  1   
 37  15  47  1   
 38  16  17  1   
 39  16  18  2   
 40  17  19  1   
 41  17  20  1   
 42  18  21  1   
 43  18  48  1   
 44  19  21  2   
 45  19  49  1   
 46  20  22  1   
 47  20  50  1   
 48  20  51  1   
 49  22  23  ar  
 50  22  24  ar  
 51  23  25  ar  
 52  23  52  1   
 53  24  26  ar  
 54  24  53  1   
 55  25  27  ar  
 56  25  54  1   
 57  26  27  ar  
 58  26  55  1   
 59  27  56  1   
@<TRIPOS>SUBSTRUCTURE
  1 ****   1 GROUP 4 **** **** 0

# MOE 2024.06 (io_trps.svl 2023.06)
