@<TRIPOS>MOLECULE
NONAME
45 48 1 0 0 
SMALL
USER_CHARGES


@<TRIPOS>ATOM
  1 S       -0.3130    -0.3920     0.9990 S.o2  1 <1>   1.3330 
  2 O        0.3020    -1.6750     1.2610 O.2   1 <1>  -0.6500 
  3 O       -0.6800     0.4580     2.1090 O.2   1 <1>  -0.6500 
  4 N       -1.7130    -0.7030     0.0940 N.am  1 <1>  -0.8490 
  5 C        0.7100     0.5670    -0.1290 C.3   1 <1>  -0.0550 
  6 C       -1.5140    -1.7890    -0.8760 C.3   1 <1>   0.1960 
  7 C       -2.8640    -0.9310     0.9770 C.3   1 <1>   0.1960 
  8 C        2.0640     1.0040     0.4580 C.3   1 <1>  -0.2400 
  9 C       -2.7690    -2.0250    -1.7110 C.3   1 <1>  -0.1600 
 10 C       -4.1480    -1.1360     0.1760 C.3   1 <1>  -0.1600 
 11 C       -4.0090    -2.2590    -0.8510 C.3   1 <1>   0.4600 
 12 O       -5.0930    -2.1700    -1.7460 O.3   1 <1>  -0.5600 
 13 C       -4.0120    -3.6480    -0.2000 C.2   1 <1>  -0.3320 
 14 C       -6.3280    -2.7120    -1.3490 C.3   1 <1>   0.1200 
 15 N       -3.0560    -4.1930     0.6170 N.pl3 1 <1>   0.0330 
 16 C       -5.0090    -4.5430    -0.3560 C.2   1 <1>  -0.1810 
 17 C       -6.2290    -4.2360    -1.1880 C.3   1 <1>   0.0210 
 18 C       -3.4600    -5.4560     0.9700 C.ar  1 <1>  -0.1520 
 19 C       -4.6890    -5.7090     0.3690 C.ar  1 <1>   0.0000 
 20 C       -2.8450    -6.4160     1.7780 C.ar  1 <1>  -0.1500 
 21 C       -5.3170    -6.9420     0.5720 C.ar  1 <1>  -0.1500 
 22 C       -3.4740    -7.6240     1.9700 C.ar  1 <1>  -0.1500 
 23 C       -4.7110    -7.8870     1.3670 C.ar  1 <1>  -0.1500 
 24 H        0.1650     1.4450    -0.4210 H     1 <1>   0.0800 
 25 H        0.8950    -0.0090    -1.0140 H     1 <1>   0.0800 
 26 H       -1.2340    -2.6960    -0.3700 H     1 <1>   0.0800 
 27 H       -0.7080    -1.5330    -1.5410 H     1 <1>   0.0800 
 28 H       -3.0050    -0.0730     1.6130 H     1 <1>   0.0800 
 29 H       -2.6770    -1.7780     1.6150 H     1 <1>   0.0800 
 30 H        1.9080     1.6130     1.3320 H     1 <1>   0.0800 
 31 H        2.6180     1.5730    -0.2670 H     1 <1>   0.0800 
 32 H        2.6420     0.1400     0.7390 H     1 <1>   0.0800 
 33 H       -2.6190    -2.8760    -2.3500 H     1 <1>   0.0800 
 34 H       -2.9270    -1.1620    -2.3310 H     1 <1>   0.0800 
 35 H       -4.3820    -0.2160    -0.3300 H     1 <1>   0.0800 
 36 H       -4.9460    -1.3640     0.8580 H     1 <1>   0.0800 
 37 H       -7.0530    -2.4640    -2.1040 H     1 <1>   0.0800 
 38 H       -6.6220    -2.2530    -0.4220 H     1 <1>   0.0800 
 39 H       -2.1830    -3.7540     0.9300 H     1 <1>   0.2700 
 40 H       -6.1390    -4.7030    -2.1520 H     1 <1>   0.0800 
 41 H       -7.1130    -4.6080    -0.7040 H     1 <1>   0.0800 
 42 H       -1.8950    -6.2050     2.2360 H     1 <1>   0.1500 
 43 H       -6.2640    -7.1300     0.1020 H     1 <1>   0.1500 
 44 H       -3.0220    -8.3810     2.5870 H     1 <1>   0.1500 
 45 H       -5.1820    -8.8400     1.5330 H     1 <1>   0.1500 
@<TRIPOS>BOND
  1   1   2  2   
  2   1   3  2   
  3   1   4  am  
  4   1   5  1   
  5   4   6  1   
  6   4   7  1   
  7   5   8  1   
  8   5  24  1   
  9   5  25  1   
 10   6   9  1   
 11   6  26  1   
 12   6  27  1   
 13   7  10  1   
 14   7  28  1   
 15   7  29  1   
 16   8  30  1   
 17   8  31  1   
 18   8  32  1   
 19   9  11  1   
 20   9  33  1   
 21   9  34  1   
 22  10  11  1   
 23  10  35  1   
 24  10  36  1   
 25  11  12  1   
 26  11  13  1   
 27  12  14  1   
 28  13  15  1   
 29  13  16  2   
 30  14  17  1   
 31  14  37  1   
 32  14  38  1   
 33  15  18  1   
 34  15  39  1   
 35  16  17  1   
 36  16  19  1   
 37  17  40  1   
 38  17  41  1   
 39  18  19  ar  
 40  18  20  ar  
 41  19  21  ar  
 42  20  22  ar  
 43  20  42  1   
 44  21  23  ar  
 45  21  43  1   
 46  22  23  ar  
 47  22  44  1   
 48  23  45  1   
@<TRIPOS>SUBSTRUCTURE
  1 ****  15 GROUP 4 **** **** 0

# MOE 2024.06 (io_trps.svl 2023.06)
