@<TRIPOS>MOLECULE
NONAME
46 48 1 0 0 
SMALL
USER_CHARGES


@<TRIPOS>ATOM
  1 O       -2.0180     0.5730    -1.7890 O.2   1 <1>  -0.5700 
  2 C       -1.7990     0.5670    -0.5930 C.2   1 <1>   0.5440 
  3 N       -1.8400    -0.6330     0.0570 N.am  1 <1>  -0.7300 
  4 C       -1.5060     1.7970     0.1240 C.ar  1 <1>   0.0860 
  5 C       -2.0770    -1.9490    -0.5840 C.3   1 <1>   0.2200 
  6 C       -1.0000     2.9110    -0.5440 C.ar  1 <1>  -0.1500 
  7 C       -1.7160     1.9220     1.5000 C.ar  1 <1>  -0.1500 
  8 C       -3.4920    -2.4460    -0.3200 C.3   1 <1>  -0.0800 
  9 C       -1.2700    -3.0050     0.1590 C.3   1 <1>   0.1200 
 10 C       -0.7040     4.0910     0.1150 C.ar  1 <1>   0.0820 
 11 C       -1.4250     3.0950     2.1730 C.ar  1 <1>  -0.1500 
 12 C       -3.3750    -3.1080     1.0580 C.3   1 <1>   0.1200 
 13 C       -4.6070    -1.3890    -0.4250 C.3   1 <1>  -0.0160 
 14 O       -2.0090    -3.2800     1.3100 O.3   1 <1>  -0.5600 
 15 O       -0.2130     5.1050    -0.6400 O.3   1 <1>  -0.3630 
 16 C       -0.9170     4.1820     1.4860 C.ar  1 <1>  -0.1500 
 17 C       -5.9760    -2.0260    -0.2420 C.ar  1 <1>  -0.1430 
 18 C        0.1030     6.3570    -0.0780 C.3   1 <1>   0.1200 
 19 C       -6.6180    -2.6730    -1.2780 C.ar  1 <1>  -0.1500 
 20 C       -6.6460    -1.9940     0.9640 C.ar  1 <1>  -0.1500 
 21 C        0.6130     7.2600    -1.1960 C.3   1 <1>  -0.2400 
 22 C       -7.8610    -3.2450    -1.0640 C.ar  1 <1>   0.1600 
 23 C       -7.8880    -2.5980     1.0740 C.ar  1 <1>   0.1600 
 24 N       -8.5100    -3.2260     0.0890 N.ar  1 <1>  -0.6200 
 25 H       -1.6260    -0.6940     1.0530 H     1 <1>   0.3700 
 26 H       -1.8360    -1.9130    -1.6330 H     1 <1>   0.0800 
 27 H       -0.8330     2.8570    -1.6060 H     1 <1>   0.1500 
 28 H       -2.1190     1.0950     2.0560 H     1 <1>   0.1500 
 29 H       -3.7020    -3.2240    -1.0330 H     1 <1>   0.0800 
 30 H       -0.2850    -2.6670     0.4270 H     1 <1>   0.0800 
 31 H       -1.2050    -3.9110    -0.4180 H     1 <1>   0.0800 
 32 H       -1.5940     3.1640     3.2340 H     1 <1>   0.1500 
 33 H       -3.8600    -4.0690     1.0800 H     1 <1>   0.0800 
 34 H       -3.7720    -2.4810     1.8360 H     1 <1>   0.0800 
 35 H       -4.5600    -0.9160    -1.3920 H     1 <1>   0.0800 
 36 H       -4.4700    -0.6200     0.3140 H     1 <1>   0.0800 
 37 H       -0.6970     5.0810     2.0290 H     1 <1>   0.1500 
 38 H       -0.7880     6.7660     0.3650 H     1 <1>   0.0800 
 39 H        0.8630     6.2120     0.6710 H     1 <1>   0.0800 
 40 H       -6.1630    -2.7360    -2.2500 H     1 <1>   0.1500 
 41 H       -6.2180    -1.5050     1.8190 H     1 <1>   0.1500 
 42 H       -0.1470     7.3820    -1.9470 H     1 <1>   0.0800 
 43 H        1.4930     6.8320    -1.6430 H     1 <1>   0.0800 
 44 H        0.8640     8.2270    -0.7990 H     1 <1>   0.0800 
 45 H       -8.3460    -3.7460    -1.8840 H     1 <1>   0.1500 
 46 H       -8.3960    -2.5630     2.0220 H     1 <1>   0.1500 
@<TRIPOS>BOND
  1   1   2  2   
  2   2   3  am  
  3   2   4  1   
  4   3   5  1   
  5   3  25  1   
  6   4   6  ar  
  7   4   7  ar  
  8   5   8  1   
  9   5   9  1   
 10   5  26  1   
 11   6  10  ar  
 12   6  27  1   
 13   7  11  ar  
 14   7  28  1   
 15   8  12  1   
 16   8  13  1   
 17   8  29  1   
 18   9  14  1   
 19   9  30  1   
 20   9  31  1   
 21  10  15  1   
 22  10  16  ar  
 23  11  16  ar  
 24  11  32  1   
 25  12  14  1   
 26  12  33  1   
 27  12  34  1   
 28  13  17  1   
 29  13  35  1   
 30  13  36  1   
 31  15  18  1   
 32  16  37  1   
 33  17  19  ar  
 34  17  20  ar  
 35  18  21  1   
 36  18  38  1   
 37  18  39  1   
 38  19  22  ar  
 39  19  40  1   
 40  20  23  ar  
 41  20  41  1   
 42  21  42  1   
 43  21  43  1   
 44  21  44  1   
 45  22  24  ar  
 46  22  45  1   
 47  23  24  ar  
 48  23  46  1   
@<TRIPOS>SUBSTRUCTURE
  1 ****   2 GROUP 4 **** **** 0

# MOE 2024.06 (io_trps.svl 2023.06)
