@<TRIPOS>MOLECULE
NONAME
47 50 1 0 0 
SMALL
USER_CHARGES


@<TRIPOS>ATOM
  1 F       -2.0080     1.2790    -0.9270 F     1 <1>  -0.3400 
  2 C       -2.3130     2.3180    -1.6890 C.3   1 <1>   1.1640 
  3 F       -1.5480     2.2030    -2.7700 F     1 <1>  -0.3400 
  4 F       -3.5560     2.1290    -2.1130 F     1 <1>  -0.3400 
  5 C       -2.1380     3.6730    -0.9830 C.ar  1 <1>  -0.1440 
  6 C       -2.7020     3.8890     0.2830 C.ar  1 <1>   0.0860 
  7 C       -1.4180     4.6980    -1.5930 C.ar  1 <1>  -0.1500 
  8 C       -3.5010     2.9020     0.9820 C.2   1 <1>   0.5440 
  9 C       -2.4910     5.1200     0.9020 C.ar  1 <1>  -0.1500 
 10 C       -1.2380     5.9170    -0.9650 C.ar  1 <1>  -0.1500 
 11 O       -2.9900     2.2610     1.8770 O.2   1 <1>  -0.5700 
 12 N       -4.8260     2.6960     0.6670 N.am  1 <1>  -0.6600 
 13 C       -1.7720     6.1270     0.2900 C.ar  1 <1>  -0.1500 
 14 C       -5.6180     3.5600    -0.2650 C.3   1 <1>   0.1400 
 15 C       -5.6220     1.5900     1.2690 C.3   1 <1>   0.1400 
 16 C       -6.8040     4.2080     0.4740 C.3   1 <1>   0.1440 
 17 C       -6.8200     2.1690     2.0310 C.3   1 <1>  -0.1600 
 18 C       -7.6600     5.0100    -0.4890 C.ar  1 <1>   0.1670 
 19 C       -7.6610     3.1190     1.1570 C.3   1 <1>  -0.1600 
 20 C       -6.3410     5.2960     1.4810 C.3   1 <1>  -0.1600 
 21 N       -8.0880     4.5900    -1.6600 N.ar  1 <1>  -0.6200 
 22 C       -7.9460     6.2490     0.0020 C.ar  1 <1>  -0.1430 
 23 C       -7.3320     6.4670     1.3620 C.3   1 <1>  -0.0170 
 24 C       -8.8230     5.4720    -2.3220 C.ar  1 <1>   0.4770 
 25 C       -8.7150     7.0830    -0.7700 C.ar  1 <1>   0.1600 
 26 N       -9.1620     6.6990    -1.9480 N.ar  1 <1>  -0.6200 
 27 C       -9.3370     5.0340    -3.6720 C.3   1 <1>  -0.0970 
 28 H       -0.9820     4.5640    -2.5700 H     1 <1>   0.1500 
 29 H       -2.8990     5.2810     1.8860 H     1 <1>   0.1500 
 30 H       -0.6780     6.6980    -1.4500 H     1 <1>   0.1500 
 31 H       -1.6250     7.0710     0.7880 H     1 <1>   0.1500 
 32 H       -5.9950     2.9460    -1.0650 H     1 <1>   0.0800 
 33 H       -5.0070     4.3260    -0.7060 H     1 <1>   0.0800 
 34 H       -5.0160     1.0010     1.9370 H     1 <1>   0.0800 
 35 H       -5.9670     0.9430     0.4810 H     1 <1>   0.0800 
 36 H       -6.4540     2.6830     2.9010 H     1 <1>   0.0800 
 37 H       -7.4380     1.3590     2.3760 H     1 <1>   0.0800 
 38 H       -8.1450     2.5380     0.3900 H     1 <1>   0.0800 
 39 H       -8.4340     3.5750     1.7490 H     1 <1>   0.0800 
 40 H       -5.3700     5.6550     1.1930 H     1 <1>   0.0800 
 41 H       -6.2760     4.9340     2.4910 H     1 <1>   0.0800 
 42 H       -6.8330     7.4180     1.4290 H     1 <1>   0.0800 
 43 H       -8.0950     6.3980     2.1180 H     1 <1>   0.0800 
 44 H       -8.9680     8.0700    -0.4250 H     1 <1>   0.1500 
 45 H       -9.2020     3.9760    -3.8010 H     1 <1>   0.0800 
 46 H       -8.8000     5.5550    -4.4420 H     1 <1>   0.0800 
 47 H      -10.3820     5.2660    -3.7520 H     1 <1>   0.0800 
@<TRIPOS>BOND
  1   1   2  1   
  2   2   3  1   
  3   2   4  1   
  4   2   5  1   
  5   5   6  ar  
  6   5   7  ar  
  7   6   8  1   
  8   6   9  ar  
  9   7  10  ar  
 10   7  28  1   
 11   8  11  2   
 12   8  12  am  
 13   9  13  ar  
 14   9  29  1   
 15  10  13  ar  
 16  10  30  1   
 17  12  14  1   
 18  12  15  1   
 19  13  31  1   
 20  14  16  1   
 21  14  32  1   
 22  14  33  1   
 23  15  17  1   
 24  15  34  1   
 25  15  35  1   
 26  16  18  1   
 27  16  19  1   
 28  16  20  1   
 29  17  19  1   
 30  17  36  1   
 31  17  37  1   
 32  18  21  ar  
 33  18  22  ar  
 34  19  38  1   
 35  19  39  1   
 36  20  23  1   
 37  20  40  1   
 38  20  41  1   
 39  21  24  ar  
 40  22  23  1   
 41  22  25  ar  
 42  23  42  1   
 43  23  43  1   
 44  24  26  ar  
 45  24  27  1   
 46  25  26  ar  
 47  25  44  1   
 48  27  45  1   
 49  27  46  1   
 50  27  47  1   
@<TRIPOS>SUBSTRUCTURE
  1 ****  14 GROUP 4 **** **** 0

# MOE 2024.06 (io_trps.svl 2023.06)
