@<TRIPOS>MOLECULE
NONAME
47 49 1 0 0 
SMALL
USER_CHARGES


@<TRIPOS>ATOM
  1 O        0.5660     0.0940    -1.5010 O.3   1 <1>  -0.5600 
  2 C        1.8380     0.6710    -1.5920 C.3   1 <1>   0.1200 
  3 C        0.5460    -1.2870    -1.2600 C.3   1 <1>   0.1200 
  4 C        2.6500     0.4130    -0.3020 C.3   1 <1>   0.4230 
  5 C        1.2950    -1.6230     0.0530 C.3   1 <1>   0.4230 
  6 N        2.6860    -1.0610     0.0340 N.4   1 <1>  -0.9590 
  7 C        4.0760     1.0130    -0.3990 C.3   1 <1>   0.1100 
  8 C        1.3240    -3.1290     0.3590 C.3   1 <1>  -0.1600 
  9 C        3.6750    -1.7840    -0.8380 C.3   1 <1>   0.3430 
 10 N        5.1260     0.0720     0.0780 N.3   1 <1>  -0.8100 
 11 C       -0.0590    -3.6770     0.7430 C.3   1 <1>  -0.1600 
 12 C        5.0950    -1.1750    -0.7210 C.3   1 <1>   0.1100 
 13 C        6.4640     0.6890     0.0420 C.3   1 <1>   0.2900 
 14 C        0.0270    -5.1570     1.1220 C.3   1 <1>  -0.2400 
 15 C        6.4840     1.8800     0.9740 C.2   1 <1>  -0.3320 
 16 N        6.3080     1.7630     2.3030 N.pl3 1 <1>   0.0330 
 17 C        6.6510     3.2010     0.7310 C.2   1 <1>   0.0460 
 18 C        6.3710     3.0210     2.7810 C.2   1 <1>   0.0360 
 19 N        6.5720     3.9120     1.8680 N.2   1 <1>  -0.5650 
 20 C        6.8970     3.9230    -0.5750 C.3   1 <1>  -0.0590 
 21 H        2.3360     0.2700    -2.4570 H     1 <1>   0.0800 
 22 H        1.7030     1.7290    -1.7370 H     1 <1>   0.0800 
 23 H       -0.4860    -1.5800    -1.1860 H     1 <1>   0.0800 
 24 H        0.9840    -1.7930    -2.1030 H     1 <1>   0.0800 
 25 H        2.1410     0.9330     0.4930 H     1 <1>   0.0800 
 26 H        0.7520    -1.1440     0.8520 H     1 <1>   0.0800 
 27 H        3.0910    -1.0940     0.9780 H     1 <1>   0.4500 
 28 H        4.0900     1.9150     0.1890 H     1 <1>   0.0800 
 29 H        4.2890     1.2990    -1.4160 H     1 <1>   0.0800 
 30 H        1.6840    -3.6770    -0.4940 H     1 <1>   0.0800 
 31 H        1.9900    -3.3040     1.1870 H     1 <1>   0.0800 
 32 H        3.7250    -2.8240    -0.5610 H     1 <1>   0.0800 
 33 H        3.3570    -1.7370    -1.8660 H     1 <1>   0.0800 
 34 H       -0.4550    -3.1270     1.5810 H     1 <1>   0.0800 
 35 H       -0.7490    -3.5750    -0.0780 H     1 <1>   0.0800 
 36 H        5.4730    -0.9880    -1.7130 H     1 <1>   0.0800 
 37 H        5.7460    -1.9010    -0.2630 H     1 <1>   0.0800 
 38 H        7.2050    -0.0230     0.3660 H     1 <1>   0.0800 
 39 H        6.7070     0.9950    -0.9610 H     1 <1>   0.0800 
 40 H        0.6800    -5.3000     1.9660 H     1 <1>   0.0800 
 41 H        0.3940    -5.7430     0.2970 H     1 <1>   0.0800 
 42 H       -0.9490    -5.5260     1.3880 H     1 <1>   0.0800 
 43 H        6.1540     0.9030     2.8350 H     1 <1>   0.2700 
 44 H        6.2620     3.2440     3.8290 H     1 <1>   0.1500 
 45 H        6.9310     3.2370    -1.3990 H     1 <1>   0.0800 
 46 H        7.8340     4.4470    -0.5190 H     1 <1>   0.0800 
 47 H        6.1130     4.6380    -0.7420 H     1 <1>   0.0800 
@<TRIPOS>BOND
  1   1   2  1   
  2   1   3  1   
  3   2   4  1   
  4   2  21  1   
  5   2  22  1   
  6   3   5  1   
  7   3  23  1   
  8   3  24  1   
  9   4   6  1   
 10   4   7  1   
 11   4  25  1   
 12   5   6  1   
 13   5   8  1   
 14   5  26  1   
 15   6   9  1   
 16   6  27  1   
 17   7  10  1   
 18   7  28  1   
 19   7  29  1   
 20   8  11  1   
 21   8  30  1   
 22   8  31  1   
 23   9  12  1   
 24   9  32  1   
 25   9  33  1   
 26  10  12  1   
 27  10  13  1   
 28  11  14  1   
 29  11  34  1   
 30  11  35  1   
 31  12  36  1   
 32  12  37  1   
 33  13  15  1   
 34  13  38  1   
 35  13  39  1   
 36  14  40  1   
 37  14  41  1   
 38  14  42  1   
 39  15  16  1   
 40  15  17  2   
 41  16  18  1   
 42  16  43  1   
 43  17  19  1   
 44  17  20  1   
 45  18  19  2   
 46  18  44  1   
 47  20  45  1   
 48  20  46  1   
 49  20  47  1   
@<TRIPOS>SUBSTRUCTURE
  1 ****   7 GROUP 4 **** **** 0

# MOE 2024.06 (io_trps.svl 2023.06)
