@<TRIPOS>MOLECULE
NONAME
47 49 1 0 0 
SMALL
USER_CHARGES


@<TRIPOS>ATOM
  1 S       -0.8230    -1.9630    -1.5580 S.3   1 <1>  -0.0800 
  2 C       -1.5320    -3.4440    -0.9340 C.2   1 <1>  -0.1400 
  3 C       -1.1770    -2.4340    -3.2110 C.2   1 <1>  -0.1100 
  4 C       -1.9910    -4.2050    -1.9470 C.2   1 <1>  -0.1500 
  5 C       -1.5160    -3.6210     0.5740 C.3   1 <1>   0.3200 
  6 C       -1.7880    -3.6320    -3.2420 C.2   1 <1>  -0.1500 
  7 N       -2.0660    -4.9380     0.9180 N.am  1 <1>  -0.7300 
  8 C       -2.9610    -5.1980     1.8980 C.2   1 <1>   0.5690 
  9 O       -3.2960    -4.3620     2.7030 O.2   1 <1>  -0.5700 
 10 C       -3.5640    -6.6040     1.9720 C.3   1 <1>   0.1710 
 11 N       -3.8840    -7.1690     0.6250 N.3   1 <1>  -0.8100 
 12 C       -3.1110    -8.3810     0.2760 C.3   1 <1>   0.2530 
 13 C       -5.3340    -7.3070     0.3730 C.3   1 <1>   0.1100 
 14 C       -1.6030    -8.1130     0.2250 C.ar  1 <1>   0.1670 
 15 C       -6.0370    -5.9420     0.2770 C.3   1 <1>   0.2000 
 16 N       -1.1600    -7.3250    -0.7480 N.ar  1 <1>  -0.6200 
 17 C       -0.7770    -8.6870     1.1820 C.ar  1 <1>  -0.1500 
 18 O       -7.3700    -6.1370    -0.0650 O.3   1 <1>  -0.5600 
 19 C       -5.4970    -5.0250    -0.8150 C.3   1 <1>  -0.1600 
 20 C        0.1440    -7.0990    -0.7660 C.ar  1 <1>   0.1600 
 21 C        0.5790    -8.4440     1.1520 C.ar  1 <1>  -0.1500 
 22 C       -7.8910    -4.9600    -0.5920 C.3   1 <1>   0.1200 
 23 C       -6.7230    -4.2490    -1.2700 C.3   1 <1>  -0.1600 
 24 C        1.0420    -7.6240     0.1460 C.ar  1 <1>  -0.1500 
 25 H       -0.8860    -1.7560    -3.9930 H     1 <1>   0.1500 
 26 H       -2.4720    -5.1640    -1.8410 H     1 <1>   0.1500 
 27 H       -2.1000    -2.8450     1.0390 H     1 <1>   0.0800 
 28 H       -0.5050    -3.5570     0.9350 H     1 <1>   0.0800 
 29 H       -2.1130    -4.1490    -4.1280 H     1 <1>   0.1500 
 30 H       -1.8810    -5.6900     0.2350 H     1 <1>   0.3700 
 31 H       -4.4510    -6.5570     2.5780 H     1 <1>   0.0800 
 32 H       -2.8610    -7.2330     2.4860 H     1 <1>   0.0800 
 33 H       -3.4120    -8.7200    -0.7000 H     1 <1>   0.0800 
 34 H       -3.3290    -9.1630     0.9810 H     1 <1>   0.0800 
 35 H       -5.7880    -7.8910     1.1550 H     1 <1>   0.0800 
 36 H       -5.4830    -7.8150    -0.5640 H     1 <1>   0.0800 
 37 H       -6.0250    -5.4380     1.2290 H     1 <1>   0.0800 
 38 H       -1.1890    -9.3190     1.9480 H     1 <1>   0.1500 
 39 H       -5.1010    -5.6120    -1.6250 H     1 <1>   0.0800 
 40 H       -4.7200    -4.3860    -0.4350 H     1 <1>   0.0800 
 41 H        0.5150    -6.4590    -1.5490 H     1 <1>   0.1500 
 42 H        1.2460    -8.8720     1.8800 H     1 <1>   0.1500 
 43 H       -8.2810    -4.3750     0.2240 H     1 <1>   0.0800 
 44 H       -8.6790    -5.2070    -1.2820 H     1 <1>   0.0800 
 45 H       -6.8260    -4.2820    -2.3400 H     1 <1>   0.0800 
 46 H       -6.6800    -3.2220    -0.9520 H     1 <1>   0.0800 
 47 H        2.0890    -7.3930     0.0660 H     1 <1>   0.1500 
@<TRIPOS>BOND
  1   1   2  1   
  2   1   3  1   
  3   2   4  2   
  4   2   5  1   
  5   3   6  2   
  6   3  25  1   
  7   4   6  1   
  8   4  26  1   
  9   5   7  1   
 10   5  27  1   
 11   5  28  1   
 12   6  29  1   
 13   7   8  am  
 14   7  30  1   
 15   8   9  2   
 16   8  10  1   
 17  10  11  1   
 18  10  31  1   
 19  10  32  1   
 20  11  12  1   
 21  11  13  1   
 22  12  14  1   
 23  12  33  1   
 24  12  34  1   
 25  13  15  1   
 26  13  35  1   
 27  13  36  1   
 28  14  16  ar  
 29  14  17  ar  
 30  15  18  1   
 31  15  19  1   
 32  15  37  1   
 33  16  20  ar  
 34  17  21  ar  
 35  17  38  1   
 36  18  22  1   
 37  19  23  1   
 38  19  39  1   
 39  19  40  1   
 40  20  24  ar  
 41  20  41  1   
 42  21  24  ar  
 43  21  42  1   
 44  22  23  1   
 45  22  43  1   
 46  22  44  1   
 47  23  45  1   
 48  23  46  1   
 49  24  47  1   
@<TRIPOS>SUBSTRUCTURE
  1 ****   7 GROUP 4 **** **** 0

# MOE 2024.06 (io_trps.svl 2023.06)
