@<TRIPOS>MOLECULE
NONAME
60 63 1 0 0 
SMALL
USER_CHARGES


@<TRIPOS>ATOM
  1 O       -1.3120    -2.5370     1.4690 O.2   1 <1>  -0.5700 
  2 C       -0.3340    -2.9910     0.9270 C.2   1 <1>   0.5690 
  3 N       -0.3390    -3.4770    -0.3530 N.am  1 <1>  -0.6600 
  4 C        0.9740    -3.0380     1.6890 C.3   1 <1>  -0.0990 
  5 C        0.9000    -4.0370    -0.9470 C.3   1 <1>   0.1400 
  6 C       -1.5680    -3.5230    -1.1880 C.3   1 <1>   0.0600 
  7 C        2.1280    -2.5440     0.8000 C.3   1 <1>  -0.0800 
  8 C        2.1020    -3.1250    -0.6340 C.3   1 <1>  -0.0800 
  9 C        3.5130    -2.8630     1.3790 C.3   1 <1>  -0.1600 
 10 C        3.4520    -3.8280    -0.8260 C.3   1 <1>  -0.1600 
 11 C        4.3850    -3.1200     0.1560 C.3   1 <1>   0.2200 
 12 N        5.6330    -3.8670     0.5030 N.am  1 <1>  -0.6600 
 13 C        6.8580    -3.2570     0.6380 C.2   1 <1>   0.5690 
 14 C        5.5220    -5.3440     0.7240 C.3   1 <1>   0.0600 
 15 O        7.8720    -3.8990     0.7880 O.2   1 <1>  -0.5700 
 16 C        6.9860    -1.7390     0.5940 C.3   1 <1>  -0.0990 
 17 C        8.2790    -1.2040     1.2380 C.3   1 <1>  -0.0990 
 18 C        8.3530     0.3060     1.1510 C.2   1 <1>   0.5690 
 19 O        7.4790     0.9470     1.6800 O.2   1 <1>  -0.5700 
 20 N        9.4070     0.8490     0.4700 N.am  1 <1>  -0.5470 
 21 C        9.7580     2.1780     0.1800 C.ar  1 <1>   0.1170 
 22 C       11.0370     2.4240    -0.3130 C.ar  1 <1>  -0.1500 
 23 C        8.8900     3.2580     0.3490 C.ar  1 <1>  -0.1500 
 24 C       11.4230     3.7140    -0.6210 C.ar  1 <1>  -0.1440 
 25 C        9.2830     4.5490     0.0390 C.ar  1 <1>  -0.1500 
 26 C       10.5580     4.7640    -0.4480 C.ar  1 <1>  -0.1440 
 27 C       12.7520     4.1840    -1.1590 C.3   1 <1>  -0.0170 
 28 C       11.1930     6.0720    -0.8460 C.3   1 <1>  -0.0170 
 29 C       12.4730     5.6380    -1.5800 C.3   1 <1>  -0.1600 
 30 H        0.8980    -2.4270     2.5710 H     1 <1>   0.0800 
 31 H        1.1370    -4.0540     1.9950 H     1 <1>   0.0800 
 32 H        1.0570    -5.0180    -0.5300 H     1 <1>   0.0800 
 33 H        0.7890    -4.1370    -2.0140 H     1 <1>   0.0800 
 34 H       -1.4230    -2.9420    -2.0820 H     1 <1>   0.0800 
 35 H       -2.4080    -3.1200    -0.6480 H     1 <1>   0.0800 
 36 H       -1.7890    -4.5420    -1.4560 H     1 <1>   0.0800 
 37 H        2.0350    -1.4730     0.7120 H     1 <1>   0.0800 
 38 H        2.0620    -2.2930    -1.3180 H     1 <1>   0.0800 
 39 H        3.4660    -3.7490     1.9860 H     1 <1>   0.0800 
 40 H        3.8890    -2.0460     1.9690 H     1 <1>   0.0800 
 41 H        3.8070    -3.7400    -1.8380 H     1 <1>   0.0800 
 42 H        3.3430    -4.8660    -0.5720 H     1 <1>   0.0800 
 43 H        4.6340    -2.1700    -0.2850 H     1 <1>   0.0800 
 44 H        4.6330    -5.5760     1.2800 H     1 <1>   0.0800 
 45 H        6.3680    -5.7110     1.2810 H     1 <1>   0.0800 
 46 H        5.4950    -5.8500    -0.2250 H     1 <1>   0.0800 
 47 H        6.9440    -1.4270    -0.4330 H     1 <1>   0.0800 
 48 H        6.1560    -1.3020     1.1170 H     1 <1>   0.0800 
 49 H        9.1340    -1.6420     0.7540 H     1 <1>   0.0800 
 50 H        8.3050    -1.4870     2.2750 H     1 <1>   0.0800 
 51 H       10.0780     0.1670     0.1260 H     1 <1>   0.3700 
 52 H       11.7280     1.6160    -0.4530 H     1 <1>   0.1500 
 53 H        7.8960     3.0990     0.7220 H     1 <1>   0.1500 
 54 H        8.6050     5.3730     0.1760 H     1 <1>   0.1500 
 55 H       13.4870     4.1510    -0.3740 H     1 <1>   0.0800 
 56 H       13.0770     3.5860    -1.9920 H     1 <1>   0.0800 
 57 H       10.5460     6.6470    -1.4850 H     1 <1>   0.0800 
 58 H       11.4330     6.6370     0.0380 H     1 <1>   0.0800 
 59 H       13.3020     6.2850    -1.3560 H     1 <1>   0.0800 
 60 H       12.2880     5.6600    -2.6400 H     1 <1>   0.0800 
@<TRIPOS>BOND
  1   1   2  2   
  2   2   3  am  
  3   2   4  1   
  4   3   5  1   
  5   3   6  1   
  6   4   7  1   
  7   4  30  1   
  8   4  31  1   
  9   5   8  1   
 10   5  32  1   
 11   5  33  1   
 12   6  34  1   
 13   6  35  1   
 14   6  36  1   
 15   7   8  1   
 16   7   9  1   
 17   7  37  1   
 18   8  10  1   
 19   8  38  1   
 20   9  11  1   
 21   9  39  1   
 22   9  40  1   
 23  10  11  1   
 24  10  41  1   
 25  10  42  1   
 26  11  12  1   
 27  11  43  1   
 28  12  13  am  
 29  12  14  1   
 30  13  15  2   
 31  13  16  1   
 32  14  44  1   
 33  14  45  1   
 34  14  46  1   
 35  16  17  1   
 36  16  47  1   
 37  16  48  1   
 38  17  18  1   
 39  17  49  1   
 40  17  50  1   
 41  18  19  2   
 42  18  20  am  
 43  20  21  1   
 44  20  51  1   
 45  21  22  ar  
 46  21  23  ar  
 47  22  24  ar  
 48  22  52  1   
 49  23  25  ar  
 50  23  53  1   
 51  24  26  ar  
 52  24  27  1   
 53  25  26  ar  
 54  25  54  1   
 55  26  28  1   
 56  27  29  1   
 57  27  55  1   
 58  27  56  1   
 59  28  29  1   
 60  28  57  1   
 61  28  58  1   
 62  29  59  1   
 63  29  60  1   
@<TRIPOS>SUBSTRUCTURE
  1 ****  16 GROUP 4 **** **** 0

# MOE 2024.06 (io_trps.svl 2023.06)
