@<TRIPOS>MOLECULE
NONAME
43 45 1 0 0 
SMALL
USER_CHARGES


@<TRIPOS>ATOM
  1 F       -1.5890     1.1360     0.3820 F     1 <1>  -0.1900 
  2 C       -0.7700     2.1110     0.1000 C.ar  1 <1>   0.1900 
  3 C       -1.1420     3.4190     0.3720 C.ar  1 <1>  -0.1440 
  4 C        0.4500     1.7980    -0.4670 C.ar  1 <1>  -0.1500 
  5 C       -0.2440     4.4280     0.0610 C.ar  1 <1>  -0.1500 
  6 C       -2.4960     3.7380     0.9900 C.3   1 <1>  -0.0960 
  7 C        1.3280     2.8230    -0.7680 C.ar  1 <1>  -0.1500 
  8 C        1.0080     4.1590    -0.5070 C.ar  1 <1>   0.0860 
  9 C        1.9500     5.2240    -0.8150 C.2   1 <1>   0.5440 
 10 O        2.9550     5.0270    -1.4740 O.2   1 <1>  -0.5700 
 11 N        1.7990     6.4950    -0.3230 N.am  1 <1>  -0.6600 
 12 C        2.2820     6.7440     1.0800 C.3   1 <1>   0.2200 
 13 C        1.7770     7.6300    -1.2990 C.3   1 <1>   0.1400 
 14 C        1.6530     7.9930     1.7200 C.3   1 <1>   0.1200 
 15 C        3.8320     6.8180     1.1370 C.3   1 <1>   0.3430 
 16 C        2.7170     8.8030    -0.9620 C.3   1 <1>  -0.0800 
 17 O        2.3980     9.1320     1.4110 O.3   1 <1>  -0.5600 
 18 N        4.4570     7.0710    -0.2080 N.4   1 <1>  -0.9590 
 19 C        2.1610     9.6900     0.1630 C.3   1 <1>   0.1200 
 20 C        4.2030     8.4430    -0.7500 C.3   1 <1>   0.3430 
 21 C        5.9060     6.7310    -0.2170 C.3   1 <1>   0.2630 
 22 H        0.6990     0.7710    -0.6680 H     1 <1>   0.1500 
 23 H       -0.5220     5.4480     0.2560 H     1 <1>   0.1500 
 24 H       -2.6240     4.7970     1.1250 H     1 <1>   0.0800 
 25 H       -2.5840     3.2560     1.9480 H     1 <1>   0.0800 
 26 H       -3.2820     3.3770     0.3510 H     1 <1>   0.0800 
 27 H        2.2780     2.5840    -1.2150 H     1 <1>   0.1500 
 28 H        1.9730     5.9080     1.6840 H     1 <1>   0.0800 
 29 H        2.0360     7.2540    -2.2760 H     1 <1>   0.0800 
 30 H        0.7660     7.9950    -1.3680 H     1 <1>   0.0800 
 31 H        1.6820     7.8930     2.7910 H     1 <1>   0.0800 
 32 H        0.6260     8.1240     1.4220 H     1 <1>   0.0800 
 33 H        4.1890     5.8750     1.5140 H     1 <1>   0.0800 
 34 H        4.1330     7.5810     1.8360 H     1 <1>   0.0800 
 35 H        2.6970     9.4390    -1.8300 H     1 <1>   0.0800 
 36 H        3.9620     6.4030    -0.8450 H     1 <1>   0.4500 
 37 H        1.1030     9.8660     0.0500 H     1 <1>   0.0800 
 38 H        2.6580    10.6460     0.1530 H     1 <1>   0.0800 
 39 H        4.6480     9.1750    -0.0960 H     1 <1>   0.0800 
 40 H        4.6980     8.5200    -1.7040 H     1 <1>   0.0800 
 41 H        6.4480     7.3820     0.4500 H     1 <1>   0.0800 
 42 H        6.3070     6.8380    -1.2120 H     1 <1>   0.0800 
 43 H        6.0500     5.7100     0.0990 H     1 <1>   0.0800 
@<TRIPOS>BOND
  1   1   2  1   
  2   2   3  ar  
  3   2   4  ar  
  4   3   5  ar  
  5   3   6  1   
  6   4   7  ar  
  7   4  22  1   
  8   5   8  ar  
  9   5  23  1   
 10   6  24  1   
 11   6  25  1   
 12   6  26  1   
 13   7   8  ar  
 14   7  27  1   
 15   8   9  1   
 16   9  10  2   
 17   9  11  am  
 18  11  12  1   
 19  11  13  1   
 20  12  14  1   
 21  12  15  1   
 22  12  28  1   
 23  13  16  1   
 24  13  29  1   
 25  13  30  1   
 26  14  17  1   
 27  14  31  1   
 28  14  32  1   
 29  15  18  1   
 30  15  33  1   
 31  15  34  1   
 32  16  19  1   
 33  16  20  1   
 34  16  35  1   
 35  17  19  1   
 36  18  20  1   
 37  18  21  1   
 38  18  36  1   
 39  19  37  1   
 40  19  38  1   
 41  20  39  1   
 42  20  40  1   
 43  21  41  1   
 44  21  42  1   
 45  21  43  1   
@<TRIPOS>SUBSTRUCTURE
  1 ****  11 GROUP 4 **** **** 0

# MOE 2024.06 (io_trps.svl 2023.06)
