@<TRIPOS>MOLECULE
NONAME
55 59 1 0 0 
SMALL
USER_CHARGES


@<TRIPOS>ATOM
  1 O       -1.2700     0.7940    -1.6550 O.2   1 <1>  -0.5700 
  2 C       -1.8410     0.9510    -0.5900 C.2   1 <1>   0.7160 
  3 N       -2.5840    -0.0880    -0.0760 N.am  1 <1>  -0.6600 
  4 C       -1.7040     2.1930     0.0990 C.2   1 <1>  -0.0860 
  5 C       -2.7060    -1.3840    -0.8910 C.3   1 <1>   0.1400 
  6 C       -3.3390     0.0750     1.2730 C.3   1 <1>   0.1400 
  7 C       -2.7130     3.1430     0.2800 C.2   1 <1>   0.3720 
  8 C       -0.6280     2.7420     0.7220 C.2   1 <1>   0.0870 
  9 C       -3.7040    -2.2430    -0.1370 C.3   1 <1>  -0.0800 
 10 C       -3.8320    -1.2480     1.9780 C.3   1 <1>  -0.0800 
 11 N       -2.2830     4.1480     0.9590 N.2   1 <1>  -0.4100 
 12 N       -4.0260     3.0270    -0.1960 N.pl3 1 <1>  -0.8210 
 13 O       -1.0270     3.8910     1.2090 O.3   1 <1>  -0.0190 
 14 C        0.7320     2.3000     0.9240 C.ar  1 <1>   0.0530 
 15 C       -3.1050    -2.3680     1.2830 C.3   1 <1>  -0.1600 
 16 C       -4.8510    -3.2440    -0.1730 C.3   1 <1>  -0.1600 
 17 C       -5.3720    -1.5950     1.8900 C.3   1 <1>  -0.1600 
 18 C       -5.0270     3.9610     0.4080 C.3   1 <1>   0.2090 
 19 C       -4.1560     3.0260    -1.6860 C.3   1 <1>   0.2090 
 20 C        1.7390     3.2130     1.2430 C.ar  1 <1>  -0.1500 
 21 C        1.1030     0.9570     0.8180 C.ar  1 <1>  -0.1500 
 22 C       -5.7430    -2.9140     1.0860 C.3   1 <1>  -0.1600 
 23 C       -6.4450     3.6490    -0.1040 C.3   1 <1>   0.1200 
 24 C       -5.6120     2.7530    -2.1060 C.3   1 <1>   0.1200 
 25 C        3.0460     2.8120     1.4460 C.ar  1 <1>  -0.1500 
 26 C        2.4090     0.5490     1.0180 C.ar  1 <1>  -0.1500 
 27 O       -6.4880     3.6660    -1.5040 O.3   1 <1>  -0.5600 
 28 C        3.3850     1.4760     1.3330 C.ar  1 <1>  -0.1500 
 29 H       -3.0630    -1.1600    -1.8830 H     1 <1>   0.0800 
 30 H       -1.7480    -1.8700    -0.9660 H     1 <1>   0.0800 
 31 H       -2.6830     0.5810     1.9600 H     1 <1>   0.0800 
 32 H       -4.1840     0.7220     1.1160 H     1 <1>   0.0800 
 33 H       -4.4260    -1.4550    -0.2770 H     1 <1>   0.0800 
 34 H       -3.5430    -1.2160     3.0140 H     1 <1>   0.0800 
 35 H       -2.0380    -2.2160     1.3160 H     1 <1>   0.0800 
 36 H       -3.2900    -3.3190     1.7540 H     1 <1>   0.0800 
 37 H       -5.4240    -3.1280    -1.0780 H     1 <1>   0.0800 
 38 H       -4.4820    -4.2540    -0.1330 H     1 <1>   0.0800 
 39 H       -5.7690    -1.6810     2.8870 H     1 <1>   0.0800 
 40 H       -5.8840    -0.7680     1.4300 H     1 <1>   0.0800 
 41 H       -5.0040     3.8640     1.4800 H     1 <1>   0.0800 
 42 H       -4.7740     4.9770     0.1580 H     1 <1>   0.0800 
 43 H       -3.8460     3.9800    -2.0770 H     1 <1>   0.0800 
 44 H       -3.5240     2.2700    -2.1160 H     1 <1>   0.0800 
 45 H        1.4950     4.2570     1.3330 H     1 <1>   0.1500 
 46 H        0.3680     0.2120     0.5790 H     1 <1>   0.1500 
 47 H       -5.6580    -3.7430     1.7680 H     1 <1>   0.0800 
 48 H       -6.7770    -2.8690     0.7910 H     1 <1>   0.0800 
 49 H       -7.1380     4.3880     0.2550 H     1 <1>   0.0800 
 50 H       -6.7610     2.6800     0.2390 H     1 <1>   0.0800 
 51 H       -5.9010     1.7570    -1.8210 H     1 <1>   0.0800 
 52 H       -5.7140     2.8530    -3.1720 H     1 <1>   0.0800 
 53 H        3.8020     3.5380     1.6900 H     1 <1>   0.1500 
 54 H        2.6670    -0.4920     0.9270 H     1 <1>   0.1500 
 55 H        4.4020     1.1600     1.4880 H     1 <1>   0.1500 
@<TRIPOS>BOND
  1   1   2  2   
  2   2   3  am  
  3   2   4  1   
  4   3   5  1   
  5   3   6  1   
  6   4   7  1   
  7   4   8  2   
  8   5   9  1   
  9   5  29  1   
 10   5  30  1   
 11   6  10  1   
 12   6  31  1   
 13   6  32  1   
 14   7  11  2   
 15   7  12  1   
 16   8  13  1   
 17   8  14  1   
 18   9  15  1   
 19   9  16  1   
 20   9  33  1   
 21  10  15  1   
 22  10  17  1   
 23  10  34  1   
 24  11  13  1   
 25  12  18  1   
 26  12  19  1   
 27  14  20  ar  
 28  14  21  ar  
 29  15  35  1   
 30  15  36  1   
 31  16  22  1   
 32  16  37  1   
 33  16  38  1   
 34  17  22  1   
 35  17  39  1   
 36  17  40  1   
 37  18  23  1   
 38  18  41  1   
 39  18  42  1   
 40  19  24  1   
 41  19  43  1   
 42  19  44  1   
 43  20  25  ar  
 44  20  45  1   
 45  21  26  ar  
 46  21  46  1   
 47  22  47  1   
 48  22  48  1   
 49  23  27  1   
 50  23  49  1   
 51  23  50  1   
 52  24  27  1   
 53  24  51  1   
 54  24  52  1   
 55  25  28  ar  
 56  25  53  1   
 57  26  28  ar  
 58  26  54  1   
 59  28  55  1   
@<TRIPOS>SUBSTRUCTURE
  1 ****   2 GROUP 4 **** **** 0

# MOE 2024.06 (io_trps.svl 2023.06)
