@<TRIPOS>MOLECULE
NONAME
47 48 1 0 0 
SMALL
USER_CHARGES


@<TRIPOS>ATOM
  1 S        0.0330     0.0670    -0.1150 S.3   1 <1>  -0.4600 
  2 C       -0.2420     1.8480     0.0130 C.3   1 <1>   0.0700 
  3 C       -1.6390    -0.6250    -0.2620 C.3   1 <1>  -0.0100 
  4 C        1.1400     2.4880     0.1790 C.3   1 <1>   0.3430 
  5 N        1.0750     3.9790     0.3290 N.4   1 <1>  -0.9590 
  6 C        0.6150     4.6510    -0.9280 C.3   1 <1>   0.3430 
  7 C        2.4060     4.4940     0.7760 C.3   1 <1>   0.3430 
  8 C        0.5140     6.1580    -0.7100 C.3   1 <1>  -0.1600 
  9 C        2.3260     5.9950     1.0190 C.3   1 <1>  -0.1600 
 10 C        1.8570     6.7080    -0.2440 C.3   1 <1>   0.2890 
 11 N        1.7250     8.1400     0.0410 N.pl3 1 <1>  -0.8690 
 12 C        2.7410     9.0570    -0.1070 C.ar  1 <1>   0.4100 
 13 N        3.9250     8.5830    -0.4380 N.ar  1 <1>  -0.6200 
 14 C        2.5280    10.4170     0.0910 C.ar  1 <1>  -0.1430 
 15 C        4.8860     9.4730    -0.5720 C.ar  1 <1>   0.4770 
 16 C        3.6190    11.2350    -0.0790 C.ar  1 <1>   0.1600 
 17 C        1.1400    10.9400     0.4760 C.3   1 <1>  -0.0170 
 18 N        4.8090    10.7780    -0.4120 N.ar  1 <1>  -0.6200 
 19 C        6.2470     8.9440    -0.9540 C.3   1 <1>  -0.0970 
 20 C        1.0330    12.4610     0.6430 C.3   1 <1>  -0.2400 
 21 H       -0.8690     2.0100     0.8720 H     1 <1>   0.0800 
 22 H       -0.7330     2.1540    -0.8930 H     1 <1>   0.0800 
 23 H       -1.5430    -1.6930    -0.3440 H     1 <1>   0.0800 
 24 H       -2.0980    -0.2170    -1.1450 H     1 <1>   0.0800 
 25 H       -2.1930    -0.3620     0.6210 H     1 <1>   0.0800 
 26 H        1.7480     2.2330    -0.6730 H     1 <1>   0.0800 
 27 H        1.6010     2.0590     1.0540 H     1 <1>   0.0800 
 28 H        0.4020     4.1990     1.0770 H     1 <1>   0.4500 
 29 H       -0.3490     4.2700    -1.2240 H     1 <1>   0.0800 
 30 H        1.3150     4.4510    -1.7240 H     1 <1>   0.0800 
 31 H        3.1490     4.2940     0.0200 H     1 <1>   0.0800 
 32 H        2.7090     4.0010     1.6860 H     1 <1>   0.0800 
 33 H       -0.2530     6.3680     0.0140 H     1 <1>   0.0800 
 34 H        0.2450     6.6280    -1.6390 H     1 <1>   0.0800 
 35 H        3.3040     6.3580     1.2820 H     1 <1>   0.0800 
 36 H        1.6620     6.2010     1.8390 H     1 <1>   0.0800 
 37 H        2.5840     6.5640    -1.0290 H     1 <1>   0.0800 
 38 H        0.8130     8.4810     0.3440 H     1 <1>   0.4000 
 39 H        3.5420    12.2980     0.0540 H     1 <1>   0.1500 
 40 H        0.8460    10.4780     1.4030 H     1 <1>   0.0800 
 41 H        0.4380    10.6350    -0.2810 H     1 <1>   0.0800 
 42 H        6.2130     7.8820    -1.1120 H     1 <1>   0.0800 
 43 H        6.9460     9.1610    -0.1680 H     1 <1>   0.0800 
 44 H        6.5750     9.4220    -1.8580 H     1 <1>   0.0800 
 45 H        1.6870    12.8030     1.4250 H     1 <1>   0.0800 
 46 H        0.0250    12.7290     0.9070 H     1 <1>   0.0800 
 47 H        1.2840    12.9610    -0.2760 H     1 <1>   0.0800 
@<TRIPOS>BOND
  1   1   2  1   
  2   1   3  1   
  3   2   4  1   
  4   2  21  1   
  5   2  22  1   
  6   3  23  1   
  7   3  24  1   
  8   3  25  1   
  9   4   5  1   
 10   4  26  1   
 11   4  27  1   
 12   5   6  1   
 13   5   7  1   
 14   5  28  1   
 15   6   8  1   
 16   6  29  1   
 17   6  30  1   
 18   7   9  1   
 19   7  31  1   
 20   7  32  1   
 21   8  10  1   
 22   8  33  1   
 23   8  34  1   
 24   9  10  1   
 25   9  35  1   
 26   9  36  1   
 27  10  11  1   
 28  10  37  1   
 29  11  12  1   
 30  11  38  1   
 31  12  13  ar  
 32  12  14  ar  
 33  13  15  ar  
 34  14  16  ar  
 35  14  17  1   
 36  15  18  ar  
 37  15  19  1   
 38  16  18  ar  
 39  16  39  1   
 40  17  20  1   
 41  17  40  1   
 42  17  41  1   
 43  19  42  1   
 44  19  43  1   
 45  19  44  1   
 46  20  45  1   
 47  20  46  1   
 48  20  47  1   
@<TRIPOS>SUBSTRUCTURE
  1 ****  10 GROUP 4 **** **** 0

# MOE 2024.06 (io_trps.svl 2023.06)
