@<TRIPOS>MOLECULE
NONAME
64 67 1 0 0 
SMALL
USER_CHARGES


@<TRIPOS>ATOM
  1 O       -0.2200    -0.5490     0.2230 O.2   1 <1>  -0.5700 
  2 C        0.5560    -1.4650     0.3340 C.2   1 <1>   0.5690 
  3 N        0.1730    -2.7600     0.5540 N.am  1 <1>  -0.6600 
  4 C        2.0410    -1.1860     0.2290 C.3   1 <1>  -0.0990 
  5 C        1.1830    -3.8370     0.6880 C.3   1 <1>   0.1400 
  6 C       -1.2530    -3.1520     0.7170 C.3   1 <1>   0.0600 
  7 C        2.7240    -2.2330    -0.6710 C.3   1 <1>  -0.0800 
  8 C        2.2590    -3.6850    -0.4070 C.3   1 <1>  -0.0800 
  9 C        4.2510    -2.2350    -0.5420 C.3   1 <1>  -0.1600 
 10 C        3.5350    -4.4930    -0.1230 C.3   1 <1>  -0.1600 
 11 C        4.6450    -3.6860    -0.7950 C.3   1 <1>   0.4230 
 12 N        6.0310    -4.0350    -0.3550 N.4   1 <1>  -0.9590 
 13 C        6.3440    -3.8430     1.0890 C.3   1 <1>   0.5240 
 14 C        6.4100    -5.4090    -0.8050 C.3   1 <1>   0.2630 
 15 C        6.9420    -2.4640     1.2540 C.2   1 <1>  -0.1810 
 16 C        6.6740    -1.6130     2.3200 C.2   1 <1>   0.1390 
 17 C        7.7950    -1.7630     0.4710 C.2   1 <1>  -0.3020 
 18 N        7.2870    -0.4820     2.2020 N.2   1 <1>  -0.7070 
 19 N        8.0060    -0.5540     1.0550 N.pl3 1 <1>   0.5930 
 20 C        8.7910     0.5150     0.5380 C.ar  1 <1>  -0.0230 
 21 C        9.9990     0.2730    -0.1120 C.ar  1 <1>  -0.1500 
 22 C        8.3620     1.8320     0.6660 C.ar  1 <1>  -0.1500 
 23 C       10.7440     1.3170    -0.6310 C.ar  1 <1>  -0.1500 
 24 C        9.1080     2.8750     0.1470 C.ar  1 <1>  -0.1500 
 25 C       10.3020     2.6230    -0.5080 C.ar  1 <1>  -0.1440 
 26 C       11.1220     3.7710    -1.0760 C.3   1 <1>  -0.0170 
 27 C       12.1190     4.2870    -0.0320 C.3   1 <1>  -0.1600 
 28 C       12.9590     5.4480    -0.5800 C.3   1 <1>  -0.1600 
 29 C       13.9490     5.9530     0.4730 C.3   1 <1>  -0.2400 
 30 H        2.1910    -0.1980    -0.1700 H     1 <1>   0.0800 
 31 H        2.4430    -1.2090     1.2240 H     1 <1>   0.0800 
 32 H        1.6240    -3.7610     1.6670 H     1 <1>   0.0800 
 33 H        0.7090    -4.8000     0.6040 H     1 <1>   0.0800 
 34 H       -1.5270    -3.8620    -0.0440 H     1 <1>   0.0800 
 35 H       -1.8950    -2.2920     0.6290 H     1 <1>   0.0800 
 36 H       -1.4030    -3.5930     1.6870 H     1 <1>   0.0800 
 37 H        2.4650    -1.9960    -1.6920 H     1 <1>   0.0800 
 38 H        1.8270    -4.0550    -1.3230 H     1 <1>   0.0800 
 39 H        4.5090    -1.9280     0.4530 H     1 <1>   0.0800 
 40 H        4.7020    -1.5650    -1.2540 H     1 <1>   0.0800 
 41 H        3.4560    -5.4850    -0.5320 H     1 <1>   0.0800 
 42 H        3.6880    -4.5500     0.9390 H     1 <1>   0.0800 
 43 H        4.5670    -3.8530    -1.8580 H     1 <1>   0.0800 
 44 H        6.6500    -3.3620    -0.8260 H     1 <1>   0.4500 
 45 H        5.4570    -3.9400     1.6920 H     1 <1>   0.0800 
 46 H        7.0650    -4.5740     1.4190 H     1 <1>   0.0800 
 47 H        5.8030    -6.1490    -0.3090 H     1 <1>   0.0800 
 48 H        7.4460    -5.6060    -0.5810 H     1 <1>   0.0800 
 49 H        6.2680    -5.5070    -1.8700 H     1 <1>   0.0800 
 50 H        6.0310    -1.8390     3.1560 H     1 <1>   0.1500 
 51 H        8.2740    -2.0150    -0.4570 H     1 <1>   0.1500 
 52 H       10.3700    -0.7310    -0.2130 H     1 <1>   0.1500 
 53 H        7.4380     2.0440     1.1790 H     1 <1>   0.1500 
 54 H       11.6760     1.1110    -1.1290 H     1 <1>   0.1500 
 55 H        8.7560     3.8850     0.2600 H     1 <1>   0.1500 
 56 H       11.6520     3.4360    -1.9510 H     1 <1>   0.0800 
 57 H       10.4650     4.5680    -1.3770 H     1 <1>   0.0800 
 58 H       11.5780     4.6130     0.8400 H     1 <1>   0.0800 
 59 H       12.7670     3.4810     0.2650 H     1 <1>   0.0800 
 60 H       13.5040     5.1230    -1.4500 H     1 <1>   0.0800 
 61 H       12.3120     6.2570    -0.8730 H     1 <1>   0.0800 
 62 H       14.6220     5.1670     0.7650 H     1 <1>   0.0800 
 63 H       13.4260     6.3040     1.3450 H     1 <1>   0.0800 
 64 H       14.5290     6.7670     0.0720 H     1 <1>   0.0800 
@<TRIPOS>BOND
  1   1   2  2   
  2   2   3  am  
  3   2   4  1   
  4   3   5  1   
  5   3   6  1   
  6   4   7  1   
  7   4  30  1   
  8   4  31  1   
  9   5   8  1   
 10   5  32  1   
 11   5  33  1   
 12   6  34  1   
 13   6  35  1   
 14   6  36  1   
 15   7   8  1   
 16   7   9  1   
 17   7  37  1   
 18   8  10  1   
 19   8  38  1   
 20   9  11  1   
 21   9  39  1   
 22   9  40  1   
 23  10  11  1   
 24  10  41  1   
 25  10  42  1   
 26  11  12  1   
 27  11  43  1   
 28  12  13  1   
 29  12  14  1   
 30  12  44  1   
 31  13  15  1   
 32  13  45  1   
 33  13  46  1   
 34  14  47  1   
 35  14  48  1   
 36  14  49  1   
 37  15  16  1   
 38  15  17  2   
 39  16  18  2   
 40  16  50  1   
 41  17  19  1   
 42  17  51  1   
 43  18  19  1   
 44  19  20  1   
 45  20  21  ar  
 46  20  22  ar  
 47  21  23  ar  
 48  21  52  1   
 49  22  24  ar  
 50  22  53  1   
 51  23  25  ar  
 52  23  54  1   
 53  24  25  ar  
 54  24  55  1   
 55  25  26  1   
 56  26  27  1   
 57  26  56  1   
 58  26  57  1   
 59  27  28  1   
 60  27  58  1   
 61  27  59  1   
 62  28  29  1   
 63  28  60  1   
 64  28  61  1   
 65  29  62  1   
 66  29  63  1   
 67  29  64  1   
@<TRIPOS>SUBSTRUCTURE
  1 ****  17 GROUP 4 **** **** 0

# MOE 2024.06 (io_trps.svl 2023.06)
