@<TRIPOS>MOLECULE
NONAME
46 48 1 0 0 
SMALL
USER_CHARGES


@<TRIPOS>ATOM
  1 CL      -1.0550    -0.0970    -2.1270 Cl    1 <1>  -0.1770 
  2 C       -1.9320    -0.8800    -0.8260 C.ar  1 <1>   0.1770 
  3 C       -2.5360    -0.1930     0.2370 C.ar  1 <1>   0.0820 
  4 C       -2.0090    -2.2560    -0.9120 C.ar  1 <1>  -0.1500 
  5 O       -2.5490     1.1450     0.4670 O.3   1 <1>  -0.3630 
  6 C       -3.2080    -0.9440     1.1910 C.ar  1 <1>  -0.1500 
  7 C       -2.6920    -3.0110     0.0390 C.ar  1 <1>   0.0860 
  8 C       -1.7870     2.0900    -0.2440 C.3   1 <1>   0.1200 
  9 C       -3.2820    -2.3210     1.0980 C.ar  1 <1>  -0.1500 
 10 C       -2.7690    -4.4540    -0.0770 C.2   1 <1>   0.5440 
 11 C       -1.9550     3.4420     0.4440 C.3   1 <1>  -0.2400 
 12 O       -1.7560    -5.0910    -0.2910 O.2   1 <1>  -0.5700 
 13 N       -3.9640    -5.1280     0.0320 N.am  1 <1>  -0.6600 
 14 C       -5.3060    -4.5130    -0.1280 C.3   1 <1>   0.1400 
 15 C       -4.0510    -6.6050    -0.0970 C.3   1 <1>   0.1400 
 16 C       -6.2310    -5.6720    -0.5020 C.3   1 <1>   0.2000 
 17 C       -5.5410    -6.9310     0.0190 C.3   1 <1>  -0.0800 
 18 O       -7.4800    -5.5360     0.0830 O.3   1 <1>  -0.6800 
 19 C       -5.9710    -8.1990    -0.7370 C.3   1 <1>  -0.0170 
 20 C       -5.3090    -9.4430    -0.1680 C.ar  1 <1>   0.1670 
 21 N       -4.0880    -9.7110    -0.6050 N.ar  1 <1>  -0.6200 
 22 C       -5.9880   -10.2190     0.7600 C.ar  1 <1>  -0.1500 
 23 C       -3.5200   -10.7930    -0.0970 C.ar  1 <1>   0.1600 
 24 C       -5.3850   -11.3430     1.2810 C.ar  1 <1>  -0.1500 
 25 C       -4.1130   -11.6290     0.8330 C.ar  1 <1>  -0.1500 
 26 H       -1.5310    -2.7630    -1.7320 H     1 <1>   0.1500 
 27 H       -3.6730    -0.4330     2.0170 H     1 <1>   0.1500 
 28 H       -0.7550     1.7830    -0.2260 H     1 <1>   0.0800 
 29 H       -2.1540     2.1360    -1.2540 H     1 <1>   0.0800 
 30 H       -3.7960    -2.8780     1.8610 H     1 <1>   0.1500 
 31 H       -1.6020     3.3860     1.4580 H     1 <1>   0.0800 
 32 H       -2.9890     3.7340     0.4370 H     1 <1>   0.0800 
 33 H       -1.3830     4.1880    -0.0770 H     1 <1>   0.0800 
 34 H       -5.6080    -4.0730     0.8060 H     1 <1>   0.0800 
 35 H       -5.2930    -3.7690    -0.9050 H     1 <1>   0.0800 
 36 H       -3.6650    -6.8990    -1.0600 H     1 <1>   0.0800 
 37 H       -3.4760    -7.0930     0.6720 H     1 <1>   0.0800 
 38 H       -6.3560    -5.7070    -1.5710 H     1 <1>   0.0800 
 39 H       -5.7570    -7.0510     1.0660 H     1 <1>   0.0800 
 40 H       -7.4030    -5.5500     1.0560 H     1 <1>   0.4000 
 41 H       -5.7150    -8.1130    -1.7790 H     1 <1>   0.0800 
 42 H       -7.0390    -8.3040    -0.6750 H     1 <1>   0.0800 
 43 H       -6.9790    -9.9480     1.0740 H     1 <1>   0.1500 
 44 H       -2.5270   -11.0250    -0.4400 H     1 <1>   0.1500 
 45 H       -5.8830   -11.9680     2.0030 H     1 <1>   0.1500 
 46 H       -3.5850   -12.4900     1.1990 H     1 <1>   0.1500 
@<TRIPOS>BOND
  1   1   2  1   
  2   2   3  ar  
  3   2   4  ar  
  4   3   5  1   
  5   3   6  ar  
  6   4   7  ar  
  7   4  26  1   
  8   5   8  1   
  9   6   9  ar  
 10   6  27  1   
 11   7   9  ar  
 12   7  10  1   
 13   8  11  1   
 14   8  28  1   
 15   8  29  1   
 16   9  30  1   
 17  10  12  2   
 18  10  13  am  
 19  11  31  1   
 20  11  32  1   
 21  11  33  1   
 22  13  14  1   
 23  13  15  1   
 24  14  16  1   
 25  14  34  1   
 26  14  35  1   
 27  15  17  1   
 28  15  36  1   
 29  15  37  1   
 30  16  17  1   
 31  16  18  1   
 32  16  38  1   
 33  17  19  1   
 34  17  39  1   
 35  18  40  1   
 36  19  20  1   
 37  19  41  1   
 38  19  42  1   
 39  20  21  ar  
 40  20  22  ar  
 41  21  23  ar  
 42  22  24  ar  
 43  22  43  1   
 44  23  25  ar  
 45  23  44  1   
 46  24  25  ar  
 47  24  45  1   
 48  25  46  1   
@<TRIPOS>SUBSTRUCTURE
  1 ****  13 GROUP 4 **** **** 0

# MOE 2024.06 (io_trps.svl 2023.06)
