@<TRIPOS>MOLECULE
NONAME
51 54 1 0 0 
SMALL
USER_CHARGES


@<TRIPOS>ATOM
  1 CL       2.2520     1.0620    -1.9980 Cl    1 <1>  -0.1770 
  2 C        1.4730     2.4040    -1.1930 C.ar  1 <1>   0.1770 
  3 C        1.9090     2.8630     0.0480 C.ar  1 <1>  -0.1440 
  4 C        0.4050     2.9920    -1.8450 C.ar  1 <1>  -0.1500 
  5 C        1.2320     3.9320     0.6230 C.ar  1 <1>  -0.1500 
  6 C        3.0910     2.2570     0.7990 C.3   1 <1>   0.3640 
  7 C       -0.2530     4.0580    -1.2600 C.ar  1 <1>  -0.1500 
  8 C        0.1610     4.5250    -0.0250 C.ar  1 <1>  -0.1500 
  9 N        2.8400     0.8300     1.0910 N.am  1 <1>  -0.7300 
 10 C        4.4380     2.4650     0.0630 C.3   1 <1>   0.2610 
 11 C        3.8100    -0.1120     1.0450 C.2   1 <1>   0.5690 
 12 O        5.4580     1.6830     0.6580 O.3   1 <1>  -0.5600 
 13 C        4.8280     3.9430     0.0680 C.2   1 <1>   0.5690 
 14 O        3.5730    -1.2530     1.3490 O.2   1 <1>  -0.5700 
 15 C        5.2190     0.2870     0.5850 C.3   1 <1>   0.1810 
 16 O        5.0210     4.5180    -0.9810 O.2   1 <1>  -0.5700 
 17 N        5.0430     4.5930     1.2510 N.am  1 <1>  -0.5100 
 18 C        6.4000     4.5460     1.9080 C.3   1 <1>   0.2250 
 19 C        5.1130     6.0980     1.3950 C.3   1 <1>   0.2250 
 20 C        6.6620     5.9740     1.3370 C.3   1 <1>   0.4720 
 21 N        7.2040     6.0260    -0.0690 N.4   1 <1>  -0.9280 
 22 C        8.5410     5.3820    -0.2050 C.3   1 <1>   0.3430 
 23 C        7.1880     7.4090    -0.6220 C.3   1 <1>   0.3430 
 24 C        8.9220     5.3040    -1.6850 C.3   1 <1>  -0.1600 
 25 C        7.5440     7.3690    -2.1090 C.3   1 <1>  -0.1600 
 26 C        8.8940     6.6840    -2.3530 C.3   1 <1>  -0.1600 
 27 H        0.0940     2.6160    -2.8030 H     1 <1>   0.1500 
 28 H        1.5270     4.3180     1.5850 H     1 <1>   0.1500 
 29 H        3.1680     2.7530     1.7520 H     1 <1>   0.0800 
 30 H       -1.0860     4.5210    -1.7620 H     1 <1>   0.1500 
 31 H       -0.3550     5.3530     0.4320 H     1 <1>   0.1500 
 32 H        1.8960     0.5480     1.3620 H     1 <1>   0.3700 
 33 H        4.3540     2.1560    -0.9620 H     1 <1>   0.0800 
 34 H        5.3610    -0.0300    -0.4320 H     1 <1>   0.0800 
 35 H        5.9460    -0.2050     1.2050 H     1 <1>   0.0800 
 36 H        6.3100     4.5160     2.9800 H     1 <1>   0.0000 
 37 H        7.0340     3.7780     1.5030 H     1 <1>   0.0000 
 38 H        4.6740     6.6210     0.5650 H     1 <1>   0.0000 
 39 H        4.7380     6.4110     2.3540 H     1 <1>   0.0000 
 40 H        7.1900     6.6300     2.0050 H     1 <1>   0.0000 
 41 H        6.5360     5.4750    -0.6490 H     1 <1>   0.4500 
 42 H        9.2810     5.9570     0.3280 H     1 <1>   0.0800 
 43 H        8.5210     4.3850     0.2050 H     1 <1>   0.0800 
 44 H        6.2090     7.8460    -0.5050 H     1 <1>   0.0800 
 45 H        7.9020     8.0220    -0.0960 H     1 <1>   0.0800 
 46 H        9.9090     4.8840    -1.7740 H     1 <1>   0.0800 
 47 H        8.2430     4.6380    -2.1910 H     1 <1>   0.0800 
 48 H        6.7670     6.8500    -2.6460 H     1 <1>   0.0800 
 49 H        7.5800     8.3750    -2.4910 H     1 <1>   0.0800 
 50 H        9.0650     6.5800    -3.4130 H     1 <1>   0.0800 
 51 H        9.6870     7.2950    -1.9530 H     1 <1>   0.0800 
@<TRIPOS>BOND
  1   1   2  1   
  2   2   3  ar  
  3   2   4  ar  
  4   3   5  ar  
  5   3   6  1   
  6   4   7  ar  
  7   4  27  1   
  8   5   8  ar  
  9   5  28  1   
 10   6   9  1   
 11   6  10  1   
 12   6  29  1   
 13   7   8  ar  
 14   7  30  1   
 15   8  31  1   
 16   9  11  am  
 17   9  32  1   
 18  10  12  1   
 19  10  13  1   
 20  10  33  1   
 21  11  14  2   
 22  11  15  1   
 23  12  15  1   
 24  13  16  2   
 25  13  17  am  
 26  15  34  1   
 27  15  35  1   
 28  17  18  1   
 29  17  19  1   
 30  18  20  1   
 31  18  36  1   
 32  18  37  1   
 33  19  20  1   
 34  19  38  1   
 35  19  39  1   
 36  20  21  1   
 37  20  40  1   
 38  21  22  1   
 39  21  23  1   
 40  21  41  1   
 41  22  24  1   
 42  22  42  1   
 43  22  43  1   
 44  23  25  1   
 45  23  44  1   
 46  23  45  1   
 47  24  26  1   
 48  24  46  1   
 49  24  47  1   
 50  25  26  1   
 51  25  48  1   
 52  25  49  1   
 53  26  50  1   
 54  26  51  1   
@<TRIPOS>SUBSTRUCTURE
  1 ****  13 GROUP 4 **** **** 0

# MOE 2024.06 (io_trps.svl 2023.06)
