@<TRIPOS>MOLECULE
NONAME
47 48 1 0 0 
SMALL
USER_CHARGES


@<TRIPOS>ATOM
  1 O       -0.7400     1.2070    -1.1150 O.3   1 <1>  -0.6800 
  2 C       -0.3900     2.4680    -0.6550 C.3   1 <1>   0.2000 
  3 C       -1.5290     3.0720     0.2120 C.3   1 <1>   0.0000 
  4 C        0.9530     2.3560     0.0910 C.3   1 <1>   0.2090 
  5 C       -1.0070     4.4130     0.7930 C.3   1 <1>  -0.1600 
  6 C       -1.8880     2.0770     1.3560 C.3   1 <1>   0.1200 
  7 C       -2.8170     3.3170    -0.6300 C.3   1 <1>  -0.1600 
  8 N        1.3640     3.6900     0.6680 N.pl3 1 <1>  -0.8380 
  9 C        0.3090     4.2620     1.5660 C.3   1 <1>   0.2090 
 10 O       -2.8670     2.5930     2.1980 O.3   1 <1>  -0.6800 
 11 C       -2.6630     4.1330    -1.9280 C.3   1 <1>  -0.1600 
 12 C        2.5900     4.2420     0.4340 C.ar  1 <1>   0.4610 
 13 C       -4.0230     4.3270    -2.6050 C.3   1 <1>  -0.2400 
 14 N        2.7530     5.5670     0.6000 N.ar  1 <1>  -0.1790 
 15 C        3.7200     3.5120     0.0140 C.ar  1 <1>  -0.1500 
 16 C        3.9280     6.2180     0.3790 C.ar  1 <1>   0.2170 
 17 C        4.9250     4.1240    -0.2220 C.ar  1 <1>  -0.1440 
 18 C        5.0220     5.5080    -0.0330 C.ar  1 <1>  -0.1500 
 19 C        3.9690     7.7200     0.5970 C.3   1 <1>  -0.0970 
 20 C        6.1500     3.3450    -0.6740 C.3   1 <1>  -0.0970 
 21 H       -1.5710     1.2550    -1.6310 H     1 <1>   0.4000 
 22 H       -0.2180     3.0820    -1.5210 H     1 <1>   0.0800 
 23 H        1.6780     2.0030    -0.6190 H     1 <1>   0.0800 
 24 H        0.8760     1.6320     0.8830 H     1 <1>   0.0800 
 25 H       -1.7500     4.8470     1.4390 H     1 <1>   0.0800 
 26 H       -0.8390     5.1170    -0.0010 H     1 <1>   0.0800 
 27 H       -1.0370     1.8250     1.9610 H     1 <1>   0.0800 
 28 H       -2.2800     1.1620     0.9450 H     1 <1>   0.0800 
 29 H       -3.2500     2.3650    -0.8850 H     1 <1>   0.0800 
 30 H       -3.5420     3.8170    -0.0080 H     1 <1>   0.0800 
 31 H        0.1690     3.6030     2.4070 H     1 <1>   0.0800 
 32 H        0.6030     5.2160     1.9640 H     1 <1>   0.0800 
 33 H       -2.5470     3.3670     2.6950 H     1 <1>   0.4000 
 34 H       -2.2490     5.1040    -1.7220 H     1 <1>   0.0800 
 35 H       -2.0150     3.6270    -2.6210 H     1 <1>   0.0800 
 36 H       -4.6960     4.8590    -1.9560 H     1 <1>   0.0800 
 37 H       -4.4620     3.3770    -2.8530 H     1 <1>   0.0800 
 38 H       -3.9060     4.8950    -3.5120 H     1 <1>   0.0800 
 39 H        1.9260     6.0840     0.8730 H     1 <1>   0.4570 
 40 H        3.6410     2.4490    -0.1080 H     1 <1>   0.1500 
 41 H        5.9670     5.9940    -0.2180 H     1 <1>   0.1500 
 42 H        4.9530     8.1050     0.3900 H     1 <1>   0.0800 
 43 H        3.7250     7.9580     1.6180 H     1 <1>   0.0800 
 44 H        3.2730     8.2140    -0.0570 H     1 <1>   0.0800 
 45 H        6.4980     3.7180    -1.6220 H     1 <1>   0.0800 
 46 H        5.9260     2.2990    -0.7850 H     1 <1>   0.0800 
 47 H        6.9410     3.4470     0.0480 H     1 <1>   0.0800 
@<TRIPOS>BOND
  1   1   2  1   
  2   1  21  1   
  3   2   3  1   
  4   2   4  1   
  5   2  22  1   
  6   3   5  1   
  7   3   6  1   
  8   3   7  1   
  9   4   8  1   
 10   4  23  1   
 11   4  24  1   
 12   5   9  1   
 13   5  25  1   
 14   5  26  1   
 15   6  10  1   
 16   6  27  1   
 17   6  28  1   
 18   7  11  1   
 19   7  29  1   
 20   7  30  1   
 21   8   9  1   
 22   8  12  1   
 23   9  31  1   
 24   9  32  1   
 25  10  33  1   
 26  11  13  1   
 27  11  34  1   
 28  11  35  1   
 29  12  14  ar  
 30  12  15  ar  
 31  13  36  1   
 32  13  37  1   
 33  13  38  1   
 34  14  16  ar  
 35  14  39  1   
 36  15  17  ar  
 37  15  40  1   
 38  16  18  ar  
 39  16  19  1   
 40  17  18  ar  
 41  17  20  1   
 42  18  41  1   
 43  19  42  1   
 44  19  43  1   
 45  19  44  1   
 46  20  45  1   
 47  20  46  1   
 48  20  47  1   
@<TRIPOS>SUBSTRUCTURE
  1 ****   8 GROUP 4 **** **** 0

# MOE 2024.06 (io_trps.svl 2023.06)
