@<TRIPOS>MOLECULE
NONAME
37 38 1 0 0 
SMALL
USER_CHARGES


@<TRIPOS>ATOM
  1 S       -2.5260    -0.8170     0.8130 S.3   1 <1>  -0.0800 
  2 C       -1.6350     0.6000     0.4040 C.2   1 <1>   0.4340 
  3 C       -1.8900    -1.5060    -0.6480 C.2   1 <1>   0.4420 
  4 S       -1.7510     1.9790     1.5330 S.3   1 <1>  -0.2860 
  5 N       -0.9740     0.5200    -0.6770 N.2   1 <1>  -0.3380 
  6 N       -1.1210    -0.6980    -1.2870 N.2   1 <1>  -0.3380 
  7 N       -2.2770    -2.7970    -0.9340 N.am  1 <1>  -0.4940 
  8 C       -0.6780     3.2540     0.7420 C.3   1 <1>   0.0700 
  9 C       -1.9960    -3.5960    -2.0020 C.2   1 <1>   0.5690 
 10 C       -0.6970     4.5000     1.6240 C.3   1 <1>  -0.2400 
 11 O       -1.3250    -3.2620    -2.9450 O.2   1 <1>  -0.5700 
 12 C       -2.5850    -5.0080    -1.9660 C.3   1 <1>   0.1710 
 13 N       -3.7160    -5.1670    -0.9970 N.3   1 <1>  -0.8100 
 14 C       -3.9310    -6.6060    -0.6940 C.3   1 <1>   0.2530 
 15 C       -4.9530    -4.5790    -1.5510 C.3   1 <1>   0.0300 
 16 C       -4.9390    -6.8350     0.4290 C.ar  1 <1>   0.1670 
 17 N       -5.8530    -7.7760     0.2390 N.ar  1 <1>  -0.6200 
 18 C       -4.8570    -6.0670     1.5890 C.ar  1 <1>   0.1600 
 19 C       -6.6690    -7.8920     1.2750 C.ar  1 <1>   0.1600 
 20 N       -5.6720    -6.1800     2.6250 N.ar  1 <1>  -0.6200 
 21 C       -6.5810    -7.1200     2.4280 C.ar  1 <1>   0.1600 
 22 H       -2.9110    -3.2490    -0.2730 H     1 <1>   0.3700 
 23 H       -1.0790     3.4490    -0.2370 H     1 <1>   0.0800 
 24 H        0.3110     2.8360     0.6600 H     1 <1>   0.0800 
 25 H       -1.7010     4.8770     1.7140 H     1 <1>   0.0800 
 26 H       -0.0790     5.2650     1.1900 H     1 <1>   0.0800 
 27 H       -0.3200     4.2670     2.6040 H     1 <1>   0.0800 
 28 H       -1.7800    -5.6670    -1.6920 H     1 <1>   0.0800 
 29 H       -2.9040    -5.2770    -2.9580 H     1 <1>   0.0800 
 30 H       -3.0010    -7.0550    -0.3920 H     1 <1>   0.0800 
 31 H       -4.2700    -7.1160    -1.5800 H     1 <1>   0.0800 
 32 H       -4.8030    -3.5430    -1.8040 H     1 <1>   0.0800 
 33 H       -5.7510    -4.6320    -0.8280 H     1 <1>   0.0800 
 34 H       -5.2610    -5.1070    -2.4390 H     1 <1>   0.0800 
 35 H       -4.0820    -5.3250     1.6580 H     1 <1>   0.1500 
 36 H       -7.4450    -8.6330     1.2090 H     1 <1>   0.1500 
 37 H       -7.2920    -7.2890     3.2170 H     1 <1>   0.1500 
@<TRIPOS>BOND
  1   1   2  1   
  2   1   3  1   
  3   2   4  1   
  4   2   5  2   
  5   3   6  2   
  6   3   7  1   
  7   4   8  1   
  8   5   6  1   
  9   7   9  am  
 10   7  22  1   
 11   8  10  1   
 12   8  23  1   
 13   8  24  1   
 14   9  11  2   
 15   9  12  1   
 16  10  25  1   
 17  10  26  1   
 18  10  27  1   
 19  12  13  1   
 20  12  28  1   
 21  12  29  1   
 22  13  14  1   
 23  13  15  1   
 24  14  16  1   
 25  14  30  1   
 26  14  31  1   
 27  15  32  1   
 28  15  33  1   
 29  15  34  1   
 30  16  17  ar  
 31  16  18  ar  
 32  17  19  ar  
 33  18  20  ar  
 34  18  35  1   
 35  19  21  ar  
 36  19  36  1   
 37  20  21  ar  
 38  21  37  1   
@<TRIPOS>SUBSTRUCTURE
  1 ****   7 GROUP 4 **** **** 0

# MOE 2024.06 (io_trps.svl 2023.06)
