@<TRIPOS>MOLECULE
NONAME
54 56 1 0 0 
SMALL
USER_CHARGES


@<TRIPOS>ATOM
  1 O       -0.9360     0.5350     1.7070 O.2   1 <1>  -0.5700 
  2 C       -1.3050     0.8420     0.5990 C.2   1 <1>   0.5690 
  3 N       -1.7570    -0.0890    -0.2950 N.am  1 <1>  -0.6600 
  4 C       -1.2620     2.3100     0.1980 C.3   1 <1>  -0.0990 
  5 C       -1.8090    -1.5450     0.0840 C.3   1 <1>   0.3640 
  6 C       -2.3000     0.2570    -1.6490 C.3   1 <1>   0.1400 
  7 C       -0.6240     3.2250     1.2540 C.3   1 <1>  -0.0170 
  8 C       -0.5920    -2.3250    -0.4460 C.ar  1 <1>  -0.1440 
  9 C       -3.1490    -2.2100    -0.3720 C.3   1 <1>   0.2000 
 10 C       -2.8820    -0.9630    -2.3770 C.3   1 <1>   0.1200 
 11 C       -0.6040     4.6620     0.7600 C.ar  1 <1>  -0.1440 
 12 C       -0.4220    -3.6360    -0.0160 C.ar  1 <1>  -0.1500 
 13 C        0.3530    -1.7910    -1.3190 C.ar  1 <1>  -0.1500 
 14 O       -3.7440    -1.6380    -1.5180 O.3   1 <1>  -0.5600 
 15 C       -4.2030    -2.1540     0.7400 C.3   1 <1>   0.1200 
 16 C       -1.6700     5.5160     0.9600 C.ar  1 <1>  -0.1500 
 17 C        0.4780     5.1850     0.0820 C.ar  1 <1>  -0.1500 
 18 C        0.6360    -4.4110    -0.4600 C.ar  1 <1>   0.0830 
 19 C        1.4270    -2.5500    -1.7540 C.ar  1 <1>  -0.1500 
 20 O       -3.8640    -3.0260     1.7700 O.3   1 <1>  -0.6800 
 21 C       -1.6060     6.8140     0.4810 C.ar  1 <1>   0.1600 
 22 C        0.4410     6.4990    -0.3550 C.ar  1 <1>   0.1600 
 23 O        0.6890    -5.6950    -0.0270 O.3   1 <1>  -0.3620 
 24 C        1.5850    -3.8540    -1.3220 C.ar  1 <1>   0.0830 
 25 N       -0.5770     7.3250    -0.1750 N.ar  1 <1>  -0.6200 
 26 C        0.5860    -6.7000    -1.0120 C.3   1 <1>   0.0400 
 27 O        2.6770    -4.5290    -1.7540 O.3   1 <1>  -0.3630 
 28 C        3.6410    -4.8380    -0.7720 C.3   1 <1>   0.0400 
 29 H       -0.7010     2.3990    -0.7130 H     1 <1>   0.0800 
 30 H       -2.2660     2.6430     0.0140 H     1 <1>   0.0800 
 31 H       -1.7600    -1.6280     1.1570 H     1 <1>   0.0800 
 32 H       -3.0820     0.9880    -1.5390 H     1 <1>   0.0800 
 33 H       -1.5200     0.6890    -2.2510 H     1 <1>   0.0800 
 34 H        0.3790     2.8960     1.4620 H     1 <1>   0.0800 
 35 H       -1.1830     3.1650     2.1730 H     1 <1>   0.0800 
 36 H       -2.9750    -3.2430    -0.6120 H     1 <1>   0.0800 
 37 H       -2.1090    -1.6380    -2.7020 H     1 <1>   0.0800 
 38 H       -3.4480    -0.6490    -3.2360 H     1 <1>   0.0800 
 39 H       -1.1170    -4.0780     0.6750 H     1 <1>   0.1500 
 40 H        0.2780    -0.7780    -1.6640 H     1 <1>   0.1500 
 41 H       -5.1700    -2.4420     0.3640 H     1 <1>   0.0800 
 42 H       -4.2570    -1.1600     1.1500 H     1 <1>   0.0800 
 43 H       -2.5480     5.1830     1.4830 H     1 <1>   0.1500 
 44 H        1.3490     4.5850    -0.1100 H     1 <1>   0.1500 
 45 H        2.1540    -2.1290    -2.4250 H     1 <1>   0.1500 
 46 H       -4.0890    -3.9480     1.5350 H     1 <1>   0.4000 
 47 H       -2.4460     7.4660     0.6470 H     1 <1>   0.1500 
 48 H        1.2940     6.8910    -0.8820 H     1 <1>   0.1500 
 49 H        0.4860    -7.6480    -0.5150 H     1 <1>   0.0800 
 50 H        1.4720    -6.6980    -1.6200 H     1 <1>   0.0800 
 51 H       -0.2830    -6.5070    -1.6160 H     1 <1>   0.0800 
 52 H        4.4830    -5.2960    -1.2580 H     1 <1>   0.0800 
 53 H        3.2160    -5.5180    -0.0560 H     1 <1>   0.0800 
 54 H        3.9450    -3.9280    -0.2850 H     1 <1>   0.0800 
@<TRIPOS>BOND
  1   1   2  2   
  2   2   3  am  
  3   2   4  1   
  4   3   5  1   
  5   3   6  1   
  6   4   7  1   
  7   4  29  1   
  8   4  30  1   
  9   5   8  1   
 10   5   9  1   
 11   5  31  1   
 12   6  10  1   
 13   6  32  1   
 14   6  33  1   
 15   7  11  1   
 16   7  34  1   
 17   7  35  1   
 18   8  12  ar  
 19   8  13  ar  
 20   9  14  1   
 21   9  15  1   
 22   9  36  1   
 23  10  14  1   
 24  10  37  1   
 25  10  38  1   
 26  11  16  ar  
 27  11  17  ar  
 28  12  18  ar  
 29  12  39  1   
 30  13  19  ar  
 31  13  40  1   
 32  15  20  1   
 33  15  41  1   
 34  15  42  1   
 35  16  21  ar  
 36  16  43  1   
 37  17  22  ar  
 38  17  44  1   
 39  18  23  1   
 40  18  24  ar  
 41  19  24  ar  
 42  19  45  1   
 43  20  46  1   
 44  21  25  ar  
 45  21  47  1   
 46  22  25  ar  
 47  22  48  1   
 48  23  26  1   
 49  24  27  1   
 50  26  49  1   
 51  26  50  1   
 52  26  51  1   
 53  27  28  1   
 54  28  52  1   
 55  28  53  1   
 56  28  54  1   
@<TRIPOS>SUBSTRUCTURE
  1 ****   3 GROUP 4 **** **** 0

# MOE 2024.06 (io_trps.svl 2023.06)
