@<TRIPOS>MOLECULE
NONAME
65 67 1 0 0 
SMALL
USER_CHARGES


@<TRIPOS>ATOM
  1 O        0.9490    -1.3690     0.9380 O.3   1 <1>  -0.5600 
  2 C        0.1880    -2.2460     0.1340 C.3   1 <1>   0.2800 
  3 C        0.3300    -0.2530     1.5190 C.3   1 <1>   0.1200 
  4 C       -1.3180    -1.8400     0.0700 C.3   1 <1>   0.2000 
  5 C        0.8760    -2.2320    -1.2400 C.3   1 <1>  -0.1600 
  6 C        0.3350    -3.6480     0.7720 C.3   1 <1>  -0.1600 
  7 C       -0.4190     0.5240     0.4360 C.3   1 <1>  -0.1600 
  8 O       -2.0030    -2.6190    -0.8700 O.3   1 <1>  -0.6800 
  9 C       -1.5700    -0.3150    -0.1410 C.3   1 <1>   0.2800 
 10 C        2.3630    -2.5780    -1.1290 C.3   1 <1>   0.3430 
 11 C        1.4210    -4.5210     0.1320 C.3   1 <1>   0.3430 
 12 O       -2.7020    -0.0080     0.5860 O.3   1 <1>  -0.6800 
 13 C       -1.8900     0.1210    -1.5790 C.3   1 <1>  -0.2400 
 14 N        2.6410    -3.7320    -0.2050 N.4   1 <1>  -0.9590 
 15 C        3.3360    -3.2710     1.0330 C.3   1 <1>   0.4860 
 16 C        4.6860    -2.6900     0.6580 C.ar  1 <1>  -0.1440 
 17 C        4.8700    -1.3150     0.6780 C.ar  1 <1>  -0.1500 
 18 C        5.7410    -3.5160     0.2920 C.ar  1 <1>  -0.1500 
 19 C        6.0860    -0.7600     0.3200 C.ar  1 <1>   0.0820 
 20 C        6.9660    -2.9680    -0.0510 C.ar  1 <1>  -0.1500 
 21 O        6.1740     0.5920     0.3280 O.3   1 <1>  -0.3620 
 22 C        7.1520    -1.5960    -0.0260 C.ar  1 <1>   0.0820 
 23 C        6.4400     1.2290    -0.9020 C.3   1 <1>   0.1200 
 24 O        8.3820    -1.1290    -0.3380 O.3   1 <1>  -0.3630 
 25 C        6.4040     2.7360    -0.6690 C.3   1 <1>  -0.2400 
 26 C        9.0950    -0.4920     0.7010 C.3   1 <1>   0.2580 
 27 C       10.4790    -0.1140     0.1880 C.2   1 <1>  -0.2760 
 28 C       11.6100    -0.6150     0.6960 C.2   1 <1>  -0.3000 
 29 C       10.4680     0.8900    -0.9540 C.3   1 <1>  -0.1020 
 30 H       -0.3370    -0.5860     2.2980 H     1 <1>   0.0800 
 31 H        1.0990     0.3590     1.9580 H     1 <1>   0.0800 
 32 H       -1.7390    -2.1010     1.0260 H     1 <1>   0.0800 
 33 H        0.3940    -2.9280    -1.9040 H     1 <1>   0.0800 
 34 H        0.7880    -1.2620    -1.6900 H     1 <1>   0.0800 
 35 H        0.5040    -3.5540     1.8290 H     1 <1>   0.0800 
 36 H       -0.5850    -4.1930     0.6610 H     1 <1>   0.0800 
 37 H        0.2870     0.7710    -0.3350 H     1 <1>   0.0800 
 38 H       -0.7890     1.4510     0.8380 H     1 <1>   0.0800 
 39 H       -2.9480    -2.3590    -0.8570 H     1 <1>   0.4000 
 40 H        2.8820    -1.7020    -0.7750 H     1 <1>   0.0800 
 41 H        2.7440    -2.8000    -2.1130 H     1 <1>   0.0800 
 42 H        1.0220    -4.9430    -0.7770 H     1 <1>   0.0800 
 43 H        1.6680    -5.3370     0.7920 H     1 <1>   0.0800 
 44 H       -2.9750     0.9120     0.4050 H     1 <1>   0.4000 
 45 H       -1.0950    -0.1540    -2.2450 H     1 <1>   0.0800 
 46 H       -2.0110     1.1880    -1.6340 H     1 <1>   0.0800 
 47 H       -2.7910    -0.3480    -1.9320 H     1 <1>   0.0800 
 48 H        3.3130    -4.3420    -0.6850 H     1 <1>   0.4500 
 49 H        2.7480    -2.5260     1.5420 H     1 <1>   0.0800 
 50 H        3.4840    -4.1000     1.7060 H     1 <1>   0.0800 
 51 H        4.0720    -0.6520     0.9660 H     1 <1>   0.1500 
 52 H        5.6320    -4.5870     0.2750 H     1 <1>   0.1500 
 53 H        7.7910    -3.5990    -0.3320 H     1 <1>   0.1500 
 54 H        7.4080     0.9260    -1.2570 H     1 <1>   0.0800 
 55 H        5.6860     0.9310    -1.6090 H     1 <1>   0.0800 
 56 H        7.1560     3.0160     0.0470 H     1 <1>   0.0800 
 57 H        5.4360     3.0330    -0.3090 H     1 <1>   0.0800 
 58 H        6.6010     3.2510    -1.5910 H     1 <1>   0.0800 
 59 H        8.5580     0.3850     1.0140 H     1 <1>   0.0800 
 60 H        9.1680    -1.1780     1.5260 H     1 <1>   0.0800 
 61 H       11.6500    -1.3260     1.5020 H     1 <1>   0.1500 
 62 H       12.5950    -0.3580     0.3450 H     1 <1>   0.1500 
 63 H        9.9750     1.7960    -0.6490 H     1 <1>   0.0800 
 64 H        9.9510     0.4800    -1.8040 H     1 <1>   0.0800 
 65 H       11.4720     1.1340    -1.2550 H     1 <1>   0.0800 
@<TRIPOS>BOND
  1   1   2  1   
  2   1   3  1   
  3   2   4  1   
  4   2   5  1   
  5   2   6  1   
  6   3   7  1   
  7   3  30  1   
  8   3  31  1   
  9   4   8  1   
 10   4   9  1   
 11   4  32  1   
 12   5  10  1   
 13   5  33  1   
 14   5  34  1   
 15   6  11  1   
 16   6  35  1   
 17   6  36  1   
 18   7   9  1   
 19   7  37  1   
 20   7  38  1   
 21   8  39  1   
 22   9  12  1   
 23   9  13  1   
 24  10  14  1   
 25  10  40  1   
 26  10  41  1   
 27  11  14  1   
 28  11  42  1   
 29  11  43  1   
 30  12  44  1   
 31  13  45  1   
 32  13  46  1   
 33  13  47  1   
 34  14  15  1   
 35  14  48  1   
 36  15  16  1   
 37  15  49  1   
 38  15  50  1   
 39  16  17  ar  
 40  16  18  ar  
 41  17  19  ar  
 42  17  51  1   
 43  18  20  ar  
 44  18  52  1   
 45  19  21  1   
 46  19  22  ar  
 47  20  22  ar  
 48  20  53  1   
 49  21  23  1   
 50  22  24  1   
 51  23  25  1   
 52  23  54  1   
 53  23  55  1   
 54  24  26  1   
 55  25  56  1   
 56  25  57  1   
 57  25  58  1   
 58  26  27  1   
 59  26  59  1   
 60  26  60  1   
 61  27  28  2   
 62  27  29  1   
 63  28  61  1   
 64  28  62  1   
 65  29  63  1   
 66  29  64  1   
 67  29  65  1   
@<TRIPOS>SUBSTRUCTURE
  1 ****  17 GROUP 4 **** **** 0

# MOE 2024.06 (io_trps.svl 2023.06)
