@<TRIPOS>MOLECULE
NONAME
41 41 1 0 0 
SMALL
USER_CHARGES


@<TRIPOS>ATOM
  1 O        0.1150     0.3070     0.1890 O.2   1 <1>  -0.5700 
  2 C        0.1830     1.4620    -0.1840 C.2   1 <1>   0.7800 
  3 O       -0.9160     2.2150    -0.2870 O.3   1 <1>  -0.4300 
  4 N        1.3770     2.0540    -0.5090 N.am  1 <1>  -0.6600 
  5 C       -2.2450     1.8400     0.0010 C.3   1 <1>   0.2800 
  6 C        1.4990     3.4660    -0.9660 C.3   1 <1>   0.1400 
  7 C        2.6720     1.3410    -0.3680 C.3   1 <1>   0.1400 
  8 C       -2.3830     1.4740     1.4830 C.3   1 <1>  -0.2400 
  9 C       -3.0810     3.0860    -0.2900 C.3   1 <1>  -0.2400 
 10 C       -2.6900     0.7040    -0.9290 C.3   1 <1>  -0.2400 
 11 C        2.3680     4.2580     0.0190 C.3   1 <1>  -0.0190 
 12 C        3.5650     2.1030     0.6160 C.3   1 <1>  -0.1600 
 13 C        2.4960     5.6890    -0.4750 C.2   1 <1>   0.6590 
 14 C        3.7450     3.5790     0.2150 C.3   1 <1>  -0.0800 
 15 O        2.8090     5.9460    -1.6100 O.2   1 <1>  -0.5700 
 16 O        2.2390     6.6390     0.4160 O.3   1 <1>  -0.4300 
 17 C        4.5980     4.3030     1.2680 C.3   1 <1>  -0.2400 
 18 C        2.3250     8.0100     0.0850 C.3   1 <1>   0.0400 
 19 H        1.9520     3.4750    -1.9430 H     1 <1>   0.0800 
 20 H        0.5320     3.9310    -1.0490 H     1 <1>   0.0800 
 21 H        2.5180     0.3350    -0.0140 H     1 <1>   0.0800 
 22 H        3.1480     1.2860    -1.3320 H     1 <1>   0.0800 
 23 H       -3.4190     1.3260     1.7290 H     1 <1>   0.0800 
 24 H       -1.9940     2.2620     2.1010 H     1 <1>   0.0800 
 25 H       -1.8640     0.5600     1.7070 H     1 <1>   0.0800 
 26 H       -4.1210     2.8930    -0.0970 H     1 <1>   0.0800 
 27 H       -2.9760     3.3730    -1.3210 H     1 <1>   0.0800 
 28 H       -2.7660     3.9010     0.3360 H     1 <1>   0.0800 
 29 H       -3.7400     0.5180    -0.8030 H     1 <1>   0.0800 
 30 H       -2.1700    -0.2080    -0.7020 H     1 <1>   0.0800 
 31 H       -2.5090     0.9690    -1.9550 H     1 <1>   0.0800 
 32 H        1.8510     4.2810     0.9610 H     1 <1>   0.0800 
 33 H        3.1220     2.0390     1.5960 H     1 <1>   0.0800 
 34 H        4.5240     1.6180     0.6610 H     1 <1>   0.0800 
 35 H        4.2740     3.6090    -0.7250 H     1 <1>   0.0800 
 36 H        4.0910     4.3280     2.2160 H     1 <1>   0.0800 
 37 H        4.8070     5.3130     0.9630 H     1 <1>   0.0800 
 38 H        5.5390     3.7970     1.3970 H     1 <1>   0.0800 
 39 H        2.0770     8.5880     0.9570 H     1 <1>   0.0800 
 40 H        1.6310     8.2200    -0.7110 H     1 <1>   0.0800 
 41 H        3.3300     8.2280    -0.2330 H     1 <1>   0.0800 
@<TRIPOS>BOND
  1   1   2  2   
  2   2   3  1   
  3   2   4  am  
  4   3   5  1   
  5   4   6  1   
  6   4   7  1   
  7   5   8  1   
  8   5   9  1   
  9   5  10  1   
 10   6  11  1   
 11   6  19  1   
 12   6  20  1   
 13   7  12  1   
 14   7  21  1   
 15   7  22  1   
 16   8  23  1   
 17   8  24  1   
 18   8  25  1   
 19   9  26  1   
 20   9  27  1   
 21   9  28  1   
 22  10  29  1   
 23  10  30  1   
 24  10  31  1   
 25  11  13  1   
 26  11  14  1   
 27  11  32  1   
 28  12  14  1   
 29  12  33  1   
 30  12  34  1   
 31  13  15  2   
 32  13  16  1   
 33  14  17  1   
 34  14  35  1   
 35  16  18  1   
 36  17  36  1   
 37  17  37  1   
 38  17  38  1   
 39  18  39  1   
 40  18  40  1   
 41  18  41  1   
@<TRIPOS>SUBSTRUCTURE
  1 ****   6 GROUP 4 **** **** 0

# MOE 2024.06 (io_trps.svl 2023.06)
