@<TRIPOS>MOLECULE
NONAME
49 50 1 0 0 
SMALL
USER_CHARGES


@<TRIPOS>ATOM
  1 CL       0.5680    -0.4520     0.0640 Cl    1 <1>  -0.1770 
  2 C        0.0070    -2.1120    -0.0080 C.ar  1 <1>   0.1770 
  3 C        0.7820    -3.1150     0.5620 C.ar  1 <1>  -0.1440 
  4 C       -1.2010    -2.3920    -0.6340 C.ar  1 <1>  -0.1440 
  5 C        0.3300    -4.4250     0.5030 C.ar  1 <1>  -0.1500 
  6 C        2.1060    -2.7930     1.2390 C.3   1 <1>  -0.0960 
  7 C       -1.6330    -3.7070    -0.6820 C.ar  1 <1>  -0.1500 
  8 C       -2.0410    -1.2880    -1.2600 C.3   1 <1>  -0.0960 
  9 C       -0.8820    -4.7240    -0.1150 C.ar  1 <1>   0.0820 
 10 O       -1.4010    -5.9750    -0.2090 O.3   1 <1>  -0.3630 
 11 C       -0.9270    -7.0830     0.5450 C.3   1 <1>   0.2610 
 12 C       -1.4040    -8.4160    -0.0690 C.2   1 <1>   0.5690 
 13 C       -1.3350    -6.9090     2.0180 C.3   1 <1>  -0.2400 
 14 O       -0.5400    -9.2510    -0.2300 O.2   1 <1>  -0.5700 
 15 N       -2.7130    -8.7010    -0.4040 N.am  1 <1>  -0.6600 
 16 C       -3.0200    -9.9040    -1.2330 C.3   1 <1>   0.3200 
 17 C       -3.8930    -7.8140    -0.1410 C.3   1 <1>   0.1400 
 18 C       -3.8440   -10.9000    -0.4430 C.2   1 <1>  -0.3320 
 19 C       -4.6450    -8.2300     1.1300 C.3   1 <1>   0.1200 
 20 N       -3.3970   -11.6050     0.6160 N.pl3 1 <1>   0.0480 
 21 C       -5.1300   -11.2720    -0.6360 C.2   1 <1>   0.0770 
 22 O       -5.4450    -7.1760     1.5520 O.3   1 <1>  -0.6800 
 23 C       -4.4550   -12.3540     0.9990 C.2   1 <1>   0.0360 
 24 C       -2.0540   -11.5930     1.2230 C.3   1 <1>   0.0160 
 25 N       -5.5130   -12.1830     0.2760 N.2   1 <1>  -0.5650 
 26 H        0.9350    -5.1960     0.9380 H     1 <1>   0.1500 
 27 H        1.9450    -2.1120     2.0560 H     1 <1>   0.0800 
 28 H        2.7760    -2.3340     0.5340 H     1 <1>   0.0800 
 29 H        2.5740    -3.6810     1.6240 H     1 <1>   0.0800 
 30 H       -2.5620    -3.9580    -1.1610 H     1 <1>   0.1500 
 31 H       -1.4780    -0.7930    -2.0310 H     1 <1>   0.0800 
 32 H       -2.3140    -0.5650    -0.5120 H     1 <1>   0.0800 
 33 H       -2.9400    -1.6850    -1.6950 H     1 <1>   0.0800 
 34 H        0.1440    -7.0890     0.4700 H     1 <1>   0.0800 
 35 H       -2.3940    -6.7710     2.1080 H     1 <1>   0.0800 
 36 H       -0.8360    -6.0620     2.4510 H     1 <1>   0.0800 
 37 H       -1.0520    -7.7840     2.5750 H     1 <1>   0.0800 
 38 H       -2.1180   -10.3800    -1.5770 H     1 <1>   0.0800 
 39 H       -3.5670    -9.5960    -2.1070 H     1 <1>   0.0800 
 40 H       -4.5700    -7.8590    -0.9770 H     1 <1>   0.0800 
 41 H       -3.5770    -6.7950    -0.0400 H     1 <1>   0.0800 
 42 H       -3.9650    -8.4760     1.9260 H     1 <1>   0.0800 
 43 H       -5.2880    -9.0700     0.9380 H     1 <1>   0.0800 
 44 H       -5.8140   -10.9270    -1.3930 H     1 <1>   0.1500 
 45 H       -4.9040    -6.4230     1.8620 H     1 <1>   0.4000 
 46 H       -4.4020   -13.0300     1.8340 H     1 <1>   0.1500 
 47 H       -1.3130   -11.7050     0.4520 H     1 <1>   0.0800 
 48 H       -1.9640   -12.4020     1.9240 H     1 <1>   0.0800 
 49 H       -1.9020   -10.6590     1.7300 H     1 <1>   0.0800 
@<TRIPOS>BOND
  1   1   2  1   
  2   2   3  ar  
  3   2   4  ar  
  4   3   5  ar  
  5   3   6  1   
  6   4   7  ar  
  7   4   8  1   
  8   5   9  ar  
  9   5  26  1   
 10   6  27  1   
 11   6  28  1   
 12   6  29  1   
 13   7   9  ar  
 14   7  30  1   
 15   8  31  1   
 16   8  32  1   
 17   8  33  1   
 18   9  10  1   
 19  10  11  1   
 20  11  12  1   
 21  11  13  1   
 22  11  34  1   
 23  12  14  2   
 24  12  15  am  
 25  13  35  1   
 26  13  36  1   
 27  13  37  1   
 28  15  16  1   
 29  15  17  1   
 30  16  18  1   
 31  16  38  1   
 32  16  39  1   
 33  17  19  1   
 34  17  40  1   
 35  17  41  1   
 36  18  20  1   
 37  18  21  2   
 38  19  22  1   
 39  19  42  1   
 40  19  43  1   
 41  20  23  1   
 42  20  24  1   
 43  21  25  1   
 44  21  44  1   
 45  22  45  1   
 46  23  25  2   
 47  23  46  1   
 48  24  47  1   
 49  24  48  1   
 50  24  49  1   
@<TRIPOS>SUBSTRUCTURE
  1 ****  11 GROUP 4 **** **** 0

# MOE 2024.06 (io_trps.svl 2023.06)
