@<TRIPOS>MOLECULE
NONAME
51 53 1 0 0 
SMALL
USER_CHARGES


@<TRIPOS>ATOM
  1 O       -0.2890     1.2590    -1.3690 O.2   1 <1>  -0.5700 
  2 C       -0.4960     2.4470    -1.3010 C.2   1 <1>   0.5690 
  3 N       -1.3170     3.0250    -0.3630 N.am  1 <1>  -0.6600 
  4 C        0.2040     3.3450    -2.3170 C.3   1 <1>   0.1810 
  5 C       -1.4840     4.5180    -0.3140 C.3   1 <1>   0.3640 
  6 C       -2.0010     2.2860     0.7370 C.3   1 <1>   0.2200 
  7 O        0.5440     4.5850    -1.7580 O.3   1 <1>  -0.5600 
  8 C       -2.9440     4.8950    -0.5640 C.ar  1 <1>  -0.1440 
  9 C       -0.5720     5.3190    -1.2820 C.3   1 <1>   0.2610 
 10 C       -0.9650     1.7120     1.7020 C.3   1 <1>  -0.2400 
 11 C       -2.9380     1.2070     0.1930 C.3   1 <1>  -0.2400 
 12 C       -3.5420     5.8770     0.2130 C.ar  1 <1>  -0.1500 
 13 C       -3.6880     4.2850    -1.5670 C.ar  1 <1>  -0.1500 
 14 C       -0.1420     6.6220    -0.5940 C.2   1 <1>   0.5690 
 15 C       -4.8610     6.2370    -0.0010 C.ar  1 <1>  -0.1500 
 16 C       -5.0070     4.6430    -1.7810 C.ar  1 <1>  -0.1500 
 17 O       -0.7050     7.6310    -0.9500 O.2   1 <1>  -0.5700 
 18 N        0.8130     6.6640     0.4060 N.am  1 <1>  -0.6600 
 19 C       -5.5950     5.6190    -0.9980 C.ar  1 <1>  -0.1500 
 20 C        1.5800     5.4930     0.9170 C.3   1 <1>   0.1400 
 21 C        1.3090     7.9660     0.9300 C.3   1 <1>   0.1400 
 22 C        3.0370     5.6280     0.4710 C.3   1 <1>  -0.1600 
 23 C        2.7660     8.1490     0.4960 C.3   1 <1>  -0.1600 
 24 C        3.6420     6.9640     0.9380 C.3   1 <1>   0.1200 
 25 C        5.0420     7.1200     0.4370 C.1   1 <1>   0.3570 
 26 N        6.1110     7.2380     0.0680 N.1   1 <1>  -0.5570 
 27 H       -0.4320     3.5070    -3.1680 H     1 <1>   0.0800 
 28 H        1.1130     2.8730    -2.6440 H     1 <1>   0.0800 
 29 H       -1.2380     4.8220     0.6880 H     1 <1>   0.0800 
 30 H       -2.6110     2.9810     1.2910 H     1 <1>   0.0800 
 31 H       -1.1470     5.5920    -2.1490 H     1 <1>   0.0800 
 32 H       -0.3680     0.9600     1.2170 H     1 <1>   0.0800 
 33 H       -1.4620     1.2550     2.5380 H     1 <1>   0.0800 
 34 H       -0.3240     2.4910     2.0700 H     1 <1>   0.0800 
 35 H       -2.3900     0.4210    -0.2920 H     1 <1>   0.0800 
 36 H       -3.6370     1.6350    -0.5010 H     1 <1>   0.0800 
 37 H       -3.4930     0.7710     1.0030 H     1 <1>   0.0800 
 38 H       -2.9870     6.3770     0.9880 H     1 <1>   0.1500 
 39 H       -3.2470     3.5220    -2.1850 H     1 <1>   0.1500 
 40 H       -5.3160     7.0010     0.6050 H     1 <1>   0.1500 
 41 H       -5.5760     4.1630    -2.5580 H     1 <1>   0.1500 
 42 H       -6.6210     5.9000    -1.1640 H     1 <1>   0.1500 
 43 H        1.5260     5.4810     1.9930 H     1 <1>   0.0800 
 44 H        1.1760     4.5620     0.5640 H     1 <1>   0.0800 
 45 H        0.7160     8.7850     0.5570 H     1 <1>   0.0800 
 46 H        1.2350     7.9680     2.0040 H     1 <1>   0.0800 
 47 H        3.6080     4.8080     0.8710 H     1 <1>   0.0800 
 48 H        3.0760     5.5600    -0.6040 H     1 <1>   0.0800 
 49 H        2.7930     8.2460    -0.5770 H     1 <1>   0.0800 
 50 H        3.1480     9.0630     0.9150 H     1 <1>   0.0800 
 51 H        3.6880     6.9580     2.0130 H     1 <1>   0.0800 
@<TRIPOS>BOND
  1   1   2  2   
  2   2   3  am  
  3   2   4  1   
  4   3   5  1   
  5   3   6  1   
  6   4   7  1   
  7   4  27  1   
  8   4  28  1   
  9   5   8  1   
 10   5   9  1   
 11   5  29  1   
 12   6  10  1   
 13   6  11  1   
 14   6  30  1   
 15   7   9  1   
 16   8  12  ar  
 17   8  13  ar  
 18   9  14  1   
 19   9  31  1   
 20  10  32  1   
 21  10  33  1   
 22  10  34  1   
 23  11  35  1   
 24  11  36  1   
 25  11  37  1   
 26  12  15  ar  
 27  12  38  1   
 28  13  16  ar  
 29  13  39  1   
 30  14  17  2   
 31  14  18  am  
 32  15  19  ar  
 33  15  40  1   
 34  16  19  ar  
 35  16  41  1   
 36  18  20  1   
 37  18  21  1   
 38  19  42  1   
 39  20  22  1   
 40  20  43  1   
 41  20  44  1   
 42  21  23  1   
 43  21  45  1   
 44  21  46  1   
 45  22  24  1   
 46  22  47  1   
 47  22  48  1   
 48  23  24  1   
 49  23  49  1   
 50  23  50  1   
 51  24  25  1   
 52  24  51  1   
 53  25  26  3   
@<TRIPOS>SUBSTRUCTURE
  1 ****   9 GROUP 4 **** **** 0

# MOE 2024.06 (io_trps.svl 2023.06)
