@<TRIPOS>MOLECULE
NONAME
46 47 1 0 0 
SMALL
USER_CHARGES


@<TRIPOS>ATOM
  1 O       -0.8190    -0.3660    -1.6500 O.2   1 <1>  -0.5700 
  2 C       -1.5970     0.2150    -0.9180 C.2   1 <1>   0.7160 
  3 N       -2.4700    -0.4990    -0.1270 N.am  1 <1>  -0.6600 
  4 C       -1.5780     1.6510    -0.8730 C.2   1 <1>  -0.0860 
  5 C       -2.6440    -1.9810    -0.3040 C.3   1 <1>   0.1400 
  6 C       -3.3550     0.1710     0.8780 C.3   1 <1>   0.1400 
  7 C       -0.8780     2.4600     0.0060 C.2   1 <1>   0.1080 
  8 C       -2.2230     2.5680    -1.6210 C.2   1 <1>  -0.0400 
  9 C       -4.1160    -2.4410    -0.4170 C.3   1 <1>   0.2000 
 10 C       -4.6150    -0.6420     1.2070 C.3   1 <1>  -0.1600 
 11 N       -1.1290     3.6940    -0.2250 N.2   1 <1>  -0.4100 
 12 C        0.0600     1.9700     1.0950 C.3   1 <1>   0.0210 
 13 O       -1.9640     3.7940    -1.2360 O.3   1 <1>  -0.0190 
 14 C       -3.1630     2.3540    -2.7900 C.3   1 <1>  -0.0600 
 15 O       -4.3850    -2.9160    -1.6900 O.3   1 <1>  -0.6800 
 16 C       -5.1900    -1.3980    -0.0190 C.3   1 <1>  -0.1060 
 17 C        1.4040     1.5220     0.5140 C.3   1 <1>  -0.2400 
 18 C       -6.4160    -2.2500     0.3420 C.2   1 <1>   0.9060 
 19 C       -5.5260    -0.4120    -1.1930 C.3   1 <1>  -0.1600 
 20 O       -6.8560    -2.2490     1.4990 O.co2 1 <1>  -0.9000 
 21 O       -6.8940    -2.9830    -0.5380 O.co2 1 <1>  -0.9000 
 22 C       -6.3460     0.8540    -0.8690 C.3   1 <1>  -0.1600 
 23 C       -7.7480     0.5560    -0.3290 C.3   1 <1>  -0.2400 
 24 H       -2.1040    -2.3300    -1.1670 H     1 <1>   0.0800 
 25 H       -2.2150    -2.4580     0.5580 H     1 <1>   0.0800 
 26 H       -2.8000     0.3450     1.7830 H     1 <1>   0.0800 
 27 H       -3.6650     1.1270     0.4940 H     1 <1>   0.0800 
 28 H       -4.2180    -3.2950     0.2340 H     1 <1>   0.0800 
 29 H       -4.3760    -1.3570     1.9760 H     1 <1>   0.0800 
 30 H       -5.3630     0.0050     1.6280 H     1 <1>   0.0800 
 31 H        0.2240     2.7670     1.7990 H     1 <1>   0.0800 
 32 H       -0.3980     1.1520     1.6220 H     1 <1>   0.0800 
 33 H       -3.2240     1.3090    -3.0390 H     1 <1>   0.0800 
 34 H       -2.8020     2.8900    -3.6490 H     1 <1>   0.0800 
 35 H       -4.1450     2.7110    -2.5400 H     1 <1>   0.0800 
 36 H       -5.3570    -3.1330    -1.6820 H     1 <1>   0.4000 
 37 H        1.8640     2.3370    -0.0180 H     1 <1>   0.0800 
 38 H        1.2650     0.7020    -0.1690 H     1 <1>   0.0800 
 39 H        2.0640     1.2070     1.3020 H     1 <1>   0.0800 
 40 H       -4.6090    -0.0980    -1.6530 H     1 <1>   0.0800 
 41 H       -6.0620    -0.9570    -1.9520 H     1 <1>   0.0800 
 42 H       -5.8220     1.4810    -0.1720 H     1 <1>   0.0800 
 43 H       -6.4550     1.4170    -1.7800 H     1 <1>   0.0800 
 44 H       -7.6950     0.1390     0.6610 H     1 <1>   0.0800 
 45 H       -8.2550    -0.1490    -0.9660 H     1 <1>   0.0800 
 46 H       -8.3290     1.4590    -0.2810 H     1 <1>   0.0800 
@<TRIPOS>BOND
  1   1   2  2   
  2   2   3  am  
  3   2   4  1   
  4   3   5  1   
  5   3   6  1   
  6   4   7  1   
  7   4   8  2   
  8   5   9  1   
  9   5  24  1   
 10   5  25  1   
 11   6  10  1   
 12   6  26  1   
 13   6  27  1   
 14   7  11  2   
 15   7  12  1   
 16   8  13  1   
 17   8  14  1   
 18   9  15  1   
 19   9  16  1   
 20   9  28  1   
 21  10  16  1   
 22  10  29  1   
 23  10  30  1   
 24  11  13  1   
 25  12  17  1   
 26  12  31  1   
 27  12  32  1   
 28  14  33  1   
 29  14  34  1   
 30  14  35  1   
 31  15  36  1   
 32  16  18  1   
 33  16  19  1   
 34  17  37  1   
 35  17  38  1   
 36  17  39  1   
 37  18  20  ar  
 38  18  21  ar  
 39  19  22  1   
 40  19  40  1   
 41  19  41  1   
 42  22  23  1   
 43  22  42  1   
 44  22  43  1   
 45  23  44  1   
 46  23  45  1   
 47  23  46  1   
@<TRIPOS>SUBSTRUCTURE
  1 ****   3 GROUP 4 **** **** 0

# MOE 2024.06 (io_trps.svl 2023.06)
