@<TRIPOS>MOLECULE
NONAME
45 46 1 0 0 
SMALL
USER_CHARGES


@<TRIPOS>ATOM
  1 S       -0.3260    -0.0740     0.2910 S.o2  1 <1>   1.3330 
  2 O       -1.0650     1.1660     0.2230 O.2   1 <1>  -0.6500 
  3 O       -0.1540    -0.7320     1.5670 O.2   1 <1>  -0.6500 
  4 N       -1.0480    -1.1850    -0.7710 N.am  1 <1>  -0.8490 
  5 C        1.2760     0.2020    -0.4680 C.3   1 <1>  -0.0550 
  6 C       -0.6850    -2.5790    -0.4920 C.3   1 <1>   0.1160 
  7 C       -2.5070    -1.0490    -0.8110 C.3   1 <1>   0.1160 
  8 C        2.1270     1.2640     0.2580 C.3   1 <1>  -0.0800 
  9 C        3.3670     1.6120    -0.5490 C.3   1 <1>   0.2200 
 10 C        2.7250     0.7320     1.5680 C.3   1 <1>   0.1200 
 11 N        3.8250     2.9660    -0.1670 N.am  1 <1>  -0.7300 
 12 C        4.3660     0.5820    -0.0420 C.3   1 <1>   0.1200 
 13 O        4.0520     0.3790     1.3020 O.3   1 <1>  -0.5600 
 14 C        3.9930     4.0170    -1.0220 C.2   1 <1>   0.5440 
 15 O        3.7460     3.8470    -2.2000 O.2   1 <1>  -0.5700 
 16 C        4.4770     5.2960    -0.5330 C.ar  1 <1>   0.0860 
 17 C        4.2380     5.7260     0.7740 C.ar  1 <1>  -0.1500 
 18 C        5.2090     6.1490    -1.3590 C.ar  1 <1>  -0.1500 
 19 C        4.7190     6.9370     1.2370 C.ar  1 <1>  -0.1500 
 20 C        5.6930     7.3610    -0.9010 C.ar  1 <1>  -0.1500 
 21 C        5.4530     7.7640     0.4020 C.ar  1 <1>  -0.1440 
 22 C        5.9900     9.0930     0.9020 C.3   1 <1>   0.2630 
 23 O        7.3520     8.9530     1.0710 O.3   1 <1>  -0.6800 
 24 H        1.8150    -0.7240    -0.5140 H     1 <1>   0.0800 
 25 H        1.1070     0.5330    -1.4740 H     1 <1>   0.0800 
 26 H       -1.0930    -3.2260    -1.2500 H     1 <1>   0.0800 
 27 H       -1.0650    -2.8820     0.4700 H     1 <1>   0.0800 
 28 H        0.3860    -2.6920    -0.4900 H     1 <1>   0.0800 
 29 H       -2.9290    -1.7560    -1.5040 H     1 <1>   0.0800 
 30 H       -2.7760    -0.0580    -1.1390 H     1 <1>   0.0800 
 31 H       -2.9260    -1.2150     0.1670 H     1 <1>   0.0800 
 32 H        1.5190     2.1360     0.4280 H     1 <1>   0.0800 
 33 H        3.2180     1.5450    -1.6140 H     1 <1>   0.0800 
 34 H        2.2140    -0.1320     1.9550 H     1 <1>   0.0800 
 35 H        2.7390     1.5000     2.3210 H     1 <1>   0.0800 
 36 H        4.1770     3.0300     0.7890 H     1 <1>   0.3700 
 37 H        5.3860     0.9140    -0.1320 H     1 <1>   0.0800 
 38 H        4.2420    -0.3560    -0.5540 H     1 <1>   0.0800 
 39 H        3.6600     5.1080     1.4370 H     1 <1>   0.1500 
 40 H        5.4010     5.8500    -2.3750 H     1 <1>   0.1500 
 41 H        4.5170     7.2350     2.2520 H     1 <1>   0.1500 
 42 H        6.2620     7.9920    -1.5620 H     1 <1>   0.1500 
 43 H        5.5570     9.3610     1.8500 H     1 <1>   0.0800 
 44 H        5.8150     9.8830     0.1910 H     1 <1>   0.0800 
 45 H        7.5390     8.0360     1.3490 H     1 <1>   0.4000 
@<TRIPOS>BOND
  1   1   2  2   
  2   1   3  2   
  3   1   4  am  
  4   1   5  1   
  5   4   6  1   
  6   4   7  1   
  7   5   8  1   
  8   5  24  1   
  9   5  25  1   
 10   6  26  1   
 11   6  27  1   
 12   6  28  1   
 13   7  29  1   
 14   7  30  1   
 15   7  31  1   
 16   8   9  1   
 17   8  10  1   
 18   8  32  1   
 19   9  11  1   
 20   9  12  1   
 21   9  33  1   
 22  10  13  1   
 23  10  34  1   
 24  10  35  1   
 25  11  14  am  
 26  11  36  1   
 27  12  13  1   
 28  12  37  1   
 29  12  38  1   
 30  14  15  2   
 31  14  16  1   
 32  16  17  ar  
 33  16  18  ar  
 34  17  19  ar  
 35  17  39  1   
 36  18  20  ar  
 37  18  40  1   
 38  19  21  ar  
 39  19  41  1   
 40  20  21  ar  
 41  20  42  1   
 42  21  22  1   
 43  22  23  1   
 44  22  43  1   
 45  22  44  1   
 46  23  45  1   
@<TRIPOS>SUBSTRUCTURE
  1 ****  11 GROUP 4 **** **** 0

# MOE 2024.06 (io_trps.svl 2023.06)
