@<TRIPOS>MOLECULE
NONAME
42 44 1 0 0 
SMALL
USER_CHARGES


@<TRIPOS>ATOM
  1 F        0.5600     1.4380     0.7010 F     1 <1>  -0.3400 
  2 C        0.0210     2.2080    -0.2410 C.3   1 <1>   1.1640 
  3 F       -1.2610     1.8520    -0.3030 F     1 <1>  -0.3400 
  4 F        0.5560     1.8130    -1.3940 F     1 <1>  -0.3400 
  5 C        0.2260     3.7260     0.0340 C.ar  1 <1>   0.1660 
  6 N        1.4680     4.2220    -0.0120 N.ar  1 <1>  -0.6200 
  7 C       -0.8770     4.5260     0.3220 C.ar  1 <1>  -0.1500 
  8 C        1.6290     5.5150     0.2280 C.ar  1 <1>   0.4100 
  9 C       -0.7150     5.8740     0.5670 C.ar  1 <1>  -0.1500 
 10 N        2.9230     6.0090     0.1860 N.pl3 1 <1>  -0.8380 
 11 C        0.5650     6.3650     0.5140 C.ar  1 <1>  -0.1500 
 12 C        3.4740     6.6000     1.4660 C.3   1 <1>   0.2090 
 13 C        3.9360     5.2630    -0.6460 C.3   1 <1>   0.2090 
 14 C        4.4640     7.7620     1.1880 C.3   1 <1>   0.4230 
 15 C        5.2150     6.0480    -1.0460 C.3   1 <1>  -0.0800 
 16 N        4.2220     8.2280    -0.2310 N.4   1 <1>  -0.9590 
 17 C        5.9230     7.3530     1.5190 C.3   1 <1>   0.1200 
 18 C        6.4300     5.7520    -0.1510 C.3   1 <1>   0.1200 
 19 C        5.0660     7.5620    -1.2580 C.3   1 <1>   0.3430 
 20 C        4.3510     9.7400    -0.3390 C.3   1 <1>   0.2370 
 21 O        6.1770     6.0150     1.1870 O.3   1 <1>  -0.5600 
 22 C        5.7050    10.2750     0.1310 C.2   1 <1>   0.9060 
 23 O        6.6430    10.2610    -0.6690 O.co2 1 <1>  -0.9000 
 24 O        5.8320    10.5170     1.3350 O.co2 1 <1>  -0.9000 
 25 H       -1.8710     4.1120     0.3580 H     1 <1>   0.1500 
 26 H       -1.5580     6.5080     0.7880 H     1 <1>   0.1500 
 27 H        0.7520     7.4060     0.6880 H     1 <1>   0.1500 
 28 H        2.6670     6.9870     2.0620 H     1 <1>   0.0800 
 29 H        3.9380     5.8250     2.0530 H     1 <1>   0.0800 
 30 H        4.2180     4.3630    -0.1240 H     1 <1>   0.0800 
 31 H        3.4450     4.9530    -1.5540 H     1 <1>   0.0800 
 32 H        4.2210     8.5750     1.8520 H     1 <1>   0.0800 
 33 H        5.5040     5.6580    -2.0050 H     1 <1>   0.0800 
 34 H        3.2660     7.8840    -0.4190 H     1 <1>   0.4500 
 35 H        6.0620     7.4330     2.5830 H     1 <1>   0.0800 
 36 H        6.6490     7.9940     1.0500 H     1 <1>   0.0800 
 37 H        7.2900     6.3270    -0.4540 H     1 <1>   0.0800 
 38 H        6.6860     4.7080    -0.2180 H     1 <1>   0.0800 
 39 H        4.6270     7.7370    -2.2260 H     1 <1>   0.0800 
 40 H        6.0470     8.0150    -1.2640 H     1 <1>   0.0800 
 41 H        4.2160    10.0510    -1.3580 H     1 <1>   0.0800 
 42 H        3.6000    10.2140     0.2660 H     1 <1>   0.0800 
@<TRIPOS>BOND
  1   1   2  1   
  2   2   3  1   
  3   2   4  1   
  4   2   5  1   
  5   5   6  ar  
  6   5   7  ar  
  7   6   8  ar  
  8   7   9  ar  
  9   7  25  1   
 10   8  10  1   
 11   8  11  ar  
 12   9  11  ar  
 13   9  26  1   
 14  10  12  1   
 15  10  13  1   
 16  11  27  1   
 17  12  14  1   
 18  12  28  1   
 19  12  29  1   
 20  13  15  1   
 21  13  30  1   
 22  13  31  1   
 23  14  16  1   
 24  14  17  1   
 25  14  32  1   
 26  15  18  1   
 27  15  19  1   
 28  15  33  1   
 29  16  19  1   
 30  16  20  1   
 31  16  34  1   
 32  17  21  1   
 33  17  35  1   
 34  17  36  1   
 35  18  21  1   
 36  18  37  1   
 37  18  38  1   
 38  19  39  1   
 39  19  40  1   
 40  20  22  1   
 41  20  41  1   
 42  20  42  1   
 43  22  23  ar  
 44  22  24  ar  
@<TRIPOS>SUBSTRUCTURE
  1 ****  10 GROUP 4 **** **** 0

# MOE 2024.06 (io_trps.svl 2023.06)
