@<TRIPOS>MOLECULE
NONAME
52 54 1 0 0 
SMALL
USER_CHARGES


@<TRIPOS>ATOM
  1 O       -1.7440    -0.5090     0.4400 O.2   1 <1>  -0.5700 
  2 C       -2.1400     0.4460    -0.2220 C.2   1 <1>   0.6160 
  3 N       -1.7070     1.7310     0.1150 N.am  1 <1>  -0.4690 
  4 C       -3.0600     0.2770    -1.3090 C.2   1 <1>   0.0290 
  5 C       -2.1660     2.8300    -0.5860 C.2   1 <1>  -0.0290 
  6 C       -0.7180     1.9090     1.2260 C.3   1 <1>   0.0600 
  7 C       -3.5120    -1.0400    -1.6820 C.2   1 <1>   0.6160 
  8 C       -3.4790     1.3890    -1.9930 C.2   1 <1>  -0.1500 
  9 C       -3.0340     2.6690    -1.6220 C.2   1 <1>  -0.1500 
 10 C       -1.6940     4.2260    -0.1980 C.3   1 <1>  -0.1020 
 11 O       -3.6280    -1.3130    -2.8620 O.2   1 <1>  -0.5700 
 12 N       -3.9160    -2.0110    -0.7860 N.am  1 <1>  -0.6600 
 13 C       -4.4430    -1.7270     0.5810 C.3   1 <1>   0.1400 
 14 C       -3.9120    -3.4570    -1.1530 C.3   1 <1>   0.1400 
 15 C       -5.8440    -2.3470     0.7800 C.3   1 <1>   0.4230 
 16 C       -5.3160    -4.0560    -0.9810 C.3   1 <1>   0.3430 
 17 N       -5.8800    -3.8200     0.4060 N.4   1 <1>  -0.9590 
 18 C       -6.9060    -1.5530    -0.0160 C.3   1 <1>   0.1200 
 19 C       -7.2850    -4.3320     0.5720 C.3   1 <1>   0.4230 
 20 O       -8.1750    -2.1110     0.1790 O.3   1 <1>  -0.5600 
 21 C       -8.3000    -3.4530    -0.2010 C.3   1 <1>   0.1200 
 22 C       -7.3690    -5.8190     0.1890 C.3   1 <1>  -0.1600 
 23 C       -8.6630    -6.4810     0.6880 C.3   1 <1>  -0.1600 
 24 C       -8.6720    -7.9760     0.3610 C.3   1 <1>  -0.2400 
 25 H        0.1440     2.4370     0.8630 H     1 <1>   0.0800 
 26 H       -0.3840     0.9660     1.6210 H     1 <1>   0.0800 
 27 H       -1.1700     2.4690     2.0250 H     1 <1>   0.0800 
 28 H       -4.1510     1.3020    -2.8310 H     1 <1>   0.1500 
 29 H       -3.3980     3.5120    -2.1850 H     1 <1>   0.1500 
 30 H       -1.9500     4.4360     0.8250 H     1 <1>   0.0800 
 31 H       -2.1590     4.9720    -0.8170 H     1 <1>   0.0800 
 32 H       -0.6300     4.3080    -0.3230 H     1 <1>   0.0800 
 33 H       -3.7610    -2.1290     1.3100 H     1 <1>   0.0800 
 34 H       -4.5000    -0.6650     0.7480 H     1 <1>   0.0800 
 35 H       -3.5910    -3.5910    -2.1720 H     1 <1>   0.0800 
 36 H       -3.2090    -3.9790    -0.5260 H     1 <1>   0.0800 
 37 H       -6.0970    -2.2450     1.8220 H     1 <1>   0.0800 
 38 H       -5.2670    -5.1130    -1.1840 H     1 <1>   0.0800 
 39 H       -5.9620    -3.6090    -1.7180 H     1 <1>   0.0800 
 40 H       -5.2820    -4.3200     1.0740 H     1 <1>   0.4500 
 41 H       -6.6870    -1.5440    -1.0700 H     1 <1>   0.0800 
 42 H       -6.9460    -0.5350     0.3310 H     1 <1>   0.0800 
 43 H       -7.5460    -4.2590     1.6150 H     1 <1>   0.0800 
 44 H       -9.3070    -3.7540     0.0290 H     1 <1>   0.0800 
 45 H       -8.1590    -3.5270    -1.2650 H     1 <1>   0.0800 
 46 H       -7.3180    -5.9340    -0.8800 H     1 <1>   0.0800 
 47 H       -6.5390    -6.3430     0.6310 H     1 <1>   0.0800 
 48 H       -8.7540    -6.3590     1.7550 H     1 <1>   0.0800 
 49 H       -9.5240    -6.0270     0.2260 H     1 <1>   0.0800 
 50 H       -7.8460    -8.4780     0.8360 H     1 <1>   0.0800 
 51 H       -8.6090    -8.1360    -0.7020 H     1 <1>   0.0800 
 52 H       -9.5850    -8.4240     0.7150 H     1 <1>   0.0800 
@<TRIPOS>BOND
  1   1   2  2   
  2   2   3  am  
  3   2   4  1   
  4   3   5  1   
  5   3   6  1   
  6   4   7  1   
  7   4   8  2   
  8   5   9  2   
  9   5  10  1   
 10   6  25  1   
 11   6  26  1   
 12   6  27  1   
 13   7  11  2   
 14   7  12  am  
 15   8   9  1   
 16   8  28  1   
 17   9  29  1   
 18  10  30  1   
 19  10  31  1   
 20  10  32  1   
 21  12  13  1   
 22  12  14  1   
 23  13  15  1   
 24  13  33  1   
 25  13  34  1   
 26  14  16  1   
 27  14  35  1   
 28  14  36  1   
 29  15  17  1   
 30  15  18  1   
 31  15  37  1   
 32  16  17  1   
 33  16  38  1   
 34  16  39  1   
 35  17  19  1   
 36  17  40  1   
 37  18  20  1   
 38  18  41  1   
 39  18  42  1   
 40  19  21  1   
 41  19  22  1   
 42  19  43  1   
 43  20  21  1   
 44  21  44  1   
 45  21  45  1   
 46  22  23  1   
 47  22  46  1   
 48  22  47  1   
 49  23  24  1   
 50  23  48  1   
 51  23  49  1   
 52  24  50  1   
 53  24  51  1   
 54  24  52  1   
@<TRIPOS>SUBSTRUCTURE
  1 ****  13 GROUP 4 **** **** 0

# MOE 2024.06 (io_trps.svl 2023.06)
