@<TRIPOS>MOLECULE
NONAME
48 49 1 0 0 
SMALL
USER_CHARGES


@<TRIPOS>ATOM
  1 S        0.1000    -0.5630     0.4300 S.o2  1 <1>   1.5010 
  2 O        0.6710    -1.7880     0.9400 O.2   1 <1>  -0.6500 
  3 O       -0.9100     0.1390     1.1840 O.2   1 <1>  -0.6500 
  4 N       -0.6830    -0.8840    -1.0230 N.am  1 <1>  -0.9140 
  5 C        1.4160     0.5570    -0.0690 C.2   1 <1>  -0.0630 
  6 C       -1.2570    -2.2100    -1.2730 C.3   1 <1>   0.2760 
  7 C        1.4390     1.8610    -0.4580 C.2   1 <1>  -0.3320 
  8 C        2.7440     0.1610    -0.1530 C.2   1 <1>   0.1390 
  9 C       -2.1680    -2.7600    -0.1670 C.3   1 <1>  -0.0800 
 10 C       -0.2340    -3.3250    -1.5190 C.3   1 <1>   0.1200 
 11 N        2.7260     2.1700    -0.7390 N.pl3 1 <1>   0.3140 
 12 C        0.2800     2.8410    -0.5720 C.3   1 <1>  -0.0600 
 13 N        3.5300     1.1120    -0.5520 N.2   1 <1>  -0.7070 
 14 C       -1.4650    -4.0650     0.2200 C.3   1 <1>   0.1200 
 15 C       -3.5840    -3.0330    -0.7150 C.3   1 <1>  -0.0550 
 16 O       -0.7880    -4.4560    -0.9270 O.3   1 <1>  -0.5600 
 17 C        3.2730     3.4660    -1.1970 C.3   1 <1>   0.0960 
 18 S       -4.8050    -3.3740     0.5530 S.o2  1 <1>   1.3330 
 19 C        3.6350     4.3670    -0.0090 C.3   1 <1>  -0.2400 
 20 O       -4.4900    -4.6110     1.2300 O.2   1 <1>  -0.6500 
 21 O       -4.9790    -2.1600     1.3170 O.2   1 <1>  -0.6500 
 22 N       -6.2140    -3.6280    -0.3590 N.am  1 <1>  -0.8490 
 23 C       -7.4260    -3.2670     0.3830 C.3   1 <1>   0.1160 
 24 C       -6.3350    -4.9990    -0.8700 C.3   1 <1>   0.1160 
 25 H       -1.4520    -0.2170    -0.9980 H     1 <1>   0.4200 
 26 H       -1.8250    -2.1290    -2.1850 H     1 <1>   0.0800 
 27 H        3.0920    -0.8310     0.0860 H     1 <1>   0.1500 
 28 H       -2.2390    -2.1100     0.6860 H     1 <1>   0.0800 
 29 H        0.7150    -3.1340    -1.0520 H     1 <1>   0.0800 
 30 H       -0.0940    -3.5190    -2.5670 H     1 <1>   0.0800 
 31 H       -0.6450     2.3770    -0.2820 H     1 <1>   0.0800 
 32 H        0.1820     3.1880    -1.5850 H     1 <1>   0.0800 
 33 H        0.4440     3.6870     0.0720 H     1 <1>   0.0800 
 34 H       -2.1310    -4.8540     0.5200 H     1 <1>   0.0800 
 35 H       -0.7360    -3.9010     0.9970 H     1 <1>   0.0800 
 36 H       -3.5420    -3.8530    -1.4050 H     1 <1>   0.0800 
 37 H       -3.9160    -2.1690    -1.2570 H     1 <1>   0.0800 
 38 H        4.1530     3.2670    -1.7820 H     1 <1>   0.0800 
 39 H        2.5480     3.9470    -1.8260 H     1 <1>   0.0800 
 40 H        4.3720     3.8820     0.6070 H     1 <1>   0.0800 
 41 H        2.7630     4.5800     0.5840 H     1 <1>   0.0800 
 42 H        4.0440     5.2940    -0.3650 H     1 <1>   0.0800 
 43 H       -8.2990    -3.4270    -0.2260 H     1 <1>   0.0800 
 44 H       -7.3950    -2.2260     0.6570 H     1 <1>   0.0800 
 45 H       -7.5060    -3.8580     1.2810 H     1 <1>   0.0800 
 46 H       -7.1940    -5.0780    -1.5140 H     1 <1>   0.0800 
 47 H       -6.4420    -5.6970    -0.0550 H     1 <1>   0.0800 
 48 H       -5.4600    -5.2640    -1.4370 H     1 <1>   0.0800 
@<TRIPOS>BOND
  1   1   2  2   
  2   1   3  2   
  3   1   4  am  
  4   1   5  1   
  5   4   6  1   
  6   4  25  1   
  7   5   7  2   
  8   5   8  1   
  9   6   9  1   
 10   6  10  1   
 11   6  26  1   
 12   7  11  1   
 13   7  12  1   
 14   8  13  2   
 15   8  27  1   
 16   9  14  1   
 17   9  15  1   
 18   9  28  1   
 19  10  16  1   
 20  10  29  1   
 21  10  30  1   
 22  11  13  1   
 23  11  17  1   
 24  12  31  1   
 25  12  32  1   
 26  12  33  1   
 27  14  16  1   
 28  14  34  1   
 29  14  35  1   
 30  15  18  1   
 31  15  36  1   
 32  15  37  1   
 33  17  19  1   
 34  17  38  1   
 35  17  39  1   
 36  18  20  2   
 37  18  21  2   
 38  18  22  am  
 39  19  40  1   
 40  19  41  1   
 41  19  42  1   
 42  22  23  1   
 43  22  24  1   
 44  23  43  1   
 45  23  44  1   
 46  23  45  1   
 47  24  46  1   
 48  24  47  1   
 49  24  48  1   
@<TRIPOS>SUBSTRUCTURE
  1 ****   4 GROUP 4 **** **** 0

# MOE 2024.06 (io_trps.svl 2023.06)
