@<TRIPOS>MOLECULE
NONAME
45 47 1 0 0 
SMALL
USER_CHARGES


@<TRIPOS>ATOM
  1 O        0.1210    -1.1790     1.3090 O.3   1 <1>  -0.5600 
  2 C        0.3370    -1.8730     0.1170 C.3   1 <1>   0.2000 
  3 C       -1.1960    -1.2060     1.7680 C.3   1 <1>   0.0400 
  4 C        1.6850    -1.4600    -0.4920 C.3   1 <1>   0.0000 
  5 C        0.4290    -3.3840     0.3700 C.3   1 <1>  -0.1600 
  6 C        2.6990    -1.2020     0.6430 C.3   1 <1>   0.3430 
  7 C        1.5540    -0.1990    -1.3720 C.3   1 <1>  -0.1600 
  8 C        2.0820    -2.7060    -1.3020 C.3   1 <1>  -0.1600 
  9 C        1.6160    -3.8940    -0.4580 C.3   1 <1>  -0.1600 
 10 N        4.0080    -0.7300     0.1060 N.4   1 <1>  -0.9590 
 11 C        2.9270     0.2960    -1.8580 C.3   1 <1>  -0.1600 
 12 C        3.9020     0.5140    -0.6990 C.3   1 <1>   0.3430 
 13 C        5.0710    -0.6450     1.1350 C.3   1 <1>   0.5230 
 14 C        6.3900    -0.9910     0.4560 C.2   1 <1>   0.0060 
 15 N        6.4540    -1.5520    -0.7150 N.2   1 <1>  -0.5650 
 16 N        7.6050    -0.7550     1.0130 N.pl3 1 <1>   0.0480 
 17 C        7.7750    -1.6870    -0.9360 C.2   1 <1>   0.0770 
 18 C        8.4870    -1.2060     0.1050 C.2   1 <1>  -0.3020 
 19 C        7.9510    -0.1530     2.3170 C.3   1 <1>   0.0160 
 20 H       -0.4600    -1.6570    -0.5760 H     1 <1>   0.0800 
 21 H       -1.2450    -0.6420     2.6830 H     1 <1>   0.0800 
 22 H       -1.4930    -2.2230     1.9570 H     1 <1>   0.0800 
 23 H       -1.8400    -0.7560     1.0330 H     1 <1>   0.0800 
 24 H        0.5920    -3.5940     1.4130 H     1 <1>   0.0800 
 25 H       -0.4800    -3.8610     0.0500 H     1 <1>   0.0800 
 26 H        2.8310    -2.1100     1.2070 H     1 <1>   0.0800 
 27 H        2.2940    -0.4540     1.3060 H     1 <1>   0.0800 
 28 H        0.9190    -0.3970    -2.2190 H     1 <1>   0.0800 
 29 H        1.0850     0.5820    -0.7950 H     1 <1>   0.0800 
 30 H        1.5400    -2.7180    -2.2330 H     1 <1>   0.0800 
 31 H        3.1330    -2.7640    -1.5240 H     1 <1>   0.0800 
 32 H        2.4070    -4.2110     0.2000 H     1 <1>   0.0800 
 33 H        1.3360    -4.7270    -1.0810 H     1 <1>   0.0800 
 34 H        4.3910    -1.4460    -0.5390 H     1 <1>   0.4500 
 35 H        2.8020     1.2240    -2.3880 H     1 <1>   0.0800 
 36 H        3.3520    -0.4100    -2.5500 H     1 <1>   0.0800 
 37 H        3.5470     1.3210    -0.0790 H     1 <1>   0.0800 
 38 H        4.8710     0.7790    -1.0930 H     1 <1>   0.0800 
 39 H        5.1070     0.3430     1.5610 H     1 <1>   0.0800 
 40 H        4.8870    -1.3620     1.9180 H     1 <1>   0.0800 
 41 H        8.1530    -2.1290    -1.8440 H     1 <1>   0.1500 
 42 H        9.5540    -1.1680     0.2380 H     1 <1>   0.1500 
 43 H        9.0200    -0.1300     2.4280 H     1 <1>   0.0800 
 44 H        7.5300    -0.7430     3.1110 H     1 <1>   0.0800 
 45 H        7.5720     0.8510     2.3650 H     1 <1>   0.0800 
@<TRIPOS>BOND
  1   1   2  1   
  2   1   3  1   
  3   2   4  1   
  4   2   5  1   
  5   2  20  1   
  6   3  21  1   
  7   3  22  1   
  8   3  23  1   
  9   4   6  1   
 10   4   7  1   
 11   4   8  1   
 12   5   9  1   
 13   5  24  1   
 14   5  25  1   
 15   6  10  1   
 16   6  26  1   
 17   6  27  1   
 18   7  11  1   
 19   7  28  1   
 20   7  29  1   
 21   8   9  1   
 22   8  30  1   
 23   8  31  1   
 24   9  32  1   
 25   9  33  1   
 26  10  12  1   
 27  10  13  1   
 28  10  34  1   
 29  11  12  1   
 30  11  35  1   
 31  11  36  1   
 32  12  37  1   
 33  12  38  1   
 34  13  14  1   
 35  13  39  1   
 36  13  40  1   
 37  14  15  2   
 38  14  16  1   
 39  15  17  1   
 40  16  18  1   
 41  16  19  1   
 42  17  18  2   
 43  17  41  1   
 44  18  42  1   
 45  19  43  1   
 46  19  44  1   
 47  19  45  1   
@<TRIPOS>SUBSTRUCTURE
  1 ****  10 GROUP 4 **** **** 0

# MOE 2024.06 (io_trps.svl 2023.06)
