@<TRIPOS>MOLECULE
NONAME
49 53 1 0 0 
SMALL
USER_CHARGES


@<TRIPOS>ATOM
  1 N        0.9580     0.5980     1.4590 N.ar  1 <1>  -0.6200 
  2 C        0.1620     1.5890     1.8410 C.ar  1 <1>   0.7200 
  3 C        1.5340     0.8040     0.3000 C.ar  1 <1>   0.1660 
  4 N       -0.1140     2.7180     1.2040 N.ar  1 <1>  -0.6200 
  5 N       -0.4550     1.4230     3.0110 N.pl3 1 <1>  -0.9000 
  6 C        1.3420     1.9250    -0.4490 C.ar  1 <1>  -0.1430 
  7 C        2.4980    -0.1550    -0.3570 C.3   1 <1>   0.1430 
  8 C        0.4880     2.8820     0.0470 C.ar  1 <1>   0.1600 
  9 C        2.1420     1.8880    -1.7260 C.3   1 <1>  -0.0170 
 10 C        3.5460    -0.5780     0.6860 C.3   1 <1>   0.3430 
 11 C        1.7410    -1.3900    -0.8910 C.3   1 <1>  -0.1600 
 12 C        3.1040     0.7040    -1.5000 C.3   1 <1>  -0.1600 
 13 N        4.4660    -1.6440     0.1560 N.4   1 <1>  -0.9590 
 14 C        2.6980    -2.5150    -1.3270 C.3   1 <1>  -0.1600 
 15 C        3.7100    -2.8660    -0.2320 C.3   1 <1>   0.3430 
 16 C        5.5600    -1.9250     1.1210 C.3   1 <1>   0.4860 
 17 C        6.5040    -0.7450     1.0600 C.ar  1 <1>  -0.1430 
 18 C        7.4120    -0.6070    -0.0030 C.ar  1 <1>  -0.1520 
 19 C        6.4660     0.2360     2.0300 C.ar  1 <1>  -0.1500 
 20 N        7.7210    -1.4240    -1.0710 N.pl3 1 <1>   0.0330 
 21 C        8.2150     0.5270    -0.0950 C.ar  1 <1>   0.0000 
 22 C        7.2890     1.3630     1.9450 C.ar  1 <1>  -0.1500 
 23 C        8.6680    -0.8000    -1.8290 C.2   1 <1>  -0.3020 
 24 C        8.1540     1.5160     0.8890 C.ar  1 <1>  -0.1500 
 25 C        8.9880     0.3870    -1.2660 C.2   1 <1>  -0.1500 
 26 H       -1.2370     2.0530     3.1710 H     1 <1>   0.4000 
 27 H       -0.5780     0.4650     3.3210 H     1 <1>   0.4000 
 28 H        0.2980     3.7860    -0.5050 H     1 <1>   0.1500 
 29 H        2.6760     2.8090    -1.8890 H     1 <1>   0.0800 
 30 H        1.4860     1.6960    -2.5580 H     1 <1>   0.0800 
 31 H        3.0300    -0.9450     1.5590 H     1 <1>   0.0800 
 32 H        4.1100     0.2930     0.9790 H     1 <1>   0.0800 
 33 H        1.1020    -1.1070    -1.7110 H     1 <1>   0.0800 
 34 H        1.1010    -1.7680    -0.1100 H     1 <1>   0.0800 
 35 H        3.2520     0.1510    -2.4100 H     1 <1>   0.0800 
 36 H        4.0540     1.1060    -1.1890 H     1 <1>   0.0800 
 37 H        4.9230    -1.2450    -0.6750 H     1 <1>   0.4500 
 38 H        3.2230    -2.2340    -2.2230 H     1 <1>   0.0800 
 39 H        2.1210    -3.3930    -1.5610 H     1 <1>   0.0800 
 40 H        3.1870    -3.2600     0.6260 H     1 <1>   0.0800 
 41 H        4.3850    -3.6240    -0.5960 H     1 <1>   0.0800 
 42 H        6.0900    -2.8210     0.8460 H     1 <1>   0.0800 
 43 H        5.1660    -2.0440     2.1170 H     1 <1>   0.0800 
 44 H        5.8000     0.1650     2.8740 H     1 <1>   0.1500 
 45 H        7.3880    -2.3770    -1.2420 H     1 <1>   0.2700 
 46 H        7.2400     2.1140     2.7160 H     1 <1>   0.1500 
 47 H        9.0700    -1.2410    -2.7250 H     1 <1>   0.1500 
 48 H        8.7910     2.3790     0.8060 H     1 <1>   0.1500 
 49 H        9.7010     1.1170    -1.6090 H     1 <1>   0.1500 
@<TRIPOS>BOND
  1   1   2  ar  
  2   1   3  ar  
  3   2   4  ar  
  4   2   5  1   
  5   3   6  ar  
  6   3   7  1   
  7   4   8  ar  
  8   5  26  1   
  9   5  27  1   
 10   6   8  ar  
 11   6   9  1   
 12   7  10  1   
 13   7  11  1   
 14   7  12  1   
 15   8  28  1   
 16   9  12  1   
 17   9  29  1   
 18   9  30  1   
 19  10  13  1   
 20  10  31  1   
 21  10  32  1   
 22  11  14  1   
 23  11  33  1   
 24  11  34  1   
 25  12  35  1   
 26  12  36  1   
 27  13  15  1   
 28  13  16  1   
 29  13  37  1   
 30  14  15  1   
 31  14  38  1   
 32  14  39  1   
 33  15  40  1   
 34  15  41  1   
 35  16  17  1   
 36  16  42  1   
 37  16  43  1   
 38  17  18  ar  
 39  17  19  ar  
 40  18  20  1   
 41  18  21  ar  
 42  19  22  ar  
 43  19  44  1   
 44  20  23  1   
 45  20  45  1   
 46  21  24  ar  
 47  21  25  1   
 48  22  24  ar  
 49  22  46  1   
 50  23  25  2   
 51  23  47  1   
 52  24  48  1   
 53  25  49  1   
@<TRIPOS>SUBSTRUCTURE
  1 ****  10 GROUP 4 **** **** 0

# MOE 2024.06 (io_trps.svl 2023.06)
