@<TRIPOS>MOLECULE
NONAME
48 49 1 0 0 
SMALL
USER_CHARGES


@<TRIPOS>ATOM
  1 S        0.7820     0.1500     0.7450 S.o2  1 <1>   1.3330 
  2 O        0.7790     1.1530     1.7850 O.2   1 <1>  -0.6500 
  3 O        1.0620    -1.2280     1.0860 O.2   1 <1>  -0.6500 
  4 N       -0.7210     0.1900    -0.0430 N.am  1 <1>  -0.8490 
  5 C        1.9250     0.6740    -0.5320 C.3   1 <1>  -0.0550 
  6 C       -1.8260     0.4630     0.8800 C.3   1 <1>   0.1160 
  7 C       -1.0070    -1.0190    -0.8220 C.3   1 <1>   0.1160 
  8 C        3.3710     0.8260    -0.0290 C.3   1 <1>  -0.0800 
  9 C        4.3240     1.2610    -1.1370 C.3   1 <1>   0.2200 
 10 C        4.0040    -0.4610     0.4920 C.3   1 <1>   0.1200 
 11 N        4.6660     2.6870    -0.9620 N.am  1 <1>  -0.7300 
 12 C        5.5440     0.3550    -0.9580 C.3   1 <1>   0.1200 
 13 O        5.3640    -0.3070     0.2530 O.3   1 <1>  -0.5600 
 14 C        4.0180     3.7290    -1.5580 C.2   1 <1>   0.5440 
 15 O        3.1530     3.4550    -2.3710 O.2   1 <1>  -0.5700 
 16 C        4.3400     5.1130    -1.2680 C.ar  1 <1>   0.0860 
 17 C        4.9160     5.5490    -0.0600 C.ar  1 <1>   0.3930 
 18 C        4.0740     6.0920    -2.2200 C.ar  1 <1>  -0.1500 
 19 O        5.1640     4.6330     0.9040 O.3   1 <1>  -0.3630 
 20 N        5.2380     6.8080     0.2270 N.ar  1 <1>  -0.6200 
 21 C        4.3970     7.3960    -1.9330 C.ar  1 <1>  -0.1500 
 22 C        5.6670     4.9870     2.1790 C.3   1 <1>   0.0400 
 23 C        4.9740     7.7040    -0.7130 C.ar  1 <1>   0.3930 
 24 O        5.2740     8.9970    -0.4870 O.3   1 <1>  -0.3630 
 25 C        5.8600     9.4150     0.7300 C.3   1 <1>   0.0400 
 26 H        1.9000    -0.0280    -1.3410 H     1 <1>   0.0800 
 27 H        1.6000     1.6240    -0.9140 H     1 <1>   0.0800 
 28 H       -2.7600     0.4980     0.3460 H     1 <1>   0.0800 
 29 H       -1.6780     1.4180     1.3590 H     1 <1>   0.0800 
 30 H       -1.8780    -0.3000     1.6400 H     1 <1>   0.0800 
 31 H       -1.9260    -0.8970    -1.3700 H     1 <1>   0.0800 
 32 H       -1.0960    -1.8740    -0.1730 H     1 <1>   0.0800 
 33 H       -0.2140    -1.2020    -1.5280 H     1 <1>   0.0800 
 34 H        3.3870     1.5420     0.7760 H     1 <1>   0.0800 
 35 H        3.9060     1.1020    -2.1170 H     1 <1>   0.0800 
 36 H        3.6650    -1.3260    -0.0530 H     1 <1>   0.0800 
 37 H        3.8430    -0.6050     1.5480 H     1 <1>   0.0800 
 38 H        5.2420     2.8980    -0.1380 H     1 <1>   0.3700 
 39 H        6.4690     0.9020    -0.9280 H     1 <1>   0.0800 
 40 H        5.5790    -0.3890    -1.7350 H     1 <1>   0.0800 
 41 H        3.6240     5.8280    -3.1620 H     1 <1>   0.1500 
 42 H        4.2110     8.1840    -2.6380 H     1 <1>   0.1500 
 43 H        5.7600     4.0930     2.7680 H     1 <1>   0.0800 
 44 H        4.9760     5.6670     2.6480 H     1 <1>   0.0800 
 45 H        6.6290     5.4540     2.0580 H     1 <1>   0.0800 
 46 H        6.0070    10.4790     0.6870 H     1 <1>   0.0800 
 47 H        6.8050     8.9150     0.8510 H     1 <1>   0.0800 
 48 H        5.1960     9.1650     1.5390 H     1 <1>   0.0800 
@<TRIPOS>BOND
  1   1   2  2   
  2   1   3  2   
  3   1   4  am  
  4   1   5  1   
  5   4   6  1   
  6   4   7  1   
  7   5   8  1   
  8   5  26  1   
  9   5  27  1   
 10   6  28  1   
 11   6  29  1   
 12   6  30  1   
 13   7  31  1   
 14   7  32  1   
 15   7  33  1   
 16   8   9  1   
 17   8  10  1   
 18   8  34  1   
 19   9  11  1   
 20   9  12  1   
 21   9  35  1   
 22  10  13  1   
 23  10  36  1   
 24  10  37  1   
 25  11  14  am  
 26  11  38  1   
 27  12  13  1   
 28  12  39  1   
 29  12  40  1   
 30  14  15  2   
 31  14  16  1   
 32  16  17  ar  
 33  16  18  ar  
 34  17  19  1   
 35  17  20  ar  
 36  18  21  ar  
 37  18  41  1   
 38  19  22  1   
 39  20  23  ar  
 40  21  23  ar  
 41  21  42  1   
 42  22  43  1   
 43  22  44  1   
 44  22  45  1   
 45  23  24  1   
 46  24  25  1   
 47  25  46  1   
 48  25  47  1   
 49  25  48  1   
@<TRIPOS>SUBSTRUCTURE
  1 ****  11 GROUP 4 **** **** 0

# MOE 2024.06 (io_trps.svl 2023.06)
