@<TRIPOS>MOLECULE
NONAME
54 57 1 0 0 
SMALL
USER_CHARGES


@<TRIPOS>ATOM
  1 O       -0.7380     0.4280     1.8350 O.2   1 <1>  -0.5700 
  2 C       -1.1310     0.6800     0.7220 C.2   1 <1>   0.5690 
  3 N       -1.6370    -0.2920    -0.0950 N.am  1 <1>  -0.6600 
  4 C       -1.0600     2.1210     0.2340 C.3   1 <1>  -0.0990 
  5 C       -1.7090    -1.7180     0.3640 C.3   1 <1>   0.3640 
  6 C       -2.2950    -0.0110    -1.4100 C.3   1 <1>   0.1400 
  7 C       -0.3440     3.0690     1.2130 C.3   1 <1>  -0.0220 
  8 C       -0.5920    -2.5380    -0.3050 C.ar  1 <1>  -0.1440 
  9 C       -3.1560    -2.2440     0.1630 C.3   1 <1>   0.2000 
 10 C       -2.9440    -1.2560    -2.0420 C.3   1 <1>   0.1200 
 11 C       -0.3100     4.5000     0.6660 C.2   1 <1>  -0.1240 
 12 C        0.7240    -2.1590    -0.0730 C.ar  1 <1>  -0.1500 
 13 C       -0.8250    -3.6500    -1.1100 C.ar  1 <1>  -0.1500 
 14 O       -3.7150    -1.9810    -1.1200 O.3   1 <1>  -0.5600 
 15 C       -4.0970    -1.6310     1.2130 C.3   1 <1>   0.1200 
 16 C       -1.3630     5.4210     1.0130 C.2   1 <1>   0.3750 
 17 C        0.7030     4.9290    -0.1510 C.2   1 <1>  -0.1690 
 18 C        1.7780    -2.8570    -0.6350 C.ar  1 <1>  -0.1500 
 19 C        0.2270    -4.3500    -1.6740 C.ar  1 <1>  -0.1500 
 20 O       -5.4020    -1.9960     0.9280 O.3   1 <1>  -0.6800 
 21 N       -1.4070     6.6400     0.5930 N.2   1 <1>  -0.5760 
 22 C       -2.5100     4.9990     1.9150 C.3   1 <1>  -0.1790 
 23 N        0.6470     6.2480    -0.5800 N.pl3 1 <1>   0.6010 
 24 C        1.8960     4.1120    -0.6540 C.3   1 <1>  -0.1020 
 25 C        1.5310    -3.9540    -1.4380 C.ar  1 <1>  -0.1500 
 26 C       -0.3840     7.0570    -0.2130 C.2   1 <1>   0.3120 
 27 N        1.4710     6.9390    -1.3660 N.2   1 <1>  -0.7070 
 28 N       -0.2510     8.2360    -0.7310 N.2   1 <1>  -0.5650 
 29 C        0.8850     8.0950    -1.4110 C.2   1 <1>   0.3660 
 30 H       -0.5400     2.1360    -0.7060 H     1 <1>   0.0800 
 31 H       -2.0610     2.4720     0.0700 H     1 <1>   0.0800 
 32 H       -1.5110    -1.7660     1.4200 H     1 <1>   0.0800 
 33 H       -3.0600     0.7330    -1.2710 H     1 <1>   0.0800 
 34 H       -1.5650     0.3830    -2.0960 H     1 <1>   0.0800 
 35 H        0.6550     2.7130     1.3880 H     1 <1>   0.0800 
 36 H       -0.8270     3.0330     2.1730 H     1 <1>   0.0800 
 37 H       -3.1630    -3.3090     0.3090 H     1 <1>   0.0800 
 38 H       -2.1910    -1.9050    -2.4500 H     1 <1>   0.0800 
 39 H       -3.5930    -0.9630    -2.8480 H     1 <1>   0.0800 
 40 H        0.9360    -1.3100     0.5550 H     1 <1>   0.1500 
 41 H       -1.8240    -3.9910    -1.3190 H     1 <1>   0.1500 
 42 H       -4.0390    -0.5570     1.1900 H     1 <1>   0.0800 
 43 H       -3.8560    -1.9740     2.2040 H     1 <1>   0.0800 
 44 H        2.7910    -2.5470    -0.4450 H     1 <1>   0.1500 
 45 H        0.0320    -5.2060    -2.2960 H     1 <1>   0.1500 
 46 H       -5.4960    -2.0090    -0.0510 H     1 <1>   0.4000 
 47 H       -2.9920     4.1200     1.5340 H     1 <1>   0.0800 
 48 H       -3.2440     5.7830     1.9730 H     1 <1>   0.0800 
 49 H       -2.1460     4.8110     2.9080 H     1 <1>   0.0800 
 50 H        1.9590     4.1830    -1.7260 H     1 <1>   0.0800 
 51 H        1.8340     3.0720    -0.4010 H     1 <1>   0.0800 
 52 H        2.8070     4.5090    -0.2400 H     1 <1>   0.0800 
 53 H        2.3490    -4.4990    -1.8760 H     1 <1>   0.1500 
 54 H        1.2880     8.9240    -1.9730 H     1 <1>   0.1500 
@<TRIPOS>BOND
  1   1   2  2   
  2   2   3  am  
  3   2   4  1   
  4   3   5  1   
  5   3   6  1   
  6   4   7  1   
  7   4  30  1   
  8   4  31  1   
  9   5   8  1   
 10   5   9  1   
 11   5  32  1   
 12   6  10  1   
 13   6  33  1   
 14   6  34  1   
 15   7  11  1   
 16   7  35  1   
 17   7  36  1   
 18   8  12  ar  
 19   8  13  ar  
 20   9  14  1   
 21   9  15  1   
 22   9  37  1   
 23  10  14  1   
 24  10  38  1   
 25  10  39  1   
 26  11  16  1   
 27  11  17  2   
 28  12  18  ar  
 29  12  40  1   
 30  13  19  ar  
 31  13  41  1   
 32  15  20  1   
 33  15  42  1   
 34  15  43  1   
 35  16  21  2   
 36  16  22  1   
 37  17  23  1   
 38  17  24  1   
 39  18  25  ar  
 40  18  44  1   
 41  19  25  ar  
 42  19  45  1   
 43  20  46  1   
 44  21  26  1   
 45  22  47  1   
 46  22  48  1   
 47  22  49  1   
 48  23  26  1   
 49  23  27  1   
 50  24  50  1   
 51  24  51  1   
 52  24  52  1   
 53  25  53  1   
 54  26  28  2   
 55  27  29  2   
 56  28  29  1   
 57  29  54  1   
@<TRIPOS>SUBSTRUCTURE
  1 ****   4 GROUP 4 **** **** 0

# MOE 2024.06 (io_trps.svl 2023.06)
