@<TRIPOS>MOLECULE
NONAME
46 49 1 0 0 
SMALL
USER_CHARGES


@<TRIPOS>ATOM
  1 S        2.3200    -1.7670     2.7240 S.3   1 <1>  -0.0800 
  2 C        1.9140    -1.1270     1.1500 C.2   1 <1>  -0.1400 
  3 C        1.9760    -3.3910     2.1750 C.2   1 <1>  -0.1100 
  4 C        1.5370    -2.1000     0.3070 C.2   1 <1>  -0.1810 
  5 C        2.0100     0.3590     0.8840 C.3   1 <1>   0.0200 
  6 C        1.5720    -3.4300     0.8780 C.2   1 <1>  -0.0860 
  7 C        1.1190    -1.7770    -1.1220 C.3   1 <1>   0.0210 
  8 C        1.9270     0.6060    -0.6330 C.3   1 <1>  -0.1600 
  9 C        1.2170    -4.6400     0.1620 C.2   1 <1>   0.7160 
 10 C        0.8460    -0.2690    -1.2990 C.3   1 <1>  -0.1600 
 11 O        1.2890    -4.7330    -1.0470 O.2   1 <1>  -0.5700 
 12 N        0.7640    -5.7160     0.8620 N.am  1 <1>  -0.7300 
 13 C        0.3480    -7.0140     0.2850 C.3   1 <1>   0.2200 
 14 C       -1.1690    -7.1220     0.2030 C.3   1 <1>  -0.0800 
 15 C        0.6490    -8.1140     1.2930 C.3   1 <1>   0.1200 
 16 C       -1.5600    -7.5920     1.6090 C.3   1 <1>   0.1200 
 17 C       -1.9130    -5.8600    -0.2740 C.3   1 <1>  -0.0170 
 18 O       -0.3870    -8.0410     2.2250 O.3   1 <1>  -0.5600 
 19 C       -3.4070    -6.1210    -0.3880 C.ar  1 <1>  -0.1430 
 20 C       -3.9490    -6.7710    -1.4780 C.ar  1 <1>  -0.1500 
 21 C       -4.2970    -5.7240     0.5900 C.ar  1 <1>  -0.1500 
 22 C       -5.3160    -6.9910    -1.5340 C.ar  1 <1>   0.1600 
 23 C       -5.6470    -5.9940     0.4360 C.ar  1 <1>   0.1600 
 24 N       -6.1770    -6.6200    -0.6010 N.ar  1 <1>  -0.6200 
 25 H        2.1200    -4.1800     2.8910 H     1 <1>   0.1500 
 26 H        1.1980     0.8550     1.3860 H     1 <1>   0.0800 
 27 H        2.9380     0.7450     1.2670 H     1 <1>   0.0800 
 28 H        1.9070    -2.0850    -1.7870 H     1 <1>   0.0800 
 29 H        0.2310    -2.3260    -1.3800 H     1 <1>   0.0800 
 30 H        1.7240     1.6470    -0.8170 H     1 <1>   0.0800 
 31 H        2.8800     0.3710    -1.0750 H     1 <1>   0.0800 
 32 H        0.7860    -0.0410    -2.3490 H     1 <1>   0.0800 
 33 H       -0.1080    -0.0370    -0.8570 H     1 <1>   0.0800 
 34 H        0.6050    -5.6300     1.8670 H     1 <1>   0.3700 
 35 H        0.8320    -7.1840    -0.6630 H     1 <1>   0.0800 
 36 H       -1.4030    -7.9230    -0.4770 H     1 <1>   0.0800 
 37 H        1.5950    -7.9830     1.7870 H     1 <1>   0.0800 
 38 H        0.6070    -9.0840     0.8270 H     1 <1>   0.0800 
 39 H       -2.2710    -8.4000     1.5760 H     1 <1>   0.0800 
 40 H       -1.9520    -6.7870     2.2050 H     1 <1>   0.0800 
 41 H       -1.5300    -5.5610    -1.2350 H     1 <1>   0.0800 
 42 H       -1.7480    -5.0440     0.4070 H     1 <1>   0.0800 
 43 H       -3.3230    -7.1070    -2.2840 H     1 <1>   0.1500 
 44 H       -3.9570    -5.2070     1.4680 H     1 <1>   0.1500 
 45 H       -5.7210    -7.5000    -2.3920 H     1 <1>   0.1500 
 46 H       -6.3270    -5.6770     1.2090 H     1 <1>   0.1500 
@<TRIPOS>BOND
  1   1   2  1   
  2   1   3  1   
  3   2   4  2   
  4   2   5  1   
  5   3   6  2   
  6   3  25  1   
  7   4   6  1   
  8   4   7  1   
  9   5   8  1   
 10   5  26  1   
 11   5  27  1   
 12   6   9  1   
 13   7  10  1   
 14   7  28  1   
 15   7  29  1   
 16   8  10  1   
 17   8  30  1   
 18   8  31  1   
 19   9  11  2   
 20   9  12  am  
 21  10  32  1   
 22  10  33  1   
 23  12  13  1   
 24  12  34  1   
 25  13  14  1   
 26  13  15  1   
 27  13  35  1   
 28  14  16  1   
 29  14  17  1   
 30  14  36  1   
 31  15  18  1   
 32  15  37  1   
 33  15  38  1   
 34  16  18  1   
 35  16  39  1   
 36  16  40  1   
 37  17  19  1   
 38  17  41  1   
 39  17  42  1   
 40  19  20  ar  
 41  19  21  ar  
 42  20  22  ar  
 43  20  43  1   
 44  21  23  ar  
 45  21  44  1   
 46  22  24  ar  
 47  22  45  1   
 48  23  24  ar  
 49  23  46  1   
@<TRIPOS>SUBSTRUCTURE
  1 ****   9 GROUP 4 **** **** 0

# MOE 2024.06 (io_trps.svl 2023.06)
