@<TRIPOS>MOLECULE
NONAME
50 52 1 0 0 
SMALL
USER_CHARGES


@<TRIPOS>ATOM
  1 CL      -0.2030    -0.4880     1.0130 Cl    1 <1>  -0.1770 
  2 C       -0.4720    -2.2030     0.8350 C.ar  1 <1>   0.1770 
  3 C       -0.3020    -2.7910    -0.4030 C.ar  1 <1>  -0.1500 
  4 C       -0.8520    -2.9470     1.9360 C.ar  1 <1>  -0.1500 
  5 C       -0.5170    -4.1520    -0.5410 C.ar  1 <1>  -0.1500 
  6 C       -1.0650    -4.3080     1.7930 C.ar  1 <1>  -0.1500 
  7 C       -0.8980    -4.9150     0.5550 C.ar  1 <1>  -0.1430 
  8 C       -1.1340    -6.4080     0.3920 C.3   1 <1>  -0.0160 
  9 C       -2.5460    -6.6700    -0.1320 C.3   1 <1>   0.1400 
 10 N       -2.7670    -8.1260    -0.2780 N.am  1 <1>  -0.7300 
 11 C       -2.7050    -8.8270    -1.4390 C.2   1 <1>   0.5690 
 12 O       -2.4220    -8.3050    -2.4910 O.2   1 <1>  -0.5700 
 13 C       -2.9970   -10.3310    -1.4040 C.3   1 <1>   0.1710 
 14 N       -3.9040   -10.7670    -0.3010 N.3   1 <1>  -0.8100 
 15 C       -5.2780   -10.2630    -0.4680 C.3   1 <1>   0.1100 
 16 C       -4.0180   -12.2330    -0.2100 C.3   1 <1>   0.1100 
 17 C       -6.1140   -11.1820     0.4120 C.3   1 <1>   0.2000 
 18 C       -5.4850   -12.5480     0.1320 C.3   1 <1>  -0.0800 
 19 O       -5.8710   -10.8210     1.7250 O.3   1 <1>  -0.6800 
 20 C       -5.6480   -13.5890     1.2560 C.3   1 <1>   0.0200 
 21 C       -5.1220   -14.9620     0.8720 C.2   1 <1>  -0.0400 
 22 O       -5.0080   -15.8730     1.8010 O.3   1 <1>  -0.0190 
 23 C       -4.7160   -15.5090    -0.2860 C.2   1 <1>  -0.1500 
 24 N       -4.5450   -16.9940     1.3320 N.2   1 <1>  -0.4100 
 25 C       -4.3610   -16.8060     0.0750 C.2   1 <1>   0.1080 
 26 C       -3.8300   -17.8590    -0.8720 C.3   1 <1>  -0.0590 
 27 H       -0.0070    -2.1910    -1.2450 H     1 <1>   0.1500 
 28 H       -0.9770    -2.4650     2.8890 H     1 <1>   0.1500 
 29 H       -0.3870    -4.6160    -1.5040 H     1 <1>   0.1500 
 30 H       -1.3610    -4.8900     2.6480 H     1 <1>   0.1500 
 31 H       -1.0010    -6.9040     1.3370 H     1 <1>   0.0800 
 32 H       -0.4180    -6.8090    -0.3040 H     1 <1>   0.0800 
 33 H       -2.6690    -6.1880    -1.0880 H     1 <1>   0.0800 
 34 H       -3.2750    -6.2620     0.5470 H     1 <1>   0.0800 
 35 H       -3.0530    -8.6520     0.5540 H     1 <1>   0.3700 
 36 H       -2.0520   -10.8330    -1.2970 H     1 <1>   0.0800 
 37 H       -3.4140   -10.6160    -2.3540 H     1 <1>   0.0800 
 38 H       -5.3700    -9.2320    -0.1710 H     1 <1>   0.0800 
 39 H       -5.5920   -10.3670    -1.4930 H     1 <1>   0.0800 
 40 H       -3.7520   -12.7020    -1.1430 H     1 <1>   0.0800 
 41 H       -3.3520   -12.5910     0.5580 H     1 <1>   0.0800 
 42 H       -7.1720   -11.1350     0.2210 H     1 <1>   0.0800 
 43 H       -5.9510   -12.9360    -0.7560 H     1 <1>   0.0800 
 44 H       -4.9010   -10.6980     1.8030 H     1 <1>   0.4000 
 45 H       -6.6880   -13.6800     1.5150 H     1 <1>   0.0800 
 46 H       -5.1230   -13.2620     2.1360 H     1 <1>   0.0800 
 47 H       -4.6630   -15.0930    -1.2740 H     1 <1>   0.1500 
 48 H       -4.4930   -17.9660    -1.7100 H     1 <1>   0.0800 
 49 H       -3.7580   -18.8040    -0.3640 H     1 <1>   0.0800 
 50 H       -2.8550   -17.5770    -1.2220 H     1 <1>   0.0800 
@<TRIPOS>BOND
  1   1   2  1   
  2   2   3  ar  
  3   2   4  ar  
  4   3   5  ar  
  5   3  27  1   
  6   4   6  ar  
  7   4  28  1   
  8   5   7  ar  
  9   5  29  1   
 10   6   7  ar  
 11   6  30  1   
 12   7   8  1   
 13   8   9  1   
 14   8  31  1   
 15   8  32  1   
 16   9  10  1   
 17   9  33  1   
 18   9  34  1   
 19  10  11  am  
 20  10  35  1   
 21  11  12  2   
 22  11  13  1   
 23  13  14  1   
 24  13  36  1   
 25  13  37  1   
 26  14  15  1   
 27  14  16  1   
 28  15  17  1   
 29  15  38  1   
 30  15  39  1   
 31  16  18  1   
 32  16  40  1   
 33  16  41  1   
 34  17  18  1   
 35  17  19  1   
 36  17  42  1   
 37  18  20  1   
 38  18  43  1   
 39  19  44  1   
 40  20  21  1   
 41  20  45  1   
 42  20  46  1   
 43  21  22  1   
 44  21  23  2   
 45  22  24  1   
 46  23  25  1   
 47  23  47  1   
 48  24  25  2   
 49  25  26  1   
 50  26  48  1   
 51  26  49  1   
 52  26  50  1   
@<TRIPOS>SUBSTRUCTURE
  1 ****  14 GROUP 4 **** **** 0

# MOE 2024.06 (io_trps.svl 2023.06)
