@<TRIPOS>MOLECULE
NONAME
45 47 1 0 0 
SMALL
USER_CHARGES


@<TRIPOS>ATOM
  1 S        0.2420     0.0350    -0.6800 S.3   1 <1>  -0.2860 
  2 C        1.1850     0.2710     0.8280 C.2   1 <1>   0.2420 
  3 C       -0.3080    -1.7200    -0.5350 C.3   1 <1>   0.0700 
  4 N        1.3660    -0.6720     1.6930 N.2   1 <1>  -0.5650 
  5 N        1.7540     1.4590     1.1270 N.pl3 1 <1>   0.0480 
  6 C       -1.0710    -2.1000    -1.8000 C.3   1 <1>   0.1400 
  7 C        2.1120    -0.0590     2.6350 C.2   1 <1>   0.0770 
  8 C        2.3580     1.2320     2.3100 C.2   1 <1>  -0.3020 
  9 C        1.7230     2.7100     0.3500 C.3   1 <1>   0.0160 
 10 N       -1.4760    -3.5230    -1.7200 N.am  1 <1>  -0.7300 
 11 C       -2.7310    -3.9890    -1.4820 C.2   1 <1>   0.5690 
 12 O       -3.6710    -3.2380    -1.3820 O.2   1 <1>  -0.5700 
 13 C       -2.9360    -5.4990    -1.3050 C.3   1 <1>   0.2610 
 14 O       -1.7050    -6.1850    -1.5320 O.3   1 <1>  -0.5600 
 15 C       -3.5220    -5.7720     0.1110 C.3   1 <1>   0.3640 
 16 C       -1.7570    -7.5800    -1.3390 C.3   1 <1>   0.1810 
 17 N       -3.0730    -7.0610     0.6930 N.am  1 <1>  -0.7300 
 18 C       -5.0500    -5.7730     0.0870 C.ar  1 <1>  -0.1430 
 19 C       -2.2830    -7.9450     0.0480 C.2   1 <1>   0.5690 
 20 C       -5.7470    -4.6450     0.4990 C.ar  1 <1>  -0.1500 
 21 C       -5.7680    -6.8820    -0.3460 C.ar  1 <1>  -0.1500 
 22 O       -2.0200    -9.0130     0.5380 O.2   1 <1>  -0.5700 
 23 C       -7.1310    -4.6260     0.4830 C.ar  1 <1>  -0.1500 
 24 C       -7.1510    -6.8650    -0.3620 C.ar  1 <1>  -0.1500 
 25 C       -7.8350    -5.7360     0.0540 C.ar  1 <1>  -0.1500 
 26 H        0.5790    -2.3160    -0.4100 H     1 <1>   0.0800 
 27 H       -0.9310    -1.7830     0.3380 H     1 <1>   0.0800 
 28 H       -0.4480    -1.9550    -2.6650 H     1 <1>   0.0800 
 29 H       -1.9440    -1.4750    -1.8950 H     1 <1>   0.0800 
 30 H        2.4400    -0.5890     3.5150 H     1 <1>   0.1500 
 31 H        2.9150     1.9800     2.8450 H     1 <1>   0.1500 
 32 H        2.2860     3.4680     0.8620 H     1 <1>   0.0800 
 33 H        0.7030     3.0320     0.2390 H     1 <1>   0.0800 
 34 H        2.1520     2.5350    -0.6200 H     1 <1>   0.0800 
 35 H       -0.7320    -4.2260    -1.8000 H     1 <1>   0.3700 
 36 H       -3.6340    -5.8290    -2.0520 H     1 <1>   0.0800 
 37 H       -3.1890    -4.9880     0.7700 H     1 <1>   0.0800 
 38 H       -2.3910    -8.0090    -2.0930 H     1 <1>   0.0800 
 39 H       -0.7610    -7.9660    -1.4550 H     1 <1>   0.0800 
 40 H       -3.4750    -7.3290     1.5930 H     1 <1>   0.3700 
 41 H       -5.2180    -3.7660     0.8270 H     1 <1>   0.1500 
 42 H       -5.2570    -7.7720    -0.6720 H     1 <1>   0.1500 
 43 H       -7.6590    -3.7450     0.8030 H     1 <1>   0.1500 
 44 H       -7.6970    -7.7290    -0.6970 H     1 <1>   0.1500 
 45 H       -8.9110    -5.7210     0.0420 H     1 <1>   0.1500 
@<TRIPOS>BOND
  1   1   2  1   
  2   1   3  1   
  3   2   4  2   
  4   2   5  1   
  5   3   6  1   
  6   3  26  1   
  7   3  27  1   
  8   4   7  1   
  9   5   8  1   
 10   5   9  1   
 11   6  10  1   
 12   6  28  1   
 13   6  29  1   
 14   7   8  2   
 15   7  30  1   
 16   8  31  1   
 17   9  32  1   
 18   9  33  1   
 19   9  34  1   
 20  10  11  am  
 21  10  35  1   
 22  11  12  2   
 23  11  13  1   
 24  13  14  1   
 25  13  15  1   
 26  13  36  1   
 27  14  16  1   
 28  15  17  1   
 29  15  18  1   
 30  15  37  1   
 31  16  19  1   
 32  16  38  1   
 33  16  39  1   
 34  17  19  am  
 35  17  40  1   
 36  18  20  ar  
 37  18  21  ar  
 38  19  22  2   
 39  20  23  ar  
 40  20  41  1   
 41  21  24  ar  
 42  21  42  1   
 43  23  25  ar  
 44  23  43  1   
 45  24  25  ar  
 46  24  44  1   
 47  25  45  1   
@<TRIPOS>SUBSTRUCTURE
  1 ****  11 GROUP 4 **** **** 0

# MOE 2024.06 (io_trps.svl 2023.06)
