@<TRIPOS>MOLECULE
NONAME
55 57 1 0 0 
SMALL
USER_CHARGES


@<TRIPOS>ATOM
  1 O       -1.0970    -0.1280    -0.8370 O.2   1 <1>  -0.5700 
  2 C       -1.8840     0.8010    -0.8840 C.2   1 <1>   0.5440 
  3 N       -3.2300     0.5010    -0.8880 N.am  1 <1>  -0.6600 
  4 C       -1.4130     2.1750    -0.8630 C.ar  1 <1>   0.0860 
  5 C       -3.6880    -0.8610    -1.2570 C.3   1 <1>   0.1400 
  6 C       -4.1200     1.1760     0.1040 C.3   1 <1>   0.1400 
  7 C       -0.2860     2.5350    -0.1250 C.ar  1 <1>  -0.1500 
  8 C       -2.0650     3.1830    -1.5730 C.ar  1 <1>  -0.1500 
  9 C       -4.2440    -1.4620     0.0490 C.3   1 <1>   0.4230 
 10 C       -5.4820     0.4290     0.2790 C.3   1 <1>  -0.1600 
 11 C        0.1720     3.8410    -0.0700 C.ar  1 <1>  -0.1440 
 12 C       -1.6230     4.4910    -1.5290 C.ar  1 <1>  -0.1500 
 13 N       -3.5570    -2.7400     0.4520 N.4   1 <1>  -0.9590 
 14 C       -5.8090    -1.1660     0.1230 C.3   1 <1>   0.0000 
 15 C       -0.5100     4.8200    -0.7780 C.ar  1 <1>  -0.1500 
 16 C        1.4100     4.1800     0.7590 C.3   1 <1>   0.0630 
 17 C       -3.9870    -3.8490    -0.3760 C.3   1 <1>   0.3430 
 18 C       -2.0620    -2.6090     0.5040 C.3   1 <1>   0.2630 
 19 C       -6.2430    -2.7160    -0.0890 C.3   1 <1>  -0.1600 
 20 C       -7.3720    -0.7960     0.2650 C.3   1 <1>   0.1200 
 21 C        1.0590     5.1520     1.8890 C.3   1 <1>  -0.2400 
 22 C        2.5220     4.7510    -0.1260 C.3   1 <1>  -0.2400 
 23 C       -5.4130    -4.0110     0.0520 C.3   1 <1>  -0.1600 
 24 O       -7.7210    -0.9070     1.6100 O.3   1 <1>  -0.6800 
 25 H       -4.4640    -0.7810    -1.9980 H     1 <1>   0.0800 
 26 H       -2.8900    -1.4400    -1.6810 H     1 <1>   0.0800 
 27 H       -3.6090     1.2160     1.0530 H     1 <1>   0.0800 
 28 H       -4.2980     2.1940    -0.2040 H     1 <1>   0.0800 
 29 H        0.2370     1.7640     0.4130 H     1 <1>   0.1500 
 30 H       -2.9260     2.9360    -2.1690 H     1 <1>   0.1500 
 31 H       -3.8480    -0.8420     0.8310 H     1 <1>   0.0800 
 32 H       -5.8630     0.7900     1.2220 H     1 <1>   0.0800 
 33 H       -6.0160     0.9490    -0.5010 H     1 <1>   0.0800 
 34 H       -2.1410     5.2560    -2.0820 H     1 <1>   0.1500 
 35 H       -3.8890    -2.9370     1.4050 H     1 <1>   0.4500 
 36 H       -0.1750     5.8420    -0.7510 H     1 <1>   0.1500 
 37 H        1.7840     3.2760     1.2090 H     1 <1>   0.0800 
 38 H       -3.9110    -3.6090    -1.4250 H     1 <1>   0.0800 
 39 H       -3.4220    -4.7420    -0.1600 H     1 <1>   0.0800 
 40 H       -1.6540    -2.4770    -0.4850 H     1 <1>   0.0800 
 41 H       -1.6210    -3.4890     0.9410 H     1 <1>   0.0800 
 42 H       -1.7810    -1.7520     1.0960 H     1 <1>   0.0800 
 43 H       -7.0780    -3.0000     0.5370 H     1 <1>   0.0800 
 44 H       -6.6050    -2.7630    -1.1050 H     1 <1>   0.0800 
 45 H       -8.0510    -1.4200    -0.2990 H     1 <1>   0.0800 
 46 H       -7.7010     0.1850    -0.0350 H     1 <1>   0.0800 
 47 H        0.7250     6.0950     1.4950 H     1 <1>   0.0800 
 48 H        1.9190     5.3260     2.5110 H     1 <1>   0.0800 
 49 H        0.2760     4.7380     2.4980 H     1 <1>   0.0800 
 50 H        2.2240     5.6870    -0.5630 H     1 <1>   0.0800 
 51 H        2.7490     4.0600    -0.9190 H     1 <1>   0.0800 
 52 H        3.4130     4.9110     0.4530 H     1 <1>   0.0800 
 53 H       -5.8670    -4.7930    -0.5320 H     1 <1>   0.0800 
 54 H       -5.4330    -4.3440     1.0770 H     1 <1>   0.0800 
 55 H       -8.6690    -0.7030     1.7490 H     1 <1>   0.4000 
@<TRIPOS>BOND
  1   1   2  2   
  2   2   3  am  
  3   2   4  1   
  4   3   5  1   
  5   3   6  1   
  6   4   7  ar  
  7   4   8  ar  
  8   5   9  1   
  9   5  25  1   
 10   5  26  1   
 11   6  10  1   
 12   6  27  1   
 13   6  28  1   
 14   7  11  ar  
 15   7  29  1   
 16   8  12  ar  
 17   8  30  1   
 18   9  13  1   
 19   9  14  1   
 20   9  31  1   
 21  10  14  1   
 22  10  32  1   
 23  10  33  1   
 24  11  15  ar  
 25  11  16  1   
 26  12  15  ar  
 27  12  34  1   
 28  13  17  1   
 29  13  18  1   
 30  13  35  1   
 31  14  19  1   
 32  14  20  1   
 33  15  36  1   
 34  16  21  1   
 35  16  22  1   
 36  16  37  1   
 37  17  23  1   
 38  17  38  1   
 39  17  39  1   
 40  18  40  1   
 41  18  41  1   
 42  18  42  1   
 43  19  23  1   
 44  19  43  1   
 45  19  44  1   
 46  20  24  1   
 47  20  45  1   
 48  20  46  1   
 49  21  47  1   
 50  21  48  1   
 51  21  49  1   
 52  22  50  1   
 53  22  51  1   
 54  22  52  1   
 55  23  53  1   
 56  23  54  1   
 57  24  55  1   
@<TRIPOS>SUBSTRUCTURE
  1 ****   3 GROUP 4 **** **** 0

# MOE 2024.06 (io_trps.svl 2023.06)
