@<TRIPOS>MOLECULE
NONAME
54 57 1 0 0 
SMALL
USER_CHARGES


@<TRIPOS>ATOM
  1 S       -1.6870    -1.6640    -2.0630 S.3   1 <1>  -0.0800 
  2 C       -1.6570    -1.6530    -0.3020 C.2   1 <1>  -0.1400 
  3 C       -1.4950     0.0780    -2.1240 C.2   1 <1>  -0.1100 
  4 C       -1.5060    -0.3940     0.1530 C.2   1 <1>  -0.1500 
  5 C       -1.7950    -2.9760     0.4330 C.3   1 <1>   0.3800 
  6 C       -1.4150     0.5900    -0.8830 C.2   1 <1>  -0.1500 
  7 O       -0.7200    -3.7600     0.0830 O.3   1 <1>  -0.6800 
  8 C       -3.0960    -3.7400     0.0960 C.3   1 <1>  -0.0800 
  9 C       -4.3530    -2.9000     0.3910 C.3   1 <1>  -0.1600 
 10 C       -3.1940    -5.0850     0.8410 C.3   1 <1>  -0.1600 
 11 C       -5.6320    -3.6760     0.0790 C.3   1 <1>   0.3430 
 12 C       -4.4990    -5.8110     0.5220 C.3   1 <1>   0.3430 
 13 N       -5.6670    -4.9390     0.8740 N.4   1 <1>  -0.9590 
 14 C       -6.9620    -5.6560     0.6380 C.3   1 <1>   0.3430 
 15 C       -7.2390    -6.7560     1.6740 C.3   1 <1>   0.0960 
 16 N       -8.2220    -7.7070     1.1210 N.pl3 1 <1>   0.0480 
 17 C       -8.0150    -8.5920     0.1120 C.2   1 <1>  -0.2370 
 18 C       -9.5050    -7.9050     1.4930 C.2   1 <1>   0.0360 
 19 C       -6.8940    -8.8870    -0.7020 C.2   1 <1>   0.7150 
 20 C       -9.1810    -9.2510    -0.0420 C.2   1 <1>   0.2900 
 21 N      -10.1180    -8.8230     0.8120 N.2   1 <1>  -0.5650 
 22 O       -5.8680    -8.2300    -0.5980 O.2   1 <1>  -0.5700 
 23 N       -7.0130    -9.9060    -1.6260 N.am  1 <1>  -0.4200 
 24 N       -9.3140   -10.2480    -1.0010 N.am  1 <1>  -0.4230 
 25 C       -8.2250   -10.5700    -1.7920 C.2   1 <1>   0.6900 
 26 C       -5.8540   -10.2960    -2.4820 C.3   1 <1>   0.0600 
 27 C      -10.6260   -10.9380    -1.1240 C.3   1 <1>   0.0600 
 28 O       -8.3200   -11.4340    -2.6470 O.2   1 <1>  -0.5700 
 29 H       -1.4590     0.5400    -3.0950 H     1 <1>   0.1500 
 30 H       -1.4520    -0.1000     1.1870 H     1 <1>   0.1500 
 31 H       -1.7310    -2.8000     1.4940 H     1 <1>   0.0800 
 32 H       -1.2930     1.6330    -0.6450 H     1 <1>   0.1500 
 33 H        0.0140    -3.1720    -0.1870 H     1 <1>   0.4000 
 34 H       -3.0800    -3.9460    -0.9620 H     1 <1>   0.0800 
 35 H       -4.3440    -2.0110    -0.2170 H     1 <1>   0.0800 
 36 H       -4.3630    -2.5850     1.4200 H     1 <1>   0.0800 
 37 H       -3.1110    -4.9350     1.9030 H     1 <1>   0.0800 
 38 H       -2.3770    -5.7210     0.5430 H     1 <1>   0.0800 
 39 H       -5.6610    -3.9070    -0.9740 H     1 <1>   0.0800 
 40 H       -6.4880    -3.0640     0.3160 H     1 <1>   0.0800 
 41 H       -4.5370    -6.7360     1.0750 H     1 <1>   0.0800 
 42 H       -4.5280    -6.0550    -0.5280 H     1 <1>   0.0800 
 43 H       -5.5810    -4.6800     1.8660 H     1 <1>   0.4500 
 44 H       -6.9360    -6.0980    -0.3460 H     1 <1>   0.0800 
 45 H       -7.7780    -4.9510     0.6630 H     1 <1>   0.0800 
 46 H       -7.6300    -6.3300     2.5800 H     1 <1>   0.0800 
 47 H       -6.3460    -7.3080     1.9010 H     1 <1>   0.0800 
 48 H       -9.9720    -7.3490     2.2880 H     1 <1>   0.1500 
 49 H       -4.9280    -9.9330    -2.0720 H     1 <1>   0.0800 
 50 H       -5.9860    -9.8920    -3.4700 H     1 <1>   0.0800 
 51 H       -5.7960   -11.3690    -2.5520 H     1 <1>   0.0800 
 52 H      -10.8750   -11.4010    -0.1860 H     1 <1>   0.0800 
 53 H      -10.5970   -11.6940    -1.8900 H     1 <1>   0.0800 
 54 H      -11.3860   -10.2190    -1.3710 H     1 <1>   0.0800 
@<TRIPOS>BOND
  1   1   2  1   
  2   1   3  1   
  3   2   4  2   
  4   2   5  1   
  5   3   6  2   
  6   3  29  1   
  7   4   6  1   
  8   4  30  1   
  9   5   7  1   
 10   5   8  1   
 11   5  31  1   
 12   6  32  1   
 13   7  33  1   
 14   8   9  1   
 15   8  10  1   
 16   8  34  1   
 17   9  11  1   
 18   9  35  1   
 19   9  36  1   
 20  10  12  1   
 21  10  37  1   
 22  10  38  1   
 23  11  13  1   
 24  11  39  1   
 25  11  40  1   
 26  12  13  1   
 27  12  41  1   
 28  12  42  1   
 29  13  14  1   
 30  13  43  1   
 31  14  15  1   
 32  14  44  1   
 33  14  45  1   
 34  15  16  1   
 35  15  46  1   
 36  15  47  1   
 37  16  17  1   
 38  16  18  1   
 39  17  19  1   
 40  17  20  2   
 41  18  21  2   
 42  18  48  1   
 43  19  22  2   
 44  19  23  am  
 45  20  21  1   
 46  20  24  1   
 47  23  25  am  
 48  23  26  1   
 49  24  25  am  
 50  24  27  1   
 51  25  28  2   
 52  26  49  1   
 53  26  50  1   
 54  26  51  1   
 55  27  52  1   
 56  27  53  1   
 57  27  54  1   
@<TRIPOS>SUBSTRUCTURE
  1 ****  12 GROUP 4 **** **** 0

# MOE 2024.06 (io_trps.svl 2023.06)
