@<TRIPOS>MOLECULE
NONAME
38 40 1 0 0 
SMALL
USER_CHARGES


@<TRIPOS>ATOM
  1 O       -0.0810    -0.6640     0.5220 O.3   1 <1>  -0.5600 
  2 C        0.7630    -0.1130    -0.4470 C.3   1 <1>   0.1200 
  3 C       -1.3150    -0.0100     0.5420 C.3   1 <1>   0.1200 
  4 C        0.2250     1.2840    -0.7480 C.3   1 <1>   0.2890 
  5 C       -1.2700     1.0610    -0.5490 C.3   1 <1>  -0.0800 
  6 N        0.7890     2.2430     0.2350 N.pl3 1 <1>  -0.8690 
  7 C       -2.1260     2.3010    -0.2330 C.3   1 <1>  -0.0170 
  8 C        0.8210     3.5980     0.0300 C.ar  1 <1>   0.4100 
  9 C       -3.6010     1.9390    -0.1720 C.ar  1 <1>  -0.1440 
 10 N        0.4040     4.2950     1.0700 N.ar  1 <1>  -0.6200 
 11 C        1.2440     4.1970    -1.1680 C.ar  1 <1>   0.1600 
 12 C       -4.3680     1.8160    -1.3130 C.ar  1 <1>  -0.1500 
 13 C       -4.2500     1.7120     1.0250 C.ar  1 <1>  -0.1500 
 14 C        0.4220     5.5980     0.8520 C.ar  1 <1>   0.1670 
 15 N        1.2530     5.4950    -1.4010 N.ar  1 <1>  -0.6200 
 16 C       -5.7060     1.4760    -1.2060 C.ar  1 <1>   0.1600 
 17 C       -5.5940     1.3760     1.0220 C.ar  1 <1>   0.1600 
 18 C        0.8300     6.1780    -0.3460 C.ar  1 <1>   0.1600 
 19 C       -0.0410     6.4640     2.0060 C.3   1 <1>  -0.0970 
 20 N       -6.3370     1.2500    -0.0650 N.ar  1 <1>  -0.6200 
 21 H        1.7730    -0.0940    -0.0770 H     1 <1>   0.0800 
 22 H        0.7030    -0.7370    -1.3200 H     1 <1>   0.0800 
 23 H       -2.0990    -0.7280     0.3720 H     1 <1>   0.0800 
 24 H       -1.4300     0.4290     1.5180 H     1 <1>   0.0800 
 25 H        0.4630     1.5870    -1.7520 H     1 <1>   0.0800 
 26 H       -1.6520     0.6120    -1.4480 H     1 <1>   0.0800 
 27 H        0.5350     2.0090     1.1990 H     1 <1>   0.4000 
 28 H       -1.9740     3.0500    -0.9910 H     1 <1>   0.0800 
 29 H       -1.8300     2.7310     0.7090 H     1 <1>   0.0800 
 30 H        1.5890     3.5540    -1.9540 H     1 <1>   0.1500 
 31 H       -3.9390     1.9820    -2.2840 H     1 <1>   0.1500 
 32 H       -3.7250     1.7940     1.9590 H     1 <1>   0.1500 
 33 H       -6.2890     1.3850    -2.1060 H     1 <1>   0.1500 
 34 H       -6.0830     1.2020     1.9660 H     1 <1>   0.1500 
 35 H        0.8100     7.2490    -0.4420 H     1 <1>   0.1500 
 36 H        0.0060     7.5070     1.7560 H     1 <1>   0.0800 
 37 H        0.5840     6.2830     2.8620 H     1 <1>   0.0800 
 38 H       -1.0550     6.2110     2.2610 H     1 <1>   0.0800 
@<TRIPOS>BOND
  1   1   2  1   
  2   1   3  1   
  3   2   4  1   
  4   2  21  1   
  5   2  22  1   
  6   3   5  1   
  7   3  23  1   
  8   3  24  1   
  9   4   5  1   
 10   4   6  1   
 11   4  25  1   
 12   5   7  1   
 13   5  26  1   
 14   6   8  1   
 15   6  27  1   
 16   7   9  1   
 17   7  28  1   
 18   7  29  1   
 19   8  10  ar  
 20   8  11  ar  
 21   9  12  ar  
 22   9  13  ar  
 23  10  14  ar  
 24  11  15  ar  
 25  11  30  1   
 26  12  16  ar  
 27  12  31  1   
 28  13  17  ar  
 29  13  32  1   
 30  14  18  ar  
 31  14  19  1   
 32  15  18  ar  
 33  16  20  ar  
 34  16  33  1   
 35  17  20  ar  
 36  17  34  1   
 37  18  35  1   
 38  19  36  1   
 39  19  37  1   
 40  19  38  1   
@<TRIPOS>SUBSTRUCTURE
  1 ****   7 GROUP 4 **** **** 0

# MOE 2024.06 (io_trps.svl 2023.06)
