@<TRIPOS>MOLECULE
NONAME
56 60 1 0 0 
SMALL
USER_CHARGES


@<TRIPOS>ATOM
  1 O       -1.3990     1.4380    -2.4110 O.2   1 <1>  -0.5700 
  2 C       -2.2980     1.5330    -1.6090 C.2   1 <1>   0.6300 
  3 N       -3.4250     0.7530    -1.6840 N.am  1 <1>  -0.6600 
  4 C       -2.1490     2.5640    -0.4950 C.3   1 <1>  -0.1000 
  5 C       -3.5530    -0.3330    -2.6940 C.3   1 <1>   0.1400 
  6 C       -4.6090     0.8690    -0.7920 C.3   1 <1>   0.1400 
  7 C       -0.8500     2.7330     0.2270 C.3   1 <1>  -0.1520 
  8 C       -2.0120     2.1400     0.9530 C.3   1 <1>  -0.2000 
  9 C       -3.7320    -1.6700    -1.9700 C.3   1 <1>  -0.1600 
 10 C       -4.7900    -0.4480    -0.0350 C.3   1 <1>  -0.1600 
 11 C        0.5020     1.9860     0.1650 C.3   1 <1>   0.0760 
 12 C       -0.1070     3.9570     0.8090 C.3   1 <1>   0.0760 
 13 C       -4.9210    -1.6440    -0.9960 C.3   1 <1>   0.4240 
 14 C        0.9800     2.9510     1.2860 C.3   1 <1>   0.0000 
 15 O       -6.0560    -1.4310    -1.8040 O.3   1 <1>  -0.5600 
 16 C       -5.0130    -2.9750    -0.2200 C.ar  1 <1>  -0.1440 
 17 C       -7.2950    -1.8090    -1.2910 C.3   1 <1>   0.1200 
 18 C       -6.1480    -3.7720    -0.2840 C.ar  1 <1>  -0.1440 
 19 C       -3.9550    -3.4020     0.5720 C.ar  1 <1>  -0.1500 
 20 C       -7.3210    -3.3260    -1.1330 C.3   1 <1>  -0.0170 
 21 C       -6.2150    -4.9630     0.4220 C.ar  1 <1>  -0.1500 
 22 C       -4.0010    -4.5910     1.2800 C.ar  1 <1>   0.0820 
 23 C       -5.1550    -5.3880     1.2180 C.ar  1 <1>   0.0820 
 24 O       -2.8760    -4.8700     1.9980 O.3   1 <1>  -0.3630 
 25 O       -5.2290    -6.5430     1.9430 O.3   1 <1>  -0.3630 
 26 C       -2.4580    -6.1990     2.2180 C.3   1 <1>   0.0400 
 27 C       -6.4190    -7.2920     2.0450 C.3   1 <1>   0.0400 
 28 H       -2.6890     3.4650    -0.7180 H     1 <1>   0.1000 
 29 H       -2.6800    -0.3770    -3.3230 H     1 <1>   0.0800 
 30 H       -4.4050    -0.1340    -3.3220 H     1 <1>   0.0800 
 31 H       -5.4810     1.0680    -1.3930 H     1 <1>   0.0800 
 32 H       -4.4990     1.6790    -0.0940 H     1 <1>   0.0800 
 33 H       -1.9950     1.0880     1.1820 H     1 <1>   0.1000 
 34 H       -2.5160     2.7210     1.7060 H     1 <1>   0.1000 
 35 H       -2.8230    -1.8840    -1.4410 H     1 <1>   0.0800 
 36 H       -3.8810    -2.4560    -2.6860 H     1 <1>   0.0800 
 37 H       -5.6500    -0.3930     0.6040 H     1 <1>   0.0800 
 38 H       -3.9360    -0.5910     0.6000 H     1 <1>   0.0800 
 39 H        1.0180     2.1470    -0.7670 H     1 <1>   0.0000 
 40 H        0.4530     0.9520     0.4580 H     1 <1>   0.0000 
 41 H       -0.6280     4.4570     1.6060 H     1 <1>   0.0000 
 42 H        0.2530     4.6210     0.0420 H     1 <1>   0.0000 
 43 H        1.9870     3.3050     1.1550 H     1 <1>   0.0000 
 44 H        0.7840     2.5680     2.2730 H     1 <1>   0.0000 
 45 H       -8.0510    -1.4890    -1.9870 H     1 <1>   0.0800 
 46 H       -7.4540    -1.3180    -0.3470 H     1 <1>   0.0800 
 47 H       -3.0600    -2.8120     0.6520 H     1 <1>   0.1500 
 48 H       -7.2640    -3.7870    -2.1030 H     1 <1>   0.0800 
 49 H       -8.2480    -3.6170    -0.6730 H     1 <1>   0.0800 
 50 H       -7.1100    -5.5480     0.3390 H     1 <1>   0.1500 
 51 H       -1.4130    -6.1840     2.4690 H     1 <1>   0.0800 
 52 H       -2.6140    -6.7700     1.3200 H     1 <1>   0.0800 
 53 H       -3.0230    -6.6090     3.0350 H     1 <1>   0.0800 
 54 H       -6.2420    -8.1100     2.7210 H     1 <1>   0.0800 
 55 H       -6.6780    -7.6730     1.0730 H     1 <1>   0.0800 
 56 H       -7.1980    -6.6600     2.4350 H     1 <1>   0.0800 
@<TRIPOS>BOND
  1   1   2  2   
  2   2   3  am  
  3   2   4  1   
  4   3   5  1   
  5   3   6  1   
  6   4   7  1   
  7   4   8  1   
  8   4  28  1   
  9   5   9  1   
 10   5  29  1   
 11   5  30  1   
 12   6  10  1   
 13   6  31  1   
 14   6  32  1   
 15   7   8  1   
 16   7  11  1   
 17   7  12  1   
 18   8  33  1   
 19   8  34  1   
 20   9  13  1   
 21   9  35  1   
 22   9  36  1   
 23  10  13  1   
 24  10  37  1   
 25  10  38  1   
 26  11  14  1   
 27  11  39  1   
 28  11  40  1   
 29  12  14  1   
 30  12  41  1   
 31  12  42  1   
 32  13  15  1   
 33  13  16  1   
 34  14  43  1   
 35  14  44  1   
 36  15  17  1   
 37  16  18  ar  
 38  16  19  ar  
 39  17  20  1   
 40  17  45  1   
 41  17  46  1   
 42  18  20  1   
 43  18  21  ar  
 44  19  22  ar  
 45  19  47  1   
 46  20  48  1   
 47  20  49  1   
 48  21  23  ar  
 49  21  50  1   
 50  22  23  ar  
 51  22  24  1   
 52  23  25  1   
 53  24  26  1   
 54  25  27  1   
 55  26  51  1   
 56  26  52  1   
 57  26  53  1   
 58  27  54  1   
 59  27  55  1   
 60  27  56  1   
@<TRIPOS>SUBSTRUCTURE
  1 ****  10 GROUP 4 **** **** 0

# MOE 2024.06 (io_trps.svl 2023.06)
