@<TRIPOS>MOLECULE
NONAME
45 48 1 0 0 
SMALL
USER_CHARGES


@<TRIPOS>ATOM
  1 S       -2.5070     0.8950    -0.8220 S.3   1 <1>  -0.0800 
  2 C       -1.9500     0.5470     0.8080 C.2   1 <1>  -0.1400 
  3 C       -1.0660     1.8380    -1.1630 C.2   1 <1>  -0.1100 
  4 C       -0.7540     1.1270     1.0280 C.2   1 <1>  -0.1500 
  5 C       -2.8370    -0.3030     1.7050 C.3   1 <1>   0.0810 
  6 C       -0.2510     1.8610    -0.0930 C.2   1 <1>  -0.1500 
  7 C       -2.8220    -1.7790     1.3290 C.2   1 <1>   0.5690 
  8 O       -1.9280    -2.4590     1.7770 O.2   1 <1>  -0.5700 
  9 N       -3.8020    -2.3300     0.5430 N.am  1 <1>  -0.6600 
 10 C       -4.9880    -1.6460    -0.0320 C.3   1 <1>   0.1400 
 11 C       -3.7860    -3.7590     0.1470 C.3   1 <1>   0.1400 
 12 C       -5.7310    -2.7240    -0.8240 C.3   1 <1>   0.2000 
 13 C       -5.2180    -4.0620    -0.2960 C.3   1 <1>  -0.0800 
 14 O       -7.1020    -2.6370    -0.6350 O.3   1 <1>  -0.6800 
 15 C       -5.3240    -5.1900    -1.3340 C.3   1 <1>  -0.0170 
 16 C       -4.8010    -6.5030    -0.7790 C.ar  1 <1>   0.1670 
 17 N       -3.5360    -6.7520    -0.9260 N.ar  1 <1>  -0.6200 
 18 C       -5.6940    -7.3720    -0.1310 C.ar  1 <1>  -0.1500 
 19 C       -3.0560    -7.9160    -0.4170 C.ar  1 <1>   0.3100 
 20 C       -5.2410    -8.5470     0.3860 C.ar  1 <1>  -0.1500 
 21 C       -3.8760    -8.8510     0.2510 C.ar  1 <1>   0.0000 
 22 C       -1.6890    -8.2040    -0.5540 C.ar  1 <1>  -0.1500 
 23 C       -3.2980   -10.0340     0.7520 C.ar  1 <1>  -0.1500 
 24 C       -1.1460    -9.3600    -0.0600 C.ar  1 <1>  -0.1500 
 25 C       -1.9610   -10.2850     0.6000 C.ar  1 <1>  -0.1500 
 26 H       -0.9820     2.2790    -2.1400 H     1 <1>   0.1500 
 27 H       -0.1910     1.0670     1.9430 H     1 <1>   0.1500 
 28 H       -2.4760    -0.2240     2.7140 H     1 <1>   0.0800 
 29 H       -3.8370     0.0820     1.6940 H     1 <1>   0.0800 
 30 H        0.6970     2.3670    -0.0400 H     1 <1>   0.1500 
 31 H       -5.6020    -1.2610     0.7630 H     1 <1>   0.0800 
 32 H       -4.6830    -0.8500    -0.6870 H     1 <1>   0.0800 
 33 H       -3.0940    -3.8880    -0.6690 H     1 <1>   0.0800 
 34 H       -3.4820    -4.3890     0.9670 H     1 <1>   0.0800 
 35 H       -5.5250    -2.6100    -1.8740 H     1 <1>   0.0800 
 36 H       -5.7680    -4.3360     0.5880 H     1 <1>   0.0800 
 37 H       -7.3240    -2.7780     0.3060 H     1 <1>   0.4000 
 38 H       -4.7600    -4.9330    -2.2140 H     1 <1>   0.0800 
 39 H       -6.3510    -5.3090    -1.6320 H     1 <1>   0.0800 
 40 H       -6.7300    -7.0960    -0.0500 H     1 <1>   0.1500 
 41 H       -5.8940    -9.2380     0.8880 H     1 <1>   0.1500 
 42 H       -1.0800    -7.4790    -1.0620 H     1 <1>   0.1500 
 43 H       -3.9300   -10.7410     1.2590 H     1 <1>   0.1500 
 44 H       -0.0950    -9.5680    -0.1720 H     1 <1>   0.1500 
 45 H       -1.5210   -11.1900     0.9830 H     1 <1>   0.1500 
@<TRIPOS>BOND
  1   1   2  1   
  2   1   3  1   
  3   2   4  2   
  4   2   5  1   
  5   3   6  2   
  6   3  26  1   
  7   4   6  1   
  8   4  27  1   
  9   5   7  1   
 10   5  28  1   
 11   5  29  1   
 12   6  30  1   
 13   7   8  2   
 14   7   9  am  
 15   9  10  1   
 16   9  11  1   
 17  10  12  1   
 18  10  31  1   
 19  10  32  1   
 20  11  13  1   
 21  11  33  1   
 22  11  34  1   
 23  12  13  1   
 24  12  14  1   
 25  12  35  1   
 26  13  15  1   
 27  13  36  1   
 28  14  37  1   
 29  15  16  1   
 30  15  38  1   
 31  15  39  1   
 32  16  17  ar  
 33  16  18  ar  
 34  17  19  ar  
 35  18  20  ar  
 36  18  40  1   
 37  19  21  ar  
 38  19  22  ar  
 39  20  21  ar  
 40  20  41  1   
 41  21  23  ar  
 42  22  24  ar  
 43  22  42  1   
 44  23  25  ar  
 45  23  43  1   
 46  24  25  ar  
 47  24  44  1   
 48  25  45  1   
@<TRIPOS>SUBSTRUCTURE
  1 ****  11 GROUP 4 **** **** 0

# MOE 2024.06 (io_trps.svl 2023.06)
