@<TRIPOS>MOLECULE
NONAME
54 57 1 0 0 
SMALL
USER_CHARGES


@<TRIPOS>ATOM
  1 O       -1.2440    -0.2120    -3.2870 O.2   1 <1>  -0.5700 
  2 C       -1.4400     0.6870    -2.5020 C.2   1 <1>   0.5690 
  3 N       -2.1240     0.4680    -1.3340 N.am  1 <1>  -0.6600 
  4 C       -0.9090     2.0690    -2.8660 C.3   1 <1>   0.0820 
  5 C       -2.3050     1.4400    -0.2250 C.3   1 <1>   0.1400 
  6 C       -2.6280    -0.8690    -0.9390 C.3   1 <1>   0.1400 
  7 C        0.0860     2.6370    -1.8550 C.2   1 <1>  -0.1810 
  8 C       -2.9930     0.6510     0.8890 C.3   1 <1>   0.2000 
  9 C       -2.7130    -0.8200     0.5870 C.3   1 <1>  -0.0800 
 10 C        1.2010     1.9760    -1.3440 C.2   1 <1>   0.1080 
 11 C        0.1000     3.8460    -1.2500 C.2   1 <1>  -0.3320 
 12 O       -2.4850     0.9830     2.1350 O.3   1 <1>  -0.6800 
 13 C       -3.7670    -1.7610     1.1930 C.3   1 <1>  -0.0170 
 14 N        1.8450     2.6970    -0.4870 N.2   1 <1>  -0.7070 
 15 C        1.6560     0.5790    -1.7080 C.3   1 <1>  -0.0590 
 16 N        1.1770     3.8730    -0.4150 N.pl3 1 <1>   0.5930 
 17 C       -0.8490     5.0280    -1.4130 C.3   1 <1>  -0.0600 
 18 C       -3.4730    -3.2170     0.8720 C.ar  1 <1>   0.1670 
 19 C        1.5990     4.9450     0.4180 C.ar  1 <1>  -0.0230 
 20 N       -3.9700    -3.6860    -0.2620 N.ar  1 <1>  -0.6200 
 21 C       -2.7120    -3.9830     1.7530 C.ar  1 <1>   0.1600 
 22 C        0.8140     5.3760     1.4840 C.ar  1 <1>  -0.1500 
 23 C        2.8090     5.5870     0.1770 C.ar  1 <1>  -0.1500 
 24 C       -3.6560    -4.9560    -0.4540 C.ar  1 <1>   0.1600 
 25 N       -2.3950    -5.2530     1.5620 N.ar  1 <1>  -0.6200 
 26 C        1.2220     6.4330     2.2790 C.ar  1 <1>  -0.1500 
 27 C        3.2190     6.6430     0.9710 C.ar  1 <1>  -0.1500 
 28 C       -2.8940    -5.7140     0.4280 C.ar  1 <1>   0.1600 
 29 C        2.4250     7.0680     2.0210 C.ar  1 <1>  -0.1500 
 30 H       -0.4230     2.0080    -3.8220 H     1 <1>   0.0800 
 31 H       -1.7490     2.7260    -2.9730 H     1 <1>   0.0800 
 32 H       -1.3450     1.7890     0.1100 H     1 <1>   0.0800 
 33 H       -2.9150     2.2670    -0.5440 H     1 <1>   0.0800 
 34 H       -3.6020    -1.0210    -1.3750 H     1 <1>   0.0800 
 35 H       -1.9670    -1.6520    -1.2740 H     1 <1>   0.0800 
 36 H       -4.0500     0.8580     0.8850 H     1 <1>   0.0800 
 37 H       -1.7390    -1.0830     0.9640 H     1 <1>   0.0800 
 38 H       -1.5150     0.8540     2.1510 H     1 <1>   0.4000 
 39 H       -4.7440    -1.5100     0.8170 H     1 <1>   0.0800 
 40 H       -3.7890    -1.6270     2.2600 H     1 <1>   0.0800 
 41 H        1.5630     0.4190    -2.7660 H     1 <1>   0.0800 
 42 H        1.0580    -0.1450    -1.1870 H     1 <1>   0.0800 
 43 H        2.6850     0.4460    -1.4280 H     1 <1>   0.0800 
 44 H       -1.5480     4.8600    -2.2100 H     1 <1>   0.0800 
 45 H       -0.2900     5.9190    -1.6420 H     1 <1>   0.0800 
 46 H       -1.4000     5.1920    -0.5040 H     1 <1>   0.0800 
 47 H       -2.3470    -3.5250     2.6550 H     1 <1>   0.1500 
 48 H       -0.1180     4.8810     1.6950 H     1 <1>   0.1500 
 49 H        3.4310     5.2510    -0.6350 H     1 <1>   0.1500 
 50 H       -4.0190    -5.4220    -1.3530 H     1 <1>   0.1500 
 51 H        0.6080     6.7590     3.1000 H     1 <1>   0.1500 
 52 H        4.1570     7.1330     0.7740 H     1 <1>   0.1500 
 53 H       -2.6910    -6.7410     0.1830 H     1 <1>   0.1500 
 54 H        2.7430     7.8890     2.6400 H     1 <1>   0.1500 
@<TRIPOS>BOND
  1   1   2  2   
  2   2   3  am  
  3   2   4  1   
  4   3   5  1   
  5   3   6  1   
  6   4   7  1   
  7   4  30  1   
  8   4  31  1   
  9   5   8  1   
 10   5  32  1   
 11   5  33  1   
 12   6   9  1   
 13   6  34  1   
 14   6  35  1   
 15   7  10  1   
 16   7  11  2   
 17   8   9  1   
 18   8  12  1   
 19   8  36  1   
 20   9  13  1   
 21   9  37  1   
 22  10  14  2   
 23  10  15  1   
 24  11  16  1   
 25  11  17  1   
 26  12  38  1   
 27  13  18  1   
 28  13  39  1   
 29  13  40  1   
 30  14  16  1   
 31  15  41  1   
 32  15  42  1   
 33  15  43  1   
 34  16  19  1   
 35  17  44  1   
 36  17  45  1   
 37  17  46  1   
 38  18  20  ar  
 39  18  21  ar  
 40  19  22  ar  
 41  19  23  ar  
 42  20  24  ar  
 43  21  25  ar  
 44  21  47  1   
 45  22  26  ar  
 46  22  48  1   
 47  23  27  ar  
 48  23  49  1   
 49  24  28  ar  
 50  24  50  1   
 51  25  28  ar  
 52  26  29  ar  
 53  26  51  1   
 54  27  29  ar  
 55  27  52  1   
 56  28  53  1   
 57  29  54  1   
@<TRIPOS>SUBSTRUCTURE
  1 ****   5 GROUP 4 **** **** 0

# MOE 2024.06 (io_trps.svl 2023.06)
