@<TRIPOS>MOLECULE
NONAME
45 47 1 0 0 
SMALL
USER_CHARGES


@<TRIPOS>ATOM
  1 CL      -0.5440    -1.0290    -1.7650 Cl    1 <1>  -0.1770 
  2 C        0.9850    -1.3940    -0.9910 C.ar  1 <1>   0.1770 
  3 C        1.1080    -2.5630    -0.2370 C.ar  1 <1>   0.1170 
  4 C        2.0270    -0.5020    -1.1500 C.ar  1 <1>  -0.1500 
  5 N        0.0010    -3.4230    -0.1200 N.am  1 <1>  -0.5470 
  6 C        2.3370    -2.8090     0.3760 C.ar  1 <1>  -0.1500 
  7 C        3.2300    -0.7830    -0.5340 C.ar  1 <1>   0.1770 
  8 C       -0.1390    -4.7110     0.3090 C.2   1 <1>   0.6900 
  9 C        3.3950    -1.9260     0.2270 C.ar  1 <1>  -0.1500 
 10 CL       4.5660     0.3260    -0.7180 Cl    1 <1>  -0.1770 
 11 O        0.8200    -5.3800     0.6460 O.2   1 <1>  -0.5700 
 12 N       -1.3940    -5.2490     0.3380 N.am  1 <1>  -0.6600 
 13 C       -2.6670    -4.5260     0.1190 C.3   1 <1>   0.1400 
 14 C       -1.6400    -6.6650     0.6770 C.3   1 <1>   0.1400 
 15 C       -3.7580    -5.4570     0.6680 C.3   1 <1>  -0.0800 
 16 C       -3.1530    -6.8680     0.5470 C.3   1 <1>  -0.0800 
 17 C       -5.1800    -5.2920     0.0470 C.3   1 <1>   0.2800 
 18 C       -3.5460    -7.5200    -0.7880 C.3   1 <1>  -0.1600 
 19 O       -5.0880    -4.7870    -1.2370 O.3   1 <1>  -0.6800 
 20 C       -5.8700    -6.6640    -0.0730 C.3   1 <1>  -0.1600 
 21 C       -6.0730    -4.3200     0.8490 C.3   1 <1>  -0.1600 
 22 C       -5.0720    -7.6870    -0.9110 C.3   1 <1>  -0.1600 
 23 C       -5.5460    -2.8800     0.9730 C.3   1 <1>  -0.2400 
 24 H        1.9060     0.3890    -1.7370 H     1 <1>   0.1500 
 25 H       -0.8570    -3.0680    -0.5350 H     1 <1>   0.3700 
 26 H        2.4760    -3.6910     0.9750 H     1 <1>   0.1500 
 27 H        4.3420    -2.1220     0.6990 H     1 <1>   0.1500 
 28 H       -2.6670    -3.5800     0.6310 H     1 <1>   0.0800 
 29 H       -2.7750    -4.3640    -0.9390 H     1 <1>   0.0800 
 30 H       -1.0860    -7.3120     0.0190 H     1 <1>   0.0800 
 31 H       -1.3230    -6.8370     1.6920 H     1 <1>   0.0800 
 32 H       -3.8340    -5.2600     1.7220 H     1 <1>   0.0800 
 33 H       -3.4950    -7.5000     1.3480 H     1 <1>   0.0800 
 34 H       -3.1970    -6.8940    -1.5930 H     1 <1>   0.0800 
 35 H       -3.0680    -8.4790    -0.8930 H     1 <1>   0.0800 
 36 H       -5.9730    -4.7750    -1.6420 H     1 <1>   0.4000 
 37 H       -5.9850    -7.0620     0.9200 H     1 <1>   0.0800 
 38 H       -6.8590    -6.5560    -0.4810 H     1 <1>   0.0800 
 39 H       -7.0480    -4.2890     0.3940 H     1 <1>   0.0800 
 40 H       -6.2080    -4.7160     1.8400 H     1 <1>   0.0800 
 41 H       -5.3510    -8.6790    -0.6000 H     1 <1>   0.0800 
 42 H       -5.3400    -7.5870    -1.9490 H     1 <1>   0.0800 
 43 H       -5.3500    -2.4590     0.0030 H     1 <1>   0.0800 
 44 H       -4.6440    -2.8500     1.5560 H     1 <1>   0.0800 
 45 H       -6.2800    -2.2650     1.4650 H     1 <1>   0.0800 
@<TRIPOS>BOND
  1   1   2  1   
  2   2   3  ar  
  3   2   4  ar  
  4   3   5  1   
  5   3   6  ar  
  6   4   7  ar  
  7   4  24  1   
  8   5   8  am  
  9   5  25  1   
 10   6   9  ar  
 11   6  26  1   
 12   7   9  ar  
 13   7  10  1   
 14   8  11  2   
 15   8  12  am  
 16   9  27  1   
 17  12  13  1   
 18  12  14  1   
 19  13  15  1   
 20  13  28  1   
 21  13  29  1   
 22  14  16  1   
 23  14  30  1   
 24  14  31  1   
 25  15  16  1   
 26  15  17  1   
 27  15  32  1   
 28  16  18  1   
 29  16  33  1   
 30  17  19  1   
 31  17  20  1   
 32  17  21  1   
 33  18  22  1   
 34  18  34  1   
 35  18  35  1   
 36  19  36  1   
 37  20  22  1   
 38  20  37  1   
 39  20  38  1   
 40  21  23  1   
 41  21  39  1   
 42  21  40  1   
 43  22  41  1   
 44  22  42  1   
 45  23  43  1   
 46  23  44  1   
 47  23  45  1   
@<TRIPOS>SUBSTRUCTURE
  1 ****  12 GROUP 4 **** **** 0

# MOE 2024.06 (io_trps.svl 2023.06)
