@<TRIPOS>MOLECULE
NONAME
53 55 1 0 0 
SMALL
USER_CHARGES


@<TRIPOS>ATOM
  1 O       -2.8920     2.3690    -1.2700 O.2   1 <1>  -0.5700 
  2 C       -2.4990     2.0560    -0.1710 C.2   1 <1>   0.5690 
  3 N       -2.3760     0.7530     0.1920 N.am  1 <1>  -0.7300 
  4 C       -2.1280     3.1540     0.8370 C.3   1 <1>   0.1710 
  5 C       -2.6010    -0.4070    -0.6980 C.3   1 <1>   0.2200 
  6 N       -0.6860     3.5200     0.9080 N.3   1 <1>  -0.8100 
  7 C       -3.6830    -1.2940    -0.1030 C.3   1 <1>  -0.0800 
  8 C       -1.3860    -1.3230    -0.6400 C.3   1 <1>   0.1200 
  9 C       -0.2120     4.0540    -0.3860 C.3   1 <1>   0.2530 
 10 C        0.1600     2.4190     1.3920 C.3   1 <1>   0.0300 
 11 C       -2.8920    -2.1660     0.8820 C.3   1 <1>   0.1200 
 12 C       -4.3860    -2.1300    -1.1900 C.3   1 <1>  -0.0160 
 13 O       -1.5420    -2.0800     0.5220 O.3   1 <1>  -0.5600 
 14 C        1.1980     4.6230    -0.2770 C.ar  1 <1>  -0.1440 
 15 C       -5.4730    -3.0160    -0.6000 C.ar  1 <1>  -0.1440 
 16 C        2.2000     4.1930    -1.1340 C.ar  1 <1>  -0.1500 
 17 C        1.4950     5.5810     0.6790 C.ar  1 <1>  -0.1500 
 18 C       -5.3090    -4.3780    -0.4490 C.ar  1 <1>  -0.1500 
 19 C       -6.6860    -2.5000    -0.1890 C.ar  1 <1>  -0.1500 
 20 C        3.4790     4.7150    -1.0350 C.ar  1 <1>  -0.1500 
 21 C        2.7730     6.1040     0.7780 C.ar  1 <1>  -0.1500 
 22 C       -6.3320    -5.1360     0.0970 C.ar  1 <1>   0.1600 
 23 C       -7.6450    -3.3460     0.3450 C.ar  1 <1>   0.1600 
 24 C        3.7720     5.6750    -0.0800 C.ar  1 <1>  -0.1440 
 25 N       -7.4960    -4.6510     0.5000 N.ar  1 <1>  -0.6200 
 26 C        5.1740     6.2460     0.0290 C.3   1 <1>  -0.0970 
 27 H       -1.9730     0.5100     1.0990 H     1 <1>   0.3700 
 28 H       -2.4540     2.8460     1.8130 H     1 <1>   0.0800 
 29 H       -2.6910     4.0350     0.5840 H     1 <1>   0.0800 
 30 H       -2.8200    -0.0800    -1.7020 H     1 <1>   0.0800 
 31 H       -4.4240    -0.7090     0.4120 H     1 <1>   0.0800 
 32 H       -0.4580    -0.7810    -0.5990 H     1 <1>   0.0800 
 33 H       -1.3770    -2.0010    -1.4750 H     1 <1>   0.0800 
 34 H       -0.2370     3.2790    -1.1330 H     1 <1>   0.0800 
 35 H       -0.8700     4.8430    -0.7070 H     1 <1>   0.0800 
 36 H        1.1590     2.7780     1.5790 H     1 <1>   0.0800 
 37 H        0.2110     1.6270     0.6650 H     1 <1>   0.0800 
 38 H       -0.2300     2.0320     2.3170 H     1 <1>   0.0800 
 39 H       -3.1890    -3.2000     0.8630 H     1 <1>   0.0800 
 40 H       -2.9840    -1.7900     1.8860 H     1 <1>   0.0800 
 41 H       -3.6700    -2.7410    -1.7130 H     1 <1>   0.0800 
 42 H       -4.8360    -1.4700    -1.9120 H     1 <1>   0.0800 
 43 H        1.9900     3.4500    -1.8820 H     1 <1>   0.1500 
 44 H        0.7240     5.9140     1.3520 H     1 <1>   0.1500 
 45 H       -4.3960    -4.8610    -0.7480 H     1 <1>   0.1500 
 46 H       -6.8950    -1.4500    -0.2780 H     1 <1>   0.1500 
 47 H        4.2450     4.3700    -1.7070 H     1 <1>   0.1500 
 48 H        2.9840     6.8450     1.5280 H     1 <1>   0.1500 
 49 H       -6.1850    -6.1960     0.2090 H     1 <1>   0.1500 
 50 H       -8.5840    -2.9260     0.6600 H     1 <1>   0.1500 
 51 H        5.6600     6.2360    -0.9300 H     1 <1>   0.0800 
 52 H        5.7520     5.6600     0.7200 H     1 <1>   0.0800 
 53 H        5.1380     7.2620     0.3800 H     1 <1>   0.0800 
@<TRIPOS>BOND
  1   1   2  2   
  2   2   3  am  
  3   2   4  1   
  4   3   5  1   
  5   3  27  1   
  6   4   6  1   
  7   4  28  1   
  8   4  29  1   
  9   5   7  1   
 10   5   8  1   
 11   5  30  1   
 12   6   9  1   
 13   6  10  1   
 14   7  11  1   
 15   7  12  1   
 16   7  31  1   
 17   8  13  1   
 18   8  32  1   
 19   8  33  1   
 20   9  14  1   
 21   9  34  1   
 22   9  35  1   
 23  10  36  1   
 24  10  37  1   
 25  10  38  1   
 26  11  13  1   
 27  11  39  1   
 28  11  40  1   
 29  12  15  1   
 30  12  41  1   
 31  12  42  1   
 32  14  16  ar  
 33  14  17  ar  
 34  15  18  ar  
 35  15  19  ar  
 36  16  20  ar  
 37  16  43  1   
 38  17  21  ar  
 39  17  44  1   
 40  18  22  ar  
 41  18  45  1   
 42  19  23  ar  
 43  19  46  1   
 44  20  24  ar  
 45  20  47  1   
 46  21  24  ar  
 47  21  48  1   
 48  22  25  ar  
 49  22  49  1   
 50  23  25  ar  
 51  23  50  1   
 52  24  26  1   
 53  26  51  1   
 54  26  52  1   
 55  26  53  1   
@<TRIPOS>SUBSTRUCTURE
  1 ****   3 GROUP 4 **** **** 0

# MOE 2024.06 (io_trps.svl 2023.06)
