@<TRIPOS>MOLECULE
NONAME
41 44 1 0 0 
SMALL
USER_CHARGES


@<TRIPOS>ATOM
  1 O        0.9190     1.4460     1.0190 O.3   1 <1>  -0.0190 
  2 N        1.7050     0.4410     1.2710 N.2   1 <1>  -0.4100 
  3 C        0.9550     1.7860    -0.2420 C.2   1 <1>  -0.0400 
  4 C        2.2500     0.1230     0.1520 C.2   1 <1>   0.1080 
  5 C        1.8060     0.9590    -0.8680 C.2   1 <1>  -0.1500 
  6 C        0.1240     2.9530    -0.7400 C.3   1 <1>   0.0200 
  7 C        3.2390    -1.0080    -0.0200 C.3   1 <1>  -0.0590 
  8 C        0.4460     4.2380     0.0380 C.3   1 <1>  -0.0800 
  9 C       -0.2180     5.4780    -0.5540 C.3   1 <1>   0.2000 
 10 C        1.9340     4.5830     0.0740 C.3   1 <1>   0.2090 
 11 O       -1.5150     5.5930    -0.0760 O.3   1 <1>  -0.6800 
 12 C        0.6620     6.6560    -0.1310 C.3   1 <1>   0.2090 
 13 N        1.9870     6.0590     0.2010 N.pl3 1 <1>  -0.8380 
 14 C        3.1590     6.8070     0.2010 C.ar  1 <1>   0.4100 
 15 N        3.0450     8.0870    -0.0270 N.ar  1 <1>  -0.6200 
 16 C        4.4280     6.1990     0.4450 C.ar  1 <1>   0.1600 
 17 C        4.2160     8.7700    -0.0250 C.ar  1 <1>   0.3100 
 18 N        5.5690     6.8120     0.4500 N.ar  1 <1>  -0.6200 
 19 C        5.4670     8.1460     0.2070 C.ar  1 <1>   0.3100 
 20 C        4.1940    10.1530    -0.2640 C.ar  1 <1>  -0.1500 
 21 C        6.6300     8.9280     0.1870 C.ar  1 <1>  -0.1500 
 22 C        5.3460    10.8970    -0.2770 C.ar  1 <1>  -0.1500 
 23 C        6.5770    10.2790    -0.0500 C.ar  1 <1>  -0.1500 
 24 H        2.0990     0.9190    -1.9000 H     1 <1>   0.1500 
 25 H        0.3180     3.0980    -1.7880 H     1 <1>   0.0800 
 26 H       -0.9200     2.7170    -0.6250 H     1 <1>   0.0800 
 27 H        4.1430    -0.6400    -0.4700 H     1 <1>   0.0800 
 28 H        2.8150    -1.7700    -0.6470 H     1 <1>   0.0800 
 29 H        3.4760    -1.4380     0.9370 H     1 <1>   0.0800 
 30 H        0.1320     4.1200     1.0610 H     1 <1>   0.0800 
 31 H       -0.2570     5.4290    -1.6290 H     1 <1>   0.0800 
 32 H        2.4180     4.2880    -0.8420 H     1 <1>   0.0800 
 33 H        2.4150     4.1030     0.9110 H     1 <1>   0.0800 
 34 H       -1.5090     5.6610     0.8990 H     1 <1>   0.4000 
 35 H        0.2700     7.1450     0.7430 H     1 <1>   0.0800 
 36 H        0.7530     7.3640    -0.9370 H     1 <1>   0.0800 
 37 H        4.4310     5.1460     0.6430 H     1 <1>   0.1500 
 38 H        3.2370    10.6120    -0.4360 H     1 <1>   0.1500 
 39 H        7.5670     8.4340     0.3650 H     1 <1>   0.1500 
 40 H        5.3140    11.9580    -0.4620 H     1 <1>   0.1500 
 41 H        7.4770    10.8710    -0.0630 H     1 <1>   0.1500 
@<TRIPOS>BOND
  1   1   2  1   
  2   1   3  1   
  3   2   4  2   
  4   3   5  2   
  5   3   6  1   
  6   4   5  1   
  7   4   7  1   
  8   5  24  1   
  9   6   8  1   
 10   6  25  1   
 11   6  26  1   
 12   7  27  1   
 13   7  28  1   
 14   7  29  1   
 15   8   9  1   
 16   8  10  1   
 17   8  30  1   
 18   9  11  1   
 19   9  12  1   
 20   9  31  1   
 21  10  13  1   
 22  10  32  1   
 23  10  33  1   
 24  11  34  1   
 25  12  13  1   
 26  12  35  1   
 27  12  36  1   
 28  13  14  1   
 29  14  15  ar  
 30  14  16  ar  
 31  15  17  ar  
 32  16  18  ar  
 33  16  37  1   
 34  17  19  ar  
 35  17  20  ar  
 36  18  19  ar  
 37  19  21  ar  
 38  20  22  ar  
 39  20  38  1   
 40  21  23  ar  
 41  21  39  1   
 42  22  23  ar  
 43  22  40  1   
 44  23  41  1   
@<TRIPOS>SUBSTRUCTURE
  1 ****  13 GROUP 4 **** **** 0

# MOE 2024.06 (io_trps.svl 2023.06)
