@<TRIPOS>MOLECULE
NONAME
48 50 1 0 0 
SMALL
USER_CHARGES


@<TRIPOS>ATOM
  1 O       -0.2600    -0.4980     0.4730 O.2   1 <1>  -0.5700 
  2 C        0.4520    -1.3010    -0.0840 C.2   1 <1>   0.5690 
  3 N        1.5360    -0.9650    -0.8550 N.am  1 <1>  -0.5470 
  4 C        0.0940    -2.7830     0.0960 C.3   1 <1>   0.4040 
  5 C        2.0650     0.2920    -1.1960 C.ar  1 <1>   0.1170 
  6 N       -1.3580    -3.0330     0.4510 N.4   1 <1>  -0.9590 
  7 C        1.3440     1.4800    -1.1120 C.ar  1 <1>  -0.1500 
  8 C        3.3750     0.3500    -1.6590 C.ar  1 <1>  -0.1500 
  9 C       -1.6570    -4.4230     0.9370 C.3   1 <1>   0.4230 
 10 C       -2.1830    -2.6460    -0.7360 C.3   1 <1>   0.3430 
 11 C        1.9170     2.6860    -1.4730 C.ar  1 <1>  -0.1500 
 12 C        3.9510     1.5540    -2.0220 C.ar  1 <1>  -0.1500 
 13 C       -3.1630    -4.5370     1.2360 C.3   1 <1>  -0.1600 
 14 C       -0.8860    -4.8040     2.2260 C.3   1 <1>  -0.1600 
 15 C       -3.6710    -2.7280    -0.4120 C.3   1 <1>  -0.1600 
 16 C        3.2220     2.7260    -1.9290 C.ar  1 <1>  -0.1500 
 17 C       -4.0480    -4.1330     0.0540 C.3   1 <1>  -0.1600 
 18 C        0.5640    -5.3120     2.0780 C.3   1 <1>   0.0960 
 19 N        0.7520    -6.1200     0.8570 N.pl3 1 <1>   0.3140 
 20 N        0.9720    -5.5450    -0.3430 N.2   1 <1>  -0.7070 
 21 C        0.7050    -7.4600     0.7570 C.2   1 <1>  -0.3020 
 22 C        1.0780    -6.5420    -1.1720 C.2   1 <1>   0.1390 
 23 C        0.9140    -7.7680    -0.5400 C.2   1 <1>  -0.1500 
 24 H        2.1000    -1.7370    -1.2140 H     1 <1>   0.3700 
 25 H        0.7270    -3.1560     0.8750 H     1 <1>   0.0800 
 26 H        0.3370    -3.3100    -0.8090 H     1 <1>   0.0800 
 27 H       -1.5940    -2.3570     1.1920 H     1 <1>   0.4500 
 28 H        0.3270     1.4810    -0.7670 H     1 <1>   0.1500 
 29 H        3.9600    -0.5480    -1.7370 H     1 <1>   0.1500 
 30 H       -1.4210    -5.1290     0.1560 H     1 <1>   0.0800 
 31 H       -1.9620    -3.3050    -1.5600 H     1 <1>   0.0800 
 32 H       -1.9470    -1.6370    -1.0350 H     1 <1>   0.0800 
 33 H        1.3470     3.5970    -1.3990 H     1 <1>   0.1500 
 34 H        4.9670     1.5820    -2.3770 H     1 <1>   0.1500 
 35 H       -3.4090    -3.9270     2.0880 H     1 <1>   0.0800 
 36 H       -3.3970    -5.5560     1.4950 H     1 <1>   0.0800 
 37 H       -1.4170    -5.6160     2.6920 H     1 <1>   0.0800 
 38 H       -0.9170    -3.9910     2.9290 H     1 <1>   0.0800 
 39 H       -4.2370    -2.4790    -1.2930 H     1 <1>   0.0800 
 40 H       -3.9150    -2.0020     0.3450 H     1 <1>   0.0800 
 41 H        3.6680     3.6640    -2.2090 H     1 <1>   0.1500 
 42 H       -5.0850    -4.1560     0.3450 H     1 <1>   0.0800 
 43 H       -3.9170    -4.8330    -0.7550 H     1 <1>   0.0800 
 44 H        0.8210    -5.9200     2.9280 H     1 <1>   0.0800 
 45 H        1.2630    -4.4990     2.0530 H     1 <1>   0.0800 
 46 H        0.5340    -8.1150     1.5930 H     1 <1>   0.1500 
 47 H        1.2700    -6.4320    -2.2270 H     1 <1>   0.1500 
 48 H        0.9540    -8.7360    -1.0090 H     1 <1>   0.1500 
@<TRIPOS>BOND
  1   1   2  2   
  2   2   3  am  
  3   2   4  1   
  4   3   5  1   
  5   3  24  1   
  6   4   6  1   
  7   4  25  1   
  8   4  26  1   
  9   5   7  ar  
 10   5   8  ar  
 11   6   9  1   
 12   6  10  1   
 13   6  27  1   
 14   7  11  ar  
 15   7  28  1   
 16   8  12  ar  
 17   8  29  1   
 18   9  13  1   
 19   9  14  1   
 20   9  30  1   
 21  10  15  1   
 22  10  31  1   
 23  10  32  1   
 24  11  16  ar  
 25  11  33  1   
 26  12  16  ar  
 27  12  34  1   
 28  13  17  1   
 29  13  35  1   
 30  13  36  1   
 31  14  18  1   
 32  14  37  1   
 33  14  38  1   
 34  15  17  1   
 35  15  39  1   
 36  15  40  1   
 37  16  41  1   
 38  17  42  1   
 39  17  43  1   
 40  18  19  1   
 41  18  44  1   
 42  18  45  1   
 43  19  20  1   
 44  19  21  1   
 45  20  22  2   
 46  21  23  2   
 47  21  46  1   
 48  22  23  1   
 49  22  47  1   
 50  23  48  1   
@<TRIPOS>SUBSTRUCTURE
  1 ****   4 GROUP 4 **** **** 0

# MOE 2024.06 (io_trps.svl 2023.06)
