@<TRIPOS>MOLECULE
NONAME
52 56 1 0 0 
SMALL
USER_CHARGES


@<TRIPOS>ATOM
  1 O       -0.0600     1.0020     1.2460 O.2   1 <1>  -0.5700 
  2 C       -0.0400     2.0930     0.7360 C.2   1 <1>   0.5690 
  3 N       -0.7330     3.1190     1.2770 N.am  1 <1>  -0.7300 
  4 C        0.7500     2.3250    -0.5550 C.3   1 <1>   0.1810 
  5 C       -0.7860     4.4790     0.6860 C.3   1 <1>   0.3640 
  6 O        1.0240     3.6890    -0.7860 O.3   1 <1>  -0.5600 
  7 C       -2.2400     4.9350     0.6250 C.ar  1 <1>  -0.1440 
  8 C       -0.1160     4.5350    -0.7090 C.3   1 <1>   0.2610 
  9 C       -3.2450     4.0910     0.1680 C.ar  1 <1>  -0.1500 
 10 C       -2.5740     6.2210     1.0260 C.ar  1 <1>  -0.1500 
 11 C        0.2000     5.9900    -1.0790 C.2   1 <1>   0.5690 
 12 C       -4.5580     4.5240     0.1180 C.ar  1 <1>  -0.1500 
 13 C       -3.8870     6.6550     0.9750 C.ar  1 <1>  -0.1500 
 14 O       -0.4360     6.4590    -1.9960 O.2   1 <1>  -0.5700 
 15 N        1.1170     6.7580    -0.3970 N.am  1 <1>  -0.6600 
 16 C       -4.8800     5.8070     0.5220 C.ar  1 <1>  -0.1500 
 17 C        1.2650     8.3900    -0.8690 C.3   1 <1>   0.2200 
 18 C        2.2400     6.0840     0.7660 C.3   1 <1>   0.1400 
 19 C        0.9300     8.8580     0.4590 C.3   1 <1>  -0.1600 
 20 C        2.6030     9.4950    -1.1830 C.3   1 <1>  -0.1600 
 21 C        3.8250     6.7980     0.8840 C.3   1 <1>  -0.0800 
 22 C        2.3170     8.4810     0.9680 C.3   1 <1>  -0.0800 
 23 C        3.8370     9.6390     0.0770 C.3   1 <1>  -0.0800 
 24 C        3.3730     7.3440    -0.1800 C.3   1 <1>  -0.1600 
 25 C        4.6860     8.2910     0.8500 C.3   1 <1>  -0.1600 
 26 C        2.9640     9.8440     1.2150 C.3   1 <1>  -0.1600 
 27 H       -1.3030     2.9490     2.1070 H     1 <1>   0.3700 
 28 H        0.1940     1.9440    -1.3920 H     1 <1>   0.0800 
 29 H        1.6890     1.8070    -0.4970 H     1 <1>   0.0800 
 30 H       -0.2560     5.1380     1.3480 H     1 <1>   0.0800 
 31 H       -0.8190     4.1720    -1.4370 H     1 <1>   0.0800 
 32 H       -3.0140     3.0890    -0.1520 H     1 <1>   0.1500 
 33 H       -1.8150     6.8990     1.3770 H     1 <1>   0.1500 
 34 H       -5.3300     3.8630    -0.2370 H     1 <1>   0.1500 
 35 H       -4.1360     7.6550     1.2860 H     1 <1>   0.1500 
 36 H       -5.9010     6.1450     0.4810 H     1 <1>   0.1500 
 37 H        0.4660     8.6290    -1.5500 H     1 <1>   0.0800 
 38 H        1.7770     6.0780     1.7380 H     1 <1>   0.0800 
 39 H        2.3960     5.0480     0.5300 H     1 <1>   0.0800 
 40 H        0.6470     9.8950     0.4400 H     1 <1>   0.0800 
 41 H        0.1310     8.3170     0.9370 H     1 <1>   0.0800 
 42 H        3.0560     9.2360    -2.1230 H     1 <1>   0.0800 
 43 H        2.1810    10.4720    -1.3360 H     1 <1>   0.0800 
 44 H        4.5390     6.0190     0.6770 H     1 <1>   0.0800 
 45 H        2.1610     8.1300     1.9810 H     1 <1>   0.0800 
 46 H        4.4840    10.4850    -0.0760 H     1 <1>   0.0800 
 47 H        4.0680     7.6550    -0.9900 H     1 <1>   0.0800 
 48 H        3.2190     6.5690    -0.9630 H     1 <1>   0.0800 
 49 H        4.9980     8.5280     1.8540 H     1 <1>   0.0800 
 50 H        5.6250     8.1490     0.3340 H     1 <1>   0.0800 
 51 H        3.4700     9.9200     2.1620 H     1 <1>   0.0800 
 52 H        2.3720    10.7350     1.0980 H     1 <1>   0.0800 
@<TRIPOS>BOND
  1   1   2  2   
  2   2   3  am  
  3   2   4  1   
  4   3   5  1   
  5   3  27  1   
  6   4   6  1   
  7   4  28  1   
  8   4  29  1   
  9   5   7  1   
 10   5   8  1   
 11   5  30  1   
 12   6   8  1   
 13   7   9  ar  
 14   7  10  ar  
 15   8  11  1   
 16   8  31  1   
 17   9  12  ar  
 18   9  32  1   
 19  10  13  ar  
 20  10  33  1   
 21  11  14  2   
 22  11  15  am  
 23  12  16  ar  
 24  12  34  1   
 25  13  16  ar  
 26  13  35  1   
 27  15  17  1   
 28  15  18  1   
 29  16  36  1   
 30  17  19  1   
 31  17  20  1   
 32  17  37  1   
 33  18  21  1   
 34  18  38  1   
 35  18  39  1   
 36  19  22  1   
 37  19  40  1   
 38  19  41  1   
 39  20  23  1   
 40  20  42  1   
 41  20  43  1   
 42  21  24  1   
 43  21  25  1   
 44  21  44  1   
 45  22  24  1   
 46  22  26  1   
 47  22  45  1   
 48  23  25  1   
 49  23  26  1   
 50  23  46  1   
 51  24  47  1   
 52  24  48  1   
 53  25  49  1   
 54  25  50  1   
 55  26  51  1   
 56  26  52  1   
@<TRIPOS>SUBSTRUCTURE
  1 ****  15 GROUP 4 **** **** 0

# MOE 2024.06 (io_trps.svl 2023.06)
