@<TRIPOS>MOLECULE
NONAME
45 48 1 0 0 
SMALL
USER_CHARGES


@<TRIPOS>ATOM
  1 O        1.7310     0.0990    -1.2070 O.2   1 <1>  -0.5700 
  2 C        2.2250    -0.8710    -0.6920 C.2   1 <1>   0.5690 
  3 N        1.7370    -1.3850     0.4550 N.am  1 <1>  -0.7300 
  4 C        3.4360    -1.5420    -1.3010 C.3   1 <1>  -0.0990 
  5 C        2.3550    -2.5360     1.1430 C.3   1 <1>   0.1400 
  6 C        3.3220    -3.0790    -1.2240 C.3   1 <1>  -0.0800 
  7 C        2.7540    -3.6130     0.1140 C.3   1 <1>  -0.0800 
  8 C        4.6660    -3.7760    -1.4720 C.3   1 <1>  -0.1600 
  9 C        3.7830    -4.5970     0.6870 C.3   1 <1>  -0.1600 
 10 C        4.7840    -4.8880    -0.4260 C.3   1 <1>   0.2200 
 11 N        6.1600    -5.1070     0.1110 N.am  1 <1>  -0.6600 
 12 C        7.1130    -4.1280     0.3860 C.2   1 <1>   0.7160 
 13 C        6.5200    -6.5500     0.2350 C.3   1 <1>   0.0600 
 14 O        8.2860    -4.4690     0.3270 O.2   1 <1>  -0.5700 
 15 C        6.8210    -2.7260     0.6930 C.2   1 <1>   0.2030 
 16 N        5.8860    -2.2330     1.4960 N.2   1 <1>  -0.7070 
 17 C        7.5520    -1.6670     0.1360 C.2   1 <1>  -0.1810 
 18 N        6.0240    -0.8970     1.4470 N.pl3 1 <1>   0.3000 
 19 C        7.0250    -0.5390     0.6290 C.2   1 <1>  -0.3320 
 20 C        8.7200    -1.6750    -0.8370 C.3   1 <1>   0.3010 
 21 C        7.5440     0.8310     0.2470 C.3   1 <1>   0.0200 
 22 O        8.8760    -0.3860    -1.3840 O.3   1 <1>  -0.5600 
 23 C        8.9120     0.6640    -0.4490 C.3   1 <1>   0.1200 
 24 H        0.9370    -0.9180     0.8860 H     1 <1>   0.3700 
 25 H        3.5430    -1.2300    -2.3240 H     1 <1>   0.0800 
 26 H        4.2970    -1.2040    -0.7580 H     1 <1>   0.0800 
 27 H        3.2250    -2.1870     1.6720 H     1 <1>   0.0800 
 28 H        1.6660    -2.9500     1.8600 H     1 <1>   0.0800 
 29 H        2.6370    -3.3850    -1.9990 H     1 <1>   0.0800 
 30 H        1.8640    -4.1720    -0.1190 H     1 <1>   0.0800 
 31 H        5.4680    -3.0690    -1.4120 H     1 <1>   0.0800 
 32 H        4.6850    -4.2010    -2.4600 H     1 <1>   0.0800 
 33 H        3.3010    -5.5060     1.0020 H     1 <1>   0.0800 
 34 H        4.2840    -4.1790     1.5380 H     1 <1>   0.0800 
 35 H        4.4580    -5.7920    -0.9140 H     1 <1>   0.0800 
 36 H        5.7180    -7.0900     0.7080 H     1 <1>   0.0800 
 37 H        7.4070    -6.6720     0.8340 H     1 <1>   0.0800 
 38 H        6.7030    -6.9630    -0.7420 H     1 <1>   0.0800 
 39 H        5.4210    -0.2560     1.9790 H     1 <1>   0.2700 
 40 H        8.5380    -2.3580    -1.6470 H     1 <1>   0.0800 
 41 H        9.6310    -1.9520    -0.3350 H     1 <1>   0.0800 
 42 H        7.6580     1.4520     1.1170 H     1 <1>   0.0800 
 43 H        6.8550     1.3080    -0.4280 H     1 <1>   0.0800 
 44 H        9.6780     0.4410     0.2740 H     1 <1>   0.0800 
 45 H        9.1790     1.5650    -0.9720 H     1 <1>   0.0800 
@<TRIPOS>BOND
  1   1   2  2   
  2   2   3  am  
  3   2   4  1   
  4   3   5  1   
  5   3  24  1   
  6   4   6  1   
  7   4  25  1   
  8   4  26  1   
  9   5   7  1   
 10   5  27  1   
 11   5  28  1   
 12   6   7  1   
 13   6   8  1   
 14   6  29  1   
 15   7   9  1   
 16   7  30  1   
 17   8  10  1   
 18   8  31  1   
 19   8  32  1   
 20   9  10  1   
 21   9  33  1   
 22   9  34  1   
 23  10  11  1   
 24  10  35  1   
 25  11  12  am  
 26  11  13  1   
 27  12  14  2   
 28  12  15  1   
 29  13  36  1   
 30  13  37  1   
 31  13  38  1   
 32  15  16  2   
 33  15  17  1   
 34  16  18  1   
 35  17  19  2   
 36  17  20  1   
 37  18  19  1   
 38  18  39  1   
 39  19  21  1   
 40  20  22  1   
 41  20  40  1   
 42  20  41  1   
 43  21  23  1   
 44  21  42  1   
 45  21  43  1   
 46  22  23  1   
 47  23  44  1   
 48  23  45  1   
@<TRIPOS>SUBSTRUCTURE
  1 ****  15 GROUP 4 **** **** 0

# MOE 2024.06 (io_trps.svl 2023.06)
