@<TRIPOS>MOLECULE
NONAME
53 55 1 0 0 
SMALL
USER_CHARGES


@<TRIPOS>ATOM
  1 O        0.8860     2.0910    -2.0710 O.3   1 <1>  -0.6800 
  2 C        0.6150     2.5690    -0.8070 C.3   1 <1>   0.2000 
  3 C       -0.7840     3.1870    -0.8120 C.3   1 <1>  -0.1600 
  4 C        1.6860     3.6000    -0.4580 C.3   1 <1>  -0.1600 
  5 C       -1.0770     3.8870     0.5170 C.3   1 <1>   0.2090 
  6 C        1.3590     4.2800     0.8700 C.3   1 <1>   0.2090 
  7 N       -0.0060     4.8880     0.7940 N.pl3 1 <1>  -0.8380 
  8 C       -0.1930     6.2330     0.7460 C.ar  1 <1>   0.4100 
  9 N        0.7950     6.9770     0.2830 N.ar  1 <1>  -0.6200 
 10 C       -1.4030     6.8160     1.1720 C.ar  1 <1>  -0.1500 
 11 C        0.6100     8.2750     0.1830 C.ar  1 <1>   0.7710 
 12 C       -1.5630     8.1570     1.0700 C.ar  1 <1>   0.2110 
 13 N       -0.5330     8.8750     0.5590 N.ar  1 <1>  -0.1790 
 14 N        1.6460     8.9530    -0.3200 N.pl3 1 <1>  -0.8690 
 15 C        2.0190    10.3430    -0.6700 C.3   1 <1>   0.4330 
 16 C        3.4180    10.5870    -0.1270 C.ar  1 <1>  -0.1430 
 17 C        1.0140    11.3930    -0.1670 C.3   1 <1>  -0.1600 
 18 C        3.7010    10.4140     1.2220 C.ar  1 <1>   0.1600 
 19 C        4.4400    10.9920    -0.9660 C.ar  1 <1>  -0.1500 
 20 C        1.4490    12.8330    -0.4860 C.3   1 <1>  -0.1600 
 21 N        4.8810    10.6120     1.7840 N.ar  1 <1>  -0.6200 
 22 C        5.6770    11.2020    -0.3960 C.ar  1 <1>  -0.1500 
 23 C        0.3830    13.8440    -0.0470 C.3   1 <1>  -0.1600 
 24 C        5.8420    11.0020     0.9630 C.ar  1 <1>   0.1600 
 25 C        0.8260    15.2740    -0.3640 C.3   1 <1>  -0.2400 
 26 H        0.2240     1.4260    -2.3360 H     1 <1>   0.4000 
 27 H        0.6600     1.7420    -0.1180 H     1 <1>   0.0800 
 28 H       -1.5200     2.4220    -0.9760 H     1 <1>   0.0800 
 29 H       -0.8560     3.9120    -1.6040 H     1 <1>   0.0800 
 30 H        1.7380     4.3520    -1.2260 H     1 <1>   0.0800 
 31 H        2.6430     3.1170    -0.3850 H     1 <1>   0.0800 
 32 H       -1.1030     3.1650     1.3170 H     1 <1>   0.0800 
 33 H       -2.0430     4.3550     0.4550 H     1 <1>   0.0800 
 34 H        2.1040     5.0240     1.0930 H     1 <1>   0.0800 
 35 H        1.3780     3.5540     1.6660 H     1 <1>   0.0800 
 36 H       -2.1700     6.1890     1.5840 H     1 <1>   0.1500 
 37 H       -2.4630     8.6650     1.3790 H     1 <1>   0.1500 
 38 H       -0.5690     9.8820     0.4510 H     1 <1>   0.4570 
 39 H        2.4330     8.3250    -0.5250 H     1 <1>   0.4000 
 40 H        2.0600    10.4090    -1.7460 H     1 <1>   0.0800 
 41 H        0.9030    11.3080     0.9000 H     1 <1>   0.0800 
 42 H        0.0710    11.2330    -0.6570 H     1 <1>   0.0800 
 43 H        2.9160    10.0930     1.8840 H     1 <1>   0.1500 
 44 H        4.2920    11.1440    -2.0220 H     1 <1>   0.1500 
 45 H        1.6200    12.9370    -1.5440 H     1 <1>   0.0800 
 46 H        2.3720    13.0620     0.0220 H     1 <1>   0.0800 
 47 H        6.5110    11.5200    -0.9960 H     1 <1>   0.1500 
 48 H        0.2130    13.7600     1.0140 H     1 <1>   0.0800 
 49 H       -0.5460    13.6470    -0.5550 H     1 <1>   0.0800 
 50 H        6.8130    11.1700     1.3970 H     1 <1>   0.1500 
 51 H        1.7410    15.5100     0.1510 H     1 <1>   0.0800 
 52 H        0.0700    15.9730    -0.0490 H     1 <1>   0.0800 
 53 H        0.9820    15.3980    -1.4210 H     1 <1>   0.0800 
@<TRIPOS>BOND
  1   1   2  1   
  2   1  26  1   
  3   2   3  1   
  4   2   4  1   
  5   2  27  1   
  6   3   5  1   
  7   3  28  1   
  8   3  29  1   
  9   4   6  1   
 10   4  30  1   
 11   4  31  1   
 12   5   7  1   
 13   5  32  1   
 14   5  33  1   
 15   6   7  1   
 16   6  34  1   
 17   6  35  1   
 18   7   8  1   
 19   8   9  ar  
 20   8  10  ar  
 21   9  11  ar  
 22  10  12  ar  
 23  10  36  1   
 24  11  13  ar  
 25  11  14  1   
 26  12  13  ar  
 27  12  37  1   
 28  13  38  1   
 29  14  15  1   
 30  14  39  1   
 31  15  16  1   
 32  15  17  1   
 33  15  40  1   
 34  16  18  ar  
 35  16  19  ar  
 36  17  20  1   
 37  17  41  1   
 38  17  42  1   
 39  18  21  ar  
 40  18  43  1   
 41  19  22  ar  
 42  19  44  1   
 43  20  23  1   
 44  20  45  1   
 45  20  46  1   
 46  21  24  ar  
 47  22  24  ar  
 48  22  47  1   
 49  23  25  1   
 50  23  48  1   
 51  23  49  1   
 52  24  50  1   
 53  25  51  1   
 54  25  52  1   
 55  25  53  1   
@<TRIPOS>SUBSTRUCTURE
  1 ****  14 GROUP 4 **** **** 0

# MOE 2024.06 (io_trps.svl 2023.06)
