@<TRIPOS>MOLECULE
NONAME
51 53 1 0 0 
SMALL
USER_CHARGES


@<TRIPOS>ATOM
  1 S       -0.0750     0.1260     0.1780 S.o2  1 <1>   1.4470 
  2 O       -0.0570     0.7330    -1.1290 O.2   1 <1>  -0.6500 
  3 O        0.7810     0.6090     1.2330 O.2   1 <1>  -0.6500 
  4 N       -1.5820     0.5120     0.7370 N.am  1 <1>  -0.9780 
  5 C       -0.0840    -1.6870     0.0820 C.ar  1 <1>  -0.0090 
  6 C        0.3960    -2.4690     1.1260 C.ar  1 <1>  -0.1500 
  7 C       -0.5930    -2.3430    -1.0320 C.ar  1 <1>  -0.1500 
  8 C        0.3620    -3.8510     1.0610 C.ar  1 <1>  -0.1500 
  9 C       -0.6280    -3.7250    -1.0980 C.ar  1 <1>  -0.1500 
 10 C       -0.1630    -4.5120    -0.0460 C.ar  1 <1>   0.0860 
 11 C       -0.2260    -5.9610    -0.0920 C.2   1 <1>   0.5440 
 12 O        0.7710    -6.6100     0.1590 O.2   1 <1>  -0.5700 
 13 N       -1.3970    -6.6240    -0.3930 N.am  1 <1>  -0.6600 
 14 C       -2.7560    -6.0150    -0.2530 C.3   1 <1>   0.1400 
 15 C       -1.4460    -8.1010    -0.6250 C.3   1 <1>   0.1400 
 16 C       -3.6170    -6.8130     0.7490 C.3   1 <1>   0.2950 
 17 C       -2.3930    -8.7900     0.3820 C.3   1 <1>   0.2000 
 18 O       -3.6430    -8.1610     0.3760 O.3   1 <1>  -0.5600 
 19 C       -5.0780    -6.3430     0.8590 C.3   1 <1>  -0.1950 
 20 C       -2.6430   -10.2690     0.0590 C.3   1 <1>  -0.1600 
 21 C       -5.9190    -5.9380    -0.3130 C.3   1 <1>  -0.2000 
 22 C       -5.5020    -4.9130     0.7050 C.3   1 <1>  -0.2000 
 23 C       -1.3760   -11.1330     0.1720 C.3   1 <1>  -0.1600 
 24 C       -1.6980   -12.6130    -0.0650 C.3   1 <1>  -0.1600 
 25 C       -0.4370   -13.4750     0.0440 C.3   1 <1>  -0.2400 
 26 H       -1.8980     1.2180     0.0760 H     1 <1>   0.4200 
 27 H       -1.3860     1.0070     1.6040 H     1 <1>   0.4200 
 28 H        0.8050    -1.9900     2.0010 H     1 <1>   0.1500 
 29 H       -0.9660    -1.7630    -1.8600 H     1 <1>   0.1500 
 30 H        0.7470    -4.4380     1.8790 H     1 <1>   0.1500 
 31 H       -1.0200    -4.2090    -1.9760 H     1 <1>   0.1500 
 32 H       -2.6820    -5.0010     0.0930 H     1 <1>   0.0800 
 33 H       -3.2350    -6.0090    -1.2140 H     1 <1>   0.0800 
 34 H       -1.7960    -8.2880    -1.6240 H     1 <1>   0.0800 
 35 H       -0.4620    -8.5260    -0.5390 H     1 <1>   0.0800 
 36 H       -3.1660    -6.7470     1.7250 H     1 <1>   0.0800 
 37 H       -1.9820    -8.7100     1.3740 H     1 <1>   0.0800 
 38 H       -5.5820    -6.8980     1.6310 H     1 <1>   0.1000 
 39 H       -3.3770   -10.6420     0.7520 H     1 <1>   0.0800 
 40 H       -3.0470   -10.3500    -0.9340 H     1 <1>   0.0800 
 41 H       -5.4840    -5.9120    -1.2960 H     1 <1>   0.1000 
 42 H       -6.9450    -6.2630    -0.3350 H     1 <1>   0.1000 
 43 H       -6.2490    -4.5250     1.3770 H     1 <1>   0.1000 
 44 H       -4.8040    -4.1550     0.3970 H     1 <1>   0.1000 
 45 H       -0.6460   -10.8150    -0.5520 H     1 <1>   0.0800 
 46 H       -0.9470   -11.0150     1.1530 H     1 <1>   0.0800 
 47 H       -2.4190   -12.9480     0.6610 H     1 <1>   0.0800 
 48 H       -2.1280   -12.7380    -1.0440 H     1 <1>   0.0800 
 49 H       -0.0010   -13.3830     1.0230 H     1 <1>   0.0800 
 50 H        0.2900   -13.1740    -0.6890 H     1 <1>   0.0800 
 51 H       -0.6830   -14.5090    -0.1250 H     1 <1>   0.0800 
@<TRIPOS>BOND
  1   1   2  2   
  2   1   3  2   
  3   1   4  am  
  4   1   5  1   
  5   4  26  1   
  6   4  27  1   
  7   5   6  ar  
  8   5   7  ar  
  9   6   8  ar  
 10   6  28  1   
 11   7   9  ar  
 12   7  29  1   
 13   8  10  ar  
 14   8  30  1   
 15   9  10  ar  
 16   9  31  1   
 17  10  11  1   
 18  11  12  2   
 19  11  13  am  
 20  13  14  1   
 21  13  15  1   
 22  14  16  1   
 23  14  32  1   
 24  14  33  1   
 25  15  17  1   
 26  15  34  1   
 27  15  35  1   
 28  16  18  1   
 29  16  19  1   
 30  16  36  1   
 31  17  18  1   
 32  17  20  1   
 33  17  37  1   
 34  19  21  1   
 35  19  22  1   
 36  19  38  1   
 37  20  23  1   
 38  20  39  1   
 39  20  40  1   
 40  21  22  1   
 41  21  41  1   
 42  21  42  1   
 43  22  43  1   
 44  22  44  1   
 45  23  24  1   
 46  23  45  1   
 47  23  46  1   
 48  24  25  1   
 49  24  47  1   
 50  24  48  1   
 51  25  49  1   
 52  25  50  1   
 53  25  51  1   
@<TRIPOS>SUBSTRUCTURE
  1 ****  13 GROUP 4 **** **** 0

# MOE 2024.06 (io_trps.svl 2023.06)
