@<TRIPOS>MOLECULE
NONAME
41 43 1 0 0 
SMALL
USER_CHARGES


@<TRIPOS>ATOM
  1 O       -0.0650    -0.5140     1.1360 O.3   1 <1>  -0.5600 
  2 C       -0.1330    -1.8430     0.6650 C.3   1 <1>   0.2800 
  3 C       -1.2410     0.2040     1.3740 C.3   1 <1>   0.1200 
  4 C       -1.6070    -2.3660     0.6210 C.3   1 <1>   0.2000 
  5 C        0.5310    -1.8110    -0.7330 C.3   1 <1>  -0.1600 
  6 C        0.7070    -2.6680     1.6670 C.3   1 <1>  -0.1600 
  7 C       -2.1560     0.0900     0.1550 C.3   1 <1>  -0.1600 
  8 O       -1.6840    -3.6580     0.0750 O.3   1 <1>  -0.6800 
  9 C       -2.6010    -1.3680    -0.0550 C.3   1 <1>   0.2800 
 10 C        2.0460    -1.9600    -0.6370 C.3   1 <1>   0.2090 
 11 C        1.4600    -3.8190     0.9980 C.3   1 <1>   0.2090 
 12 O       -3.8190    -1.5040     0.5820 O.3   1 <1>  -0.6800 
 13 C       -2.8860    -1.6330    -1.5400 C.3   1 <1>  -0.2400 
 14 N        2.3610    -3.3070    -0.0770 N.pl3 1 <1>  -0.8380 
 15 C        3.6450    -3.8280    -0.2160 C.ar  1 <1>   0.4100 
 16 N        4.6220    -2.9620    -0.4710 N.ar  1 <1>  -0.6200 
 17 C        3.8920    -5.2080    -0.0940 C.ar  1 <1>   0.1600 
 18 C        5.8050    -3.5410    -0.5710 C.ar  1 <1>   0.1600 
 19 N        5.0730    -5.7900    -0.1910 N.ar  1 <1>  -0.6200 
 20 C        6.0270    -4.9040    -0.4350 C.ar  1 <1>   0.1600 
 21 H       -1.7130    -0.1850     2.2610 H     1 <1>   0.0800 
 22 H       -0.9650     1.2300     1.5480 H     1 <1>   0.0800 
 23 H       -1.9190    -2.4730     1.6460 H     1 <1>   0.0800 
 24 H        0.1790    -2.6180    -1.3470 H     1 <1>   0.0800 
 25 H        0.2950    -0.8930    -1.2360 H     1 <1>   0.0800 
 26 H        1.4400    -2.0370     2.1390 H     1 <1>   0.0800 
 27 H        0.0800    -3.0670     2.4420 H     1 <1>   0.0800 
 28 H       -1.6050     0.4430    -0.6970 H     1 <1>   0.0800 
 29 H       -3.0070     0.7360     0.2740 H     1 <1>   0.0800 
 30 H       -1.6290    -3.6130    -0.8970 H     1 <1>   0.4000 
 31 H        2.4610    -1.1950    -0.0010 H     1 <1>   0.0800 
 32 H        2.4870    -1.8660    -1.6150 H     1 <1>   0.0800 
 33 H        0.7580    -4.5130     0.5680 H     1 <1>   0.0800 
 34 H        2.0380    -4.3390     1.7420 H     1 <1>   0.0800 
 35 H       -4.5110    -1.0370     0.0800 H     1 <1>   0.4000 
 36 H       -1.9760    -1.5990    -2.1090 H     1 <1>   0.0800 
 37 H       -3.5490    -0.8850    -1.9360 H     1 <1>   0.0800 
 38 H       -3.3370    -2.6010    -1.6750 H     1 <1>   0.0800 
 39 H        3.0480    -5.8440     0.0890 H     1 <1>   0.1500 
 40 H        6.6450    -2.9000    -0.7720 H     1 <1>   0.1500 
 41 H        7.0300    -5.2790    -0.5320 H     1 <1>   0.1500 
@<TRIPOS>BOND
  1   1   2  1   
  2   1   3  1   
  3   2   4  1   
  4   2   5  1   
  5   2   6  1   
  6   3   7  1   
  7   3  21  1   
  8   3  22  1   
  9   4   8  1   
 10   4   9  1   
 11   4  23  1   
 12   5  10  1   
 13   5  24  1   
 14   5  25  1   
 15   6  11  1   
 16   6  26  1   
 17   6  27  1   
 18   7   9  1   
 19   7  28  1   
 20   7  29  1   
 21   8  30  1   
 22   9  12  1   
 23   9  13  1   
 24  10  14  1   
 25  10  31  1   
 26  10  32  1   
 27  11  14  1   
 28  11  33  1   
 29  11  34  1   
 30  12  35  1   
 31  13  36  1   
 32  13  37  1   
 33  13  38  1   
 34  14  15  1   
 35  15  16  ar  
 36  15  17  ar  
 37  16  18  ar  
 38  17  19  ar  
 39  17  39  1   
 40  18  20  ar  
 41  18  40  1   
 42  19  20  ar  
 43  20  41  1   
@<TRIPOS>SUBSTRUCTURE
  1 ****   5 GROUP 4 **** **** 0

# MOE 2024.06 (io_trps.svl 2023.06)
