@<TRIPOS>MOLECULE
NONAME
46 49 1 0 0 
SMALL
USER_CHARGES


@<TRIPOS>ATOM
  1 S        0.6230    -0.6580     1.7230 S.3   1 <1>  -0.0800 
  2 C        1.1370    -0.0730     0.1480 C.2   1 <1>   0.1980 
  3 C       -0.4980     0.6670     1.8260 C.2   1 <1>  -0.1100 
  4 N        0.5420     0.9930    -0.2260 N.2   1 <1>  -0.5650 
  5 C        2.2320    -0.8490    -0.5920 C.3   1 <1>   0.4000 
  6 C       -0.3870     1.4100     0.7150 C.2   1 <1>   0.0770 
  7 N        2.2150    -2.3170    -0.3420 N.am  1 <1>  -0.6600 
  8 C        3.6290    -0.4010    -0.1470 C.3   1 <1>  -0.1600 
  9 C        1.2200    -3.1140    -0.8280 C.2   1 <1>   0.5690 
 10 C        3.4940    -2.7750     0.2380 C.3   1 <1>   0.1400 
 11 C        4.4790    -1.6690    -0.1140 C.3   1 <1>  -0.1600 
 12 O        0.3390    -2.6670    -1.5220 O.2   1 <1>  -0.5700 
 13 C        1.2220    -4.5990    -0.5050 C.3   1 <1>  -0.0990 
 14 C       -0.1740    -5.2450    -0.6070 C.3   1 <1>  -0.0170 
 15 C       -0.2190    -6.7270    -0.2250 C.ar  1 <1>   0.1670 
 16 N        0.8950    -7.3360     0.0550 N.ar  1 <1>  -0.6200 
 17 C       -1.4920    -7.3730    -0.1970 C.ar  1 <1>   0.3930 
 18 C        0.7550    -8.6480     0.3800 C.ar  1 <1>   0.3100 
 19 O       -2.5780    -6.6320    -0.5120 O.3   1 <1>  -0.3630 
 20 N       -1.6610    -8.6280     0.1120 N.ar  1 <1>  -0.6200 
 21 C       -0.5110    -9.2830     0.4080 C.ar  1 <1>   0.3100 
 22 C        1.8950    -9.4000     0.6990 C.ar  1 <1>  -0.1500 
 23 C       -3.8780    -7.1880    -0.5180 C.3   1 <1>   0.0400 
 24 C       -0.5730   -10.6420     0.7550 C.ar  1 <1>  -0.1500 
 25 C        1.8050   -10.7270     1.0350 C.ar  1 <1>  -0.1500 
 26 C        0.5570   -11.3540     1.0630 C.ar  1 <1>  -0.1500 
 27 H       -1.1150     0.7450     2.7010 H     1 <1>   0.1500 
 28 H        2.1200    -0.6820    -1.6490 H     1 <1>   0.0800 
 29 H       -0.9570     2.2960     0.4930 H     1 <1>   0.1500 
 30 H        3.5720     0.0190     0.8420 H     1 <1>   0.0800 
 31 H        4.0270     0.3440    -0.8120 H     1 <1>   0.0800 
 32 H        3.8030    -3.7210    -0.1730 H     1 <1>   0.0800 
 33 H        3.3860    -2.8570     1.3070 H     1 <1>   0.0800 
 34 H        5.2840    -1.6070     0.5970 H     1 <1>   0.0800 
 35 H        4.8880    -1.8620    -1.0910 H     1 <1>   0.0800 
 36 H        1.5860    -4.7360     0.4960 H     1 <1>   0.0800 
 37 H        1.8920    -5.0920    -1.1840 H     1 <1>   0.0800 
 38 H       -0.5340    -5.1450    -1.6160 H     1 <1>   0.0800 
 39 H       -0.8470    -4.7040     0.0340 H     1 <1>   0.0800 
 40 H        2.8460    -8.9000     0.6710 H     1 <1>   0.1500 
 41 H       -4.5740    -6.4180    -0.7980 H     1 <1>   0.0800 
 42 H       -4.1050    -7.5520     0.4690 H     1 <1>   0.0800 
 43 H       -3.9090    -7.9920    -1.2320 H     1 <1>   0.0800 
 44 H       -1.5410   -11.1080     0.7720 H     1 <1>   0.1500 
 45 H        2.6870   -11.2960     1.2780 H     1 <1>   0.1500 
 46 H        0.4970   -12.3960     1.3280 H     1 <1>   0.1500 
@<TRIPOS>BOND
  1   1   2  1   
  2   1   3  1   
  3   2   4  2   
  4   2   5  1   
  5   3   6  2   
  6   3  27  1   
  7   4   6  1   
  8   5   7  1   
  9   5   8  1   
 10   5  28  1   
 11   6  29  1   
 12   7   9  am  
 13   7  10  1   
 14   8  11  1   
 15   8  30  1   
 16   8  31  1   
 17   9  12  2   
 18   9  13  1   
 19  10  11  1   
 20  10  32  1   
 21  10  33  1   
 22  11  34  1   
 23  11  35  1   
 24  13  14  1   
 25  13  36  1   
 26  13  37  1   
 27  14  15  1   
 28  14  38  1   
 29  14  39  1   
 30  15  16  ar  
 31  15  17  ar  
 32  16  18  ar  
 33  17  19  1   
 34  17  20  ar  
 35  18  21  ar  
 36  18  22  ar  
 37  19  23  1   
 38  20  21  ar  
 39  21  24  ar  
 40  22  25  ar  
 41  22  40  1   
 42  23  41  1   
 43  23  42  1   
 44  23  43  1   
 45  24  26  ar  
 46  24  44  1   
 47  25  26  ar  
 48  25  45  1   
 49  26  46  1   
@<TRIPOS>SUBSTRUCTURE
  1 ****  13 GROUP 4 **** **** 0

# MOE 2024.06 (io_trps.svl 2023.06)
