@<TRIPOS>MOLECULE
NONAME
41 42 1 0 0 
SMALL
USER_CHARGES


@<TRIPOS>ATOM
  1 O        2.4200    -0.5910     3.8090 O.2   1 <1>  -0.5700 
  2 C        1.6800    -0.9930     2.9470 C.2   1 <1>   0.5690 
  3 N        1.5220    -0.3870     1.7340 N.am  1 <1>  -0.4940 
  4 C        0.8680    -2.2490     3.2250 C.3   1 <1>   0.0450 
  5 C        2.1450     0.7330     1.1800 C.2   1 <1>   0.2040 
  6 C        0.0580    -2.6900     2.0070 C.ar  1 <1>  -0.1440 
  7 O        3.0930     1.3980     1.7960 O.3   1 <1>  -0.0190 
  8 C        1.9410     1.3190    -0.0150 C.2   1 <1>  -0.1810 
  9 C       -1.2330    -2.2210     1.8200 C.ar  1 <1>  -0.1500 
 10 C        0.6240    -3.5280     1.0580 C.ar  1 <1>  -0.1500 
 11 N        3.5350     2.3950     1.0690 N.2   1 <1>  -0.4100 
 12 C        2.8600     2.3660    -0.0230 C.2   1 <1>   0.1080 
 13 C        0.9510     0.9360    -1.1020 C.3   1 <1>   0.0210 
 14 C       -1.9450    -2.5790     0.6890 C.ar  1 <1>  -0.1500 
 15 C       -0.0870    -3.8880    -0.0730 C.ar  1 <1>  -0.1500 
 16 C        3.0610     3.3570    -1.1490 C.3   1 <1>  -0.0590 
 17 C        1.5810    -0.0610    -2.0760 C.3   1 <1>  -0.2400 
 18 C       -1.3790    -3.4080    -0.2650 C.ar  1 <1>   0.0830 
 19 O       -2.1410    -3.7010    -1.3470 O.3   1 <1>  -0.3620 
 20 C       -1.7010    -4.6060    -2.3320 C.3   1 <1>   0.1200 
 21 C       -2.8060    -4.7420    -3.3750 C.3   1 <1>  -0.2400 
 22 H        0.8560    -0.8570     1.1190 H     1 <1>   0.3700 
 23 H        0.2130    -2.0540     4.0540 H     1 <1>   0.0800 
 24 H        1.5420    -3.0310     3.5200 H     1 <1>   0.0800 
 25 H       -1.6920    -1.5740     2.5480 H     1 <1>   0.1500 
 26 H        1.6250    -3.9020     1.1930 H     1 <1>   0.1500 
 27 H        0.6330     1.8170    -1.6330 H     1 <1>   0.0800 
 28 H        0.0780     0.4930    -0.6540 H     1 <1>   0.0800 
 29 H       -2.9460    -2.2180     0.5370 H     1 <1>   0.1500 
 30 H        0.3790    -4.5370    -0.7900 H     1 <1>   0.1500 
 31 H        3.2650     2.8350    -2.0650 H     1 <1>   0.0800 
 32 H        3.8920     4.0020    -0.9250 H     1 <1>   0.0800 
 33 H        2.1780     3.9570    -1.2680 H     1 <1>   0.0800 
 34 H        2.4480     0.3700    -2.5430 H     1 <1>   0.0800 
 35 H        0.8730    -0.3300    -2.8400 H     1 <1>   0.0800 
 36 H        1.8800    -0.9530    -1.5530 H     1 <1>   0.0800 
 37 H       -1.5040    -5.5540    -1.8610 H     1 <1>   0.0800 
 38 H       -0.8030    -4.2150    -2.7790 H     1 <1>   0.0800 
 39 H       -3.7030    -5.1180    -2.9150 H     1 <1>   0.0800 
 40 H       -2.5000    -5.4290    -4.1420 H     1 <1>   0.0800 
 41 H       -3.0070    -3.7880    -3.8280 H     1 <1>   0.0800 
@<TRIPOS>BOND
  1   1   2  2   
  2   2   3  am  
  3   2   4  1   
  4   3   5  1   
  5   3  22  1   
  6   4   6  1   
  7   4  23  1   
  8   4  24  1   
  9   5   7  1   
 10   5   8  2   
 11   6   9  ar  
 12   6  10  ar  
 13   7  11  1   
 14   8  12  1   
 15   8  13  1   
 16   9  14  ar  
 17   9  25  1   
 18  10  15  ar  
 19  10  26  1   
 20  11  12  2   
 21  12  16  1   
 22  13  17  1   
 23  13  27  1   
 24  13  28  1   
 25  14  18  ar  
 26  14  29  1   
 27  15  18  ar  
 28  15  30  1   
 29  16  31  1   
 30  16  32  1   
 31  16  33  1   
 32  17  34  1   
 33  17  35  1   
 34  17  36  1   
 35  18  19  1   
 36  19  20  1   
 37  20  21  1   
 38  20  37  1   
 39  20  38  1   
 40  21  39  1   
 41  21  40  1   
 42  21  41  1   
@<TRIPOS>SUBSTRUCTURE
  1 ****   3 GROUP 4 **** **** 0

# MOE 2024.06 (io_trps.svl 2023.06)
