@<TRIPOS>MOLECULE
NONAME
44 46 1 0 0 
SMALL
USER_CHARGES


@<TRIPOS>ATOM
  1 CL       1.3570    -1.0070     3.3960 Cl    1 <1>  -0.1770 
  2 C        1.7550    -1.3820     1.7390 C.ar  1 <1>   0.1770 
  3 C        1.9680    -0.3530     0.8460 C.ar  1 <1>  -0.1500 
  4 C        1.8380    -2.7040     1.3530 C.ar  1 <1>  -0.1500 
  5 C        2.2910    -0.6650    -0.4690 C.ar  1 <1>   0.0830 
  6 C        2.1370    -3.0360     0.0330 C.ar  1 <1>   0.0860 
  7 O        2.4840     0.2730    -1.4250 O.3   1 <1>  -0.3630 
  8 C        2.3970    -1.9920    -0.8540 C.ar  1 <1>  -0.1500 
  9 C        2.1690    -4.4180    -0.3970 C.2   1 <1>   0.5440 
 10 C        1.9130     1.5570    -1.2810 C.3   1 <1>   0.0400 
 11 O        3.1690    -4.8450    -0.9410 O.2   1 <1>  -0.5700 
 12 N        1.1110    -5.2820    -0.1860 N.am  1 <1>  -0.6600 
 13 C       -0.3210    -5.0140    -0.5220 C.3   1 <1>   0.2200 
 14 C        1.4080    -6.7280     0.0170 C.3   1 <1>   0.0600 
 15 C       -1.1280    -4.4370     0.6420 C.3   1 <1>  -0.1600 
 16 C       -0.5850    -4.0920    -1.7270 C.3   1 <1>  -0.1600 
 17 C       -2.3300    -3.8040    -0.0600 C.3   1 <1>  -0.0800 
 18 C       -1.7170    -3.1340    -1.2990 C.3   1 <1>  -0.0800 
 19 C       -3.2190    -2.9110     0.8250 C.3   1 <1>   0.1400 
 20 C       -1.1390    -1.7380    -0.9860 C.3   1 <1>  -0.0990 
 21 N       -2.7930    -1.4960     0.8370 N.am  1 <1>  -0.7300 
 22 C       -1.9570    -0.9000    -0.0350 C.2   1 <1>   0.5690 
 23 O       -1.8250     0.2980    -0.0390 O.2   1 <1>  -0.5700 
 24 H        1.8810     0.6600     1.1880 H     1 <1>   0.1500 
 25 H        1.6660    -3.4830     2.0730 H     1 <1>   0.1500 
 26 H        2.6680    -2.2230    -1.8700 H     1 <1>   0.1500 
 27 H        2.0220     2.0780    -2.2150 H     1 <1>   0.0800 
 28 H        2.4330     2.0880    -0.5050 H     1 <1>   0.0800 
 29 H        0.8680     1.4520    -1.0410 H     1 <1>   0.0800 
 30 H       -0.7800    -5.9570    -0.7720 H     1 <1>   0.0800 
 31 H        0.7390    -7.1430     0.7510 H     1 <1>   0.0800 
 32 H        2.4200    -6.8570     0.3630 H     1 <1>   0.0800 
 33 H        1.2940    -7.2560    -0.9140 H     1 <1>   0.0800 
 34 H       -1.4260    -5.2050     1.3320 H     1 <1>   0.0800 
 35 H       -0.5770    -3.6770     1.1600 H     1 <1>   0.0800 
 36 H        0.2890    -3.5600    -2.0520 H     1 <1>   0.0800 
 37 H       -0.9250    -4.6960    -2.5500 H     1 <1>   0.0800 
 38 H       -2.9500    -4.6180    -0.3990 H     1 <1>   0.0800 
 39 H       -2.4620    -3.0370    -2.0710 H     1 <1>   0.0800 
 40 H       -3.2290    -3.2910     1.8330 H     1 <1>   0.0800 
 41 H       -4.2280    -2.9450     0.4500 H     1 <1>   0.0800 
 42 H       -0.9830    -1.1910    -1.8980 H     1 <1>   0.0800 
 43 H       -0.1940    -1.8470    -0.5080 H     1 <1>   0.0800 
 44 H       -3.2930    -0.8680     1.4700 H     1 <1>   0.3700 
@<TRIPOS>BOND
  1   1   2  1   
  2   2   3  ar  
  3   2   4  ar  
  4   3   5  ar  
  5   3  24  1   
  6   4   6  ar  
  7   4  25  1   
  8   5   7  1   
  9   5   8  ar  
 10   6   8  ar  
 11   6   9  1   
 12   7  10  1   
 13   8  26  1   
 14   9  11  2   
 15   9  12  am  
 16  10  27  1   
 17  10  28  1   
 18  10  29  1   
 19  12  13  1   
 20  12  14  1   
 21  13  15  1   
 22  13  16  1   
 23  13  30  1   
 24  14  31  1   
 25  14  32  1   
 26  14  33  1   
 27  15  17  1   
 28  15  34  1   
 29  15  35  1   
 30  16  18  1   
 31  16  36  1   
 32  16  37  1   
 33  17  18  1   
 34  17  19  1   
 35  17  38  1   
 36  18  20  1   
 37  18  39  1   
 38  19  21  1   
 39  19  40  1   
 40  19  41  1   
 41  20  22  1   
 42  20  42  1   
 43  20  43  1   
 44  21  22  am  
 45  21  44  1   
 46  22  23  2   
@<TRIPOS>SUBSTRUCTURE
  1 ****   6 GROUP 4 **** **** 0

# MOE 2024.06 (io_trps.svl 2023.06)
