@<TRIPOS>MOLECULE
NONAME
45 46 1 0 0 
SMALL
USER_CHARGES


@<TRIPOS>ATOM
  1 O        1.0420     0.6400    -1.3570 O.co2 1 <1>  -0.9000 
  2 C        1.9580     0.3450    -0.5650 C.2   1 <1>   1.0330 
  3 O        2.1980    -0.8660    -0.3910 O.co2 1 <1>  -0.9000 
  4 C        2.7440     1.3820     0.1200 C.2   1 <1>  -0.2330 
  5 C        3.5500     1.2780     1.2350 C.2   1 <1>  -0.3320 
  6 C        2.8430     2.7410    -0.2540 C.2   1 <1>  -0.1810 
  7 N        4.1200     2.4680     1.5100 N.pl3 1 <1>   0.0330 
  8 C        3.8160     0.0550     2.0950 C.3   1 <1>  -0.0600 
  9 C        3.7210     3.3800     0.5840 C.2   1 <1>  -0.2370 
 10 C        2.0660     3.3690    -1.3980 C.3   1 <1>  -0.0590 
 11 C        4.2270     4.7250     0.6170 C.2   1 <1>   0.7150 
 12 O        4.2170     5.3290     1.6760 O.2   1 <1>  -0.5700 
 13 N        4.7720     5.3350    -0.4980 N.am  1 <1>  -0.6600 
 14 C        4.7360     6.8290    -0.6550 C.3   1 <1>   0.1400 
 15 C        5.1570     4.5580    -1.7120 C.3   1 <1>   0.1400 
 16 C        5.5890     7.6100     0.3630 C.3   1 <1>   0.2000 
 17 C        6.6420     4.7340    -2.0200 C.3   1 <1>  -0.2400 
 18 O        5.5990     8.9500    -0.0430 O.3   1 <1>  -0.5600 
 19 C        7.0450     7.1240     0.4750 C.3   1 <1>  -0.1600 
 20 C        6.1840     9.8300     0.8690 C.3   1 <1>   0.1200 
 21 C        7.8460     8.0160     1.4310 C.3   1 <1>  -0.1600 
 22 C        7.6690     9.4850     1.0330 C.3   1 <1>  -0.1600 
 23 H        4.7450     2.6820     2.2930 H     1 <1>   0.2700 
 24 H        3.0860    -0.7100     1.9030 H     1 <1>   0.0800 
 25 H        3.7620     0.3110     3.1370 H     1 <1>   0.0800 
 26 H        4.7890    -0.3430     1.8730 H     1 <1>   0.0800 
 27 H        1.0130     3.2270    -1.2330 H     1 <1>   0.0800 
 28 H        2.3300     2.8880    -2.3230 H     1 <1>   0.0800 
 29 H        2.2590     4.4220    -1.4710 H     1 <1>   0.0800 
 30 H        3.7150     7.1520    -0.5530 H     1 <1>   0.0800 
 31 H        5.0670     7.0900    -1.6430 H     1 <1>   0.0800 
 32 H        4.5630     4.8830    -2.5490 H     1 <1>   0.0800 
 33 H        4.9710     3.5080    -1.5660 H     1 <1>   0.0800 
 34 H        5.1110     7.5680     1.3260 H     1 <1>   0.0800 
 35 H        6.8590     5.7470    -2.3000 H     1 <1>   0.0800 
 36 H        6.9130     4.0940    -2.8400 H     1 <1>   0.0800 
 37 H        7.2320     4.4560    -1.1650 H     1 <1>   0.0800 
 38 H        7.4980     7.1420    -0.4990 H     1 <1>   0.0800 
 39 H        7.0580     6.1110     0.8350 H     1 <1>   0.0800 
 40 H        5.6590     9.7530     1.8060 H     1 <1>   0.0800 
 41 H        6.0680    10.8280     0.4830 H     1 <1>   0.0800 
 42 H        8.8870     7.7450     1.4070 H     1 <1>   0.0800 
 43 H        7.4830     7.8720     2.4350 H     1 <1>   0.0800 
 44 H        8.1070    10.1230     1.7790 H     1 <1>   0.0800 
 45 H        8.1710     9.6750     0.1000 H     1 <1>   0.0800 
@<TRIPOS>BOND
  1   1   2  ar  
  2   2   3  ar  
  3   2   4  1   
  4   4   5  2   
  5   4   6  1   
  6   5   7  1   
  7   5   8  1   
  8   6   9  2   
  9   6  10  1   
 10   7   9  1   
 11   7  23  1   
 12   8  24  1   
 13   8  25  1   
 14   8  26  1   
 15   9  11  1   
 16  10  27  1   
 17  10  28  1   
 18  10  29  1   
 19  11  12  2   
 20  11  13  am  
 21  13  14  1   
 22  13  15  1   
 23  14  16  1   
 24  14  30  1   
 25  14  31  1   
 26  15  17  1   
 27  15  32  1   
 28  15  33  1   
 29  16  18  1   
 30  16  19  1   
 31  16  34  1   
 32  17  35  1   
 33  17  36  1   
 34  17  37  1   
 35  18  20  1   
 36  19  21  1   
 37  19  38  1   
 38  19  39  1   
 39  20  22  1   
 40  20  40  1   
 41  20  41  1   
 42  21  22  1   
 43  21  42  1   
 44  21  43  1   
 45  22  44  1   
 46  22  45  1   
@<TRIPOS>SUBSTRUCTURE
  1 ****  11 GROUP 4 **** **** 0

# MOE 2024.06 (io_trps.svl 2023.06)
