@<TRIPOS>MOLECULE
NONAME
44 45 1 0 0 
SMALL
USER_CHARGES


@<TRIPOS>ATOM
  1 O       -0.0620    -0.3590    -0.3070 O.2   1 <1>  -0.5700 
  2 C        1.0030    -0.7530     0.1390 C.2   1 <1>   0.7160 
  3 N        2.0550     0.1120     0.3150 N.am  1 <1>  -0.4940 
  4 C        1.2180    -2.1430     0.4970 C.2   1 <1>   0.2030 
  5 C        2.2680     1.4770     0.0030 C.2   1 <1>  -0.0880 
  6 N        2.3530    -2.6370     0.9670 N.2   1 <1>  -0.7070 
  7 C        0.2560    -3.1550     0.3960 C.2   1 <1>  -0.1500 
  8 N        1.3600     2.4940    -0.0050 N.pl3 1 <1>   0.3140 
  9 C        3.4590     2.0320    -0.3250 C.2   1 <1>  -0.1810 
 10 N        2.1130    -3.9430     1.1610 N.pl3 1 <1>   0.3000 
 11 C        0.8540    -4.2840     0.8230 C.2   1 <1>  -0.3320 
 12 N        1.9430     3.6710    -0.3270 N.2   1 <1>  -0.7070 
 13 C       -0.0600     2.4680     0.3670 C.3   1 <1>   0.0160 
 14 C        3.1890     3.3840    -0.5160 C.2   1 <1>   0.1080 
 15 C        4.8030     1.3370    -0.4640 C.3   1 <1>   0.0210 
 16 C        0.2830    -5.6890     0.9400 C.3   1 <1>   0.0200 
 17 C        4.1980     4.4420    -0.9020 C.3   1 <1>  -0.0590 
 18 C        5.5460     1.3350     0.8730 C.3   1 <1>  -0.2400 
 19 C        0.6470    -6.5880    -0.2570 C.3   1 <1>  -0.0800 
 20 C       -0.0890    -7.9300    -0.1490 C.3   1 <1>  -0.2400 
 21 C        2.1570    -6.8440    -0.3730 C.3   1 <1>  -0.2400 
 22 H        2.8820    -0.4000     0.6340 H     1 <1>   0.3700 
 23 H       -0.7500    -3.0120     0.0420 H     1 <1>   0.1500 
 24 H        2.8260    -4.5900     1.5230 H     1 <1>   0.2700 
 25 H       -0.2010     1.7950     1.1900 H     1 <1>   0.0800 
 26 H       -0.6360     2.1420    -0.4790 H     1 <1>   0.0800 
 27 H       -0.3680     3.4570     0.6520 H     1 <1>   0.0800 
 28 H        5.3940     1.8360    -1.2110 H     1 <1>   0.0800 
 29 H        4.6500     0.3240    -0.7930 H     1 <1>   0.0800 
 30 H       -0.7890    -5.6080     0.9940 H     1 <1>   0.0800 
 31 H        0.6150    -6.1430     1.8580 H     1 <1>   0.0800 
 32 H        5.0950     4.3280    -0.3230 H     1 <1>   0.0800 
 33 H        3.7880     5.4180    -0.7190 H     1 <1>   0.0800 
 34 H        4.4310     4.3520    -1.9470 H     1 <1>   0.0800 
 35 H        5.7140     2.3430     1.2060 H     1 <1>   0.0800 
 36 H        6.4950     0.8400     0.7700 H     1 <1>   0.0800 
 37 H        4.9650     0.8210     1.6190 H     1 <1>   0.0800 
 38 H        0.3160    -6.0960    -1.1580 H     1 <1>   0.0800 
 39 H        0.2140    -8.4610     0.7360 H     1 <1>   0.0800 
 40 H        0.1250    -8.5440    -1.0070 H     1 <1>   0.0800 
 41 H       -1.1530    -7.7730    -0.1100 H     1 <1>   0.0800 
 42 H        2.5450    -7.2620     0.5390 H     1 <1>   0.0800 
 43 H        2.6820    -5.9330    -0.5960 H     1 <1>   0.0800 
 44 H        2.3540    -7.5350    -1.1740 H     1 <1>   0.0800 
@<TRIPOS>BOND
  1   1   2  2   
  2   2   3  am  
  3   2   4  1   
  4   3   5  1   
  5   3  22  1   
  6   4   6  2   
  7   4   7  1   
  8   5   8  1   
  9   5   9  2   
 10   6  10  1   
 11   7  11  2   
 12   7  23  1   
 13   8  12  1   
 14   8  13  1   
 15   9  14  1   
 16   9  15  1   
 17  10  11  1   
 18  10  24  1   
 19  11  16  1   
 20  12  14  2   
 21  13  25  1   
 22  13  26  1   
 23  13  27  1   
 24  14  17  1   
 25  15  18  1   
 26  15  28  1   
 27  15  29  1   
 28  16  19  1   
 29  16  30  1   
 30  16  31  1   
 31  17  32  1   
 32  17  33  1   
 33  17  34  1   
 34  18  35  1   
 35  18  36  1   
 36  18  37  1   
 37  19  20  1   
 38  19  21  1   
 39  19  38  1   
 40  20  39  1   
 41  20  40  1   
 42  20  41  1   
 43  21  42  1   
 44  21  43  1   
 45  21  44  1   
@<TRIPOS>SUBSTRUCTURE
  1 ****   2 GROUP 4 **** **** 0

# MOE 2024.06 (io_trps.svl 2023.06)
