@<TRIPOS>MOLECULE
NONAME
52 54 1 0 0 
SMALL
USER_CHARGES


@<TRIPOS>ATOM
  1 O       -1.4530     0.7840     3.0720 O.2   1 <1>  -0.5700 
  2 C       -2.0540     1.4510     2.2500 C.2   1 <1>   0.7670 
  3 N       -2.8480     0.8280     1.3290 N.2   1 <1>  -0.6610 
  4 C       -1.9140     2.8620     2.2350 C.2   1 <1>  -0.1360 
  5 C       -3.4610     1.5510     0.4720 C.2   1 <1>   0.4390 
  6 C       -2.5570     3.6030     1.3030 C.2   1 <1>  -0.0380 
  7 N       -3.3520     2.9130     0.4120 N.pl3 1 <1>  -0.5500 
  8 C       -4.3650     0.8980    -0.5440 C.3   1 <1>  -0.1790 
  9 C       -2.4200     5.1200     1.2110 C.3   1 <1>   0.4810 
 10 N       -1.2090     5.4600     0.4050 N.4   1 <1>  -0.9590 
 11 C       -0.8700     6.9070     0.3570 C.3   1 <1>   0.5660 
 12 C       -1.2440     4.9700    -0.9930 C.3   1 <1>   0.3430 
 13 C       -2.1290     7.7810     0.3250 C.ar  1 <1>  -0.1430 
 14 C        0.0050     7.0560    -0.8900 C.3   1 <1>  -0.1600 
 15 C       -0.1490     5.7600    -1.6920 C.3   1 <1>  -0.1600 
 16 C       -2.9570     7.8730    -0.7890 C.ar  1 <1>  -0.1500 
 17 C       -2.4590     8.5130     1.4570 C.ar  1 <1>  -0.1500 
 18 C       -4.0850     8.6750    -0.7670 C.ar  1 <1>  -0.1500 
 19 C       -3.5850     9.3160     1.4800 C.ar  1 <1>  -0.1500 
 20 C       -4.4050     9.4080     0.3660 C.ar  1 <1>  -0.1430 
 21 C       -5.6340    10.3050     0.3850 C.3   1 <1>   0.4860 
 22 N       -5.3490    11.5390    -0.4020 N.4   1 <1>  -0.9590 
 23 C       -4.3100    12.3930     0.2570 C.3   1 <1>   0.2630 
 24 C       -6.5960    12.3220    -0.6580 C.3   1 <1>   0.2630 
 25 H       -1.2760     3.2700     2.9950 H     1 <1>   0.1500 
 26 H       -3.9480     3.3770    -0.2800 H     1 <1>   0.4000 
 27 H       -4.0230     1.1130    -1.5390 H     1 <1>   0.0800 
 28 H       -5.3730     1.2510    -0.4240 H     1 <1>   0.0800 
 29 H       -4.3610    -0.1690    -0.4060 H     1 <1>   0.0800 
 30 H       -2.3160     5.5240     2.2050 H     1 <1>   0.0800 
 31 H       -3.3050     5.5450     0.7670 H     1 <1>   0.0800 
 32 H       -0.4090     4.9920     0.8460 H     1 <1>   0.4500 
 33 H       -0.2930     7.1750     1.2280 H     1 <1>   0.0800 
 34 H       -2.1980     5.2000    -1.4390 H     1 <1>   0.0800 
 35 H       -1.0690     3.9060    -1.0490 H     1 <1>   0.0800 
 36 H        1.0310     7.1920    -0.5960 H     1 <1>   0.0800 
 37 H       -0.2830     7.9180    -1.4680 H     1 <1>   0.0800 
 38 H       -0.4080     5.9480    -2.7200 H     1 <1>   0.0800 
 39 H        0.7690     5.1960    -1.6720 H     1 <1>   0.0800 
 40 H       -2.7350     7.3310    -1.6920 H     1 <1>   0.1500 
 41 H       -1.8390     8.4720     2.3390 H     1 <1>   0.1500 
 42 H       -4.7080     8.7220    -1.6460 H     1 <1>   0.1500 
 43 H       -3.8130     9.8710     2.3770 H     1 <1>   0.1500 
 44 H       -5.8910    10.5610     1.4000 H     1 <1>   0.0800 
 45 H       -6.4650     9.7740    -0.0510 H     1 <1>   0.0800 
 46 H       -4.9630    11.2250    -1.3040 H     1 <1>   0.4500 
 47 H       -4.6540    12.7290     1.2220 H     1 <1>   0.0800 
 48 H       -4.0940    13.2560    -0.3510 H     1 <1>   0.0800 
 49 H       -3.3970    11.8350     0.3920 H     1 <1>   0.0800 
 50 H       -7.0260    12.6610     0.2710 H     1 <1>   0.0800 
 51 H       -7.3230    11.7150    -1.1740 H     1 <1>   0.0800 
 52 H       -6.3780    13.1840    -1.2680 H     1 <1>   0.0800 
@<TRIPOS>BOND
  1   1   2  2   
  2   2   3  1   
  3   2   4  1   
  4   3   5  2   
  5   4   6  2   
  6   4  25  1   
  7   5   7  1   
  8   5   8  1   
  9   6   7  1   
 10   6   9  1   
 11   7  26  1   
 12   8  27  1   
 13   8  28  1   
 14   8  29  1   
 15   9  10  1   
 16   9  30  1   
 17   9  31  1   
 18  10  11  1   
 19  10  12  1   
 20  10  32  1   
 21  11  13  1   
 22  11  14  1   
 23  11  33  1   
 24  12  15  1   
 25  12  34  1   
 26  12  35  1   
 27  13  16  ar  
 28  13  17  ar  
 29  14  15  1   
 30  14  36  1   
 31  14  37  1   
 32  15  38  1   
 33  15  39  1   
 34  16  18  ar  
 35  16  40  1   
 36  17  19  ar  
 37  17  41  1   
 38  18  20  ar  
 39  18  42  1   
 40  19  20  ar  
 41  19  43  1   
 42  20  21  1   
 43  21  22  1   
 44  21  44  1   
 45  21  45  1   
 46  22  23  1   
 47  22  24  1   
 48  22  46  1   
 49  23  47  1   
 50  23  48  1   
 51  23  49  1   
 52  24  50  1   
 53  24  51  1   
 54  24  52  1   
@<TRIPOS>SUBSTRUCTURE
  1 ****   9 GROUP 4 **** **** 0

# MOE 2024.06 (io_trps.svl 2023.06)
