@<TRIPOS>MOLECULE
NONAME
52 55 1 0 0 
SMALL
USER_CHARGES


@<TRIPOS>ATOM
  1 O        0.7150     0.6250     1.8550 O.2   1 <1>  -0.5700 
  2 C        1.2570    -0.2650     1.2440 C.2   1 <1>   0.5690 
  3 N        0.6230    -1.4580     1.1050 N.am  1 <1>  -0.7300 
  4 C        2.6580    -0.0480     0.6290 C.3   1 <1>   0.2810 
  5 C        1.0840    -2.6060     0.2920 C.3   1 <1>   0.1400 
  6 N        2.8230     1.3060     0.0420 N.am  1 <1>  -0.7300 
  7 C        2.9740    -1.0820    -0.4630 C.3   1 <1>  -0.1600 
  8 C        2.5850    -2.4950    -0.0010 C.3   1 <1>  -0.1600 
  9 C        3.9490     2.0610     0.0940 C.2   1 <1>   0.7160 
 10 O        4.9870     1.5040     0.4000 O.2   1 <1>  -0.5700 
 11 C        3.8980     3.4640    -0.1980 C.2   1 <1>  -0.0860 
 12 C        2.7350     4.2170    -0.4230 C.2   1 <1>   0.3720 
 13 C        4.8910     4.3850    -0.3500 C.2   1 <1>   0.0870 
 14 N        3.0140     5.4440    -0.6890 N.2   1 <1>  -0.4100 
 15 N        1.4220     3.7270    -0.3480 N.pl3 1 <1>  -0.8210 
 16 O        4.3160     5.5230    -0.6450 O.3   1 <1>  -0.0190 
 17 C        6.3280     4.3380    -0.2610 C.ar  1 <1>   0.0530 
 18 C        0.5160     4.1170    -1.4640 C.3   1 <1>   0.2090 
 19 C        0.7440     4.0300     0.9440 C.3   1 <1>   0.2090 
 20 C        6.9890     3.7070     0.7940 C.ar  1 <1>  -0.1500 
 21 C        7.1170     4.9530    -1.2340 C.ar  1 <1>  -0.1500 
 22 C       -0.8490     4.3280    -0.8270 C.3   1 <1>  -0.1600 
 23 C       -0.5260     4.7880     0.5860 C.3   1 <1>  -0.1600 
 24 C        8.3690     3.6770     0.8710 C.ar  1 <1>  -0.1500 
 25 C        8.4970     4.9300    -1.1630 C.ar  1 <1>  -0.1500 
 26 C        9.1370     4.2920    -0.1130 C.ar  1 <1>   0.0830 
 27 O       10.4900     4.3090    -0.1160 O.3   1 <1>  -0.3620 
 28 C       11.2370     3.6520     0.8840 C.3   1 <1>   0.0400 
 29 H       -0.3080    -1.5240     1.5230 H     1 <1>   0.3700 
 30 H        3.3690    -0.1660     1.4280 H     1 <1>   0.0800 
 31 H        0.5330    -2.6150    -0.6340 H     1 <1>   0.0800 
 32 H        0.8810    -3.5240     0.8170 H     1 <1>   0.0800 
 33 H        1.9500     1.8470    -0.0640 H     1 <1>   0.3700 
 34 H        4.0260    -1.0470    -0.6880 H     1 <1>   0.0800 
 35 H        2.4240    -0.8400    -1.3560 H     1 <1>   0.0800 
 36 H        2.8490    -3.2100    -0.7610 H     1 <1>   0.0800 
 37 H        3.1380    -2.7510     0.8870 H     1 <1>   0.0800 
 38 H        0.4820     3.3410    -2.2100 H     1 <1>   0.0800 
 39 H        0.8500     5.0330    -1.9230 H     1 <1>   0.0800 
 40 H        1.3720     4.6140     1.5970 H     1 <1>   0.0800 
 41 H        0.4940     3.1050     1.4340 H     1 <1>   0.0800 
 42 H        6.4090     3.2330     1.5650 H     1 <1>   0.1500 
 43 H        6.6370     5.4540    -2.0560 H     1 <1>   0.1500 
 44 H       -1.3720     3.3880    -0.7980 H     1 <1>   0.0800 
 45 H       -1.4380     5.0460    -1.3700 H     1 <1>   0.0800 
 46 H       -0.3130     5.8430     0.5890 H     1 <1>   0.0800 
 47 H       -1.3220     4.5840     1.2800 H     1 <1>   0.0800 
 48 H        8.8260     3.1730     1.7010 H     1 <1>   0.1500 
 49 H        9.0900     5.4070    -1.9220 H     1 <1>   0.1500 
 50 H       12.2800     3.7890     0.6660 H     1 <1>   0.0800 
 51 H       10.9930     2.6050     0.8680 H     1 <1>   0.0800 
 52 H       11.0020     4.0890     1.8380 H     1 <1>   0.0800 
@<TRIPOS>BOND
  1   1   2  2   
  2   2   3  am  
  3   2   4  1   
  4   3   5  1   
  5   3  29  1   
  6   4   6  1   
  7   4   7  1   
  8   4  30  1   
  9   5   8  1   
 10   5  31  1   
 11   5  32  1   
 12   6   9  am  
 13   6  33  1   
 14   7   8  1   
 15   7  34  1   
 16   7  35  1   
 17   8  36  1   
 18   8  37  1   
 19   9  10  2   
 20   9  11  1   
 21  11  12  1   
 22  11  13  2   
 23  12  14  2   
 24  12  15  1   
 25  13  16  1   
 26  13  17  1   
 27  14  16  1   
 28  15  18  1   
 29  15  19  1   
 30  17  20  ar  
 31  17  21  ar  
 32  18  22  1   
 33  18  38  1   
 34  18  39  1   
 35  19  23  1   
 36  19  40  1   
 37  19  41  1   
 38  20  24  ar  
 39  20  42  1   
 40  21  25  ar  
 41  21  43  1   
 42  22  23  1   
 43  22  44  1   
 44  22  45  1   
 45  23  46  1   
 46  23  47  1   
 47  24  26  ar  
 48  24  48  1   
 49  25  26  ar  
 50  25  49  1   
 51  26  27  1   
 52  27  28  1   
 53  28  50  1   
 54  28  51  1   
 55  28  52  1   
@<TRIPOS>SUBSTRUCTURE
  1 ****   9 GROUP 4 **** **** 0

# MOE 2024.06 (io_trps.svl 2023.06)
