@<TRIPOS>MOLECULE
NONAME
41 44 1 0 0 
SMALL
USER_CHARGES


@<TRIPOS>ATOM
  1 CL       2.4340     1.1840    -0.3630 Cl    1 <1>  -0.1770 
  2 C        2.3870    -0.4430     0.2610 C.ar  1 <1>   0.1770 
  3 C        2.2720    -1.5020    -0.6210 C.ar  1 <1>  -0.1500 
  4 C        2.4650    -0.6400     1.6300 C.ar  1 <1>  -0.1500 
  5 C        2.2240    -2.8140    -0.1490 C.ar  1 <1>   0.0860 
  6 C        2.4280    -1.9330     2.1240 C.ar  1 <1>  -0.1500 
  7 C        2.3120    -2.9860     1.2320 C.ar  1 <1>   0.1900 
  8 C        2.1000    -3.9230    -1.0660 C.2   1 <1>   0.5440 
  9 F        2.2860    -4.1920     1.7300 F     1 <1>  -0.1900 
 10 O        3.0180    -4.1420    -1.8330 O.2   1 <1>  -0.5700 
 11 N        0.9660    -4.7080    -1.1270 N.am  1 <1>  -0.6600 
 12 C        0.8950    -5.9230    -1.9880 C.3   1 <1>   0.1400 
 13 C       -0.3020    -4.4120    -0.4050 C.3   1 <1>   0.1400 
 14 C        0.5270    -7.1320    -1.1260 C.3   1 <1>  -0.1600 
 15 C       -0.6750    -5.6060     0.4750 C.3   1 <1>  -0.1600 
 16 C       -0.7710    -6.8990    -0.3460 C.3   1 <1>   0.4600 
 17 O       -1.7960    -6.7550    -1.3120 O.3   1 <1>  -0.5600 
 18 C       -1.1010    -8.0990     0.5360 C.2   1 <1>  -0.1400 
 19 C       -3.1260    -6.9860    -0.9100 C.3   1 <1>   0.1200 
 20 S        0.0060    -8.7200     1.7510 S.3   1 <1>  -0.0800 
 21 C       -2.2310    -8.8180     0.5130 C.2   1 <1>  -0.1810 
 22 C       -3.3330    -8.4440    -0.4530 C.3   1 <1>   0.0210 
 23 C       -1.1350    -9.9860     2.1880 C.2   1 <1>  -0.1100 
 24 C       -2.2570    -9.9010     1.4480 C.2   1 <1>  -0.1500 
 25 H        2.2230    -1.3150    -1.6790 H     1 <1>   0.1500 
 26 H        2.5550     0.2050     2.2890 H     1 <1>   0.1500 
 27 H        2.4920    -2.1260     3.1800 H     1 <1>   0.1500 
 28 H        1.8380    -6.1050    -2.4750 H     1 <1>   0.0800 
 29 H        0.1500    -5.7720    -2.7510 H     1 <1>   0.0800 
 30 H       -1.0810    -4.2370    -1.1290 H     1 <1>   0.0800 
 31 H       -0.2090    -3.5290     0.2000 H     1 <1>   0.0800 
 32 H        1.3340    -7.3180    -0.4420 H     1 <1>   0.0800 
 33 H        0.4170    -8.0040    -1.7440 H     1 <1>   0.0800 
 34 H       -1.6010    -5.4190     0.9820 H     1 <1>   0.0800 
 35 H        0.0810    -5.7260     1.2290 H     1 <1>   0.0800 
 36 H       -3.7640    -6.7680    -1.7480 H     1 <1>   0.0800 
 37 H       -3.3640    -6.3070    -0.1110 H     1 <1>   0.0800 
 38 H       -3.3110    -9.1010    -1.3030 H     1 <1>   0.0800 
 39 H       -4.2910    -8.5350     0.0250 H     1 <1>   0.0800 
 40 H       -0.8390   -10.6690     2.9640 H     1 <1>   0.1500 
 41 H       -3.1070   -10.5570     1.5190 H     1 <1>   0.1500 
@<TRIPOS>BOND
  1   1   2  1   
  2   2   3  ar  
  3   2   4  ar  
  4   3   5  ar  
  5   3  25  1   
  6   4   6  ar  
  7   4  26  1   
  8   5   7  ar  
  9   5   8  1   
 10   6   7  ar  
 11   6  27  1   
 12   7   9  1   
 13   8  10  2   
 14   8  11  am  
 15  11  12  1   
 16  11  13  1   
 17  12  14  1   
 18  12  28  1   
 19  12  29  1   
 20  13  15  1   
 21  13  30  1   
 22  13  31  1   
 23  14  16  1   
 24  14  32  1   
 25  14  33  1   
 26  15  16  1   
 27  15  34  1   
 28  15  35  1   
 29  16  17  1   
 30  16  18  1   
 31  17  19  1   
 32  18  20  1   
 33  18  21  2   
 34  19  22  1   
 35  19  36  1   
 36  19  37  1   
 37  20  23  1   
 38  21  22  1   
 39  21  24  1   
 40  22  38  1   
 41  22  39  1   
 42  23  24  2   
 43  23  40  1   
 44  24  41  1   
@<TRIPOS>SUBSTRUCTURE
  1 ****  13 GROUP 4 **** **** 0

# MOE 2024.06 (io_trps.svl 2023.06)
