@<TRIPOS>MOLECULE
NONAME
39 40 1 0 0 
SMALL
USER_CHARGES


@<TRIPOS>ATOM
  1 S       -1.0930     0.4780     0.3880 S.3   1 <1>  -0.4600 
  2 C       -1.8420    -0.3230    -1.0780 C.3   1 <1>   0.1310 
  3 C        0.0040     1.7280    -0.3320 C.3   1 <1>  -0.0100 
  4 C       -2.6030    -1.5980    -0.7180 C.2   1 <1>   0.5690 
  5 O       -2.2370    -2.6180    -1.2570 O.2   1 <1>  -0.5700 
  6 N       -3.6790    -1.5990     0.1400 N.am  1 <1>  -0.6600 
  7 C       -4.2880    -2.8970     0.5520 C.3   1 <1>   0.1400 
  8 C       -4.2800    -0.3720     0.7400 C.3   1 <1>   0.1400 
  9 C       -5.3810    -3.3270    -0.4360 C.3   1 <1>   0.1400 
 10 C       -5.8160    -0.3710     0.7080 C.3   1 <1>  -0.1600 
 11 N       -6.6150    -2.4780    -0.3350 N.am  1 <1>  -0.6600 
 12 C       -6.4250    -1.0130    -0.5440 C.3   1 <1>   0.1400 
 13 C       -7.8470    -2.9730     0.0440 C.2   1 <1>   0.5440 
 14 O       -8.6800    -2.2090     0.4890 O.2   1 <1>  -0.5700 
 15 C       -8.1800    -4.3760    -0.0640 C.ar  1 <1>   0.0860 
 16 C       -7.9760    -5.0700    -1.2600 C.ar  1 <1>   0.1600 
 17 C       -8.7190    -5.0810     1.0040 C.ar  1 <1>  -0.1500 
 18 N       -8.2230    -6.3570    -1.4710 N.ar  1 <1>  -0.6200 
 19 C       -8.9860    -6.4130     0.7890 C.ar  1 <1>   0.1900 
 20 C       -8.7290    -7.0110    -0.4330 C.ar  1 <1>   0.1600 
 21 F       -9.4870    -7.1260     1.7620 F     1 <1>  -0.1900 
 22 H       -1.0350    -0.5610    -1.7460 H     1 <1>   0.0800 
 23 H       -2.4950     0.3910    -1.5430 H     1 <1>   0.0800 
 24 H        0.4810     2.2490     0.4790 H     1 <1>   0.0800 
 25 H       -0.5930     2.4010    -0.9200 H     1 <1>   0.0800 
 26 H        0.7330     1.2220    -0.9400 H     1 <1>   0.0800 
 27 H       -4.6910    -2.8260     1.5470 H     1 <1>   0.0800 
 28 H       -3.5220    -3.6530     0.5690 H     1 <1>   0.0800 
 29 H       -3.9400     0.4950     0.2030 H     1 <1>   0.0800 
 30 H       -3.9400    -0.2750     1.7570 H     1 <1>   0.0800 
 31 H       -5.6190    -4.3530    -0.2240 H     1 <1>   0.0800 
 32 H       -4.9920    -3.2830    -1.4380 H     1 <1>   0.0800 
 33 H       -6.1380     0.6530     0.7540 H     1 <1>   0.0800 
 34 H       -6.2070    -0.8520     1.5860 H     1 <1>   0.0800 
 35 H       -5.8030    -0.8410    -1.4050 H     1 <1>   0.0800 
 36 H       -7.3820    -0.5580    -0.7400 H     1 <1>   0.0800 
 37 H       -7.5790    -4.5140    -2.0930 H     1 <1>   0.1500 
 38 H       -8.9210    -4.6070     1.9470 H     1 <1>   0.1500 
 39 H       -8.9500    -8.0570    -0.5550 H     1 <1>   0.1500 
@<TRIPOS>BOND
  1   1   2  1   
  2   1   3  1   
  3   2   4  1   
  4   2  22  1   
  5   2  23  1   
  6   3  24  1   
  7   3  25  1   
  8   3  26  1   
  9   4   5  2   
 10   4   6  am  
 11   6   7  1   
 12   6   8  1   
 13   7   9  1   
 14   7  27  1   
 15   7  28  1   
 16   8  10  1   
 17   8  29  1   
 18   8  30  1   
 19   9  11  1   
 20   9  31  1   
 21   9  32  1   
 22  10  12  1   
 23  10  33  1   
 24  10  34  1   
 25  11  12  1   
 26  11  13  am  
 27  12  35  1   
 28  12  36  1   
 29  13  14  2   
 30  13  15  1   
 31  15  16  ar  
 32  15  17  ar  
 33  16  18  ar  
 34  16  37  1   
 35  17  19  ar  
 36  17  38  1   
 37  18  20  ar  
 38  19  20  ar  
 39  19  21  1   
 40  20  39  1   
@<TRIPOS>SUBSTRUCTURE
  1 ****   9 GROUP 4 **** **** 0

# MOE 2024.06 (io_trps.svl 2023.06)
