@<TRIPOS>MOLECULE
NONAME
53 55 1 0 0 
SMALL
USER_CHARGES


@<TRIPOS>ATOM
  1 O       -0.1960     0.2220    -1.3470 O.2   1 <1>  -0.5700 
  2 C       -1.1650     0.8890    -1.0770 C.2   1 <1>   0.5690 
  3 N       -2.3830     0.3210    -0.8230 N.am  1 <1>  -0.6600 
  4 C       -0.9860     2.3940    -1.0090 C.3   1 <1>  -0.0990 
  5 C       -3.6260     1.0240    -0.4200 C.3   1 <1>   0.1400 
  6 C       -2.6010    -1.1450    -0.8460 C.3   1 <1>   0.1400 
  7 C       -0.5490     2.8330     0.3920 C.3   1 <1>  -0.0160 
  8 C       -4.6440    -0.0830    -0.1350 C.3   1 <1>   0.2000 
  9 C       -3.8360    -1.3700     0.0260 C.3   1 <1>  -0.0800 
 10 C       -0.4710     4.3490     0.4740 C.ar  1 <1>  -0.1440 
 11 O       -5.3570     0.1750     1.0250 O.3   1 <1>  -0.6800 
 12 C       -4.6470    -2.6250    -0.3390 C.3   1 <1>  -0.0170 
 13 C        0.6820     5.0100     0.0780 C.ar  1 <1>  -0.1500 
 14 C       -1.5490     5.0840     0.9460 C.ar  1 <1>  -0.1500 
 15 C       -3.8330    -3.8950    -0.1530 C.ar  1 <1>   0.1670 
 16 C        0.7660     6.3900     0.1510 C.ar  1 <1>   0.0820 
 17 C       -1.4800     6.4660     1.0080 C.ar  1 <1>  -0.1500 
 18 N       -3.0420    -4.2370    -1.1580 N.ar  1 <1>  -0.6200 
 19 C       -3.9480    -4.6180     1.0250 C.ar  1 <1>  -0.1500 
 20 O        1.9370     6.9660    -0.2150 O.3   1 <1>  -0.3620 
 21 C       -0.3350     7.1290     0.5990 C.ar  1 <1>   0.0820 
 22 C       -2.3330    -5.3410    -0.9810 C.ar  1 <1>   0.1600 
 23 C       -3.2050    -5.7670     1.1960 C.ar  1 <1>  -0.1500 
 24 C        2.6720     7.5880     0.8160 C.3   1 <1>   0.0400 
 25 O       -0.3470     8.4840     0.6520 O.3   1 <1>  -0.3630 
 26 C       -2.3760    -6.1290     0.1570 C.ar  1 <1>  -0.1500 
 27 C       -0.2470     9.1610    -0.5820 C.3   1 <1>   0.0400 
 28 H       -0.2320     2.6790    -1.7200 H     1 <1>   0.0800 
 29 H       -1.8940     2.8910    -1.2890 H     1 <1>   0.0800 
 30 H       -3.4410     1.6140     0.4600 H     1 <1>   0.0800 
 31 H       -3.9730     1.6520    -1.2230 H     1 <1>   0.0800 
 32 H       -2.7830    -1.4580    -1.8610 H     1 <1>   0.0800 
 33 H       -1.7440    -1.6750    -0.4640 H     1 <1>   0.0800 
 34 H        0.4140     2.4060     0.6160 H     1 <1>   0.0800 
 35 H       -1.2430     2.4650     1.1260 H     1 <1>   0.0800 
 36 H       -5.3410    -0.1540    -0.9530 H     1 <1>   0.0800 
 37 H       -3.4910    -1.4550     1.0420 H     1 <1>   0.0800 
 38 H       -4.7620     0.1580     1.8000 H     1 <1>   0.4000 
 39 H       -4.9730    -2.5680    -1.3630 H     1 <1>   0.0800 
 40 H       -5.5260    -2.6710     0.2780 H     1 <1>   0.0800 
 41 H        1.5300     4.4590    -0.2870 H     1 <1>   0.1500 
 42 H       -2.4480     4.5870     1.2650 H     1 <1>   0.1500 
 43 H       -2.3150     7.0370     1.3700 H     1 <1>   0.1500 
 44 H       -4.6100    -4.2880     1.8040 H     1 <1>   0.1500 
 45 H       -1.6820    -5.6340    -1.7870 H     1 <1>   0.1500 
 46 H       -3.2680    -6.3520     2.0970 H     1 <1>   0.1500 
 47 H        3.6110     7.9170     0.4090 H     1 <1>   0.0800 
 48 H        2.8400     6.8730     1.6010 H     1 <1>   0.0800 
 49 H        2.1190     8.4310     1.1900 H     1 <1>   0.0800 
 50 H       -1.7680    -7.0130     0.2240 H     1 <1>   0.1500 
 51 H       -0.4150    10.2080    -0.4060 H     1 <1>   0.0800 
 52 H       -0.9950     8.7750    -1.2520 H     1 <1>   0.0800 
 53 H        0.7340     9.0120    -0.9930 H     1 <1>   0.0800 
@<TRIPOS>BOND
  1   1   2  2   
  2   2   3  am  
  3   2   4  1   
  4   3   5  1   
  5   3   6  1   
  6   4   7  1   
  7   4  28  1   
  8   4  29  1   
  9   5   8  1   
 10   5  30  1   
 11   5  31  1   
 12   6   9  1   
 13   6  32  1   
 14   6  33  1   
 15   7  10  1   
 16   7  34  1   
 17   7  35  1   
 18   8   9  1   
 19   8  11  1   
 20   8  36  1   
 21   9  12  1   
 22   9  37  1   
 23  10  13  ar  
 24  10  14  ar  
 25  11  38  1   
 26  12  15  1   
 27  12  39  1   
 28  12  40  1   
 29  13  16  ar  
 30  13  41  1   
 31  14  17  ar  
 32  14  42  1   
 33  15  18  ar  
 34  15  19  ar  
 35  16  20  1   
 36  16  21  ar  
 37  17  21  ar  
 38  17  43  1   
 39  18  22  ar  
 40  19  23  ar  
 41  19  44  1   
 42  20  24  1   
 43  21  25  1   
 44  22  26  ar  
 45  22  45  1   
 46  23  26  ar  
 47  23  46  1   
 48  24  47  1   
 49  24  48  1   
 50  24  49  1   
 51  25  27  1   
 52  26  50  1   
 53  27  51  1   
 54  27  52  1   
 55  27  53  1   
@<TRIPOS>SUBSTRUCTURE
  1 ****   2 GROUP 4 **** **** 0

# MOE 2024.06 (io_trps.svl 2023.06)
