@<TRIPOS>MOLECULE
NONAME
57 59 1 0 0 
SMALL
USER_CHARGES


@<TRIPOS>ATOM
  1 S       -0.4700    -0.1570    -2.6880 S.o2  1 <1>   1.4470 
  2 O       -0.8500    -1.3460    -3.4220 O.2   1 <1>  -0.6500 
  3 O       -0.1950     1.0670    -3.4090 O.2   1 <1>  -0.6500 
  4 N       -1.7170     0.1800    -1.5890 N.am  1 <1>  -0.8490 
  5 C        0.9240    -0.5650    -1.5980 C.ar  1 <1>  -0.0090 
  6 C       -3.0200     0.2010    -2.2590 C.3   1 <1>   0.1960 
  7 C       -1.5090     1.4490    -0.8840 C.3   1 <1>   0.1960 
  8 C        1.7710     0.4210    -1.1180 C.ar  1 <1>  -0.1500 
  9 C        1.1530    -1.8670    -1.1760 C.ar  1 <1>  -0.1500 
 10 C       -4.1370     0.3270    -1.2190 C.3   1 <1>  -0.1600 
 11 C       -2.5550     1.6020     0.2190 C.3   1 <1>  -0.1600 
 12 C        2.8090     0.1770    -0.2150 C.ar  1 <1>   0.0860 
 13 C        2.1830    -2.1620    -0.3060 C.ar  1 <1>  -0.1500 
 14 C       -3.9830     1.5850    -0.3530 C.3   1 <1>   0.2800 
 15 C        3.0140    -1.1560     0.1830 C.ar  1 <1>   0.0820 
 16 C        3.5870     1.3110     0.2640 C.2   1 <1>   0.5440 
 17 O       -4.1220     2.6620    -1.2340 O.3   1 <1>  -0.5600 
 18 C       -5.0800     1.6060     0.7470 C.3   1 <1>  -0.1600 
 19 O        4.0170    -1.4400     1.0520 O.3   1 <1>  -0.3630 
 20 O        3.1160     2.4330     0.2260 O.2   1 <1>  -0.5700 
 21 N        4.8520     1.1650     0.7580 N.am  1 <1>  -0.7300 
 22 C       -4.2250     3.9830    -0.7560 C.3   1 <1>   0.1200 
 23 C       -5.9090     2.8990     0.8230 C.3   1 <1>   0.2800 
 24 C        4.2410    -2.7290     1.5840 C.3   1 <1>   0.0400 
 25 C        5.7330     2.2460     1.2660 C.3   1 <1>   0.0600 
 26 C       -4.9990     4.1220     0.5700 C.3   1 <1>   0.2000 
 27 O       -6.8750     2.8560    -0.1660 O.3   1 <1>  -0.6800 
 28 C       -6.6850     2.9910     2.1410 C.3   1 <1>  -0.2400 
 29 O       -4.0800     4.2720     1.6140 O.3   1 <1>  -0.6800 
 30 H       -3.0650     1.0220    -2.9570 H     1 <1>   0.0800 
 31 H       -3.1650    -0.7140    -2.8090 H     1 <1>   0.0800 
 32 H       -0.5360     1.4660    -0.4280 H     1 <1>   0.0800 
 33 H       -1.5720     2.2750    -1.5760 H     1 <1>   0.0800 
 34 H        1.6140     1.4340    -1.4520 H     1 <1>   0.1500 
 35 H        0.5100    -2.6550    -1.5350 H     1 <1>   0.1500 
 36 H       -4.1180    -0.5500    -0.5980 H     1 <1>   0.0800 
 37 H       -5.0870     0.3540    -1.7210 H     1 <1>   0.0800 
 38 H       -2.3600     2.5100     0.7540 H     1 <1>   0.0800 
 39 H       -2.4320     0.7880     0.9110 H     1 <1>   0.0800 
 40 H        2.3170    -3.1890    -0.0200 H     1 <1>   0.1500 
 41 H       -5.7460     0.7690     0.6360 H     1 <1>   0.0800 
 42 H       -4.5990     1.4590     1.6960 H     1 <1>   0.0800 
 43 H        5.1670     0.2020     0.9160 H     1 <1>   0.3700 
 44 H       -3.2360     4.3990    -0.6710 H     1 <1>   0.0800 
 45 H       -4.7530     4.5290    -1.5170 H     1 <1>   0.0800 
 46 H        5.0650    -2.6690     2.2720 H     1 <1>   0.0800 
 47 H        4.4850    -3.4020     0.7810 H     1 <1>   0.0800 
 48 H        3.3560    -3.0520     2.1030 H     1 <1>   0.0800 
 49 H        5.3190     3.2110     1.0280 H     1 <1>   0.0800 
 50 H        6.7050     2.1660     0.8120 H     1 <1>   0.0800 
 51 H        5.8300     2.1640     2.3340 H     1 <1>   0.0800 
 52 H       -5.5890     5.0210     0.5550 H     1 <1>   0.0800 
 53 H       -7.4380     2.0710    -0.0460 H     1 <1>   0.4000 
 54 H       -6.0060     3.0320     2.9730 H     1 <1>   0.0800 
 55 H       -7.3250     2.1370     2.2720 H     1 <1>   0.0800 
 56 H       -7.2800     3.8870     2.1570 H     1 <1>   0.0800 
 57 H       -3.5060     3.4860     1.6620 H     1 <1>   0.4000 
@<TRIPOS>BOND
  1   1   2  2   
  2   1   3  2   
  3   1   4  am  
  4   1   5  1   
  5   4   6  1   
  6   4   7  1   
  7   5   8  ar  
  8   5   9  ar  
  9   6  10  1   
 10   6  30  1   
 11   6  31  1   
 12   7  11  1   
 13   7  32  1   
 14   7  33  1   
 15   8  12  ar  
 16   8  34  1   
 17   9  13  ar  
 18   9  35  1   
 19  10  14  1   
 20  10  36  1   
 21  10  37  1   
 22  11  14  1   
 23  11  38  1   
 24  11  39  1   
 25  12  15  ar  
 26  12  16  1   
 27  13  15  ar  
 28  13  40  1   
 29  14  17  1   
 30  14  18  1   
 31  15  19  1   
 32  16  20  2   
 33  16  21  am  
 34  17  22  1   
 35  18  23  1   
 36  18  41  1   
 37  18  42  1   
 38  19  24  1   
 39  21  25  1   
 40  21  43  1   
 41  22  26  1   
 42  22  44  1   
 43  22  45  1   
 44  23  26  1   
 45  23  27  1   
 46  23  28  1   
 47  24  46  1   
 48  24  47  1   
 49  24  48  1   
 50  25  49  1   
 51  25  50  1   
 52  25  51  1   
 53  26  29  1   
 54  26  52  1   
 55  27  53  1   
 56  28  54  1   
 57  28  55  1   
 58  28  56  1   
 59  29  57  1   
@<TRIPOS>SUBSTRUCTURE
  1 ****   7 GROUP 4 **** **** 0

# MOE 2024.06 (io_trps.svl 2023.06)
