@<TRIPOS>MOLECULE
NONAME
43 44 1 0 0 
SMALL
USER_CHARGES


@<TRIPOS>ATOM
  1 O       -1.5030     0.2720     2.5250 O.2   1 <1>  -0.5700 
  2 C       -1.8620     0.5250     1.4050 C.2   1 <1>   0.4230 
  3 C       -3.0160    -0.0880     0.8090 C.ar  1 <1>   0.0860 
  4 C       -0.9900     1.4800     0.6140 C.3   1 <1>  -0.1790 
  5 C       -3.9810     0.5450     0.0290 C.ar  1 <1>   0.1660 
  6 C       -3.2270    -1.4420     1.0030 C.ar  1 <1>   0.1600 
  7 N       -4.9700    -0.1060    -0.5270 N.ar  1 <1>  -0.6200 
  8 C       -3.9860     2.0450    -0.2180 C.3   1 <1>  -0.0960 
  9 N       -4.2130    -2.1120     0.4650 N.ar  1 <1>  -0.6200 
 10 C       -5.0550    -1.4170    -0.2990 C.ar  1 <1>   0.7200 
 11 N       -6.0900    -2.0980    -0.8920 N.pl3 1 <1>  -0.8380 
 12 C       -6.1730    -3.5840    -0.8920 C.3   1 <1>   0.2090 
 13 C       -7.1750    -1.4050    -1.6420 C.3   1 <1>   0.1290 
 14 C       -7.0120    -4.0470     0.2990 C.3   1 <1>  -0.1600 
 15 C       -6.9900    -5.5690     0.4400 C.3   1 <1>   0.2000 
 16 O       -7.4640    -6.1240    -0.7500 O.3   1 <1>  -0.5600 
 17 C       -7.8690    -6.0490     1.6050 C.3   1 <1>  -0.1600 
 18 C       -7.3960    -7.5170    -0.8150 C.3   1 <1>   0.1200 
 19 C       -7.9250    -7.5800     1.6540 C.3   1 <1>  -0.1600 
 20 C       -8.2940    -8.1250     0.2690 C.3   1 <1>  -0.1600 
 21 H       -1.1490     1.3610    -0.4420 H     1 <1>   0.0800 
 22 H        0.0430     1.2740     0.8260 H     1 <1>   0.0800 
 23 H       -1.2010     2.4930     0.9030 H     1 <1>   0.0800 
 24 H       -2.5380    -1.9850     1.6280 H     1 <1>   0.1500 
 25 H       -3.6340     2.5790     0.6440 H     1 <1>   0.0800 
 26 H       -4.9890     2.3780    -0.4230 H     1 <1>   0.0800 
 27 H       -3.3740     2.2800    -1.0690 H     1 <1>   0.0800 
 28 H       -5.1860    -4.0100    -0.8330 H     1 <1>   0.0800 
 29 H       -6.6170    -3.9250    -1.8120 H     1 <1>   0.0800 
 30 H       -7.3890    -0.4480    -1.1980 H     1 <1>   0.0800 
 31 H       -8.0750    -1.9930    -1.6260 H     1 <1>   0.0800 
 32 H       -6.8670    -1.2560    -2.6620 H     1 <1>   0.0800 
 33 H       -8.0260    -3.7110     0.1820 H     1 <1>   0.0800 
 34 H       -6.6100    -3.6120     1.1960 H     1 <1>   0.0800 
 35 H       -5.9740    -5.8990     0.5820 H     1 <1>   0.0800 
 36 H       -8.8630    -5.6550     1.4790 H     1 <1>   0.0800 
 37 H       -7.4780    -5.6700     2.5320 H     1 <1>   0.0800 
 38 H       -6.3700    -7.8170    -0.6860 H     1 <1>   0.0800 
 39 H       -7.7290    -7.8160    -1.7930 H     1 <1>   0.0800 
 40 H       -8.6460    -7.9030     2.3850 H     1 <1>   0.0800 
 41 H       -6.9600    -7.9620     1.9410 H     1 <1>   0.0800 
 42 H       -8.1980    -9.1960     0.2580 H     1 <1>   0.0800 
 43 H       -9.3180    -7.8820     0.0430 H     1 <1>   0.0800 
@<TRIPOS>BOND
  1   1   2  2   
  2   2   3  1   
  3   2   4  1   
  4   3   5  ar  
  5   3   6  ar  
  6   4  21  1   
  7   4  22  1   
  8   4  23  1   
  9   5   7  ar  
 10   5   8  1   
 11   6   9  ar  
 12   6  24  1   
 13   7  10  ar  
 14   8  25  1   
 15   8  26  1   
 16   8  27  1   
 17   9  10  ar  
 18  10  11  1   
 19  11  12  1   
 20  11  13  1   
 21  12  14  1   
 22  12  28  1   
 23  12  29  1   
 24  13  30  1   
 25  13  31  1   
 26  13  32  1   
 27  14  15  1   
 28  14  33  1   
 29  14  34  1   
 30  15  16  1   
 31  15  17  1   
 32  15  35  1   
 33  16  18  1   
 34  17  19  1   
 35  17  36  1   
 36  17  37  1   
 37  18  20  1   
 38  18  38  1   
 39  18  39  1   
 40  19  20  1   
 41  19  40  1   
 42  19  41  1   
 43  20  42  1   
 44  20  43  1   
@<TRIPOS>SUBSTRUCTURE
  1 ****   9 GROUP 4 **** **** 0

# MOE 2024.06 (io_trps.svl 2023.06)
