@<TRIPOS>MOLECULE
NONAME
55 58 1 0 0 
SMALL
USER_CHARGES


@<TRIPOS>ATOM
  1 O       -2.5360    -0.0390    -1.5130 O.2   1 <1>  -0.5700 
  2 C       -2.5580     0.5400    -0.4440 C.2   1 <1>   0.5440 
  3 N       -3.0180    -0.1500     0.6580 N.am  1 <1>  -0.6600 
  4 C       -2.1470     1.9290    -0.3640 C.ar  1 <1>   0.0860 
  5 C       -3.9990     0.4480     1.5930 C.3   1 <1>   0.1400 
  6 C       -2.9480    -1.6330     0.7000 C.3   1 <1>   0.1400 
  7 C       -2.3450     2.8190    -1.4100 C.ar  1 <1>  -0.1500 
  8 C       -1.5200     2.4710     0.7500 C.ar  1 <1>  -0.1500 
  9 C       -5.3890    -0.0710     1.2170 C.3   1 <1>  -0.1600 
 10 C       -4.3120    -2.1960     0.3070 C.3   1 <1>  -0.1600 
 11 C       -1.9510     4.1380    -1.2910 C.ar  1 <1>   0.1600 
 12 C       -1.1640     3.8060     0.7720 C.ar  1 <1>   0.1600 
 13 C       -5.4190    -1.6050     1.1950 C.3   1 <1>   0.4230 
 14 N       -1.3720     4.6540    -0.2210 N.ar  1 <1>  -0.6200 
 15 N       -6.7760    -2.0650     0.7820 N.4   1 <1>  -0.9590 
 16 C       -7.1910    -1.7720    -0.6260 C.3   1 <1>   0.3430 
 17 C       -7.0150    -3.5270     1.0040 C.3   1 <1>   0.3430 
 18 C       -8.2600    -2.8190    -0.9350 C.3   1 <1>   0.2000 
 19 C       -7.7190    -4.0700    -0.2490 C.3   1 <1>  -0.0800 
 20 O       -9.4310    -2.4420    -0.2870 O.3   1 <1>  -0.6800 
 21 C       -6.7420    -4.8350    -1.1640 C.3   1 <1>   0.0210 
 22 C       -6.1420    -6.0330    -0.4570 C.2   1 <1>   0.1080 
 23 N       -5.1760    -5.9300     0.4030 N.2   1 <1>  -0.7070 
 24 C       -6.5440    -7.3500    -0.6450 C.2   1 <1>  -0.1500 
 25 N       -4.9230    -7.2030     0.7810 N.pl3 1 <1>   0.3000 
 26 C       -5.7450    -8.0760     0.1640 C.2   1 <1>  -0.3320 
 27 C       -5.7100    -9.5780     0.3820 C.3   1 <1>  -0.0600 
 28 H       -3.7460     0.1690     2.6030 H     1 <1>   0.0800 
 29 H       -3.9840     1.5230     1.5260 H     1 <1>   0.0800 
 30 H       -2.1920    -1.9870     0.0160 H     1 <1>   0.0800 
 31 H       -2.6740    -1.9510     1.6910 H     1 <1>   0.0800 
 32 H       -2.8060     2.4750    -2.3180 H     1 <1>   0.1500 
 33 H       -1.3050     1.8490     1.5990 H     1 <1>   0.1500 
 34 H       -5.6380     0.3270     0.2500 H     1 <1>   0.0800 
 35 H       -6.1000     0.2990     1.9340 H     1 <1>   0.0800 
 36 H       -4.2730    -3.2650     0.4080 H     1 <1>   0.0800 
 37 H       -4.4640    -1.9550    -0.7280 H     1 <1>   0.0800 
 38 H       -2.1200     4.8050    -2.1200 H     1 <1>   0.1500 
 39 H       -0.6800     4.2010     1.6500 H     1 <1>   0.1500 
 40 H       -5.2380    -1.9440     2.2020 H     1 <1>   0.0800 
 41 H       -7.4770    -1.5870     1.3650 H     1 <1>   0.4500 
 42 H       -7.5810    -0.7730    -0.7340 H     1 <1>   0.0800 
 43 H       -6.3630    -1.9070    -1.2990 H     1 <1>   0.0800 
 44 H       -6.0910    -4.0430     1.1920 H     1 <1>   0.0800 
 45 H       -7.6550    -3.6600     1.8610 H     1 <1>   0.0800 
 46 H       -8.4560    -2.9280    -1.9880 H     1 <1>   0.0800 
 47 H       -8.5110    -4.7430     0.0300 H     1 <1>   0.0800 
 48 H      -10.1870    -3.0050    -0.5600 H     1 <1>   0.4000 
 49 H       -5.9360    -4.2000    -1.4870 H     1 <1>   0.0800 
 50 H       -7.2590    -5.1790    -2.0420 H     1 <1>   0.0800 
 51 H       -7.3220    -7.6960    -1.3020 H     1 <1>   0.1500 
 52 H       -4.1850    -7.4470     1.4540 H     1 <1>   0.2700 
 53 H       -6.4580   -10.0590    -0.2250 H     1 <1>   0.0800 
 54 H       -5.9070    -9.8120     1.4140 H     1 <1>   0.0800 
 55 H       -4.7470    -9.9730     0.1110 H     1 <1>   0.0800 
@<TRIPOS>BOND
  1   1   2  2   
  2   2   3  am  
  3   2   4  1   
  4   3   5  1   
  5   3   6  1   
  6   4   7  ar  
  7   4   8  ar  
  8   5   9  1   
  9   5  28  1   
 10   5  29  1   
 11   6  10  1   
 12   6  30  1   
 13   6  31  1   
 14   7  11  ar  
 15   7  32  1   
 16   8  12  ar  
 17   8  33  1   
 18   9  13  1   
 19   9  34  1   
 20   9  35  1   
 21  10  13  1   
 22  10  36  1   
 23  10  37  1   
 24  11  14  ar  
 25  11  38  1   
 26  12  14  ar  
 27  12  39  1   
 28  13  15  1   
 29  13  40  1   
 30  15  16  1   
 31  15  17  1   
 32  15  41  1   
 33  16  18  1   
 34  16  42  1   
 35  16  43  1   
 36  17  19  1   
 37  17  44  1   
 38  17  45  1   
 39  18  19  1   
 40  18  20  1   
 41  18  46  1   
 42  19  21  1   
 43  19  47  1   
 44  20  48  1   
 45  21  22  1   
 46  21  49  1   
 47  21  50  1   
 48  22  23  2   
 49  22  24  1   
 50  23  25  1   
 51  24  26  2   
 52  24  51  1   
 53  25  26  1   
 54  25  52  1   
 55  26  27  1   
 56  27  53  1   
 57  27  54  1   
 58  27  55  1   
@<TRIPOS>SUBSTRUCTURE
  1 ****  10 GROUP 4 **** **** 0

# MOE 2024.06 (io_trps.svl 2023.06)
