@<TRIPOS>MOLECULE
NONAME
46 48 1 0 0 
SMALL
USER_CHARGES


@<TRIPOS>ATOM
  1 CL       0.2630    -2.3630     2.7740 Cl    1 <1>  -0.1770 
  2 C        1.2660    -2.1050     1.3570 C.ar  1 <1>   0.1770 
  3 C        0.8790    -2.6010     0.1060 C.ar  1 <1>   0.1000 
  4 C        2.4410    -1.3990     1.5280 C.ar  1 <1>  -0.1500 
  5 N       -0.2960    -3.3230    -0.1350 N.pl3 1 <1>  -0.8380 
  6 C        1.7250    -2.3560    -0.9690 C.ar  1 <1>  -0.1500 
  7 C        3.2670    -1.1690     0.4400 C.ar  1 <1>  -0.1500 
  8 C       -1.5640    -2.5750    -0.0200 C.3   1 <1>   0.2090 
  9 C       -0.3630    -4.6810     0.4430 C.3   1 <1>   0.2090 
 10 C        2.9050    -1.6490    -0.8080 C.ar  1 <1>  -0.1500 
 11 C       -2.6190    -3.3170    -0.8330 C.3   1 <1>  -0.1600 
 12 C       -1.3850    -5.4770    -0.3600 C.3   1 <1>  -0.1600 
 13 C       -2.7560    -4.7750    -0.3560 C.3   1 <1>   0.4230 
 14 N       -3.7170    -5.5390    -1.2270 N.4   1 <1>  -0.9590 
 15 C       -3.9660    -6.9240    -0.6630 C.3   1 <1>   0.3430 
 16 C       -5.0140    -4.8320    -1.4890 C.3   1 <1>   0.3430 
 17 C       -5.3360    -7.1000    -0.0310 C.3   1 <1>  -0.1860 
 18 C       -5.8540    -4.6450    -0.2160 C.3   1 <1>  -0.1600 
 19 C       -5.1820    -8.2930     0.8570 C.2   1 <1>   0.9060 
 20 C       -5.7990    -5.8540     0.7240 C.3   1 <1>   0.2000 
 21 O       -5.6060    -9.3670     0.4470 O.co2 1 <1>  -0.9000 
 22 O       -4.5370    -8.1550     1.9010 O.co2 1 <1>  -0.9000 
 23 O       -4.8880    -5.5770     1.7210 O.3   1 <1>  -0.6800 
 24 H        2.7060    -1.0330     2.5030 H     1 <1>   0.1500 
 25 H        1.4470    -2.7280    -1.9380 H     1 <1>   0.1500 
 26 H        4.1850    -0.6190     0.5620 H     1 <1>   0.1500 
 27 H       -1.8610    -2.5100     1.0130 H     1 <1>   0.0800 
 28 H       -1.4310    -1.5760    -0.4030 H     1 <1>   0.0800 
 29 H        0.6050    -5.1500     0.3820 H     1 <1>   0.0800 
 30 H       -0.6560    -4.6300     1.4790 H     1 <1>   0.0800 
 31 H        3.5430    -1.4730    -1.6570 H     1 <1>   0.1500 
 32 H       -2.3320    -3.2850    -1.8690 H     1 <1>   0.0800 
 33 H       -3.5410    -2.7840    -0.7050 H     1 <1>   0.0800 
 34 H       -1.4410    -6.4500     0.0880 H     1 <1>   0.0800 
 35 H       -1.0180    -5.5790    -1.3650 H     1 <1>   0.0800 
 36 H       -3.1220    -4.7580     0.6570 H     1 <1>   0.0800 
 37 H       -3.2360    -5.6640    -2.1230 H     1 <1>   0.4500 
 38 H       -3.8510    -7.6680    -1.4340 H     1 <1>   0.0800 
 39 H       -3.2390    -7.1420     0.1010 H     1 <1>   0.0800 
 40 H       -4.8390    -3.8760    -1.9550 H     1 <1>   0.0800 
 41 H       -5.5880    -5.4260    -2.1820 H     1 <1>   0.0800 
 42 H       -6.0550    -7.3530    -0.7860 H     1 <1>   0.0800 
 43 H       -6.8740    -4.5050    -0.5250 H     1 <1>   0.0800 
 44 H       -5.5630    -3.7520     0.3080 H     1 <1>   0.0800 
 45 H       -6.7520    -6.0270     1.1980 H     1 <1>   0.0800 
 46 H       -4.6720    -6.4580     2.1560 H     1 <1>   0.4000 
@<TRIPOS>BOND
  1   1   2  1   
  2   2   3  ar  
  3   2   4  ar  
  4   3   5  1   
  5   3   6  ar  
  6   4   7  ar  
  7   4  24  1   
  8   5   8  1   
  9   5   9  1   
 10   6  10  ar  
 11   6  25  1   
 12   7  10  ar  
 13   7  26  1   
 14   8  11  1   
 15   8  27  1   
 16   8  28  1   
 17   9  12  1   
 18   9  29  1   
 19   9  30  1   
 20  10  31  1   
 21  11  13  1   
 22  11  32  1   
 23  11  33  1   
 24  12  13  1   
 25  12  34  1   
 26  12  35  1   
 27  13  14  1   
 28  13  36  1   
 29  14  15  1   
 30  14  16  1   
 31  14  37  1   
 32  15  17  1   
 33  15  38  1   
 34  15  39  1   
 35  16  18  1   
 36  16  40  1   
 37  16  41  1   
 38  17  19  1   
 39  17  20  1   
 40  17  42  1   
 41  18  20  1   
 42  18  43  1   
 43  18  44  1   
 44  19  21  ar  
 45  19  22  ar  
 46  20  23  1   
 47  20  45  1   
 48  23  46  1   
@<TRIPOS>SUBSTRUCTURE
  1 ****  13 GROUP 4 **** **** 0

# MOE 2024.06 (io_trps.svl 2023.06)
