@<TRIPOS>MOLECULE
NONAME
56 58 1 0 0 
SMALL
USER_CHARGES


@<TRIPOS>ATOM
  1 O       -0.3990    -1.1440     1.4330 O.2   1 <1>  -0.5700 
  2 C       -1.0320    -0.2050     0.9940 C.2   1 <1>   0.5690 
  3 N       -2.3810    -0.3630     0.7600 N.am  1 <1>  -0.6600 
  4 C       -0.2840     1.1520     0.7740 C.3   1 <1>   0.3410 
  5 C       -3.3340     0.6460     0.2460 C.3   1 <1>   0.1400 
  6 C       -3.0740    -1.6470     0.9970 C.3   1 <1>   0.1400 
  7 O       -0.7840     1.7830    -0.4120 O.3   1 <1>  -0.3630 
  8 C        1.2310     0.9380     0.5760 C.3   1 <1>  -0.2400 
  9 C       -0.5060     2.0610     1.9990 C.3   1 <1>  -0.2400 
 10 C       -4.7180     0.1240     0.6480 C.3   1 <1>  -0.0800 
 11 C       -4.5520    -1.4070     0.6660 C.3   1 <1>  -0.0800 
 12 C       -0.4860     3.0620    -0.7390 C.ar  1 <1>   0.0820 
 13 C       -5.9220     0.6520    -0.1930 C.3   1 <1>   0.2800 
 14 C       -4.9610    -2.0210    -0.6810 C.3   1 <1>  -0.1600 
 15 C        0.6150     3.3380    -1.5340 C.ar  1 <1>  -0.1500 
 16 C       -1.3140     4.0930    -0.3230 C.ar  1 <1>  -0.1500 
 17 O       -5.5080     0.9800    -1.4690 O.3   1 <1>  -0.6800 
 18 C       -6.9820    -0.4540    -0.3480 C.3   1 <1>  -0.1600 
 19 C       -6.5640     1.9210     0.4120 C.3   1 <1>  -0.1600 
 20 C       -6.4400    -1.7420    -1.0070 C.3   1 <1>  -0.1600 
 21 C        0.9070     4.6460    -1.8800 C.ar  1 <1>  -0.1500 
 22 C       -1.0200     5.3990    -0.6710 C.ar  1 <1>  -0.1500 
 23 C       -5.6320     3.1370     0.5530 C.3   1 <1>  -0.2400 
 24 C        0.0950     5.6830    -1.4460 C.ar  1 <1>  -0.1440 
 25 C        0.4160     7.1160    -1.8280 C.3   1 <1>  -0.0970 
 26 H       -3.1450     1.6160     0.6630 H     1 <1>   0.0800 
 27 H       -3.2220     0.6920    -0.8230 H     1 <1>   0.0800 
 28 H       -2.6450    -2.4190     0.3800 H     1 <1>   0.0800 
 29 H       -2.9590    -1.9200     2.0320 H     1 <1>   0.0800 
 30 H        1.6430     0.4210     1.4230 H     1 <1>   0.0800 
 31 H        1.7470     1.8750     0.4830 H     1 <1>   0.0800 
 32 H        1.4030     0.3370    -0.2990 H     1 <1>   0.0800 
 33 H       -0.1660     1.5520     2.8840 H     1 <1>   0.0800 
 34 H       -1.5490     2.2810     2.1250 H     1 <1>   0.0800 
 35 H        0.0490     2.9770     1.9110 H     1 <1>   0.0800 
 36 H       -4.8770     0.4160     1.6700 H     1 <1>   0.0800 
 37 H       -5.1620    -1.8440     1.4380 H     1 <1>   0.0800 
 38 H       -4.3460    -1.5920    -1.4560 H     1 <1>   0.0800 
 39 H       -4.7850    -3.0830    -0.6800 H     1 <1>   0.0800 
 40 H        1.2340     2.5320    -1.8810 H     1 <1>   0.1500 
 41 H       -2.1840     3.8720     0.2660 H     1 <1>   0.1500 
 42 H       -6.2790     1.2440    -2.0020 H     1 <1>   0.4000 
 43 H       -7.3400    -0.7060     0.6350 H     1 <1>   0.0800 
 44 H       -7.8290    -0.0920    -0.9030 H     1 <1>   0.0800 
 45 H       -7.4060     2.2050    -0.1940 H     1 <1>   0.0800 
 46 H       -6.9510     1.6800     1.3860 H     1 <1>   0.0800 
 47 H       -7.0430    -2.5730    -0.6850 H     1 <1>   0.0800 
 48 H       -6.5410    -1.6660    -2.0760 H     1 <1>   0.0800 
 49 H        1.7670     4.8530    -2.4930 H     1 <1>   0.1500 
 50 H       -1.6650     6.1940    -0.3400 H     1 <1>   0.1500 
 51 H       -5.1640     3.3730    -0.3880 H     1 <1>   0.0800 
 52 H       -4.8670     2.9510     1.2850 H     1 <1>   0.0800 
 53 H       -6.1970     3.9940     0.8730 H     1 <1>   0.0800 
 54 H        1.4780     7.2510    -1.9250 H     1 <1>   0.0800 
 55 H        0.0560     7.7960    -1.0770 H     1 <1>   0.0800 
 56 H       -0.0510     7.3550    -2.7660 H     1 <1>   0.0800 
@<TRIPOS>BOND
  1   1   2  2   
  2   2   3  am  
  3   2   4  1   
  4   3   5  1   
  5   3   6  1   
  6   4   7  1   
  7   4   8  1   
  8   4   9  1   
  9   5  10  1   
 10   5  26  1   
 11   5  27  1   
 12   6  11  1   
 13   6  28  1   
 14   6  29  1   
 15   7  12  1   
 16   8  30  1   
 17   8  31  1   
 18   8  32  1   
 19   9  33  1   
 20   9  34  1   
 21   9  35  1   
 22  10  11  1   
 23  10  13  1   
 24  10  36  1   
 25  11  14  1   
 26  11  37  1   
 27  12  15  ar  
 28  12  16  ar  
 29  13  17  1   
 30  13  18  1   
 31  13  19  1   
 32  14  20  1   
 33  14  38  1   
 34  14  39  1   
 35  15  21  ar  
 36  15  40  1   
 37  16  22  ar  
 38  16  41  1   
 39  17  42  1   
 40  18  20  1   
 41  18  43  1   
 42  18  44  1   
 43  19  23  1   
 44  19  45  1   
 45  19  46  1   
 46  20  47  1   
 47  20  48  1   
 48  21  24  ar  
 49  21  49  1   
 50  22  24  ar  
 51  22  50  1   
 52  23  51  1   
 53  23  52  1   
 54  23  53  1   
 55  24  25  1   
 56  25  54  1   
 57  25  55  1   
 58  25  56  1   
@<TRIPOS>SUBSTRUCTURE
  1 ****   5 GROUP 4 **** **** 0

# MOE 2024.06 (io_trps.svl 2023.06)
