@<TRIPOS>MOLECULE
NONAME
48 50 1 0 0 
SMALL
USER_CHARGES


@<TRIPOS>ATOM
  1 O        3.1050    -1.4990     1.9330 O.2   1 <1>  -0.5700 
  2 C        2.2210    -1.8140     1.1520 C.2   1 <1>   0.5440 
  3 N        1.6410    -0.7960     0.4140 N.am  1 <1>  -0.6600 
  4 C        1.8640    -3.2300     1.0270 C.ar  1 <1>   0.3960 
  5 C        0.6530    -0.9630    -0.6770 C.3   1 <1>   0.1400 
  6 C        2.0900     0.6120     0.5030 C.3   1 <1>   0.1400 
  7 N        0.6090    -3.6140     0.7270 N.ar  1 <1>  -0.6200 
  8 C        2.8770    -4.1720     1.2430 C.ar  1 <1>   0.1600 
  9 C        0.4030     0.4440    -1.2110 C.3   1 <1>  -0.1600 
 10 C        1.6370     1.2440    -0.8070 C.3   1 <1>  -0.1600 
 11 C        0.4570    -4.9180     0.6570 C.ar  1 <1>   0.4100 
 12 N        2.7420    -5.4900     1.1620 N.ar  1 <1>  -0.6200 
 13 N       -0.8280    -5.2940     0.3630 N.pl3 1 <1>  -0.8690 
 14 C        1.5070    -5.8260     0.8570 C.ar  1 <1>   0.1600 
 15 C       -1.5540    -6.2560     1.2100 C.3   1 <1>   0.2090 
 16 C       -2.4350    -7.1090     0.3000 C.3   1 <1>  -0.1600 
 17 C       -3.1610    -8.2010     1.0860 C.3   1 <1>   0.3540 
 18 N       -4.0610    -8.9560     0.1800 N.pl3 1 <1>  -0.4570 
 19 N       -5.3330    -8.5320    -0.0360 N.2   1 <1>  -0.2600 
 20 C       -3.8290   -10.0570    -0.5110 C.cat 1 <1>   0.6560 
 21 C       -5.8230    -9.3960    -0.8520 C.2   1 <1>   0.4850 
 22 N       -4.9220   -10.3570    -1.1680 N.pl3 1 <1>  -0.7000 
 23 C       -2.5410   -10.8490    -0.5540 C.3   1 <1>  -0.0960 
 24 C       -7.2270    -9.3810    -1.4140 C.3   1 <1>  -0.0720 
 25 H       -0.2600    -1.3980    -0.3060 H     1 <1>   0.0800 
 26 H        1.0720    -1.5920    -1.4440 H     1 <1>   0.0800 
 27 H        3.1590     0.6740     0.6250 H     1 <1>   0.0800 
 28 H        1.6030     1.0800     1.3410 H     1 <1>   0.0800 
 29 H        3.8580    -3.8060     1.4930 H     1 <1>   0.1500 
 30 H       -0.4680     0.8500    -0.7260 H     1 <1>   0.0800 
 31 H        0.2430     0.4450    -2.2740 H     1 <1>   0.0800 
 32 H        2.4140     1.1170    -1.5410 H     1 <1>   0.0800 
 33 H        1.4300     2.2930    -0.6920 H     1 <1>   0.0800 
 34 H       -1.3830    -4.4570     0.1530 H     1 <1>   0.4000 
 35 H        1.2920    -6.8720     0.7500 H     1 <1>   0.1500 
 36 H       -2.1570    -5.7150     1.9230 H     1 <1>   0.0800 
 37 H       -0.8570    -6.8740     1.7510 H     1 <1>   0.0800 
 38 H       -1.8180    -7.5610    -0.4560 H     1 <1>   0.0800 
 39 H       -3.1610    -6.4720    -0.1740 H     1 <1>   0.0800 
 40 H       -3.7520    -7.7590     1.8710 H     1 <1>   0.0800 
 41 H       -2.4500    -8.8730     1.5370 H     1 <1>   0.0800 
 42 H       -5.0860   -11.1450    -1.7950 H     1 <1>   0.4500 
 43 H       -1.7310   -10.2140    -0.8660 H     1 <1>   0.0800 
 44 H       -2.6260   -11.6630    -1.2500 H     1 <1>   0.0800 
 45 H       -2.3240   -11.2480     0.4190 H     1 <1>   0.0800 
 46 H       -7.7670    -8.5350    -1.0300 H     1 <1>   0.0800 
 47 H       -7.7460   -10.2780    -1.1310 H     1 <1>   0.0800 
 48 H       -7.1930    -9.3120    -2.4860 H     1 <1>   0.0800 
@<TRIPOS>BOND
  1   1   2  2   
  2   2   3  am  
  3   2   4  1   
  4   3   5  1   
  5   3   6  1   
  6   4   7  ar  
  7   4   8  ar  
  8   5   9  1   
  9   5  25  1   
 10   5  26  1   
 11   6  10  1   
 12   6  27  1   
 13   6  28  1   
 14   7  11  ar  
 15   8  12  ar  
 16   8  29  1   
 17   9  10  1   
 18   9  30  1   
 19   9  31  1   
 20  10  32  1   
 21  10  33  1   
 22  11  13  1   
 23  11  14  ar  
 24  12  14  ar  
 25  13  15  1   
 26  13  34  1   
 27  14  35  1   
 28  15  16  1   
 29  15  36  1   
 30  15  37  1   
 31  16  17  1   
 32  16  38  1   
 33  16  39  1   
 34  17  18  1   
 35  17  40  1   
 36  17  41  1   
 37  18  19  1   
 38  18  20  ar  
 39  19  21  2   
 40  20  22  ar  
 41  20  23  1   
 42  21  22  1   
 43  21  24  1   
 44  22  42  1   
 45  23  43  1   
 46  23  44  1   
 47  23  45  1   
 48  24  46  1   
 49  24  47  1   
 50  24  48  1   
@<TRIPOS>SUBSTRUCTURE
  1 ****  13 GROUP 4 **** **** 0

# MOE 2024.06 (io_trps.svl 2023.06)
