@<TRIPOS>MOLECULE
NONAME
41 43 1 0 0 
SMALL
USER_CHARGES


@<TRIPOS>ATOM
  1 S       -1.1150    -0.7350    -1.6350 S.3   1 <1>  -0.0800 
  2 C       -2.0160     0.6850    -1.1510 C.2   1 <1>   0.1980 
  3 C       -1.7280    -1.5630    -0.2350 C.2   1 <1>  -0.1100 
  4 N       -2.6890     0.5420    -0.0820 N.2   1 <1>  -0.5650 
  5 C       -1.9070     1.9090    -2.0300 C.3   1 <1>  -0.0600 
  6 C       -2.5310    -0.7290     0.4470 C.2   1 <1>   0.0460 
  7 C       -3.2830    -1.0400     1.7290 C.3   1 <1>   0.0820 
  8 C       -3.6340    -2.5140     1.8360 C.2   1 <1>   0.5690 
  9 O       -3.0730    -3.1790     2.6740 O.2   1 <1>  -0.5700 
 10 N       -4.5630    -3.0700     0.9970 N.am  1 <1>  -0.6600 
 11 C       -5.2580    -2.3910    -0.1290 C.3   1 <1>   0.1400 
 12 C       -4.8980    -4.5150     1.0170 C.3   1 <1>   0.1400 
 13 C       -6.3470    -3.3760    -0.5500 C.3   1 <1>   0.2000 
 14 C       -5.7310    -4.7470    -0.2500 C.3   1 <1>  -0.0800 
 15 O       -7.4490    -3.1740     0.2680 O.3   1 <1>  -0.6800 
 16 C       -6.7440    -5.9010    -0.1290 C.3   1 <1>   0.0200 
 17 C       -6.0840    -7.2620     0.0250 C.2   1 <1>  -0.0400 
 18 O       -6.8400    -8.2970     0.2780 O.3   1 <1>  -0.0190 
 19 C       -4.8140    -7.6930    -0.0450 C.2   1 <1>  -0.1500 
 20 N       -6.1460    -9.3930     0.3850 N.2   1 <1>  -0.4100 
 21 C       -4.9210    -9.0590     0.1950 C.2   1 <1>   0.1080 
 22 C       -3.7600   -10.0280     0.2310 C.3   1 <1>  -0.0590 
 23 H       -1.4220    -2.5800    -0.0710 H     1 <1>   0.1500 
 24 H       -2.5050     2.7030    -1.6210 H     1 <1>   0.0800 
 25 H       -2.2560     1.6800    -3.0190 H     1 <1>   0.0800 
 26 H       -0.8830     2.2320    -2.0790 H     1 <1>   0.0800 
 27 H       -4.1910    -0.4690     1.7630 H     1 <1>   0.0800 
 28 H       -2.6800    -0.7480     2.5680 H     1 <1>   0.0800 
 29 H       -5.6700    -1.4390     0.1590 H     1 <1>   0.0800 
 30 H       -4.5610    -2.2500    -0.9380 H     1 <1>   0.0800 
 31 H       -4.0020    -5.1110     1.0240 H     1 <1>   0.0800 
 32 H       -5.4720    -4.7290     1.9030 H     1 <1>   0.0800 
 33 H       -6.6540    -3.2560    -1.5750 H     1 <1>   0.0800 
 34 H       -5.0510    -4.9750    -1.0520 H     1 <1>   0.0800 
 35 H       -7.1500    -3.1270     1.1980 H     1 <1>   0.4000 
 36 H       -7.3670    -5.9240    -1.0060 H     1 <1>   0.0800 
 37 H       -7.3860    -5.7390     0.7190 H     1 <1>   0.0800 
 38 H       -3.9030    -7.1580    -0.2380 H     1 <1>   0.1500 
 39 H       -3.2400   -10.0100    -0.7090 H     1 <1>   0.0800 
 40 H       -4.1200   -11.0250     0.4110 H     1 <1>   0.0800 
 41 H       -3.0820    -9.7560     1.0190 H     1 <1>   0.0800 
@<TRIPOS>BOND
  1   1   2  1   
  2   1   3  1   
  3   2   4  2   
  4   2   5  1   
  5   3   6  2   
  6   3  23  1   
  7   4   6  1   
  8   5  24  1   
  9   5  25  1   
 10   5  26  1   
 11   6   7  1   
 12   7   8  1   
 13   7  27  1   
 14   7  28  1   
 15   8   9  2   
 16   8  10  am  
 17  10  11  1   
 18  10  12  1   
 19  11  13  1   
 20  11  29  1   
 21  11  30  1   
 22  12  14  1   
 23  12  31  1   
 24  12  32  1   
 25  13  14  1   
 26  13  15  1   
 27  13  33  1   
 28  14  16  1   
 29  14  34  1   
 30  15  35  1   
 31  16  17  1   
 32  16  36  1   
 33  16  37  1   
 34  17  18  1   
 35  17  19  2   
 36  18  20  1   
 37  19  21  1   
 38  19  38  1   
 39  20  21  2   
 40  21  22  1   
 41  22  39  1   
 42  22  40  1   
 43  22  41  1   
@<TRIPOS>SUBSTRUCTURE
  1 ****  10 GROUP 4 **** **** 0

# MOE 2024.06 (io_trps.svl 2023.06)
