@<TRIPOS>MOLECULE
NONAME
45 47 1 0 0 
SMALL
USER_CHARGES


@<TRIPOS>ATOM
  1 O       -0.6590     0.2100    -1.3050 O.2   1 <1>  -0.5700 
  2 C       -1.5790     0.8260    -0.7960 C.2   1 <1>   0.5440 
  3 N       -2.7420     0.1690    -0.4960 N.am  1 <1>  -0.6600 
  4 C       -1.4100     2.2370    -0.5150 C.ar  1 <1>   0.0860 
  5 C       -3.8400     0.6960     0.3640 C.3   1 <1>   0.2350 
  6 C       -2.9490    -1.2870    -0.7400 C.3   1 <1>   0.2350 
  7 C       -0.3700     2.6700     0.3060 C.ar  1 <1>  -0.1500 
  8 C       -2.2570     3.2020    -1.0600 C.ar  1 <1>  -0.1500 
  9 C       -4.9740    -0.3030     0.2270 C.3   1 <1>  -0.2420 
 10 C       -4.4200    -1.5360    -0.4480 C.3   1 <1>  -0.2420 
 11 C       -0.1730     4.0170     0.5850 C.ar  1 <1>   0.0820 
 12 C       -2.0770     4.5470    -0.7950 C.ar  1 <1>  -0.1500 
 13 C       -5.9890    -0.1120     1.3570 C.2   1 <1>   0.9470 
 14 C       -5.4790    -0.7120    -1.1340 C.3   1 <1>  -0.2000 
 15 C       -4.6820    -3.0230    -0.1940 C.2   1 <1>   0.9470 
 16 O        0.8350     4.4660     1.3860 O.3   1 <1>  -0.3630 
 17 C       -1.0340     4.9600     0.0190 C.ar  1 <1>   0.0820 
 18 O       -7.1680     0.1470     1.0800 O.co2 1 <1>  -0.9000 
 19 O       -5.5780    -0.0400     2.5230 O.co2 1 <1>  -0.9000 
 20 O       -5.4660    -3.6390    -0.9300 O.co2 1 <1>  -0.9000 
 21 O       -3.9880    -3.6200     0.6410 O.co2 1 <1>  -0.9000 
 22 C        1.6900     3.5710     2.0610 C.3   1 <1>   0.0400 
 23 O       -0.8720     6.2790     0.2730 O.3   1 <1>  -0.3630 
 24 C       -0.4390     7.1100    -0.7790 C.3   1 <1>   0.2000 
 25 C        1.0780     6.9750    -0.9170 C.3   1 <1>  -0.2400 
 26 C       -0.8430     8.5390    -0.4250 C.3   1 <1>  -0.2400 
 27 H       -3.5030     0.7350     1.3860 H     1 <1>   0.0800 
 28 H       -4.1650     1.6700     0.0500 H     1 <1>   0.0800 
 29 H       -2.7070    -1.5460    -1.7550 H     1 <1>   0.0800 
 30 H       -2.3310    -1.8520    -0.0640 H     1 <1>   0.0800 
 31 H        0.2750     1.9140     0.7110 H     1 <1>   0.1500 
 32 H       -3.0640     2.8810    -1.6960 H     1 <1>   0.1500 
 33 H       -2.7470     5.2770    -1.2120 H     1 <1>   0.1500 
 34 H       -5.2200    -0.1300    -1.9970 H     1 <1>   0.1000 
 35 H       -6.4710    -1.1290    -1.1980 H     1 <1>   0.1000 
 36 H        2.3730     4.1490     2.6570 H     1 <1>   0.0800 
 37 H        2.2360     2.9950     1.3350 H     1 <1>   0.0800 
 38 H        1.0990     2.9350     2.6960 H     1 <1>   0.0800 
 39 H       -0.9280     6.8060    -1.6880 H     1 <1>   0.0800 
 40 H        1.5590     7.2220     0.0130 H     1 <1>   0.0800 
 41 H        1.4400     7.6380    -1.6820 H     1 <1>   0.0800 
 42 H        1.3370     5.9690    -1.1920 H     1 <1>   0.0800 
 43 H       -0.3770     8.8400     0.4970 H     1 <1>   0.0800 
 44 H       -1.9110     8.6010    -0.3200 H     1 <1>   0.0800 
 45 H       -0.5360     9.2130    -1.2030 H     1 <1>   0.0800 
@<TRIPOS>BOND
  1   1   2  2   
  2   2   3  am  
  3   2   4  1   
  4   3   5  1   
  5   3   6  1   
  6   4   7  ar  
  7   4   8  ar  
  8   5   9  1   
  9   5  27  1   
 10   5  28  1   
 11   6  10  1   
 12   6  29  1   
 13   6  30  1   
 14   7  11  ar  
 15   7  31  1   
 16   8  12  ar  
 17   8  32  1   
 18   9  10  1   
 19   9  13  1   
 20   9  14  1   
 21  10  14  1   
 22  10  15  1   
 23  11  16  1   
 24  11  17  ar  
 25  12  17  ar  
 26  12  33  1   
 27  13  18  ar  
 28  13  19  ar  
 29  14  34  1   
 30  14  35  1   
 31  15  20  ar  
 32  15  21  ar  
 33  16  22  1   
 34  17  23  1   
 35  22  36  1   
 36  22  37  1   
 37  22  38  1   
 38  23  24  1   
 39  24  25  1   
 40  24  26  1   
 41  24  39  1   
 42  25  40  1   
 43  25  41  1   
 44  25  42  1   
 45  26  43  1   
 46  26  44  1   
 47  26  45  1   
@<TRIPOS>SUBSTRUCTURE
  1 ****   4 GROUP 4 **** **** 0

# MOE 2024.06 (io_trps.svl 2023.06)
