@<TRIPOS>MOLECULE
NONAME
42 43 1 0 0 
SMALL
USER_CHARGES


@<TRIPOS>ATOM
  1 F       -3.9390    -0.5930     1.6700 F     1 <1>  -0.1900 
  2 C       -3.3780    -1.2150     0.6660 C.ar  1 <1>   0.1900 
  3 C       -3.7290    -2.5290     0.3830 C.ar  1 <1>  -0.1440 
  4 C       -2.4480    -0.5080    -0.0710 C.ar  1 <1>  -0.1500 
  5 C       -3.1040    -3.1540    -0.6990 C.ar  1 <1>   0.1170 
  6 C       -4.7630    -3.2780     1.2270 C.3   1 <1>  -0.0970 
  7 C       -1.8370    -1.1340    -1.1410 C.ar  1 <1>  -0.1500 
  8 N       -3.4430    -4.4790    -1.0120 N.am  1 <1>  -0.5470 
  9 C       -2.1670    -2.4430    -1.4470 C.ar  1 <1>  -0.1500 
 10 C       -2.8670    -5.4540    -1.7740 C.2   1 <1>   0.5690 
 11 O       -1.8520    -5.3190    -2.4140 O.2   1 <1>  -0.5700 
 12 C       -3.5870    -6.8040    -1.7800 C.3   1 <1>   0.1710 
 13 N       -4.4350    -7.0300    -0.5670 N.3   1 <1>  -0.8100 
 14 C       -5.4130    -8.1070    -0.7920 C.3   1 <1>   0.1100 
 15 C       -3.5970    -7.3150     0.6180 C.3   1 <1>   0.1100 
 16 C       -6.4770    -8.1170     0.3270 C.3   1 <1>  -0.0800 
 17 C       -4.4310    -7.8010     1.8150 C.3   1 <1>  -0.1600 
 18 C       -5.9160    -7.4930     1.6260 C.3   1 <1>   0.2000 
 19 C       -7.0350    -9.5390     0.5160 C.3   1 <1>   0.1200 
 20 O       -6.6020    -7.9330     2.7440 O.3   1 <1>  -0.6800 
 21 O       -7.4920   -10.0310    -0.6970 O.3   1 <1>  -0.6800 
 22 H       -2.2110     0.5080     0.1890 H     1 <1>   0.1500 
 23 H       -4.3250    -4.1690     1.6410 H     1 <1>   0.0800 
 24 H       -5.6050    -3.5520     0.6180 H     1 <1>   0.0800 
 25 H       -5.1250    -2.6800     2.0430 H     1 <1>   0.0800 
 26 H       -1.1080    -0.6090    -1.7340 H     1 <1>   0.1500 
 27 H       -4.2460    -4.8590    -0.5010 H     1 <1>   0.3700 
 28 H       -1.6850    -2.9120    -2.2850 H     1 <1>   0.1500 
 29 H       -2.8600    -7.5910    -1.8780 H     1 <1>   0.0800 
 30 H       -4.2080    -6.8210    -2.6580 H     1 <1>   0.0800 
 31 H       -5.9080    -7.9720    -1.7390 H     1 <1>   0.0800 
 32 H       -4.8960    -9.0530    -0.8230 H     1 <1>   0.0800 
 33 H       -2.8600    -8.0650     0.3790 H     1 <1>   0.0800 
 34 H       -3.0700    -6.4180     0.8980 H     1 <1>   0.0800 
 35 H       -7.2890    -7.4850     0.0130 H     1 <1>   0.0800 
 36 H       -4.0660    -7.3280     2.7100 H     1 <1>   0.0800 
 37 H       -4.2920    -8.8620     1.9160 H     1 <1>   0.0800 
 38 H       -6.0440    -6.4240     1.5790 H     1 <1>   0.0800 
 39 H       -7.8590    -9.5480     1.2100 H     1 <1>   0.0800 
 40 H       -6.2660   -10.2040     0.8690 H     1 <1>   0.0800 
 41 H       -6.3280    -8.8410     2.9740 H     1 <1>   0.4000 
 42 H       -8.2990    -9.5560    -0.9770 H     1 <1>   0.4000 
@<TRIPOS>BOND
  1   1   2  1   
  2   2   3  ar  
  3   2   4  ar  
  4   3   5  ar  
  5   3   6  1   
  6   4   7  ar  
  7   4  22  1   
  8   5   8  1   
  9   5   9  ar  
 10   6  23  1   
 11   6  24  1   
 12   6  25  1   
 13   7   9  ar  
 14   7  26  1   
 15   8  10  am  
 16   8  27  1   
 17   9  28  1   
 18  10  11  2   
 19  10  12  1   
 20  12  13  1   
 21  12  29  1   
 22  12  30  1   
 23  13  14  1   
 24  13  15  1   
 25  14  16  1   
 26  14  31  1   
 27  14  32  1   
 28  15  17  1   
 29  15  33  1   
 30  15  34  1   
 31  16  18  1   
 32  16  19  1   
 33  16  35  1   
 34  17  18  1   
 35  17  36  1   
 36  17  37  1   
 37  18  20  1   
 38  18  38  1   
 39  19  21  1   
 40  19  39  1   
 41  19  40  1   
 42  20  41  1   
 43  21  42  1   
@<TRIPOS>SUBSTRUCTURE
  1 ****   8 GROUP 4 **** **** 0

# MOE 2024.06 (io_trps.svl 2023.06)
