@<TRIPOS>MOLECULE
NONAME
50 52 1 0 0 
SMALL
USER_CHARGES


@<TRIPOS>ATOM
  1 F       -3.7220    -0.3610     1.6230 F     1 <1>  -0.1900 
  2 C       -3.0690    -1.0110     0.6940 C.ar  1 <1>   0.1900 
  3 C       -2.3830    -0.3430    -0.3260 C.ar  1 <1>   0.0820 
  4 C       -3.0970    -2.3920     0.7770 C.ar  1 <1>  -0.1500 
  5 O       -2.2900     1.0030    -0.5160 O.3   1 <1>  -0.3630 
  6 C       -1.7160    -1.1190    -1.2620 C.ar  1 <1>  -0.1500 
  7 C       -2.4240    -3.1500    -0.1730 C.ar  1 <1>  -0.1430 
  8 C       -2.9010     1.9440     0.3390 C.3   1 <1>   0.0400 
  9 C       -1.7330    -2.5030    -1.1890 C.ar  1 <1>  -0.1500 
 10 C       -2.4420    -4.6680    -0.1150 C.3   1 <1>   0.4870 
 11 N       -3.8370    -5.1640    -0.2300 N.4   1 <1>  -0.9590 
 12 C       -3.9960    -6.6590    -0.0770 C.3   1 <1>   0.3430 
 13 C       -4.6370    -4.5850    -1.3430 C.3   1 <1>   0.3430 
 14 C       -5.4450    -7.1860    -0.3820 C.3   1 <1>   0.4230 
 15 C       -6.1330    -4.8970    -1.1340 C.3   1 <1>  -0.1600 
 16 N       -5.8370    -8.4150     0.4030 N.4   1 <1>  -0.9590 
 17 C       -6.4560    -6.0510    -0.1270 C.3   1 <1>  -0.1060 
 18 C       -7.1880    -8.9220     0.0390 C.3   1 <1>   0.3430 
 19 C       -4.8400    -9.5220     0.4740 C.3   1 <1>   0.2630 
 20 C       -6.2020    -5.6310     1.3360 C.2   1 <1>   0.9060 
 21 C       -7.9160    -6.5180    -0.3690 C.3   1 <1>  -0.1600 
 22 C       -8.2370    -7.8480     0.3270 C.3   1 <1>  -0.1600 
 23 O       -5.7180    -4.5190     1.5560 O.co2 1 <1>  -0.9000 
 24 O       -6.1810    -6.5120     2.2000 O.co2 1 <1>  -0.9000 
 25 H       -3.6500    -2.8490     1.5830 H     1 <1>   0.1500 
 26 H       -1.1780    -0.6240    -2.0520 H     1 <1>   0.1500 
 27 H       -2.6780     2.9270    -0.0320 H     1 <1>   0.0800 
 28 H       -2.5010     1.8290     1.3310 H     1 <1>   0.0800 
 29 H       -3.9650     1.7860     0.3320 H     1 <1>   0.0800 
 30 H       -1.1970    -3.0630    -1.9370 H     1 <1>   0.1500 
 31 H       -2.0180    -4.9880     0.8230 H     1 <1>   0.0800 
 32 H       -1.8420    -5.0660    -0.9160 H     1 <1>   0.0800 
 33 H       -4.3240    -4.7460     0.6110 H     1 <1>   0.4500 
 34 H       -3.3010    -7.1640    -0.7240 H     1 <1>   0.0800 
 35 H       -3.7610    -6.9120     0.9450 H     1 <1>   0.0800 
 36 H       -4.5090    -3.5140    -1.3780 H     1 <1>   0.0800 
 37 H       -4.3010    -4.9940    -2.2820 H     1 <1>   0.0800 
 38 H       -5.4870    -7.4350    -1.4290 H     1 <1>   0.0800 
 39 H       -6.6200    -3.9970    -0.7960 H     1 <1>   0.0800 
 40 H       -6.5490    -5.1120    -2.1030 H     1 <1>   0.0800 
 41 H       -5.9710    -8.0140     1.3750 H     1 <1>   0.4500 
 42 H       -7.2140    -9.1870    -1.0050 H     1 <1>   0.0800 
 43 H       -7.4200    -9.8000     0.6210 H     1 <1>   0.0800 
 44 H       -4.6580    -9.9290    -0.5070 H     1 <1>   0.0800 
 45 H       -5.2120   -10.3090     1.1110 H     1 <1>   0.0800 
 46 H       -3.9110    -9.1680     0.8900 H     1 <1>   0.0800 
 47 H       -8.5970    -5.7600    -0.0180 H     1 <1>   0.0800 
 48 H       -8.0910    -6.6450    -1.4240 H     1 <1>   0.0800 
 49 H       -9.1990    -8.1990    -0.0020 H     1 <1>   0.0800 
 50 H       -8.3070    -7.6990     1.3910 H     1 <1>   0.0800 
@<TRIPOS>BOND
  1   1   2  1   
  2   2   3  ar  
  3   2   4  ar  
  4   3   5  1   
  5   3   6  ar  
  6   4   7  ar  
  7   4  25  1   
  8   5   8  1   
  9   6   9  ar  
 10   6  26  1   
 11   7   9  ar  
 12   7  10  1   
 13   8  27  1   
 14   8  28  1   
 15   8  29  1   
 16   9  30  1   
 17  10  11  1   
 18  10  31  1   
 19  10  32  1   
 20  11  12  1   
 21  11  13  1   
 22  11  33  1   
 23  12  14  1   
 24  12  34  1   
 25  12  35  1   
 26  13  15  1   
 27  13  36  1   
 28  13  37  1   
 29  14  16  1   
 30  14  17  1   
 31  14  38  1   
 32  15  17  1   
 33  15  39  1   
 34  15  40  1   
 35  16  18  1   
 36  16  19  1   
 37  16  41  1   
 38  17  20  1   
 39  17  21  1   
 40  18  22  1   
 41  18  42  1   
 42  18  43  1   
 43  19  44  1   
 44  19  45  1   
 45  19  46  1   
 46  20  23  ar  
 47  20  24  ar  
 48  21  22  1   
 49  21  47  1   
 50  21  48  1   
 51  22  49  1   
 52  22  50  1   
@<TRIPOS>SUBSTRUCTURE
  1 ****  11 GROUP 4 **** **** 0

# MOE 2024.06 (io_trps.svl 2023.06)
