@<TRIPOS>MOLECULE
NONAME
58 62 1 0 0 
SMALL
USER_CHARGES


@<TRIPOS>ATOM
  1 O        0.0120     0.6350     1.8060 O.2   1 <1>  -0.5700 
  2 C       -0.4030     1.4390     0.9950 C.2   1 <1>   0.5440 
  3 N       -1.6920     1.3160     0.5170 N.am  1 <1>  -0.6600 
  4 C        0.4540     2.5290     0.5900 C.ar  1 <1>   0.0860 
  5 C       -2.4030     2.3930    -0.2440 C.3   1 <1>   0.1400 
  6 C       -2.5830     0.1910     0.9210 C.3   1 <1>   0.1400 
  7 C        0.9190     3.4340     1.5360 C.ar  1 <1>   0.1600 
  8 C        0.8330     2.7400    -0.7270 C.ar  1 <1>  -0.1500 
  9 C       -3.5540     2.9860     0.5900 C.3   1 <1>   0.1440 
 10 C       -3.7500     0.7290     1.7610 C.3   1 <1>  -0.1600 
 11 N        1.6570     4.5020     1.2850 N.ar  1 <1>  -0.6200 
 12 C        1.6140     3.8380    -1.0190 C.ar  1 <1>  -0.1430 
 13 C       -4.2410     4.0450    -0.2510 C.ar  1 <1>   0.1670 
 14 C       -4.5080     1.8560     1.0360 C.3   1 <1>  -0.1600 
 15 C       -3.0260     3.8150     1.7910 C.3   1 <1>  -0.1600 
 16 C        1.9970     4.6860     0.0180 C.ar  1 <1>   0.1670 
 17 C        2.0390     4.0750    -2.4640 C.3   1 <1>  -0.0170 
 18 N       -5.0450     3.8120    -1.2580 N.ar  1 <1>  -0.6200 
 19 C       -3.8980     5.3000     0.1520 C.ar  1 <1>  -0.1430 
 20 C       -2.9420     5.2760     1.3190 C.3   1 <1>  -0.0170 
 21 C        2.8420     5.9250    -0.2450 C.3   1 <1>  -0.0170 
 22 C        2.5080     5.5130    -2.7080 C.3   1 <1>  -0.1600 
 23 C       -5.5280     4.9000    -1.8640 C.ar  1 <1>   0.7200 
 24 C       -4.4390     6.3580    -0.5330 C.ar  1 <1>   0.1600 
 25 C        3.5080     5.9350    -1.6290 C.3   1 <1>  -0.1600 
 26 N       -5.2560     6.1690    -1.5420 N.ar  1 <1>  -0.6200 
 27 N       -6.3890     4.6940    -2.9250 N.pl3 1 <1>  -0.8380 
 28 C       -7.2180     5.7940    -3.4920 C.3   1 <1>   0.1290 
 29 C       -6.5830     3.3540    -3.5440 C.3   1 <1>   0.1290 
 30 H       -2.8060     1.9700    -1.1490 H     1 <1>   0.0800 
 31 H       -1.7340     3.1840    -0.5280 H     1 <1>   0.0800 
 32 H       -2.0370    -0.5450     1.4860 H     1 <1>   0.0800 
 33 H       -2.9620    -0.2880     0.0350 H     1 <1>   0.0800 
 34 H        0.6520     3.2570     2.5640 H     1 <1>   0.1500 
 35 H        0.5150     2.0540    -1.4930 H     1 <1>   0.1500 
 36 H       -3.3620     1.0860     2.7000 H     1 <1>   0.0800 
 37 H       -4.4270    -0.0780     1.9780 H     1 <1>   0.0800 
 38 H       -4.9880     1.4440     0.1650 H     1 <1>   0.0800 
 39 H       -5.2820     2.2530     1.6700 H     1 <1>   0.0800 
 40 H       -2.0830     3.4610     2.1660 H     1 <1>   0.0800 
 41 H       -3.7410     3.7690     2.5940 H     1 <1>   0.0800 
 42 H        1.2210     3.8530    -3.1270 H     1 <1>   0.0800 
 43 H        2.8430     3.3980    -2.6940 H     1 <1>   0.0800 
 44 H       -1.9470     5.5100     0.9800 H     1 <1>   0.0800 
 45 H       -3.2360     5.9620     2.0940 H     1 <1>   0.0800 
 46 H        3.6020     6.0020     0.5120 H     1 <1>   0.0800 
 47 H        2.2020     6.7840    -0.1520 H     1 <1>   0.0800 
 48 H        1.6590     6.1750    -2.6920 H     1 <1>   0.0800 
 49 H        2.9660     5.5820    -3.6800 H     1 <1>   0.0800 
 50 H       -4.1980     7.3690    -0.2520 H     1 <1>   0.1500 
 51 H        4.3410     5.2530    -1.6260 H     1 <1>   0.0800 
 52 H        3.8850     6.9210    -1.8380 H     1 <1>   0.0800 
 53 H       -7.4540     6.5190    -2.7310 H     1 <1>   0.0800 
 54 H       -8.1400     5.4020    -3.8820 H     1 <1>   0.0800 
 55 H       -6.6740     6.2820    -4.2820 H     1 <1>   0.0800 
 56 H       -5.6880     2.7630    -3.4570 H     1 <1>   0.0800 
 57 H       -6.8170     3.4600    -4.5890 H     1 <1>   0.0800 
 58 H       -7.3900     2.8430    -3.0490 H     1 <1>   0.0800 
@<TRIPOS>BOND
  1   1   2  2   
  2   2   3  am  
  3   2   4  1   
  4   3   5  1   
  5   3   6  1   
  6   4   7  ar  
  7   4   8  ar  
  8   5   9  1   
  9   5  30  1   
 10   5  31  1   
 11   6  10  1   
 12   6  32  1   
 13   6  33  1   
 14   7  11  ar  
 15   7  34  1   
 16   8  12  ar  
 17   8  35  1   
 18   9  13  1   
 19   9  14  1   
 20   9  15  1   
 21  10  14  1   
 22  10  36  1   
 23  10  37  1   
 24  11  16  ar  
 25  12  16  ar  
 26  12  17  1   
 27  13  18  ar  
 28  13  19  ar  
 29  14  38  1   
 30  14  39  1   
 31  15  20  1   
 32  15  40  1   
 33  15  41  1   
 34  16  21  1   
 35  17  22  1   
 36  17  42  1   
 37  17  43  1   
 38  18  23  ar  
 39  19  20  1   
 40  19  24  ar  
 41  20  44  1   
 42  20  45  1   
 43  21  25  1   
 44  21  46  1   
 45  21  47  1   
 46  22  25  1   
 47  22  48  1   
 48  22  49  1   
 49  23  26  ar  
 50  23  27  1   
 51  24  26  ar  
 52  24  50  1   
 53  25  51  1   
 54  25  52  1   
 55  27  28  1   
 56  27  29  1   
 57  28  53  1   
 58  28  54  1   
 59  28  55  1   
 60  29  56  1   
 61  29  57  1   
 62  29  58  1   
@<TRIPOS>SUBSTRUCTURE
  1 ****   5 GROUP 4 **** **** 0

# MOE 2024.06 (io_trps.svl 2023.06)
