@<TRIPOS>MOLECULE
NONAME
50 52 1 0 0 
SMALL
USER_CHARGES


@<TRIPOS>ATOM
  1 S        1.3690     0.7190     1.2740 S.3   1 <1>  -0.0800 
  2 C        1.8260    -0.7130     0.3750 C.2   1 <1>  -0.0450 
  3 C        2.3310     1.6960     0.1980 C.2   1 <1>   0.1980 
  4 C        2.6540    -0.3090    -0.6160 C.2   1 <1>   0.0460 
  5 C        1.3350    -2.0040     0.7840 C.2   1 <1>   0.7150 
  6 N        2.9210     1.0400    -0.7160 N.2   1 <1>  -0.5650 
  7 C        2.3690     3.1850     0.4490 C.3   1 <1>  -0.0600 
  8 C        3.3280    -1.1990    -1.6400 C.3   1 <1>  -0.0590 
  9 O        2.1270    -2.9200     0.9120 O.2   1 <1>  -0.5700 
 10 N       -0.0070    -2.2570     1.0120 N.am  1 <1>  -0.6600 
 11 C       -1.0760    -1.4120     0.4010 C.3   1 <1>   0.2200 
 12 C       -0.4010    -3.5260     1.7020 C.3   1 <1>   0.0600 
 13 C       -1.9700    -0.7320     1.4370 C.3   1 <1>  -0.1600 
 14 C       -2.0470    -2.1860    -0.4910 C.3   1 <1>  -0.1600 
 15 C       -3.2430    -0.3710     0.6610 C.3   1 <1>  -0.0800 
 16 C       -3.2850    -1.2820    -0.5710 C.3   1 <1>  -0.0800 
 17 C       -4.5620    -0.6160     1.4080 C.3   1 <1>  -0.1600 
 18 C       -4.6380    -2.0090    -0.5100 C.3   1 <1>  -0.1600 
 19 C       -5.5450    -1.1160     0.3440 C.3   1 <1>   0.4230 
 20 N       -6.0830     0.0280    -0.4640 N.4   1 <1>  -0.9590 
 21 C       -6.8690     1.0010     0.3620 C.3   1 <1>   0.2630 
 22 C       -6.9440    -0.4240    -1.6050 C.3   1 <1>   0.2630 
 23 H        2.9980     3.6590    -0.2830 H     1 <1>   0.0800 
 24 H        2.7670     3.3780     1.4280 H     1 <1>   0.0800 
 25 H        1.3790     3.5930     0.3780 H     1 <1>   0.0800 
 26 H        3.0560    -2.2290    -1.4970 H     1 <1>   0.0800 
 27 H        4.3950    -1.1080    -1.5450 H     1 <1>   0.0800 
 28 H        3.0410    -0.8960    -2.6290 H     1 <1>   0.0800 
 29 H       -0.6330    -0.6450    -0.2110 H     1 <1>   0.0800 
 30 H       -1.3470    -3.4200     2.1980 H     1 <1>   0.0800 
 31 H        0.3400    -3.7890     2.4380 H     1 <1>   0.0800 
 32 H       -0.4630    -4.3230     0.9810 H     1 <1>   0.0800 
 33 H       -2.1920    -1.4110     2.2380 H     1 <1>   0.0800 
 34 H       -1.4980     0.1440     1.8440 H     1 <1>   0.0800 
 35 H       -1.6220    -2.3620    -1.4630 H     1 <1>   0.0800 
 36 H       -2.3040    -3.1270    -0.0420 H     1 <1>   0.0800 
 37 H       -3.1840     0.6550     0.3340 H     1 <1>   0.0800 
 38 H       -3.2260    -0.6720    -1.4580 H     1 <1>   0.0800 
 39 H       -4.8880     0.2450     1.9600 H     1 <1>   0.0800 
 40 H       -4.4290    -1.4160     2.1160 H     1 <1>   0.0800 
 41 H       -4.5220    -2.9390     0.0190 H     1 <1>   0.0800 
 42 H       -5.0190    -2.2450    -1.4850 H     1 <1>   0.0800 
 43 H       -6.3530    -1.6790     0.7840 H     1 <1>   0.0800 
 44 H       -5.2610     0.5150    -0.8490 H     1 <1>   0.4500 
 45 H       -7.6860     0.5000     0.8550 H     1 <1>   0.0800 
 46 H       -7.2710     1.7810    -0.2630 H     1 <1>   0.0800 
 47 H       -6.2450     1.4610     1.1100 H     1 <1>   0.0800 
 48 H       -7.7660    -1.0190    -1.2410 H     1 <1>   0.0800 
 49 H       -6.3760    -1.0110    -2.3060 H     1 <1>   0.0800 
 50 H       -7.3430     0.4290    -2.1300 H     1 <1>   0.0800 
@<TRIPOS>BOND
  1   1   2  1   
  2   1   3  1   
  3   2   4  2   
  4   2   5  1   
  5   3   6  2   
  6   3   7  1   
  7   4   6  1   
  8   4   8  1   
  9   5   9  2   
 10   5  10  am  
 11   7  23  1   
 12   7  24  1   
 13   7  25  1   
 14   8  26  1   
 15   8  27  1   
 16   8  28  1   
 17  10  11  1   
 18  10  12  1   
 19  11  13  1   
 20  11  14  1   
 21  11  29  1   
 22  12  30  1   
 23  12  31  1   
 24  12  32  1   
 25  13  15  1   
 26  13  33  1   
 27  13  34  1   
 28  14  16  1   
 29  14  35  1   
 30  14  36  1   
 31  15  16  1   
 32  15  17  1   
 33  15  37  1   
 34  16  18  1   
 35  16  38  1   
 36  17  19  1   
 37  17  39  1   
 38  17  40  1   
 39  18  19  1   
 40  18  41  1   
 41  18  42  1   
 42  19  20  1   
 43  19  43  1   
 44  20  21  1   
 45  20  22  1   
 46  20  44  1   
 47  21  45  1   
 48  21  46  1   
 49  21  47  1   
 50  22  48  1   
 51  22  49  1   
 52  22  50  1   
@<TRIPOS>SUBSTRUCTURE
  1 ****  11 GROUP 4 **** **** 0

# MOE 2024.06 (io_trps.svl 2023.06)
