@<TRIPOS>MOLECULE
NONAME
61 63 1 0 0 
SMALL
USER_CHARGES


@<TRIPOS>ATOM
  1 O       -1.8790     2.3330    -1.3120 O.2   1 <1>  -0.5700 
  2 C       -1.9770     1.2660    -0.7530 C.2   1 <1>   0.5690 
  3 N       -2.6530     0.2150    -1.3300 N.am  1 <1>  -0.6600 
  4 C       -1.2830     1.1580     0.6220 C.3   1 <1>   0.4040 
  5 C       -2.7200    -1.1650    -0.7170 C.3   1 <1>   0.3640 
  6 C       -3.4750     0.4820    -2.5560 C.3   1 <1>   0.1400 
  7 N        0.2020     1.4630     0.6380 N.4   1 <1>  -0.9590 
  8 C       -1.2900    -1.7060    -0.6490 C.ar  1 <1>  -0.1430 
  9 C       -3.6530    -2.2040    -1.4130 C.3   1 <1>   0.2000 
 10 C       -3.9830    -0.7880    -3.2440 C.3   1 <1>   0.1200 
 11 C        0.9330     0.8130    -0.4800 C.3   1 <1>   0.3430 
 12 C        0.8170     1.0710     1.9340 C.3   1 <1>   0.3430 
 13 C       -0.7220    -2.0150     0.5770 C.ar  1 <1>  -0.1500 
 14 C       -0.5260    -1.8650    -1.7980 C.ar  1 <1>  -0.1500 
 15 O       -4.5670    -1.6190    -2.2950 O.3   1 <1>  -0.5600 
 16 C       -4.4760    -3.0010    -0.3900 C.3   1 <1>   0.1200 
 17 C        1.9190     1.7930    -1.1100 C.3   1 <1>  -0.1600 
 18 C        2.0740     1.8950     2.2280 C.3   1 <1>  -0.1600 
 19 C        0.6030    -2.3980     0.6750 C.ar  1 <1>   0.0830 
 20 C        0.7900    -2.2850    -1.7190 C.ar  1 <1>  -0.1500 
 21 O       -3.6510    -3.5450     0.5920 O.3   1 <1>  -0.6800 
 22 C        2.7690     2.6230    -0.1300 C.3   1 <1>  -0.1600 
 23 C        3.1710     1.8710     1.1470 C.3   1 <1>  -0.1600 
 24 O        1.0700    -2.5700     1.9390 O.3   1 <1>  -0.3630 
 25 C        1.3800    -2.5350    -0.4830 C.ar  1 <1>   0.0830 
 26 C        1.8180    -3.7300     2.2420 C.3   1 <1>   0.0400 
 27 O        2.6970    -2.8630    -0.3700 O.3   1 <1>  -0.3630 
 28 C        3.4490    -3.3090    -1.4790 C.3   1 <1>   0.0400 
 29 H       -1.4480     0.1750     1.0150 H     1 <1>   0.0800 
 30 H       -1.7820     1.8460     1.2810 H     1 <1>   0.0800 
 31 H       -3.0860    -1.0440     0.2870 H     1 <1>   0.0800 
 32 H       -4.3240     1.0820    -2.2780 H     1 <1>   0.0800 
 33 H       -2.8950     1.0530    -3.2620 H     1 <1>   0.0800 
 34 H        0.3110     2.4760     0.4940 H     1 <1>   0.4500 
 35 H       -3.0650    -2.8980    -1.9870 H     1 <1>   0.0800 
 36 H       -3.1870    -1.3140    -3.7420 H     1 <1>   0.0800 
 37 H       -4.7360    -0.5360    -3.9710 H     1 <1>   0.0800 
 38 H        1.4700    -0.0460    -0.1110 H     1 <1>   0.0800 
 39 H        0.2520     0.4740    -1.2420 H     1 <1>   0.0800 
 40 H        0.1140     1.2290     2.7350 H     1 <1>   0.0800 
 41 H        1.0670     0.0210     1.9160 H     1 <1>   0.0800 
 42 H       -1.3010    -1.9540     1.4830 H     1 <1>   0.1500 
 43 H       -0.9520    -1.6510    -2.7640 H     1 <1>   0.1500 
 44 H       -5.0130    -3.8020    -0.8690 H     1 <1>   0.0800 
 45 H       -5.1770    -2.3480     0.1020 H     1 <1>   0.0800 
 46 H        2.5820     1.2160    -1.7320 H     1 <1>   0.0800 
 47 H        1.3840     2.4580    -1.7660 H     1 <1>   0.0800 
 48 H        1.7890     2.9120     2.4330 H     1 <1>   0.0800 
 49 H        2.5000     1.5090     3.1380 H     1 <1>   0.0800 
 50 H        1.3440    -2.3950    -2.6330 H     1 <1>   0.1500 
 51 H       -3.2690    -4.3970     0.2950 H     1 <1>   0.4000 
 52 H        3.6640     2.9290    -0.6470 H     1 <1>   0.0800 
 53 H        2.2470     3.5280     0.1330 H     1 <1>   0.0800 
 54 H        4.0390     2.3620     1.5570 H     1 <1>   0.0800 
 55 H        3.4640     0.8600     0.9200 H     1 <1>   0.0800 
 56 H        1.7340    -3.9190     3.2960 H     1 <1>   0.0800 
 57 H        2.8480    -3.5600     1.9860 H     1 <1>   0.0800 
 58 H        1.4230    -4.5630     1.6860 H     1 <1>   0.0800 
 59 H        4.4100    -3.6340    -1.1210 H     1 <1>   0.0800 
 60 H        3.5770    -2.4950    -2.1700 H     1 <1>   0.0800 
 61 H        2.9360    -4.1340    -1.9420 H     1 <1>   0.0800 
@<TRIPOS>BOND
  1   1   2  2   
  2   2   3  am  
  3   2   4  1   
  4   3   5  1   
  5   3   6  1   
  6   4   7  1   
  7   4  29  1   
  8   4  30  1   
  9   5   8  1   
 10   5   9  1   
 11   5  31  1   
 12   6  10  1   
 13   6  32  1   
 14   6  33  1   
 15   7  11  1   
 16   7  12  1   
 17   7  34  1   
 18   8  13  ar  
 19   8  14  ar  
 20   9  15  1   
 21   9  16  1   
 22   9  35  1   
 23  10  15  1   
 24  10  36  1   
 25  10  37  1   
 26  11  17  1   
 27  11  38  1   
 28  11  39  1   
 29  12  18  1   
 30  12  40  1   
 31  12  41  1   
 32  13  19  ar  
 33  13  42  1   
 34  14  20  ar  
 35  14  43  1   
 36  16  21  1   
 37  16  44  1   
 38  16  45  1   
 39  17  22  1   
 40  17  46  1   
 41  17  47  1   
 42  18  23  1   
 43  18  48  1   
 44  18  49  1   
 45  19  24  1   
 46  19  25  ar  
 47  20  25  ar  
 48  20  50  1   
 49  21  51  1   
 50  22  23  1   
 51  22  52  1   
 52  22  53  1   
 53  23  54  1   
 54  23  55  1   
 55  24  26  1   
 56  25  27  1   
 57  26  56  1   
 58  26  57  1   
 59  26  58  1   
 60  27  28  1   
 61  28  59  1   
 62  28  60  1   
 63  28  61  1   
@<TRIPOS>SUBSTRUCTURE
  1 ****   8 GROUP 4 **** **** 0

# MOE 2024.06 (io_trps.svl 2023.06)
