@<TRIPOS>MOLECULE
NONAME
59 62 1 0 0 
SMALL
USER_CHARGES


@<TRIPOS>ATOM
  1 O       -0.2780     0.1870     0.0000 O.2   1 <1>  -0.5700 
  2 C       -1.2850     0.8560    -0.1380 C.2   1 <1>   0.5440 
  3 N       -2.4870     0.2150    -0.3450 N.am  1 <1>  -0.6600 
  4 C       -1.1980     2.3010    -0.0570 C.ar  1 <1>   0.0860 
  5 C       -3.8140     0.8210    -0.0630 C.3   1 <1>   0.1400 
  6 C       -2.6120    -1.2600    -0.4490 C.3   1 <1>   0.1400 
  7 C       -0.5170     2.9090     0.9970 C.ar  1 <1>  -0.1500 
  8 C       -1.7800     3.1270    -1.0190 C.ar  1 <1>  -0.1500 
  9 C       -4.7700    -0.3590     0.1400 C.3   1 <1>   0.2000 
 10 C       -3.8910    -1.5970     0.3160 C.3   1 <1>  -0.0800 
 11 C       -0.4300     4.2920     1.1090 C.ar  1 <1>   0.0830 
 12 C       -1.7070     4.5040    -0.9230 C.ar  1 <1>  -0.1500 
 13 O       -5.5600    -0.1820     1.2650 O.3   1 <1>  -0.6800 
 14 C       -4.5820    -2.8850    -0.1590 C.3   1 <1>  -0.0170 
 15 O        0.2300     4.9100     2.1290 O.3   1 <1>  -0.3630 
 16 C       -1.0330     5.0910     0.1360 C.ar  1 <1>   0.0830 
 17 C       -3.6650    -4.0880    -0.0230 C.ar  1 <1>   0.1670 
 18 C        0.9650     4.1780     3.0840 C.3   1 <1>   0.0400 
 19 O       -0.9820     6.4390     0.2240 O.3   1 <1>  -0.3630 
 20 N       -2.9320    -4.4000    -1.0470 N.ar  1 <1>  -0.6200 
 21 C       -3.6450    -4.7930     1.1920 C.ar  1 <1>  -0.1500 
 22 C       -0.1990     7.1390    -0.7140 C.3   1 <1>   0.2000 
 23 C       -2.0990    -5.4650    -0.9280 C.ar  1 <1>   0.3100 
 24 C       -2.8210    -5.8660     1.3380 C.ar  1 <1>  -0.1500 
 25 C        1.2650     7.0800    -0.2740 C.3   1 <1>  -0.2400 
 26 C       -0.7130     8.5760    -0.7530 C.3   1 <1>  -0.2400 
 27 C       -2.0080    -6.2340     0.2540 C.ar  1 <1>   0.0000 
 28 C       -1.2890    -5.8190    -2.0190 C.ar  1 <1>  -0.1500 
 29 C       -1.1150    -7.3230     0.2950 C.ar  1 <1>  -0.1500 
 30 C       -0.4270    -6.8820    -1.9580 C.ar  1 <1>  -0.1500 
 31 C       -0.3410    -7.6420    -0.7870 C.ar  1 <1>  -0.1500 
 32 H       -3.7570     1.4330     0.8210 H     1 <1>   0.0800 
 33 H       -4.1330     1.4130    -0.9010 H     1 <1>   0.0800 
 34 H       -2.7010    -1.5330    -1.4870 H     1 <1>   0.0800 
 35 H       -1.7600    -1.7680    -0.0260 H     1 <1>   0.0800 
 36 H       -0.0600     2.2630     1.7220 H     1 <1>   0.1500 
 37 H       -2.2930     2.6780    -1.8520 H     1 <1>   0.1500 
 38 H       -5.4170    -0.4530    -0.7160 H     1 <1>   0.0800 
 39 H       -3.6170    -1.7010     1.3510 H     1 <1>   0.0800 
 40 H       -2.1740     5.1270    -1.6640 H     1 <1>   0.1500 
 41 H       -4.9990    -0.1050     2.0610 H     1 <1>   0.4000 
 42 H       -4.8740    -2.7860    -1.1900 H     1 <1>   0.0800 
 43 H       -5.4760    -3.0480     0.4160 H     1 <1>   0.0800 
 44 H        1.4340     4.8790     3.7510 H     1 <1>   0.0800 
 45 H        1.7160     3.5970     2.5770 H     1 <1>   0.0800 
 46 H        0.2910     3.5460     3.6340 H     1 <1>   0.0800 
 47 H       -4.2840    -4.4730     1.9950 H     1 <1>   0.1500 
 48 H       -0.3200     6.6810    -1.6810 H     1 <1>   0.0800 
 49 H       -2.7780    -6.4300     2.2530 H     1 <1>   0.1500 
 50 H        1.3700     7.4820     0.7180 H     1 <1>   0.0800 
 51 H        1.8760     7.6510    -0.9480 H     1 <1>   0.0800 
 52 H        1.6120     6.0630    -0.2810 H     1 <1>   0.0800 
 53 H       -0.6180     9.0310     0.2170 H     1 <1>   0.0800 
 54 H       -1.7450     8.5870    -1.0510 H     1 <1>   0.0800 
 55 H       -0.1460     9.1520    -1.4620 H     1 <1>   0.0800 
 56 H       -1.3700    -5.2220    -2.9080 H     1 <1>   0.1500 
 57 H       -1.0530    -7.9030     1.1990 H     1 <1>   0.1500 
 58 H        0.1880    -7.1430    -2.8030 H     1 <1>   0.1500 
 59 H        0.3410    -8.4750    -0.7530 H     1 <1>   0.1500 
@<TRIPOS>BOND
  1   1   2  2   
  2   2   3  am  
  3   2   4  1   
  4   3   5  1   
  5   3   6  1   
  6   4   7  ar  
  7   4   8  ar  
  8   5   9  1   
  9   5  32  1   
 10   5  33  1   
 11   6  10  1   
 12   6  34  1   
 13   6  35  1   
 14   7  11  ar  
 15   7  36  1   
 16   8  12  ar  
 17   8  37  1   
 18   9  10  1   
 19   9  13  1   
 20   9  38  1   
 21  10  14  1   
 22  10  39  1   
 23  11  15  1   
 24  11  16  ar  
 25  12  16  ar  
 26  12  40  1   
 27  13  41  1   
 28  14  17  1   
 29  14  42  1   
 30  14  43  1   
 31  15  18  1   
 32  16  19  1   
 33  17  20  ar  
 34  17  21  ar  
 35  18  44  1   
 36  18  45  1   
 37  18  46  1   
 38  19  22  1   
 39  20  23  ar  
 40  21  24  ar  
 41  21  47  1   
 42  22  25  1   
 43  22  26  1   
 44  22  48  1   
 45  23  27  ar  
 46  23  28  ar  
 47  24  27  ar  
 48  24  49  1   
 49  25  50  1   
 50  25  51  1   
 51  25  52  1   
 52  26  53  1   
 53  26  54  1   
 54  26  55  1   
 55  27  29  ar  
 56  28  30  ar  
 57  28  56  1   
 58  29  31  ar  
 59  29  57  1   
 60  30  31  ar  
 61  30  58  1   
 62  31  59  1   
@<TRIPOS>SUBSTRUCTURE
  1 ****   3 GROUP 4 **** **** 0

# MOE 2024.06 (io_trps.svl 2023.06)
