@<TRIPOS>MOLECULE
NONAME
23 23 1 0 0 
SMALL
USER_CHARGES


@<TRIPOS>ATOM
  1 N        4.2750     3.3260    -0.5420 N.1   1 <1>   0.6880 
  2 N        4.1000     2.2370     0.0540 N.2   1 <1>  -0.5640 
  3 N        4.4730     4.3880    -1.1350 N.1   1 <1>  -0.3700 
  4 C        5.2680     1.4620     0.4490 C.3   1 <1>   0.0860 
  5 C        5.1750     0.0380    -0.1260 C.3   1 <1>  -0.0800 
  6 C        3.9150    -0.7010     0.3670 C.3   1 <1>  -0.1600 
  7 C        6.4290    -0.7750     0.2380 C.3   1 <1>  -0.1600 
  8 C        3.8640    -2.1440    -0.1340 C.3   1 <1>   0.3430 
  9 C        6.3390    -2.2180    -0.2620 C.3   1 <1>   0.3430 
 10 N        5.1060    -2.8560     0.2740 N.4   1 <1>  -0.9060 
 11 H        5.3050     1.4230     1.5250 H     1 <1>   0.0800 
 12 H        6.1690     1.9420     0.1000 H     1 <1>   0.0800 
 13 H        5.1300     0.1210    -1.2010 H     1 <1>   0.0800 
 14 H        3.0340    -0.1930     0.0120 H     1 <1>   0.0800 
 15 H        3.8740    -0.6920     1.4430 H     1 <1>   0.0800 
 16 H        6.5760    -0.7770     1.3050 H     1 <1>   0.0800 
 17 H        7.2960    -0.3120    -0.2030 H     1 <1>   0.0800 
 18 H        3.7780    -2.1470    -1.2090 H     1 <1>   0.0800 
 19 H        2.9980    -2.6400     0.2770 H     1 <1>   0.0800 
 20 H        7.2110    -2.7680     0.0560 H     1 <1>   0.0800 
 21 H        6.3120    -2.2230    -1.3410 H     1 <1>   0.0800 
 22 H        5.0590    -3.8360    -0.0330 H     1 <1>   0.4500 
 23 H        5.1560    -2.8650     1.3000 H     1 <1>   0.4500 
@<TRIPOS>BOND
  1   1   2  2   
  2   1   3  3   
  3   2   4  1   
  4   4   5  1   
  5   4  11  1   
  6   4  12  1   
  7   5   6  1   
  8   5   7  1   
  9   5  13  1   
 10   6   8  1   
 11   6  14  1   
 12   6  15  1   
 13   7   9  1   
 14   7  16  1   
 15   7  17  1   
 16   8  10  1   
 17   8  18  1   
 18   8  19  1   
 19   9  10  1   
 20   9  20  1   
 21   9  21  1   
 22  10  22  1   
 23  10  23  1   
@<TRIPOS>SUBSTRUCTURE
  1 ****   5 GROUP 4 **** **** 0

# MOE 2024.06 (io_trps.svl 2023.06)
