@<TRIPOS>MOLECULE
NONAME
48 50 1 0 0 
SMALL
USER_CHARGES


@<TRIPOS>ATOM
  1 N       -1.6680    -0.3680    -0.1620 N.ar  1 <1>  -0.6200 
  2 C       -2.2190     0.8350    -0.0810 C.ar  1 <1>   0.4100 
  3 C       -0.5200    -0.4580     0.4910 C.ar  1 <1>   0.1600 
  4 N       -3.4640     0.9560    -0.7250 N.pl3 1 <1>  -0.8380 
  5 C       -1.5990     1.9280     0.6330 C.ar  1 <1>   0.4100 
  6 C        0.0610     0.5790     1.1900 C.ar  1 <1>   0.1600 
  7 C       -3.8440     0.0180    -1.8340 C.3   1 <1>   0.2090 
  8 C       -4.6360     1.3000     0.1440 C.3   1 <1>   0.2090 
  9 N       -0.4540     1.7950     1.2870 N.ar  1 <1>  -0.6200 
 10 N       -2.1510     3.2250     0.6780 N.pl3 1 <1>  -0.8380 
 11 C       -4.5930    -1.2270    -1.3170 C.3   1 <1>   0.2090 
 12 C       -5.3710     0.0430     0.6480 C.3   1 <1>   0.2090 
 13 C       -1.7890     4.1450     1.7920 C.3   1 <1>   0.1290 
 14 C       -2.3820     3.9070    -0.6230 C.3   1 <1>   0.1290 
 15 N       -5.7750    -0.8570    -0.4770 N.pl3 1 <1>  -0.8380 
 16 C       -6.6250    -1.9020    -0.1350 C.ar  1 <1>   0.1000 
 17 C       -7.9290    -1.9060    -0.6070 C.ar  1 <1>  -0.1500 
 18 C       -6.2030    -2.9510     0.6750 C.ar  1 <1>  -0.1500 
 19 C       -8.8020    -2.9300    -0.2850 C.ar  1 <1>  -0.1430 
 20 C       -7.0640    -3.9830     1.0070 C.ar  1 <1>  -0.1430 
 21 C       -8.3630    -3.9670     0.5240 C.ar  1 <1>  -0.1500 
 22 C      -10.2270    -2.9300    -0.8050 C.3   1 <1>  -0.0970 
 23 C       -6.6010    -5.1260     1.8910 C.3   1 <1>  -0.0970 
 24 H       -0.0220    -1.4110     0.4660 H     1 <1>   0.1500 
 25 H        0.9950     0.4090     1.6950 H     1 <1>   0.1500 
 26 H       -2.9640    -0.2900    -2.3700 H     1 <1>   0.0800 
 27 H       -4.4810     0.5390    -2.5270 H     1 <1>   0.0800 
 28 H       -5.3240     1.9050    -0.4190 H     1 <1>   0.0800 
 29 H       -4.3140     1.8740     0.9930 H     1 <1>   0.0800 
 30 H       -3.9120    -1.8270    -0.7390 H     1 <1>   0.0800 
 31 H       -4.9260    -1.8160    -2.1540 H     1 <1>   0.0800 
 32 H       -6.2490     0.3380     1.1950 H     1 <1>   0.0800 
 33 H       -4.7230    -0.4920     1.3190 H     1 <1>   0.0800 
 34 H       -1.7640     3.6020     2.7210 H     1 <1>   0.0800 
 35 H       -2.5180     4.9330     1.8700 H     1 <1>   0.0800 
 36 H       -0.8170     4.5710     1.6120 H     1 <1>   0.0800 
 37 H       -2.2790     3.2130    -1.4400 H     1 <1>   0.0800 
 38 H       -1.6660     4.6990    -0.7570 H     1 <1>   0.0800 
 39 H       -3.3760     4.3170    -0.6440 H     1 <1>   0.0800 
 40 H       -8.2410    -1.0900    -1.2310 H     1 <1>   0.1500 
 41 H       -5.1940    -2.9460     1.0390 H     1 <1>   0.1500 
 42 H       -9.0360    -4.7660     0.7770 H     1 <1>   0.1500 
 43 H      -10.4020    -2.0800    -1.4400 H     1 <1>   0.0800 
 44 H      -10.9160    -2.8900     0.0190 H     1 <1>   0.0800 
 45 H      -10.4090    -3.8250    -1.3710 H     1 <1>   0.0800 
 46 H       -5.6250    -4.9280     2.2940 H     1 <1>   0.0800 
 47 H       -6.5590    -6.0350     1.3170 H     1 <1>   0.0800 
 48 H       -7.2880    -5.2600     2.7070 H     1 <1>   0.0800 
@<TRIPOS>BOND
  1   1   2  ar  
  2   1   3  ar  
  3   2   4  1   
  4   2   5  ar  
  5   3   6  ar  
  6   3  24  1   
  7   4   7  1   
  8   4   8  1   
  9   5   9  ar  
 10   5  10  1   
 11   6   9  ar  
 12   6  25  1   
 13   7  11  1   
 14   7  26  1   
 15   7  27  1   
 16   8  12  1   
 17   8  28  1   
 18   8  29  1   
 19  10  13  1   
 20  10  14  1   
 21  11  15  1   
 22  11  30  1   
 23  11  31  1   
 24  12  15  1   
 25  12  32  1   
 26  12  33  1   
 27  13  34  1   
 28  13  35  1   
 29  13  36  1   
 30  14  37  1   
 31  14  38  1   
 32  14  39  1   
 33  15  16  1   
 34  16  17  ar  
 35  16  18  ar  
 36  17  19  ar  
 37  17  40  1   
 38  18  20  ar  
 39  18  41  1   
 40  19  21  ar  
 41  19  22  1   
 42  20  21  ar  
 43  20  23  1   
 44  21  42  1   
 45  22  43  1   
 46  22  44  1   
 47  22  45  1   
 48  23  46  1   
 49  23  47  1   
 50  23  48  1   
@<TRIPOS>SUBSTRUCTURE
  1 ****  12 GROUP 4 **** **** 0

# MOE 2024.06 (io_trps.svl 2023.06)
