@<TRIPOS>MOLECULE
NONAME
41 44 1 0 0 
SMALL
USER_CHARGES


@<TRIPOS>ATOM
  1 CL      -0.6290     1.6280     3.0880 Cl    1 <1>  -0.1770 
  2 C       -0.9320     2.8090     1.8390 C.ar  1 <1>   0.1770 
  3 C        0.1400     3.4400     1.2320 C.ar  1 <1>  -0.1500 
  4 C       -2.2360     3.0880     1.4730 C.ar  1 <1>  -0.1500 
  5 C       -0.0880     4.3780     0.2350 C.ar  1 <1>  -0.1440 
  6 C       -2.4690     4.0290     0.4870 C.ar  1 <1>  -0.1500 
  7 C       -1.4010     4.6780    -0.1150 C.ar  1 <1>   0.0830 
  8 C        1.0800     5.0320    -0.4840 C.3   1 <1>   0.2540 
  9 O       -1.6650     5.6180    -1.0420 O.3   1 <1>  -0.3630 
 10 N        1.1460     6.4780    -0.2110 N.3   1 <1>  -0.8100 
 11 C       -1.2940     6.9380    -0.6960 C.3   1 <1>   0.1200 
 12 C        0.1740     7.2300    -1.0370 C.3   1 <1>   0.1100 
 13 C        2.5340     6.9710    -0.4280 C.3   1 <1>   0.2910 
 14 C        2.7860     8.4240    -0.0110 C.2   1 <1>   0.3350 
 15 N        3.1910     8.7920     1.1390 N.2   1 <1>  -0.4100 
 16 N        2.6240     9.4360    -0.8600 N.2   1 <1>  -0.5650 
 17 O        3.3140    10.0840     1.1100 O.3   1 <1>  -0.0190 
 18 C        2.9630    10.4110    -0.1100 C.2   1 <1>   0.2980 
 19 C        2.9710    11.8880    -0.5050 C.3   1 <1>   0.3800 
 20 O        4.2110    12.4810    -0.2180 O.3   1 <1>  -0.5600 
 21 C        1.9180    12.7200     0.2360 C.3   1 <1>  -0.1600 
 22 C        4.1080    13.3860     0.8300 C.3   1 <1>   0.1200 
 23 C        2.6900    13.9230     0.7470 C.3   1 <1>  -0.1600 
 24 H        1.1380     3.1890     1.5420 H     1 <1>   0.1500 
 25 H       -3.0500     2.5770     1.9560 H     1 <1>   0.1500 
 26 H       -3.4710     4.2720     0.1830 H     1 <1>   0.1500 
 27 H        0.9950     4.8590    -1.5440 H     1 <1>   0.0800 
 28 H        1.9860     4.5590    -0.1480 H     1 <1>   0.0800 
 29 H       -1.4750     7.0910     0.3540 H     1 <1>   0.0800 
 30 H       -1.9300     7.5990    -1.2550 H     1 <1>   0.0800 
 31 H        0.3430     7.0430    -2.0840 H     1 <1>   0.0800 
 32 H        0.3160     8.2820    -0.8700 H     1 <1>   0.0800 
 33 H        2.7990     6.8630    -1.4650 H     1 <1>   0.0800 
 34 H        3.2100     6.3640     0.1490 H     1 <1>   0.0800 
 35 H        2.8260    11.9690    -1.5670 H     1 <1>   0.0800 
 36 H        1.5160    12.1580     1.0610 H     1 <1>   0.0800 
 37 H        1.1110    13.0010    -0.4170 H     1 <1>   0.0800 
 38 H        4.8530    14.1540     0.7120 H     1 <1>   0.0800 
 39 H        4.2700    12.8490     1.7500 H     1 <1>   0.0800 
 40 H        2.3350    14.2740     1.7000 H     1 <1>   0.0800 
 41 H        2.6570    14.7270     0.0330 H     1 <1>   0.0800 
@<TRIPOS>BOND
  1   1   2  1   
  2   2   3  ar  
  3   2   4  ar  
  4   3   5  ar  
  5   3  24  1   
  6   4   6  ar  
  7   4  25  1   
  8   5   7  ar  
  9   5   8  1   
 10   6   7  ar  
 11   6  26  1   
 12   7   9  1   
 13   8  10  1   
 14   8  27  1   
 15   8  28  1   
 16   9  11  1   
 17  10  12  1   
 18  10  13  1   
 19  11  12  1   
 20  11  29  1   
 21  11  30  1   
 22  12  31  1   
 23  12  32  1   
 24  13  14  1   
 25  13  33  1   
 26  13  34  1   
 27  14  15  2   
 28  14  16  1   
 29  15  17  1   
 30  16  18  2   
 31  17  18  1   
 32  18  19  1   
 33  19  20  1   
 34  19  21  1   
 35  19  35  1   
 36  20  22  1   
 37  21  23  1   
 38  21  36  1   
 39  21  37  1   
 40  22  23  1   
 41  22  38  1   
 42  22  39  1   
 43  23  40  1   
 44  23  41  1   
@<TRIPOS>SUBSTRUCTURE
  1 ****  10 GROUP 4 **** **** 0

# MOE 2024.06 (io_trps.svl 2023.06)
