@<TRIPOS>MOLECULE
NONAME
39 41 1 0 0 
SMALL
USER_CHARGES


@<TRIPOS>ATOM
  1 O       -1.2900     0.4220     1.7430 O.2   1 <1>  -0.5700 
  2 C       -1.9900     0.7670     0.8220 C.2   1 <1>   0.6300 
  3 N       -3.0610     0.0170     0.4200 N.am  1 <1>  -0.6600 
  4 C       -1.6290     2.0510     0.0810 C.3   1 <1>  -0.0950 
  5 C       -4.0170     0.3290    -0.6720 C.3   1 <1>   0.1400 
  6 C       -3.3750    -1.3020     1.0220 C.3   1 <1>   0.1400 
  7 C       -1.2930     3.2740     0.8930 C.3   1 <1>  -0.2000 
  8 C       -2.5750     3.2240     0.1170 C.3   1 <1>  -0.2000 
  9 C       -0.7880     1.6980    -1.1560 C.3   1 <1>   0.2150 
 10 C       -5.1700    -0.6500    -0.4570 C.3   1 <1>   0.2000 
 11 C       -4.5160    -1.8840     0.1710 C.3   1 <1>  -0.0800 
 12 O       -0.5480     2.8190    -1.9340 O.3   1 <1>  -0.6800 
 13 O       -6.0380    -0.1060     0.4760 O.3   1 <1>  -0.6800 
 14 C       -4.0030    -2.8420    -0.9230 C.3   1 <1>  -0.0170 
 15 C       -3.3810    -4.1020    -0.3400 C.ar  1 <1>   0.1670 
 16 N       -2.0610    -4.1330    -0.2730 N.ar  1 <1>  -0.6200 
 17 C       -4.1980    -5.1470     0.0890 C.ar  1 <1>   0.1600 
 18 C       -1.6150    -5.2620     0.2510 C.ar  1 <1>   0.1600 
 19 N       -3.7540    -6.2770     0.6130 N.ar  1 <1>  -0.6200 
 20 C       -2.4340    -6.2990     0.6800 C.ar  1 <1>   0.1600 
 21 H       -4.3580     1.3490    -0.6400 H     1 <1>   0.0800 
 22 H       -3.5440     0.1370    -1.6190 H     1 <1>   0.0800 
 23 H       -2.4990    -1.9270     1.0340 H     1 <1>   0.0800 
 24 H       -3.7030    -1.1510     2.0360 H     1 <1>   0.0800 
 25 H       -1.3320     3.1940     1.9670 H     1 <1>   0.1000 
 26 H       -0.5190     3.9440     0.5670 H     1 <1>   0.1000 
 27 H       -2.6800     3.8430    -0.7580 H     1 <1>   0.1000 
 28 H       -3.4920     3.1490     0.6760 H     1 <1>   0.1000 
 29 H       -1.2990     0.9790    -1.7720 H     1 <1>   0.0800 
 30 H        0.1600     1.2850    -0.8550 H     1 <1>   0.0800 
 31 H       -5.7270    -0.8560    -1.3550 H     1 <1>   0.0800 
 32 H       -5.2170    -2.4160     0.7900 H     1 <1>   0.0800 
 33 H       -0.1860     3.5300    -1.3730 H     1 <1>   0.4000 
 34 H       -5.5200     0.2060     1.2460 H     1 <1>   0.4000 
 35 H       -3.2730    -2.3460    -1.5400 H     1 <1>   0.0800 
 36 H       -4.8210    -3.1290    -1.5590 H     1 <1>   0.0800 
 37 H       -5.2640    -5.0430    -0.0030 H     1 <1>   0.1500 
 38 H       -0.5490    -5.3710     0.3460 H     1 <1>   0.1500 
 39 H       -1.9770    -7.1800     1.0940 H     1 <1>   0.1500 
@<TRIPOS>BOND
  1   1   2  2   
  2   2   3  am  
  3   2   4  1   
  4   3   5  1   
  5   3   6  1   
  6   4   7  1   
  7   4   8  1   
  8   4   9  1   
  9   5  10  1   
 10   5  21  1   
 11   5  22  1   
 12   6  11  1   
 13   6  23  1   
 14   6  24  1   
 15   7   8  1   
 16   7  25  1   
 17   7  26  1   
 18   8  27  1   
 19   8  28  1   
 20   9  12  1   
 21   9  29  1   
 22   9  30  1   
 23  10  11  1   
 24  10  13  1   
 25  10  31  1   
 26  11  14  1   
 27  11  32  1   
 28  12  33  1   
 29  13  34  1   
 30  14  15  1   
 31  14  35  1   
 32  14  36  1   
 33  15  16  ar  
 34  15  17  ar  
 35  16  18  ar  
 36  17  19  ar  
 37  17  37  1   
 38  18  20  ar  
 39  18  38  1   
 40  19  20  ar  
 41  20  39  1   
@<TRIPOS>SUBSTRUCTURE
  1 ****   6 GROUP 4 **** **** 0

# MOE 2024.06 (io_trps.svl 2023.06)
