@<TRIPOS>MOLECULE
NONAME
55 57 1 0 0 
SMALL
USER_CHARGES


@<TRIPOS>ATOM
  1 O       -2.0190    -0.2150     2.3610 O.2   1 <1>  -0.5700 
  2 C       -2.1030     0.3390     1.2920 C.2   1 <1>   0.5690 
  3 N       -2.2850    -0.3540     0.1250 N.am  1 <1>  -0.6600 
  4 C       -1.9760     1.8540     1.2930 C.3   1 <1>  -0.0990 
  5 C       -2.3100    -1.8590     0.1390 C.3   1 <1>   0.3640 
  6 C       -2.5050     0.2910    -1.2090 C.3   1 <1>   0.1400 
  7 C       -0.5400     2.3020     0.9690 C.3   1 <1>  -0.1600 
  8 C       -0.9390    -2.4580    -0.2260 C.ar  1 <1>  -0.1440 
  9 C       -3.4400    -2.4230    -0.7840 C.3   1 <1>   0.2000 
 10 C       -2.7780    -0.7340    -2.3190 C.3   1 <1>   0.1200 
 11 C       -0.3910     3.8260     1.0030 C.3   1 <1>   0.0210 
 12 C       -0.7750    -3.8330    -0.1170 C.ar  1 <1>  -0.1500 
 13 C        0.1540    -1.7050    -0.6390 C.ar  1 <1>  -0.1500 
 14 O       -3.7700    -1.6120    -1.8930 O.3   1 <1>  -0.5600 
 15 C       -4.7400    -2.6400    -0.0010 C.3   1 <1>   0.1200 
 16 C        1.0220     4.2180     0.6210 C.2   1 <1>  -0.1810 
 17 C        0.4200    -4.4570    -0.4330 C.ar  1 <1>   0.0830 
 18 C        1.3550    -2.3100    -0.9660 C.ar  1 <1>  -0.1500 
 19 O       -4.6020    -3.7150     0.8730 O.3   1 <1>  -0.6800 
 20 C        1.5720     4.2070    -0.6570 C.2   1 <1>   0.1390 
 21 C        2.0230     4.6440     1.4190 C.2   1 <1>  -0.3020 
 22 O        0.4250    -5.8100    -0.2780 O.3   1 <1>  -0.3630 
 23 C        1.5060    -3.6910    -0.8820 C.ar  1 <1>   0.0830 
 24 N        2.8120     4.5890    -0.6640 N.2   1 <1>  -0.7070 
 25 N        3.0900     4.8620     0.6250 N.pl3 1 <1>   0.3000 
 26 C        1.5640    -6.4590     0.2420 C.3   1 <1>   0.0400 
 27 O        2.6710    -4.3080    -1.2390 O.3   1 <1>  -0.3630 
 28 C        3.7640    -3.5930    -1.7710 C.3   1 <1>   0.0400 
 29 H       -2.6730     2.2850     0.6010 H     1 <1>   0.0800 
 30 H       -2.2410     2.2070     2.2740 H     1 <1>   0.0800 
 31 H       -2.5170    -2.1960     1.1410 H     1 <1>   0.0800 
 32 H       -3.3530     0.9500    -1.1460 H     1 <1>   0.0800 
 33 H       -1.6440     0.8750    -1.4780 H     1 <1>   0.0800 
 34 H        0.1340     1.8680     1.6890 H     1 <1>   0.0800 
 35 H       -0.2550     1.9380    -0.0010 H     1 <1>   0.0800 
 36 H       -3.1360    -3.3700    -1.1900 H     1 <1>   0.0800 
 37 H       -1.8950    -1.2960    -2.5690 H     1 <1>   0.0800 
 38 H       -3.1330    -0.2390    -3.2060 H     1 <1>   0.0800 
 39 H       -0.6070     4.1900     1.9930 H     1 <1>   0.0800 
 40 H       -1.0820     4.2850     0.3180 H     1 <1>   0.0800 
 41 H       -1.5850    -4.4500     0.2290 H     1 <1>   0.1500 
 42 H        0.0920    -0.6360    -0.7080 H     1 <1>   0.1500 
 43 H       -5.5550    -2.8570    -0.6690 H     1 <1>   0.0800 
 44 H       -4.9730    -1.7660     0.5820 H     1 <1>   0.0800 
 45 H        2.1620    -1.6780    -1.2830 H     1 <1>   0.1500 
 46 H       -4.6420    -4.5640     0.3900 H     1 <1>   0.4000 
 47 H        1.0410     3.9160    -1.5480 H     1 <1>   0.1500 
 48 H        2.0390     4.8010     2.4830 H     1 <1>   0.1500 
 49 H        4.0140     5.1930     0.9270 H     1 <1>   0.2700 
 50 H        1.2520    -7.3960     0.6660 H     1 <1>   0.0800 
 51 H        2.0080    -5.8390     1.0020 H     1 <1>   0.0800 
 52 H        2.2580    -6.6370    -0.5590 H     1 <1>   0.0800 
 53 H        4.5420    -4.2970    -2.0040 H     1 <1>   0.0800 
 54 H        4.1160    -2.8920    -1.0340 H     1 <1>   0.0800 
 55 H        3.4490    -3.0880    -2.6670 H     1 <1>   0.0800 
@<TRIPOS>BOND
  1   1   2  2   
  2   2   3  am  
  3   2   4  1   
  4   3   5  1   
  5   3   6  1   
  6   4   7  1   
  7   4  29  1   
  8   4  30  1   
  9   5   8  1   
 10   5   9  1   
 11   5  31  1   
 12   6  10  1   
 13   6  32  1   
 14   6  33  1   
 15   7  11  1   
 16   7  34  1   
 17   7  35  1   
 18   8  12  ar  
 19   8  13  ar  
 20   9  14  1   
 21   9  15  1   
 22   9  36  1   
 23  10  14  1   
 24  10  37  1   
 25  10  38  1   
 26  11  16  1   
 27  11  39  1   
 28  11  40  1   
 29  12  17  ar  
 30  12  41  1   
 31  13  18  ar  
 32  13  42  1   
 33  15  19  1   
 34  15  43  1   
 35  15  44  1   
 36  16  20  1   
 37  16  21  2   
 38  17  22  1   
 39  17  23  ar  
 40  18  23  ar  
 41  18  45  1   
 42  19  46  1   
 43  20  24  2   
 44  20  47  1   
 45  21  25  1   
 46  21  48  1   
 47  22  26  1   
 48  23  27  1   
 49  24  25  1   
 50  25  49  1   
 51  26  50  1   
 52  26  51  1   
 53  26  52  1   
 54  27  28  1   
 55  28  53  1   
 56  28  54  1   
 57  28  55  1   
@<TRIPOS>SUBSTRUCTURE
  1 ****  13 GROUP 4 **** **** 0

# MOE 2024.06 (io_trps.svl 2023.06)
