@<TRIPOS>MOLECULE
NONAME
35 36 1 0 0 
SMALL
USER_CHARGES


@<TRIPOS>ATOM
  1 O       -0.4340    -0.1880     1.3010 O.2   1 <1>  -0.5700 
  2 C       -1.1610    -0.7270     0.4890 C.2   1 <1>   0.7800 
  3 O       -1.0510    -2.0340     0.2740 O.3   1 <1>  -0.4300 
  4 N       -2.1040    -0.0420    -0.2250 N.am  1 <1>  -0.6600 
  5 C       -0.0960    -2.7920     0.9790 C.3   1 <1>   0.2640 
  6 C       -2.3260     1.4220    -0.0460 C.3   1 <1>   0.1400 
  7 C       -3.0440    -0.6840    -1.1890 C.3   1 <1>   0.1400 
  8 C       -0.2140    -4.2420     0.5430 C.ar  1 <1>  -0.1440 
  9 C       -3.8190     1.7230     0.1870 C.3   1 <1>   0.2000 
 10 C       -4.4930    -0.2600    -0.8930 C.3   1 <1>   0.1200 
 11 C       -0.8460    -5.1730     1.3540 C.ar  1 <1>  -0.1500 
 12 C        0.3130    -4.6480    -0.6740 C.ar  1 <1>  -0.1500 
 13 O       -4.6000     1.1360    -0.8280 O.3   1 <1>  -0.5600 
 14 C       -4.0910     3.2330     0.2050 C.3   1 <1>   0.1200 
 15 C       -0.9450    -6.4950     0.9550 C.ar  1 <1>  -0.1500 
 16 C        0.2140    -5.9700    -1.0740 C.ar  1 <1>  -0.1500 
 17 O       -5.4590     3.4500     0.2060 O.3   1 <1>  -0.6800 
 18 C       -0.4150    -6.8940    -0.2590 C.ar  1 <1>  -0.1500 
 19 H        0.8830    -2.4040     0.7530 H     1 <1>   0.0800 
 20 H       -0.2870    -2.6870     2.0330 H     1 <1>   0.0800 
 21 H       -1.7550     1.7890     0.7890 H     1 <1>   0.0800 
 22 H       -1.9900     1.9360    -0.9290 H     1 <1>   0.0800 
 23 H       -2.7840    -0.3830    -2.1890 H     1 <1>   0.0800 
 24 H       -2.9740    -1.7570    -1.1380 H     1 <1>   0.0800 
 25 H       -4.1220     1.3050     1.1320 H     1 <1>   0.0800 
 26 H       -4.8240    -0.6760     0.0430 H     1 <1>   0.0800 
 27 H       -5.1460    -0.6040    -1.6750 H     1 <1>   0.0800 
 28 H       -1.2640    -4.8730     2.2990 H     1 <1>   0.1500 
 29 H        0.8000    -3.9340    -1.3150 H     1 <1>   0.1500 
 30 H       -3.6810     3.6990    -0.6730 H     1 <1>   0.0800 
 31 H       -3.6730     3.6960     1.0820 H     1 <1>   0.0800 
 32 H       -1.4360    -7.2130     1.5890 H     1 <1>   0.1500 
 33 H        0.6260    -6.2780    -2.0190 H     1 <1>   0.1500 
 34 H       -5.8580     2.8010    -0.4150 H     1 <1>   0.4000 
 35 H       -0.4920    -7.9220    -0.5690 H     1 <1>   0.1500 
@<TRIPOS>BOND
  1   1   2  2   
  2   2   3  1   
  3   2   4  am  
  4   3   5  1   
  5   4   6  1   
  6   4   7  1   
  7   5   8  1   
  8   5  19  1   
  9   5  20  1   
 10   6   9  1   
 11   6  21  1   
 12   6  22  1   
 13   7  10  1   
 14   7  23  1   
 15   7  24  1   
 16   8  11  ar  
 17   8  12  ar  
 18   9  13  1   
 19   9  14  1   
 20   9  25  1   
 21  10  13  1   
 22  10  26  1   
 23  10  27  1   
 24  11  15  ar  
 25  11  28  1   
 26  12  16  ar  
 27  12  29  1   
 28  14  17  1   
 29  14  30  1   
 30  14  31  1   
 31  15  18  ar  
 32  15  32  1   
 33  16  18  ar  
 34  16  33  1   
 35  17  34  1   
 36  18  35  1   
@<TRIPOS>SUBSTRUCTURE
  1 ****   3 GROUP 4 **** **** 0

# MOE 2024.06 (io_trps.svl 2023.06)
