@<TRIPOS>MOLECULE
NONAME
50 54 1 0 0 
SMALL
USER_CHARGES


@<TRIPOS>ATOM
  1 O        0.1530     0.3180     0.1370 O.2   1 <1>  -0.5700 
  2 C       -0.2680     1.4630     0.1290 C.2   1 <1>   0.7150 
  3 N       -1.6390     1.6540     0.1060 N.am  1 <1>  -0.6600 
  4 C        0.6960     2.5380     0.1630 C.2   1 <1>   0.0550 
  5 C       -2.3310     2.8650     0.6570 C.3   1 <1>   0.1400 
  6 C       -2.5710     0.5240    -0.1750 C.3   1 <1>   0.1400 
  7 O        0.4200     3.7260    -0.3510 O.3   1 <1>  -0.0190 
  8 C        1.9540     2.5400     0.6430 C.2   1 <1>  -0.1500 
  9 C       -3.4170     3.3810    -0.3090 C.3   1 <1>   0.1440 
 10 C       -3.6610     0.9740    -1.1540 C.3   1 <1>  -0.1600 
 11 N        1.4740     4.4850    -0.1840 N.2   1 <1>  -0.4100 
 12 C        2.4180     3.8160     0.3990 C.2   1 <1>   0.2350 
 13 C       -4.1900     4.5280     0.3170 C.ar  1 <1>   0.1660 
 14 C       -4.3930     2.2380    -0.6660 C.3   1 <1>  -0.1600 
 15 C       -2.8230     4.0460    -1.5800 C.3   1 <1>  -0.1600 
 16 C        3.7300     4.3360     0.7380 C.ar  1 <1>   0.0540 
 17 N       -4.6820     4.5390     1.5370 N.ar  1 <1>  -0.6200 
 18 C       -4.3280     5.5730    -0.5460 C.ar  1 <1>  -0.1440 
 19 C       -3.6740     5.2930    -1.8750 C.3   1 <1>  -0.0170 
 20 C        4.8180     3.4940     0.9690 C.ar  1 <1>  -0.1500 
 21 C        3.9500     5.7100     0.8440 C.ar  1 <1>  -0.1500 
 22 C       -5.3250     5.6540     1.8580 C.ar  1 <1>   0.4770 
 23 C       -5.0120     6.6800    -0.1070 C.ar  1 <1>   0.1600 
 24 C        6.0630     3.9970     1.2980 C.ar  1 <1>  -0.1500 
 25 C        5.1930     6.2200     1.1720 C.ar  1 <1>  -0.1500 
 26 N       -5.5190     6.7300     1.1070 N.ar  1 <1>  -0.6200 
 27 C       -5.9060     5.7130     3.2490 C.3   1 <1>  -0.0970 
 28 C        6.2540     5.3630     1.4020 C.ar  1 <1>  -0.1500 
 29 H       -1.6380     3.6540     0.8840 H     1 <1>   0.0800 
 30 H       -2.8030     2.5880     1.5840 H     1 <1>   0.0800 
 31 H       -3.0190     0.2020     0.7500 H     1 <1>   0.0800 
 32 H       -2.0400    -0.3120    -0.5980 H     1 <1>   0.0800 
 33 H        2.4830     1.7320     1.1120 H     1 <1>   0.1500 
 34 H       -4.3720     0.1750    -1.2750 H     1 <1>   0.0800 
 35 H       -3.2110     1.1470    -2.1150 H     1 <1>   0.0800 
 36 H       -5.0920     2.5690    -1.4130 H     1 <1>   0.0800 
 37 H       -4.9590     1.9860     0.2140 H     1 <1>   0.0800 
 38 H       -2.7840     3.3840    -2.4250 H     1 <1>   0.0800 
 39 H       -1.8230     4.3800    -1.3740 H     1 <1>   0.0800 
 40 H       -4.4290     5.0750    -2.6110 H     1 <1>   0.0800 
 41 H       -3.0660     6.1190    -2.2040 H     1 <1>   0.0800 
 42 H        4.6970     2.4290     0.8860 H     1 <1>   0.1500 
 43 H        3.1330     6.3870     0.6670 H     1 <1>   0.1500 
 44 H       -5.1460     7.5310    -0.7530 H     1 <1>   0.1500 
 45 H        6.8870     3.3270     1.4730 H     1 <1>   0.1500 
 46 H        5.3350     7.2840     1.2480 H     1 <1>   0.1500 
 47 H       -5.8930     4.7400     3.7050 H     1 <1>   0.0800 
 48 H       -6.9190     6.0640     3.2020 H     1 <1>   0.0800 
 49 H       -5.3250     6.3900     3.8460 H     1 <1>   0.0800 
 50 H        7.2220     5.7580     1.6570 H     1 <1>   0.1500 
@<TRIPOS>BOND
  1   1   2  2   
  2   2   3  am  
  3   2   4  1   
  4   3   5  1   
  5   3   6  1   
  6   4   7  1   
  7   4   8  2   
  8   5   9  1   
  9   5  29  1   
 10   5  30  1   
 11   6  10  1   
 12   6  31  1   
 13   6  32  1   
 14   7  11  1   
 15   8  12  1   
 16   8  33  1   
 17   9  13  1   
 18   9  14  1   
 19   9  15  1   
 20  10  14  1   
 21  10  34  1   
 22  10  35  1   
 23  11  12  2   
 24  12  16  1   
 25  13  17  ar  
 26  13  18  ar  
 27  14  36  1   
 28  14  37  1   
 29  15  19  1   
 30  15  38  1   
 31  15  39  1   
 32  16  20  ar  
 33  16  21  ar  
 34  17  22  ar  
 35  18  19  1   
 36  18  23  ar  
 37  19  40  1   
 38  19  41  1   
 39  20  24  ar  
 40  20  42  1   
 41  21  25  ar  
 42  21  43  1   
 43  22  26  ar  
 44  22  27  1   
 45  23  26  ar  
 46  23  44  1   
 47  24  28  ar  
 48  24  45  1   
 49  25  28  ar  
 50  25  46  1   
 51  27  47  1   
 52  27  48  1   
 53  27  49  1   
 54  28  50  1   
@<TRIPOS>SUBSTRUCTURE
  1 ****   7 GROUP 4 **** **** 0

# MOE 2024.06 (io_trps.svl 2023.06)
