@<TRIPOS>MOLECULE
NONAME
53 56 1 0 0 
SMALL
USER_CHARGES


@<TRIPOS>ATOM
  1 F       -0.1960    -0.8580    -2.7090 F     1 <1>  -0.1900 
  2 C        0.3410    -1.7800    -1.9590 C.ar  1 <1>   0.1900 
  3 C       -0.0740    -3.0870    -2.1130 C.ar  1 <1>  -0.1500 
  4 C        1.3010    -1.4180    -1.0370 C.ar  1 <1>  -0.1500 
  5 C        0.4820    -4.0790    -1.3160 C.ar  1 <1>  -0.1440 
  6 C        1.8610    -2.4070    -0.2500 C.ar  1 <1>  -0.1500 
  7 C        1.4720    -3.7420    -0.3750 C.ar  1 <1>  -0.0230 
  8 C       -0.0190    -5.5060    -1.5130 C.3   1 <1>   0.4870 
  9 N        2.1090    -4.7080     0.4620 N.pl3 1 <1>   0.5930 
 10 N       -0.8770    -5.8990    -0.3680 N.4   1 <1>  -0.9590 
 11 N        1.4330    -5.6190     1.2200 N.2   1 <1>  -0.7070 
 12 C        3.4410    -4.8490     0.6610 C.2   1 <1>  -0.3020 
 13 C       -1.2550    -7.3510    -0.4190 C.3   1 <1>   0.3430 
 14 C       -2.0630    -5.0160    -0.1730 C.3   1 <1>   0.3430 
 15 C        2.3470    -6.2730     1.8710 C.2   1 <1>   0.1390 
 16 C        3.6270    -5.8380     1.5580 C.2   1 <1>  -0.1500 
 17 C       -1.7000    -7.9070     0.9500 C.3   1 <1>   0.1400 
 18 C       -2.2250    -4.6520     1.3060 C.3   1 <1>  -0.1600 
 19 N       -2.7500    -7.0550     1.5880 N.am  1 <1>  -0.6600 
 20 C       -2.2190    -5.8440     2.2710 C.3   1 <1>   0.1400 
 21 C       -4.1180    -7.2800     1.4820 C.2   1 <1>   0.5440 
 22 O       -4.8530    -6.5400     2.1100 O.2   1 <1>  -0.5700 
 23 C       -4.7180    -8.3220     0.6480 C.ar  1 <1>   0.3960 
 24 N       -4.2040    -8.6260    -0.5600 N.ar  1 <1>  -0.6200 
 25 C       -5.8540    -8.9760     1.1370 C.ar  1 <1>   0.1600 
 26 C       -4.8810    -9.5760    -1.1830 C.ar  1 <1>   0.1600 
 27 N       -6.5180    -9.9340     0.5130 N.ar  1 <1>  -0.6200 
 28 C       -6.0030   -10.2170    -0.6670 C.ar  1 <1>   0.1670 
 29 C       -6.7130   -11.3000    -1.4550 C.3   1 <1>  -0.0970 
 30 H       -0.8250    -3.3010    -2.8550 H     1 <1>   0.1500 
 31 H        1.5980    -0.3880    -0.9440 H     1 <1>   0.1500 
 32 H        2.6110    -2.1290     0.4740 H     1 <1>   0.1500 
 33 H        0.8270    -6.1710    -1.5780 H     1 <1>   0.0800 
 34 H       -0.5780    -5.5760    -2.4310 H     1 <1>   0.0800 
 35 H       -0.2680    -5.7730     0.4650 H     1 <1>   0.4500 
 36 H        4.1680    -4.2380     0.1580 H     1 <1>   0.1500 
 37 H       -0.4130    -7.9320    -0.7550 H     1 <1>   0.0800 
 38 H       -2.0550    -7.4920    -1.1280 H     1 <1>   0.0800 
 39 H       -2.9520    -5.5220    -0.5140 H     1 <1>   0.0800 
 40 H       -1.9590    -4.1070    -0.7410 H     1 <1>   0.0800 
 41 H        2.1410    -7.0630     2.5770 H     1 <1>   0.1500 
 42 H        4.5490    -6.2240     1.9620 H     1 <1>   0.1500 
 43 H       -0.8450    -7.9680     1.6020 H     1 <1>   0.0800 
 44 H       -2.0640    -8.9120     0.8270 H     1 <1>   0.0800 
 45 H       -3.1680    -4.1440     1.4150 H     1 <1>   0.0800 
 46 H       -1.4620    -3.9530     1.5970 H     1 <1>   0.0800 
 47 H       -2.8150    -5.6150     3.1400 H     1 <1>   0.0800 
 48 H       -1.2150    -6.0310     2.6140 H     1 <1>   0.0800 
 49 H       -6.2260    -8.6810     2.1030 H     1 <1>   0.1500 
 50 H       -4.5330    -9.8690    -2.1580 H     1 <1>   0.1500 
 51 H       -6.2380   -11.4720    -2.4030 H     1 <1>   0.0800 
 52 H       -7.7330   -11.0080    -1.6260 H     1 <1>   0.0800 
 53 H       -6.7080   -12.2150    -0.8920 H     1 <1>   0.0800 
@<TRIPOS>BOND
  1   1   2  1   
  2   2   3  ar  
  3   2   4  ar  
  4   3   5  ar  
  5   3  30  1   
  6   4   6  ar  
  7   4  31  1   
  8   5   7  ar  
  9   5   8  1   
 10   6   7  ar  
 11   6  32  1   
 12   7   9  1   
 13   8  10  1   
 14   8  33  1   
 15   8  34  1   
 16   9  11  1   
 17   9  12  1   
 18  10  13  1   
 19  10  14  1   
 20  10  35  1   
 21  11  15  2   
 22  12  16  2   
 23  12  36  1   
 24  13  17  1   
 25  13  37  1   
 26  13  38  1   
 27  14  18  1   
 28  14  39  1   
 29  14  40  1   
 30  15  16  1   
 31  15  41  1   
 32  16  42  1   
 33  17  19  1   
 34  17  43  1   
 35  17  44  1   
 36  18  20  1   
 37  18  45  1   
 38  18  46  1   
 39  19  20  1   
 40  19  21  am  
 41  20  47  1   
 42  20  48  1   
 43  21  22  2   
 44  21  23  1   
 45  23  24  ar  
 46  23  25  ar  
 47  24  26  ar  
 48  25  27  ar  
 49  25  49  1   
 50  26  28  ar  
 51  26  50  1   
 52  27  28  ar  
 53  28  29  1   
 54  29  51  1   
 55  29  52  1   
 56  29  53  1   
@<TRIPOS>SUBSTRUCTURE
  1 ****  10 GROUP 4 **** **** 0

# MOE 2024.06 (io_trps.svl 2023.06)
