@<TRIPOS>MOLECULE
NONAME
17 17 1 0 0 
SMALL
USER_CHARGES


@<TRIPOS>ATOM
  1 CL       0.7210     1.6940     1.0290 Cl    1 <1>  -0.2900 
  2 C        1.4120     1.2730    -0.5320 C.3   1 <1>   0.3100 
  3 C        2.7860     0.6520    -0.3460 C.2   1 <1>   0.0060 
  4 N        3.0920    -0.5180    -0.7930 N.2   1 <1>  -0.3380 
  5 N        3.8280     1.2310     0.2670 N.pl3 1 <1>   0.0480 
  6 N        4.3660    -0.7410    -0.4750 N.2   1 <1>  -0.3380 
  7 C        4.7810     0.3040     0.1510 C.2   1 <1>   0.0360 
  8 C        3.9680     2.5550     0.9150 C.3   1 <1>   0.0960 
  9 C        4.2220     3.6470    -0.1290 C.3   1 <1>  -0.2400 
 10 H        1.4690     2.1700    -1.1200 H     1 <1>   0.0800 
 11 H        0.7430     0.5740    -1.0010 H     1 <1>   0.0800 
 12 H        5.7760     0.4290     0.5380 H     1 <1>   0.1500 
 13 H        4.7930     2.5140     1.6040 H     1 <1>   0.0800 
 14 H        3.0800     2.7740     1.4770 H     1 <1>   0.0800 
 15 H        5.1180     3.4340    -0.6860 H     1 <1>   0.0800 
 16 H        4.3450     4.5950     0.3620 H     1 <1>   0.0800 
 17 H        3.3910     3.7250    -0.8080 H     1 <1>   0.0800 
@<TRIPOS>BOND
  1   1   2  1   
  2   2   3  1   
  3   2  10  1   
  4   2  11  1   
  5   3   4  2   
  6   3   5  1   
  7   4   6  1   
  8   5   7  1   
  9   5   8  1   
 10   6   7  2   
 11   7  12  1   
 12   8   9  1   
 13   8  13  1   
 14   8  14  1   
 15   9  15  1   
 16   9  16  1   
 17   9  17  1   
@<TRIPOS>SUBSTRUCTURE
  1 ****   5 GROUP 4 **** **** 0

# MOE 2024.06 (io_trps.svl 2023.06)
