@<TRIPOS>MOLECULE
NONAME
58 61 1 0 0 
SMALL
USER_CHARGES


@<TRIPOS>ATOM
  1 O        1.6960     0.2200    -0.4760 O.3   1 <1>  -0.5600 
  2 C        2.4730    -0.7400    -1.1620 C.3   1 <1>   0.4240 
  3 C        0.3860    -0.1290    -0.1340 C.3   1 <1>   0.1200 
  4 C        2.1710    -2.1810    -0.7050 C.ar  1 <1>  -0.1440 
  5 C        3.9310    -0.3820    -0.8480 C.3   1 <1>  -0.1600 
  6 C        2.2200    -0.5390    -2.6690 C.3   1 <1>  -0.1600 
  7 C        0.4190    -1.2890     0.8560 C.3   1 <1>  -0.0160 
  8 C        1.1990    -2.4400     0.2560 C.ar  1 <1>  -0.1440 
  9 C        2.8720    -3.2570    -1.2420 C.ar  1 <1>  -0.1500 
 10 C        4.2900     1.0600    -1.2220 C.3   1 <1>   0.3430 
 11 C        2.9180     0.6940    -3.2580 C.3   1 <1>   0.3430 
 12 C        0.9380    -3.7370     0.6710 C.ar  1 <1>  -0.1500 
 13 C        2.6100    -4.5510    -0.8320 C.ar  1 <1>  -0.1500 
 14 N        3.2970     1.6390    -2.1790 N.4   1 <1>  -0.9590 
 15 C        1.6440    -4.8030     0.1250 C.ar  1 <1>   0.0820 
 16 C        3.6740     2.9920    -2.6660 C.3   1 <1>   0.4860 
 17 O        1.4510    -6.0990     0.4730 O.3   1 <1>  -0.3620 
 18 C        3.8340     3.9100    -1.4710 C.ar  1 <1>  -0.1440 
 19 C        0.5020    -6.4640     1.4500 C.3   1 <1>   0.0400 
 20 C        5.1020     4.2600    -1.0310 C.ar  1 <1>  -0.1500 
 21 C        2.7220     4.3970    -0.7980 C.ar  1 <1>  -0.1500 
 22 C        5.2670     5.0750     0.0760 C.ar  1 <1>   0.0820 
 23 C        2.8810     5.2160     0.3060 C.ar  1 <1>  -0.1500 
 24 O        6.5440     5.3500     0.4360 O.3   1 <1>  -0.3630 
 25 C        4.1470     5.5560     0.7470 C.ar  1 <1>  -0.1500 
 26 C        6.8300     6.1940     1.5320 C.3   1 <1>   0.1200 
 27 C        8.3470     6.2940     1.6810 C.3   1 <1>   0.1200 
 28 O        8.6490     7.1560     2.7270 O.3   1 <1>  -0.6800 
 29 H       -0.1560    -0.4030    -1.0230 H     1 <1>   0.0800 
 30 H       -0.0830     0.7300     0.3150 H     1 <1>   0.0800 
 31 H        4.5880    -1.0420    -1.3820 H     1 <1>   0.0800 
 32 H        4.1200    -0.5380     0.1990 H     1 <1>   0.0800 
 33 H        1.1640    -0.4870    -2.8580 H     1 <1>   0.0800 
 34 H        2.5750    -1.3940    -3.2140 H     1 <1>   0.0800 
 35 H       -0.5880    -1.5950     1.0750 H     1 <1>   0.0800 
 36 H        0.8830    -0.9700     1.7720 H     1 <1>   0.0800 
 37 H        3.6330    -3.1090    -1.9860 H     1 <1>   0.1500 
 38 H        5.2800     1.0870    -1.6450 H     1 <1>   0.0800 
 39 H        4.2960     1.6580    -0.3230 H     1 <1>   0.0800 
 40 H        2.2560     1.1740    -3.9620 H     1 <1>   0.0800 
 41 H        3.8050     0.3850    -3.7870 H     1 <1>   0.0800 
 42 H        0.1850    -3.9040     1.4170 H     1 <1>   0.1500 
 43 H        3.1540    -5.3790    -1.2500 H     1 <1>   0.1500 
 44 H        2.4500     1.7460    -1.5900 H     1 <1>   0.4500 
 45 H        2.9050     3.3820    -3.3130 H     1 <1>   0.0800 
 46 H        4.5970     2.9450    -3.2190 H     1 <1>   0.0800 
 47 H        0.5310    -7.5330     1.5590 H     1 <1>   0.0800 
 48 H       -0.4740    -6.1570     1.1200 H     1 <1>   0.0800 
 49 H        0.7620    -5.9940     2.3820 H     1 <1>   0.0800 
 50 H        5.9850     3.9090    -1.5340 H     1 <1>   0.1500 
 51 H        1.7250     4.1490    -1.1210 H     1 <1>   0.1500 
 52 H        2.0160     5.5940     0.8260 H     1 <1>   0.1500 
 53 H        4.2400     6.1910     1.6080 H     1 <1>   0.1500 
 54 H        6.3990     5.7590     2.4170 H     1 <1>   0.0800 
 55 H        6.4040     7.1600     1.3310 H     1 <1>   0.0800 
 56 H        8.8020     6.6760     0.7840 H     1 <1>   0.0800 
 57 H        8.7620     5.3300     1.9210 H     1 <1>   0.0800 
 58 H        8.4760     8.0850     2.4780 H     1 <1>   0.4000 
@<TRIPOS>BOND
  1   1   2  1   
  2   1   3  1   
  3   2   4  1   
  4   2   5  1   
  5   2   6  1   
  6   3   7  1   
  7   3  29  1   
  8   3  30  1   
  9   4   8  ar  
 10   4   9  ar  
 11   5  10  1   
 12   5  31  1   
 13   5  32  1   
 14   6  11  1   
 15   6  33  1   
 16   6  34  1   
 17   7   8  1   
 18   7  35  1   
 19   7  36  1   
 20   8  12  ar  
 21   9  13  ar  
 22   9  37  1   
 23  10  14  1   
 24  10  38  1   
 25  10  39  1   
 26  11  14  1   
 27  11  40  1   
 28  11  41  1   
 29  12  15  ar  
 30  12  42  1   
 31  13  15  ar  
 32  13  43  1   
 33  14  16  1   
 34  14  44  1   
 35  15  17  1   
 36  16  18  1   
 37  16  45  1   
 38  16  46  1   
 39  17  19  1   
 40  18  20  ar  
 41  18  21  ar  
 42  19  47  1   
 43  19  48  1   
 44  19  49  1   
 45  20  22  ar  
 46  20  50  1   
 47  21  23  ar  
 48  21  51  1   
 49  22  24  1   
 50  22  25  ar  
 51  23  25  ar  
 52  23  52  1   
 53  24  26  1   
 54  25  53  1   
 55  26  27  1   
 56  26  54  1   
 57  26  55  1   
 58  27  28  1   
 59  27  56  1   
 60  27  57  1   
 61  28  58  1   
@<TRIPOS>SUBSTRUCTURE
  1 ****  10 GROUP 4 **** **** 0

# MOE 2024.06 (io_trps.svl 2023.06)
