@<TRIPOS>MOLECULE
NONAME
47 50 1 0 0 
SMALL
USER_CHARGES


@<TRIPOS>ATOM
  1 O       -0.6480     0.2400    -0.2330 O.2   1 <1>  -0.5700 
  2 C       -1.5060     0.9110     0.3100 C.2   1 <1>   0.7160 
  3 N       -2.6120     0.2680     0.8230 N.am  1 <1>  -0.6600 
  4 C       -1.3720     2.3480     0.3910 C.2   1 <1>  -0.0860 
  5 C       -2.6550    -1.2200     0.9880 C.3   1 <1>   0.1400 
  6 C       -3.9720     0.8870     0.8330 C.3   1 <1>   0.1400 
  7 C       -0.7780     3.1980    -0.5510 C.2   1 <1>   0.1080 
  8 C       -1.7700     3.2120     1.3690 C.2   1 <1>  -0.3020 
  9 C       -3.6670    -1.8530     0.0150 C.3   1 <1>   0.3440 
 10 C       -4.9220     0.1360    -0.1220 C.3   1 <1>   0.2950 
 11 N       -0.8190     4.4430    -0.2010 N.2   1 <1>  -0.7070 
 12 C       -0.1450     2.7610    -1.8540 C.3   1 <1>  -0.0590 
 13 N       -1.4270     4.4510     0.9910 N.pl3 1 <1>   0.3140 
 14 O       -4.9200    -1.2340     0.1570 O.3   1 <1>  -0.5600 
 15 C       -3.7980    -3.3510     0.2780 C.ar  1 <1>  -0.1440 
 16 C       -6.3640     0.6320     0.0180 C.3   1 <1>  -0.1950 
 17 C       -1.6400     5.7010     1.7270 C.3   1 <1>   0.0160 
 18 C       -4.7350    -3.8550     1.1700 C.ar  1 <1>  -0.1500 
 19 C       -2.9520    -4.2340    -0.3790 C.ar  1 <1>  -0.1500 
 20 C       -7.3540     0.4540    -1.0880 C.3   1 <1>  -0.2000 
 21 C       -6.8480     1.8260    -0.7440 C.3   1 <1>  -0.2000 
 22 C       -4.8250    -5.2160     1.4020 C.ar  1 <1>  -0.1500 
 23 C       -3.0400    -5.5960    -0.1480 C.ar  1 <1>  -0.1500 
 24 C       -3.9770    -6.0890     0.7430 C.ar  1 <1>  -0.1500 
 25 H       -1.6850    -1.6530     0.8210 H     1 <1>   0.0800 
 26 H       -2.9460    -1.4570     1.9960 H     1 <1>   0.0800 
 27 H       -4.3690     0.8520     1.8320 H     1 <1>   0.0800 
 28 H       -3.9290     1.9160     0.5280 H     1 <1>   0.0800 
 29 H       -2.2640     2.9920     2.2960 H     1 <1>   0.1500 
 30 H       -3.3350    -1.7020    -0.9980 H     1 <1>   0.0800 
 31 H       -4.5950     0.2700    -1.1390 H     1 <1>   0.0800 
 32 H       -0.8220     2.1290    -2.3990 H     1 <1>   0.0800 
 33 H        0.7580     2.2170    -1.6510 H     1 <1>   0.0800 
 34 H        0.0920     3.6200    -2.4540 H     1 <1>   0.0800 
 35 H       -6.7330     0.5120     1.0230 H     1 <1>   0.1000 
 36 H       -2.1490     5.4980     2.6500 H     1 <1>   0.0800 
 37 H       -2.2280     6.3650     1.1210 H     1 <1>   0.0800 
 38 H       -0.6850     6.1510     1.9280 H     1 <1>   0.0800 
 39 H       -5.4030    -3.1860     1.6850 H     1 <1>   0.1500 
 40 H       -2.2170    -3.8670    -1.0740 H     1 <1>   0.1500 
 41 H       -7.0280    -0.0140    -2.0020 H     1 <1>   0.1000 
 42 H       -8.3650     0.1870    -0.8300 H     1 <1>   0.1000 
 43 H       -7.5210     2.5140    -0.2620 H     1 <1>   0.1000 
 44 H       -6.1930     2.3150    -1.4450 H     1 <1>   0.1000 
 45 H       -5.5560    -5.5960     2.0940 H     1 <1>   0.1500 
 46 H       -2.3810    -6.2730    -0.6620 H     1 <1>   0.1500 
 47 H       -4.0470    -7.1470     0.9230 H     1 <1>   0.1500 
@<TRIPOS>BOND
  1   1   2  2   
  2   2   3  am  
  3   2   4  1   
  4   3   5  1   
  5   3   6  1   
  6   4   7  1   
  7   4   8  2   
  8   5   9  1   
  9   5  25  1   
 10   5  26  1   
 11   6  10  1   
 12   6  27  1   
 13   6  28  1   
 14   7  11  2   
 15   7  12  1   
 16   8  13  1   
 17   8  29  1   
 18   9  14  1   
 19   9  15  1   
 20   9  30  1   
 21  10  14  1   
 22  10  16  1   
 23  10  31  1   
 24  11  13  1   
 25  12  32  1   
 26  12  33  1   
 27  12  34  1   
 28  13  17  1   
 29  15  18  ar  
 30  15  19  ar  
 31  16  20  1   
 32  16  21  1   
 33  16  35  1   
 34  17  36  1   
 35  17  37  1   
 36  17  38  1   
 37  18  22  ar  
 38  18  39  1   
 39  19  23  ar  
 40  19  40  1   
 41  20  21  1   
 42  20  41  1   
 43  20  42  1   
 44  21  43  1   
 45  21  44  1   
 46  22  24  ar  
 47  22  45  1   
 48  23  24  ar  
 49  23  46  1   
 50  24  47  1   
@<TRIPOS>SUBSTRUCTURE
  1 ****   3 GROUP 4 **** **** 0

# MOE 2024.06 (io_trps.svl 2023.06)
