@<TRIPOS>MOLECULE
NONAME
30 31 1 0 0 
SMALL
USER_CHARGES


@<TRIPOS>ATOM
  1 S        0.3250     0.3060    -0.8710 S.3   1 <1>  -0.0800 
  2 C        1.2770     0.3830     0.5950 C.2   1 <1>   0.1980 
  3 C        1.7830     0.5080    -1.7950 C.2   1 <1>  -0.1100 
  4 N        2.5240     0.5430     0.4030 N.2   1 <1>  -0.5650 
  5 C        0.5400     0.2570     1.9080 C.3   1 <1>  -0.0600 
  6 C        2.8220     0.6150    -0.9520 C.2   1 <1>   0.0460 
  7 C        4.2790     0.8000    -1.3460 C.3   1 <1>   0.0820 
  8 C        4.8320     2.1550    -0.9370 C.2   1 <1>   0.5690 
  9 O        5.6310     2.6920    -1.6640 O.2   1 <1>  -0.5700 
 10 N        4.4200     2.7100     0.2340 N.am  1 <1>  -0.4930 
 11 C        4.7310     3.9170     0.8810 C.2   1 <1>   0.3520 
 12 N        4.1300     4.2260     1.9630 N.2   1 <1>  -0.4100 
 13 C        5.6390     4.9460     0.5740 C.2   1 <1>   0.3520 
 14 O        4.6410     5.3720     2.2920 O.3   1 <1>   0.2420 
 15 N        5.5470     5.8360     1.4870 N.2   1 <1>  -0.4100 
 16 N        6.5110     5.0240    -0.5280 N.am  1 <1>  -0.4930 
 17 C        7.4480     5.9290    -0.9010 C.2   1 <1>   0.5690 
 18 O        8.0700     5.7600    -1.9180 O.2   1 <1>  -0.5700 
 19 C        7.7530     7.1600    -0.0780 C.3   1 <1>  -0.1790 
 20 H        1.7010     0.5250    -2.8670 H     1 <1>   0.1500 
 21 H        0.0280    -0.6870     1.9500 H     1 <1>   0.0800 
 22 H       -0.1760     1.0530     2.0030 H     1 <1>   0.0800 
 23 H        1.2360     0.3140     2.7250 H     1 <1>   0.0800 
 24 H        4.3750     0.6980    -2.4110 H     1 <1>   0.0800 
 25 H        4.8710     0.0320    -0.8850 H     1 <1>   0.0800 
 26 H        3.6990     2.1610     0.7220 H     1 <1>   0.3700 
 27 H        6.4230     4.2420    -1.1920 H     1 <1>   0.3700 
 28 H        8.0720     6.8720     0.9050 H     1 <1>   0.0800 
 29 H        6.8770     7.7770    -0.0080 H     1 <1>   0.0800 
 30 H        8.5380     7.7260    -0.5460 H     1 <1>   0.0800 
@<TRIPOS>BOND
  1   1   2  1   
  2   1   3  1   
  3   2   4  2   
  4   2   5  1   
  5   3   6  2   
  6   3  20  1   
  7   4   6  1   
  8   5  21  1   
  9   5  22  1   
 10   5  23  1   
 11   6   7  1   
 12   7   8  1   
 13   7  24  1   
 14   7  25  1   
 15   8   9  2   
 16   8  10  am  
 17  10  11  1   
 18  10  26  1   
 19  11  12  2   
 20  11  13  1   
 21  12  14  1   
 22  13  15  2   
 23  13  16  1   
 24  14  15  1   
 25  16  17  am  
 26  16  27  1   
 27  17  18  2   
 28  17  19  1   
 29  19  28  1   
 30  19  29  1   
 31  19  30  1   
@<TRIPOS>SUBSTRUCTURE
  1 ****  10 GROUP 4 **** **** 0

# MOE 2024.06 (io_trps.svl 2023.06)
