@<TRIPOS>MOLECULE
NONAME
43 45 1 0 0 
SMALL
USER_CHARGES


@<TRIPOS>ATOM
  1 O        2.6790    -0.6460    -2.8380 O.2   1 <1>  -0.5700 
  2 C        3.1930    -0.1020    -1.8940 C.2   1 <1>   0.5690 
  3 N        2.5190     0.0330    -0.7300 N.am  1 <1>  -0.7300 
  4 C        4.6300     0.4220    -1.9990 C.3   1 <1>   0.1810 
  5 C        3.0660     0.8060     0.4140 C.3   1 <1>   0.1400 
  6 O        5.0540     1.2000    -0.8920 O.3   1 <1>  -0.5600 
  7 C        4.6170     0.8260     0.4060 C.3   1 <1>   0.2800 
  8 C        5.1720    -0.5800     0.7850 C.3   1 <1>   0.1200 
  9 C        5.1060     1.8990     1.4180 C.3   1 <1>   0.1400 
 10 O        6.3980    -0.5690     1.4630 O.3   1 <1>  -0.5600 
 11 N        6.4830     2.4120     1.1280 N.am  1 <1>  -0.6600 
 12 C        7.4580     0.0990     0.8430 C.3   1 <1>   0.1200 
 13 C        6.6510     3.6050     0.4750 C.2   1 <1>   0.7800 
 14 C        7.6210     1.4980     1.4540 C.3   1 <1>   0.1400 
 15 O        5.7320     4.3740     0.2590 O.2   1 <1>  -0.5700 
 16 O        7.8780     3.9300     0.0780 O.3   1 <1>  -0.4300 
 17 C        8.1030     5.1370    -0.6120 C.3   1 <1>   0.2630 
 18 C        9.5800     5.2270    -0.9620 C.ar  1 <1>  -0.1440 
 19 C       10.1070     4.4250    -1.9630 C.ar  1 <1>  -0.1500 
 20 C       10.4120     6.1110    -0.2900 C.ar  1 <1>  -0.1500 
 21 C       11.4490     4.5080    -2.2930 C.ar  1 <1>  -0.1500 
 22 C       11.7540     6.1950    -0.6190 C.ar  1 <1>  -0.1500 
 23 C       12.2730     5.3940    -1.6220 C.ar  1 <1>  -0.1500 
 24 H        1.5370    -0.2530    -0.7170 H     1 <1>   0.3700 
 25 H        4.7140     1.0390    -2.8740 H     1 <1>   0.0800 
 26 H        5.3040    -0.4060    -2.1070 H     1 <1>   0.0800 
 27 H        2.7110     0.3820     1.3370 H     1 <1>   0.0800 
 28 H        2.6960     1.8150     0.3490 H     1 <1>   0.0800 
 29 H        5.2670    -1.2190    -0.0730 H     1 <1>   0.0800 
 30 H        4.4810    -1.0550     1.4580 H     1 <1>   0.0800 
 31 H        5.0830     1.4930     2.4140 H     1 <1>   0.0800 
 32 H        4.4180     2.7260     1.4090 H     1 <1>   0.0800 
 33 H        7.3080     0.1470    -0.2210 H     1 <1>   0.0800 
 34 H        8.3470    -0.4750     1.0370 H     1 <1>   0.0800 
 35 H        7.7040     1.4050     2.5230 H     1 <1>   0.0800 
 36 H        8.5460     1.9130     1.0970 H     1 <1>   0.0800 
 37 H        7.8020     5.9520     0.0230 H     1 <1>   0.0800 
 38 H        7.5010     5.1370    -1.5040 H     1 <1>   0.0800 
 39 H        9.4710     3.7320    -2.4850 H     1 <1>   0.1500 
 40 H       10.0190     6.7360     0.4930 H     1 <1>   0.1500 
 41 H       11.8510     3.8830    -3.0700 H     1 <1>   0.1500 
 42 H       12.3940     6.8830    -0.0950 H     1 <1>   0.1500 
 43 H       13.3160     5.4600    -1.8780 H     1 <1>   0.1500 
@<TRIPOS>BOND
  1   1   2  2   
  2   2   3  am  
  3   2   4  1   
  4   3   5  1   
  5   3  24  1   
  6   4   6  1   
  7   4  25  1   
  8   4  26  1   
  9   5   7  1   
 10   5  27  1   
 11   5  28  1   
 12   6   7  1   
 13   7   8  1   
 14   7   9  1   
 15   8  10  1   
 16   8  29  1   
 17   8  30  1   
 18   9  11  1   
 19   9  31  1   
 20   9  32  1   
 21  10  12  1   
 22  11  13  am  
 23  11  14  1   
 24  12  14  1   
 25  12  33  1   
 26  12  34  1   
 27  13  15  2   
 28  13  16  1   
 29  14  35  1   
 30  14  36  1   
 31  16  17  1   
 32  17  18  1   
 33  17  37  1   
 34  17  38  1   
 35  18  19  ar  
 36  18  20  ar  
 37  19  21  ar  
 38  19  39  1   
 39  20  22  ar  
 40  20  40  1   
 41  21  23  ar  
 42  21  41  1   
 43  22  23  ar  
 44  22  42  1   
 45  23  43  1   
@<TRIPOS>SUBSTRUCTURE
  1 ****  13 GROUP 4 **** **** 0

# MOE 2024.06 (io_trps.svl 2023.06)
