@<TRIPOS>MOLECULE
NONAME
52 55 1 0 0 
SMALL
USER_CHARGES


@<TRIPOS>ATOM
  1 O       -3.0720     2.5260    -1.7380 O.2   1 <1>  -0.5700 
  2 C       -2.8120     1.5850    -1.0120 C.2   1 <1>   0.5440 
  3 N       -3.5140     0.4050    -1.1750 N.am  1 <1>  -0.6600 
  4 C       -1.7880     1.7410     0.0000 C.ar  1 <1>   0.0860 
  5 C       -3.1680    -0.8520    -0.4100 C.3   1 <1>   0.3640 
  6 C       -4.7420     0.4010    -2.0270 C.3   1 <1>   0.1400 
  7 C       -0.4370     1.7990    -0.3570 C.ar  1 <1>  -0.1500 
  8 C       -2.1260     1.8060     1.3610 C.ar  1 <1>  -0.1500 
  9 C       -1.6940    -1.1910    -0.6570 C.ar  1 <1>  -0.1430 
 10 C       -4.0320    -2.1120    -0.7360 C.3   1 <1>   0.2000 
 11 C       -5.1530    -1.0040    -2.4650 C.3   1 <1>   0.1200 
 12 C        0.5140     1.8730     0.6390 C.ar  1 <1>   0.0830 
 13 C       -1.1580     1.8900     2.3510 C.ar  1 <1>  -0.1500 
 14 C       -0.8330    -1.3840     0.4160 C.ar  1 <1>  -0.1500 
 15 C       -1.1920    -1.2840    -1.9490 C.ar  1 <1>  -0.1500 
 16 O       -5.2600    -1.8160    -1.3420 O.3   1 <1>  -0.5600 
 17 C       -4.3640    -2.9380     0.5170 C.3   1 <1>   0.1200 
 18 O        1.8460     1.8970     0.5160 O.3   1 <1>  -0.3630 
 19 C        0.1650     1.9130     1.9580 C.ar  1 <1>   0.0830 
 20 C        0.5100    -1.6470     0.2100 C.ar  1 <1>   0.0830 
 21 C        0.1500    -1.5420    -2.1660 C.ar  1 <1>  -0.1500 
 22 O       -3.2170    -3.2740     1.2300 O.3   1 <1>  -0.6800 
 23 C        2.3740     1.8960     1.8410 C.3   1 <1>   0.4000 
 24 O        1.2560     1.9640     2.7210 O.3   1 <1>  -0.3630 
 25 O        1.2890    -1.8280     1.3050 O.3   1 <1>  -0.3630 
 26 C        1.0110    -1.7030    -1.0940 C.ar  1 <1>   0.0830 
 27 C        1.8390    -3.1150     1.4760 C.3   1 <1>   0.0400 
 28 O        2.3230    -1.8930    -1.3680 O.3   1 <1>  -0.3630 
 29 C        3.1760    -0.8240    -1.0230 C.3   1 <1>   0.0400 
 30 H       -3.2970    -0.6340     0.6350 H     1 <1>   0.0800 
 31 H       -5.5500     0.8470    -1.4740 H     1 <1>   0.0800 
 32 H       -4.5760     1.0020    -2.9050 H     1 <1>   0.0800 
 33 H       -0.1440     1.7650    -1.3890 H     1 <1>   0.1500 
 34 H       -3.1660     1.7860     1.6360 H     1 <1>   0.1500 
 35 H       -3.4970    -2.7430    -1.4230 H     1 <1>   0.0800 
 36 H       -4.4360    -1.4260    -3.1470 H     1 <1>   0.0800 
 37 H       -6.1150    -0.9730    -2.9440 H     1 <1>   0.0800 
 38 H       -1.4120     1.9330     3.3950 H     1 <1>   0.1500 
 39 H       -1.1940    -1.3230     1.4280 H     1 <1>   0.1500 
 40 H       -1.8430    -1.1360    -2.7930 H     1 <1>   0.1500 
 41 H       -4.8650    -3.8500     0.2420 H     1 <1>   0.0800 
 42 H       -4.9970    -2.3690     1.1750 H     1 <1>   0.0800 
 43 H        0.5390    -1.6040    -3.1660 H     1 <1>   0.1500 
 44 H       -2.6230    -3.8420     0.6990 H     1 <1>   0.4000 
 45 H        2.9080     0.9780     2.0130 H     1 <1>   0.0800 
 46 H        3.0010     2.7580     1.9830 H     1 <1>   0.0800 
 47 H        2.3380    -3.1430     2.4280 H     1 <1>   0.0800 
 48 H        2.5420    -3.3110     0.6870 H     1 <1>   0.0800 
 49 H        1.0420    -3.8380     1.4560 H     1 <1>   0.0800 
 50 H        4.1620    -1.0480    -1.3870 H     1 <1>   0.0800 
 51 H        3.1930    -0.7160     0.0460 H     1 <1>   0.0800 
 52 H        2.8070     0.0770    -1.4810 H     1 <1>   0.0800 
@<TRIPOS>BOND
  1   1   2  2   
  2   2   3  am  
  3   2   4  1   
  4   3   5  1   
  5   3   6  1   
  6   4   7  ar  
  7   4   8  ar  
  8   5   9  1   
  9   5  10  1   
 10   5  30  1   
 11   6  11  1   
 12   6  31  1   
 13   6  32  1   
 14   7  12  ar  
 15   7  33  1   
 16   8  13  ar  
 17   8  34  1   
 18   9  14  ar  
 19   9  15  ar  
 20  10  16  1   
 21  10  17  1   
 22  10  35  1   
 23  11  16  1   
 24  11  36  1   
 25  11  37  1   
 26  12  18  1   
 27  12  19  ar  
 28  13  19  ar  
 29  13  38  1   
 30  14  20  ar  
 31  14  39  1   
 32  15  21  ar  
 33  15  40  1   
 34  17  22  1   
 35  17  41  1   
 36  17  42  1   
 37  18  23  1   
 38  19  24  1   
 39  20  25  1   
 40  20  26  ar  
 41  21  26  ar  
 42  21  43  1   
 43  22  44  1   
 44  23  24  1   
 45  23  45  1   
 46  23  46  1   
 47  25  27  1   
 48  26  28  1   
 49  27  47  1   
 50  27  48  1   
 51  27  49  1   
 52  28  29  1   
 53  29  50  1   
 54  29  51  1   
 55  29  52  1   
@<TRIPOS>SUBSTRUCTURE
  1 ****   9 GROUP 4 **** **** 0

# MOE 2024.06 (io_trps.svl 2023.06)
