@<TRIPOS>MOLECULE
NONAME
34 36 1 0 0 
SMALL
USER_CHARGES


@<TRIPOS>ATOM
  1 S        0.1210     0.0420    -0.9330 S.3   1 <1>  -0.0920 
  2 C       -1.5460     0.2790    -0.4730 C.2   1 <1>  -0.1510 
  3 C        0.3340     1.7630    -1.1370 C.2   1 <1>  -0.1210 
  4 C       -1.8750     1.5800    -0.4690 C.2   1 <1>  -0.1920 
  5 C       -2.4200    -0.9110    -0.1390 C.3   1 <1>   0.0080 
  6 C       -0.7980     2.4630    -0.8540 C.2   1 <1>  -0.0970 
  7 C       -3.2830     2.0250    -0.0880 C.3   1 <1>   0.0090 
  8 C       -3.8900    -0.4630    -0.0910 C.3   1 <1>  -0.1710 
  9 C       -0.9200     3.9010    -0.9120 C.2   1 <1>   0.9960 
 10 C       -4.0540     0.8940     0.6220 C.3   1 <1>  -0.1710 
 11 O       -1.9290     4.4780    -1.2520 O.2   1 <1>  -0.5770 
 12 N        0.1610     4.6450    -0.5580 N.pl3 1 <1>  -0.7350 
 13 C        0.2790     5.9690    -0.5520 C.cat 1 <1>   1.0680 
 14 N       -0.6370     6.8390    -0.9360 N.pl3 1 <1>  -0.7050 
 15 N        1.3710     6.6220    -0.1490 N.pl3 1 <1>  -0.7690 
 16 C       -0.1360     8.1090    -0.7810 C.2   1 <1>   0.1900 
 17 C        1.1100     7.9760    -0.2930 C.2   1 <1>   0.1900 
 18 C        2.6670     6.1100     0.3740 C.3   1 <1>   0.2640 
 19 H        1.3090     2.0750    -1.4660 H     1 <1>   0.1390 
 20 H       -2.1220    -1.3030     0.8170 H     1 <1>   0.0680 
 21 H       -2.2970    -1.6820    -0.8790 H     1 <1>   0.0680 
 22 H       -3.8100     2.3090    -0.9820 H     1 <1>   0.0680 
 23 H       -3.2440     2.8770     0.5660 H     1 <1>   0.0680 
 24 H       -4.4780    -1.2140     0.4070 H     1 <1>   0.0680 
 25 H       -4.2590    -0.3700    -1.0980 H     1 <1>   0.0680 
 26 H       -5.0970     1.1530     0.6730 H     1 <1>   0.0680 
 27 H       -3.6890     0.8000     1.6300 H     1 <1>   0.0680 
 28 H        0.9370     4.1080    -0.2070 H     1 <1>   0.4420 
 29 H       -1.5600     6.5400    -1.2750 H     1 <1>   0.4420 
 30 H       -0.6940     9.0010    -1.0250 H     1 <1>   0.1390 
 31 H        1.8230     8.7470    -0.0400 H     1 <1>   0.1390 
 32 H        2.6790     5.0350     0.4000 H     1 <1>   0.0680 
 33 H        2.8300     6.4820     1.3710 H     1 <1>   0.0680 
 34 H        3.4730     6.4480    -0.2570 H     1 <1>   0.0680 
@<TRIPOS>BOND
  1   1   2  1   
  2   1   3  1   
  3   2   4  2   
  4   2   5  1   
  5   3   6  2   
  6   3  19  1   
  7   4   6  1   
  8   4   7  1   
  9   5   8  1   
 10   5  20  1   
 11   5  21  1   
 12   6   9  1   
 13   7  10  1   
 14   7  22  1   
 15   7  23  1   
 16   8  10  1   
 17   8  24  1   
 18   8  25  1   
 19   9  11  2   
 20   9  12  1   
 21  10  26  1   
 22  10  27  1   
 23  12  13  ar  
 24  12  28  1   
 25  13  14  ar  
 26  13  15  ar  
 27  14  16  1   
 28  14  29  1   
 29  15  17  1   
 30  15  18  1   
 31  16  17  2   
 32  16  30  1   
 33  17  31  1   
 34  18  32  1   
 35  18  33  1   
 36  18  34  1   
@<TRIPOS>SUBSTRUCTURE
  1 ****   9 GROUP 4 **** **** 0

# MOE 2024.06 (io_trps.svl 2023.06)
