@<TRIPOS>MOLECULE
NONAME
49 51 1 0 0 
SMALL
USER_CHARGES


@<TRIPOS>ATOM
  1 O        0.8350     0.1170     0.7680 O.2   1 <1>  -0.5700 
  2 C        1.6040    -0.5470     0.0970 C.2   1 <1>   0.5440 
  3 N        2.6170     0.0730    -0.5890 N.am  1 <1>  -0.4930 
  4 C        1.4710    -1.9870     0.0330 C.ar  1 <1>   0.0860 
  5 C        2.9060     1.4550    -0.7120 C.2   1 <1>   0.0630 
  6 C        0.9940    -2.7130     1.1270 C.ar  1 <1>  -0.1500 
  7 C        1.8110    -2.7120    -1.1120 C.ar  1 <1>  -0.1500 
  8 C        2.1910     2.5590    -0.2430 C.2   1 <1>   0.1390 
  9 C        3.9770     1.9870    -1.3350 C.2   1 <1>  -0.3020 
 10 C        0.8760    -4.0900     1.1010 C.ar  1 <1>  -0.1430 
 11 C        1.6980    -4.0860    -1.1480 C.ar  1 <1>  -0.1500 
 12 N        2.7680     3.6860    -0.5450 N.2   1 <1>  -0.7070 
 13 N        3.8770     3.3300    -1.2240 N.pl3 1 <1>   0.3140 
 14 C        1.2340    -4.7970    -0.0470 C.ar  1 <1>   0.1000 
 15 C        0.3550    -4.8290     2.3250 C.3   1 <1>  -0.0970 
 16 C        4.8270     4.3310    -1.7300 C.3   1 <1>   0.1570 
 17 N        1.1260    -6.1770    -0.1020 N.pl3 1 <1>  -0.8380 
 18 C        5.7390     4.7870    -0.6130 C.2   1 <1>   0.5690 
 19 C        0.0260    -6.7480    -0.9290 C.3   1 <1>   0.2090 
 20 C        2.3820    -6.9750    -0.1920 C.3   1 <1>   0.2090 
 21 O        6.9200     4.8840    -0.8440 O.2   1 <1>  -0.5700 
 22 N        5.2110     5.0840     0.6060 N.am  1 <1>  -0.7300 
 23 C       -0.1320    -8.2560    -0.6600 C.3   1 <1>   0.1200 
 24 C        2.0950    -8.4690     0.0390 C.3   1 <1>   0.1200 
 25 C        5.9650     5.5400     1.7980 C.3   1 <1>   0.0600 
 26 O        1.0880    -8.9270    -0.8230 O.3   1 <1>  -0.5600 
 27 H        3.2990    -0.5450    -1.0230 H     1 <1>   0.3700 
 28 H        0.7130    -2.1680     2.0120 H     1 <1>   0.1500 
 29 H        2.1580    -2.1960    -1.9890 H     1 <1>   0.1500 
 30 H        1.2670     2.4900     0.3060 H     1 <1>   0.1500 
 31 H        4.7920     1.4980    -1.8350 H     1 <1>   0.1500 
 32 H        1.9630    -4.6270    -2.0370 H     1 <1>   0.1500 
 33 H        0.1340    -4.1500     3.1280 H     1 <1>   0.0800 
 34 H        1.0910    -5.5360     2.6620 H     1 <1>   0.0800 
 35 H       -0.5410    -5.3640     2.0690 H     1 <1>   0.0800 
 36 H        4.2770     5.1710    -2.1070 H     1 <1>   0.0800 
 37 H        5.4080     3.9010    -2.5210 H     1 <1>   0.0800 
 38 H        0.2410    -6.5960    -1.9720 H     1 <1>   0.0800 
 39 H       -0.8940    -6.2410    -0.6970 H     1 <1>   0.0800 
 40 H        3.0800    -6.6220     0.5470 H     1 <1>   0.0800 
 41 H        2.8240    -6.8460    -1.1640 H     1 <1>   0.0800 
 42 H        4.2060     4.8900     0.7430 H     1 <1>   0.3700 
 43 H       -0.8380    -8.6840    -1.3480 H     1 <1>   0.0800 
 44 H       -0.4840    -8.4190     0.3440 H     1 <1>   0.0800 
 45 H        1.7800    -8.6350     1.0550 H     1 <1>   0.0800 
 46 H        2.9790    -9.0510    -0.1490 H     1 <1>   0.0800 
 47 H        7.0050     5.6780     1.5520 H     1 <1>   0.0800 
 48 H        5.8870     4.8050     2.5800 H     1 <1>   0.0800 
 49 H        5.5630     6.4750     2.1470 H     1 <1>   0.0800 
@<TRIPOS>BOND
  1   1   2  2   
  2   2   3  am  
  3   2   4  1   
  4   3   5  1   
  5   3  27  1   
  6   4   6  ar  
  7   4   7  ar  
  8   5   8  1   
  9   5   9  2   
 10   6  10  ar  
 11   6  28  1   
 12   7  11  ar  
 13   7  29  1   
 14   8  12  2   
 15   8  30  1   
 16   9  13  1   
 17   9  31  1   
 18  10  14  ar  
 19  10  15  1   
 20  11  14  ar  
 21  11  32  1   
 22  12  13  1   
 23  13  16  1   
 24  14  17  1   
 25  15  33  1   
 26  15  34  1   
 27  15  35  1   
 28  16  18  1   
 29  16  36  1   
 30  16  37  1   
 31  17  19  1   
 32  17  20  1   
 33  18  21  2   
 34  18  22  am  
 35  19  23  1   
 36  19  38  1   
 37  19  39  1   
 38  20  24  1   
 39  20  40  1   
 40  20  41  1   
 41  22  25  1   
 42  22  42  1   
 43  23  26  1   
 44  23  43  1   
 45  23  44  1   
 46  24  26  1   
 47  24  45  1   
 48  24  46  1   
 49  25  47  1   
 50  25  48  1   
 51  25  49  1   
@<TRIPOS>SUBSTRUCTURE
  1 ****   2 GROUP 4 **** **** 0

# MOE 2024.06 (io_trps.svl 2023.06)
