@<TRIPOS>MOLECULE
NONAME
51 55 1 0 0 
SMALL
USER_CHARGES


@<TRIPOS>ATOM
  1 S        1.0520     0.8930     1.9290 S.3   1 <1>  -0.0800 
  2 C       -0.4310     1.2410     1.0530 C.2   1 <1>  -0.1400 
  3 C        0.5050    -0.7450     2.2640 C.2   1 <1>  -0.1100 
  4 C       -1.2440     0.1760     1.0540 C.2   1 <1>  -0.1810 
  5 C       -0.7060     2.5890     0.3980 C.3   1 <1>   0.4600 
  6 C       -0.7150    -0.9640     1.7370 C.2   1 <1>  -0.1500 
  7 C       -2.5880     0.2640     0.3670 C.3   1 <1>   0.0210 
  8 O       -1.8960     2.4890    -0.3600 O.3   1 <1>  -0.5600 
  9 C       -0.8650     3.7050     1.4380 C.3   1 <1>  -0.1600 
 10 C        0.4010     2.9460    -0.5970 C.3   1 <1>  -0.1600 
 11 C       -2.9650     1.7470     0.1820 C.3   1 <1>   0.1200 
 12 C       -1.0910     5.0610     0.7690 C.3   1 <1>   0.1400 
 13 C        0.1630     4.3150    -1.2390 C.3   1 <1>   0.1400 
 14 N        0.0360     5.3480    -0.1690 N.am  1 <1>  -0.6600 
 15 C        0.8120     6.4740    -0.0020 C.2   1 <1>   0.5690 
 16 O        0.6430     7.2060     0.9450 O.2   1 <1>  -0.5700 
 17 C        1.9140     6.8620    -0.9870 C.3   1 <1>  -0.0190 
 18 C        3.3360     6.4210    -0.5790 C.3   1 <1>   0.2800 
 19 C        2.0620     8.3740    -1.2040 C.3   1 <1>  -0.0990 
 20 O        4.1760     7.4050    -1.1350 O.3   1 <1>  -0.4300 
 21 C        3.6640     6.3420     0.9140 C.3   1 <1>  -0.1600 
 22 C        3.8030     5.0660    -1.1060 C.3   1 <1>  -0.1600 
 23 C        3.5290     8.4960    -1.4840 C.2   1 <1>   0.6590 
 24 C        4.9800     5.5610     0.9930 C.3   1 <1>  -0.1600 
 25 C        5.0500     4.7150    -0.2860 C.3   1 <1>  -0.1600 
 26 O        4.0510     9.4500    -1.9900 O.2   1 <1>  -0.5700 
 27 H        1.1660    -1.3800     2.8270 H     1 <1>   0.1500 
 28 H       -1.2690    -1.8840     1.8000 H     1 <1>   0.1500 
 29 H       -3.3400    -0.2240     0.9600 H     1 <1>   0.0800 
 30 H       -2.5400    -0.2230    -0.5910 H     1 <1>   0.0800 
 31 H        0.0270     3.7650     2.0350 H     1 <1>   0.0800 
 32 H       -1.6760     3.4800     2.1030 H     1 <1>   0.0800 
 33 H        0.4490     2.1860    -1.3560 H     1 <1>   0.0800 
 34 H        1.3460     2.9590    -0.0880 H     1 <1>   0.0800 
 35 H       -3.2380     2.1830     1.1270 H     1 <1>   0.0800 
 36 H       -3.8000     1.8360    -0.4900 H     1 <1>   0.0800 
 37 H       -1.1730     5.8220     1.5260 H     1 <1>   0.0800 
 38 H       -2.0150     5.0480     0.2150 H     1 <1>   0.0800 
 39 H       -0.7490     4.2920    -1.8130 H     1 <1>   0.0800 
 40 H        0.9680     4.5260    -1.9140 H     1 <1>   0.0800 
 41 H        1.6980     6.4470    -1.9510 H     1 <1>   0.0800 
 42 H        1.8430     8.9460    -0.3210 H     1 <1>   0.0800 
 43 H        1.4750     8.7290    -2.0300 H     1 <1>   0.0800 
 44 H        2.9100     5.7720     1.4270 H     1 <1>   0.0800 
 45 H        3.7310     7.3140     1.3720 H     1 <1>   0.0800 
 46 H        4.0020     5.0880    -2.1630 H     1 <1>   0.0800 
 47 H        3.0500     4.3290    -0.9050 H     1 <1>   0.0800 
 48 H        5.0180     4.9510     1.8790 H     1 <1>   0.0800 
 49 H        5.8070     6.2520     1.0090 H     1 <1>   0.0800 
 50 H        5.9360     4.9760    -0.8390 H     1 <1>   0.0800 
 51 H        5.0790     3.6620    -0.0600 H     1 <1>   0.0800 
@<TRIPOS>BOND
  1   1   2  1   
  2   1   3  1   
  3   2   4  2   
  4   2   5  1   
  5   3   6  2   
  6   3  27  1   
  7   4   6  1   
  8   4   7  1   
  9   5   8  1   
 10   5   9  1   
 11   5  10  1   
 12   6  28  1   
 13   7  11  1   
 14   7  29  1   
 15   7  30  1   
 16   8  11  1   
 17   9  12  1   
 18   9  31  1   
 19   9  32  1   
 20  10  13  1   
 21  10  33  1   
 22  10  34  1   
 23  11  35  1   
 24  11  36  1   
 25  12  14  1   
 26  12  37  1   
 27  12  38  1   
 28  13  14  1   
 29  13  39  1   
 30  13  40  1   
 31  14  15  am  
 32  15  16  2   
 33  15  17  1   
 34  17  18  1   
 35  17  19  1   
 36  17  41  1   
 37  18  20  1   
 38  18  21  1   
 39  18  22  1   
 40  19  23  1   
 41  19  42  1   
 42  19  43  1   
 43  20  23  1   
 44  21  24  1   
 45  21  44  1   
 46  21  45  1   
 47  22  25  1   
 48  22  46  1   
 49  22  47  1   
 50  23  26  2   
 51  24  25  1   
 52  24  48  1   
 53  24  49  1   
 54  25  50  1   
 55  25  51  1   
@<TRIPOS>SUBSTRUCTURE
  1 ****  14 GROUP 4 **** **** 0

# MOE 2024.06 (io_trps.svl 2023.06)
