@<TRIPOS>MOLECULE
NONAME
61 62 1 0 0 
SMALL
USER_CHARGES


@<TRIPOS>ATOM
  1 O       -0.0200     1.3180     1.4030 O.2   1 <1>  -0.5700 
  2 C        0.1400     1.7290     0.2540 C.2   1 <1>   0.5690 
  3 N       -0.8420     1.5470    -0.6770 N.am  1 <1>  -0.7300 
  4 C        1.4800     2.3960    -0.1580 C.3   1 <1>   0.2810 
  5 C       -2.2410     1.1400    -0.3960 C.3   1 <1>   0.1400 
  6 N        2.5620     1.4050    -0.1630 N.am  1 <1>  -0.7300 
  7 C        1.8430     3.6090     0.7420 C.3   1 <1>  -0.0800 
  8 C       -2.3890    -0.3820    -0.5020 C.3   1 <1>  -0.1600 
  9 C        3.5590     1.3470    -1.0540 C.2   1 <1>   0.5690 
 10 C        0.6800     4.6120     0.8680 C.3   1 <1>  -0.2400 
 11 C        3.0860     4.3810     0.2620 C.3   1 <1>  -0.2400 
 12 C       -1.7050    -1.0790     0.6740 C.3   1 <1>   0.3430 
 13 O        3.6350     2.1560    -1.9720 O.2   1 <1>  -0.5700 
 14 C        4.6110     0.2090    -0.9000 C.3   1 <1>   0.2810 
 15 N       -1.4750    -2.5140     0.3540 N.4   1 <1>  -0.9590 
 16 N        4.0940    -0.9420    -0.1470 N.am  1 <1>  -0.7300 
 17 C        5.8640     0.7020    -0.1710 C.3   1 <1>  -0.2400 
 18 C       -0.1130    -2.9750     0.7470 C.3   1 <1>   0.3430 
 19 C       -2.5460    -3.3970     0.8860 C.3   1 <1>   0.5230 
 20 C        3.2850    -1.8590    -0.7300 C.2   1 <1>   0.5690 
 21 C        0.9170    -2.3130    -0.1700 C.3   1 <1>  -0.1600 
 22 C       -2.4480    -4.7280     0.1670 C.2   1 <1>  -0.0400 
 23 O        3.1900    -1.9600    -1.9250 O.2   1 <1>  -0.5700 
 24 C        2.3730    -2.7080     0.1340 C.3   1 <1>  -0.0990 
 25 O       -2.3560    -4.7150    -1.1510 O.3   1 <1>  -0.2800 
 26 C       -2.4200    -5.9960     0.6320 C.2   1 <1>  -0.1500 
 27 C       -2.2720    -5.9670    -1.5550 C.2   1 <1>  -0.0100 
 28 C       -2.3050    -6.8100    -0.5020 C.2   1 <1>  -0.1500 
 29 H       -0.6590     1.8430    -1.6420 H     1 <1>   0.3700 
 30 H        1.3480     2.7750    -1.1730 H     1 <1>   0.0800 
 31 H       -2.5260     1.4780     0.5880 H     1 <1>   0.0800 
 32 H       -2.8890     1.6190    -1.1110 H     1 <1>   0.0800 
 33 H        2.5550     0.7180     0.5690 H     1 <1>   0.3700 
 34 H        2.0540     3.2280     1.7440 H     1 <1>   0.0800 
 35 H       -1.9650    -0.7000    -1.4380 H     1 <1>   0.0800 
 36 H       -3.4350    -0.6290    -0.4960 H     1 <1>   0.0800 
 37 H        0.4030     4.9950    -0.1160 H     1 <1>   0.0800 
 38 H        0.9780     5.4500     1.4990 H     1 <1>   0.0800 
 39 H       -0.1880     4.1420     1.3320 H     1 <1>   0.0800 
 40 H        2.9460     4.7210    -0.7650 H     1 <1>   0.0800 
 41 H        3.9680     3.7420     0.3040 H     1 <1>   0.0800 
 42 H        3.2670     5.2450     0.9030 H     1 <1>   0.0800 
 43 H       -2.2870    -0.9680     1.5750 H     1 <1>   0.0800 
 44 H       -0.7570    -0.6090     0.8460 H     1 <1>   0.0800 
 45 H        4.8980    -0.1080    -1.9050 H     1 <1>   0.0800 
 46 H       -1.5320    -2.6410    -0.6680 H     1 <1>   0.4500 
 47 H        4.3020    -0.9890     0.8350 H     1 <1>   0.3700 
 48 H        5.6070     1.0450     0.8310 H     1 <1>   0.0800 
 49 H        6.2970     1.5330    -0.7300 H     1 <1>   0.0800 
 50 H        6.5960    -0.1030    -0.1110 H     1 <1>   0.0800 
 51 H        0.0850    -2.7210     1.7760 H     1 <1>   0.0800 
 52 H       -0.0400    -4.0460     0.6360 H     1 <1>   0.0800 
 53 H       -2.4410    -3.5320     1.9500 H     1 <1>   0.0800 
 54 H       -3.5120    -2.9660     0.6810 H     1 <1>   0.0800 
 55 H        0.7010    -2.5830    -1.1900 H     1 <1>   0.0800 
 56 H        0.8530    -1.2430    -0.0910 H     1 <1>   0.0800 
 57 H        2.5400    -3.7440    -0.1020 H     1 <1>   0.0800 
 58 H        2.6020    -2.5470     1.1720 H     1 <1>   0.0800 
 59 H       -2.4720    -6.3620     1.6440 H     1 <1>   0.1500 
 60 H       -2.1920    -6.1740    -2.6100 H     1 <1>   0.1500 
 61 H       -2.2580    -7.8860    -0.5010 H     1 <1>   0.1500 
@<TRIPOS>BOND
  1   1   2  2   
  2   2   3  am  
  3   2   4  1   
  4   3   5  1   
  5   3  29  1   
  6   4   6  1   
  7   4   7  1   
  8   4  30  1   
  9   5   8  1   
 10   5  31  1   
 11   5  32  1   
 12   6   9  am  
 13   6  33  1   
 14   7  10  1   
 15   7  11  1   
 16   7  34  1   
 17   8  12  1   
 18   8  35  1   
 19   8  36  1   
 20   9  13  2   
 21   9  14  1   
 22  10  37  1   
 23  10  38  1   
 24  10  39  1   
 25  11  40  1   
 26  11  41  1   
 27  11  42  1   
 28  12  15  1   
 29  12  43  1   
 30  12  44  1   
 31  14  16  1   
 32  14  17  1   
 33  14  45  1   
 34  15  18  1   
 35  15  19  1   
 36  15  46  1   
 37  16  20  am  
 38  16  47  1   
 39  17  48  1   
 40  17  49  1   
 41  17  50  1   
 42  18  21  1   
 43  18  51  1   
 44  18  52  1   
 45  19  22  1   
 46  19  53  1   
 47  19  54  1   
 48  20  23  2   
 49  20  24  1   
 50  21  24  1   
 51  21  55  1   
 52  21  56  1   
 53  22  25  1   
 54  22  26  2   
 55  24  57  1   
 56  24  58  1   
 57  25  27  1   
 58  26  28  1   
 59  26  59  1   
 60  27  28  2   
 61  27  60  1   
 62  28  61  1   
@<TRIPOS>SUBSTRUCTURE
  1 ****  21 GROUP 4 **** **** 0

# MOE 2024.06 (io_trps.svl 2023.06)
