@<TRIPOS>MOLECULE
NONAME
62 65 1 0 0 
SMALL
USER_CHARGES


@<TRIPOS>ATOM
  1 O        0.7420    -1.9210    -0.8090 O.3   1 <1>  -0.5600 
  2 C        0.0170    -1.8820     0.3990 C.3   1 <1>   0.2800 
  3 C        0.1210    -1.5530    -2.0120 C.3   1 <1>   0.1200 
  4 C       -1.3750    -1.2320     0.2290 C.3   1 <1>  -0.1600 
  5 C        0.8730    -1.0800     1.3890 C.3   1 <1>  -0.1600 
  6 C       -0.0700    -3.3350     0.9080 C.3   1 <1>  -0.1600 
  7 C       -1.2440    -2.2310    -2.1130 C.3   1 <1>  -0.1600 
  8 C       -2.1660    -1.7640    -0.9800 C.3   1 <1>   0.2800 
  9 C        2.2900    -1.6490     1.5560 C.3   1 <1>   0.3430 
 10 C        1.2220    -3.8530     1.5520 C.3   1 <1>   0.3430 
 11 O       -2.9050    -0.7100    -1.4590 O.3   1 <1>  -0.6800 
 12 C       -3.1870    -2.8390    -0.6060 C.3   1 <1>  -0.2400 
 13 N        2.3830    -3.0590     1.0620 N.4   1 <1>  -0.9590 
 14 C        3.7290    -3.6970     1.2300 C.3   1 <1>   0.4230 
 15 C        4.8160    -2.7870     0.6310 C.3   1 <1>  -0.1600 
 16 C        3.7360    -5.0870     0.5690 C.3   1 <1>  -0.1600 
 17 C        6.1820    -3.4650     0.6340 C.3   1 <1>   0.2090 
 18 C        5.1320    -5.7030     0.5720 C.3   1 <1>   0.2090 
 19 N        6.0460    -4.7480    -0.0770 N.pl3 1 <1>  -0.8380 
 20 C        7.2220    -5.2850    -0.5910 C.ar  1 <1>   0.1000 
 21 C        8.2210    -5.7790     0.2390 C.ar  1 <1>  -0.1500 
 22 C        7.4100    -5.3340    -1.9650 C.ar  1 <1>  -0.1500 
 23 C        9.3860    -6.3110    -0.2850 C.ar  1 <1>   0.0820 
 24 C        8.5700    -5.8630    -2.5010 C.ar  1 <1>  -0.1500 
 25 O       10.3040    -6.7680     0.6050 O.3   1 <1>  -0.3630 
 26 C        9.5600    -6.3530    -1.6670 C.ar  1 <1>  -0.1500 
 27 C       11.5230    -7.3290     0.1730 C.3   1 <1>   0.0400 
 28 H        0.7590    -1.8650    -2.8210 H     1 <1>   0.0800 
 29 H        0.0300    -0.4800    -2.0390 H     1 <1>   0.0800 
 30 H       -1.2240    -0.1730     0.1140 H     1 <1>   0.0800 
 31 H       -1.9510    -1.3600     1.1270 H     1 <1>   0.0800 
 32 H        0.3900    -1.0720     2.3500 H     1 <1>   0.0800 
 33 H        0.9450    -0.0550     1.0710 H     1 <1>   0.0800 
 34 H       -0.3420    -3.9860     0.0980 H     1 <1>   0.0800 
 35 H       -0.8500    -3.4160     1.6440 H     1 <1>   0.0800 
 36 H       -1.0900    -3.2930    -2.0580 H     1 <1>   0.0800 
 37 H       -1.6940    -2.0310    -3.0710 H     1 <1>   0.0800 
 38 H        2.5820    -1.5960     2.5930 H     1 <1>   0.0800 
 39 H        2.9660    -1.0340     0.9850 H     1 <1>   0.0800 
 40 H        1.3310    -4.8950     1.3080 H     1 <1>   0.0800 
 41 H        1.1570    -3.7620     2.6240 H     1 <1>   0.0800 
 42 H       -2.3220    -0.0080    -1.7980 H     1 <1>   0.4000 
 43 H       -2.7030    -3.7120    -0.2130 H     1 <1>   0.0800 
 44 H       -3.7490    -3.1310    -1.4750 H     1 <1>   0.0800 
 45 H       -3.8700    -2.4650     0.1360 H     1 <1>   0.0800 
 46 H        2.2130    -2.9650     0.0410 H     1 <1>   0.4500 
 47 H        3.9350    -3.8220     2.2810 H     1 <1>   0.0800 
 48 H        4.9110    -1.8800     1.1980 H     1 <1>   0.0800 
 49 H        4.5720    -2.5390    -0.3870 H     1 <1>   0.0800 
 50 H        3.4090    -5.0140    -0.4530 H     1 <1>   0.0800 
 51 H        3.0930    -5.7670     1.0940 H     1 <1>   0.0800 
 52 H        6.5260    -3.6400     1.6400 H     1 <1>   0.0800 
 53 H        6.9060    -2.8470     0.1270 H     1 <1>   0.0800 
 54 H        5.1310    -6.6310     0.0210 H     1 <1>   0.0800 
 55 H        5.4660    -5.9030     1.5760 H     1 <1>   0.0800 
 56 H        8.0950    -5.7500     1.3030 H     1 <1>   0.1500 
 57 H        6.6380    -4.9520    -2.6060 H     1 <1>   0.1500 
 58 H        8.7000    -5.8930    -3.5690 H     1 <1>   0.1500 
 59 H       10.4510    -6.7580    -2.1070 H     1 <1>   0.1500 
 60 H       12.0840    -7.6180     1.0430 H     1 <1>   0.0800 
 61 H       12.0690    -6.5890    -0.3850 H     1 <1>   0.0800 
 62 H       11.3150    -8.1930    -0.4310 H     1 <1>   0.0800 
@<TRIPOS>BOND
  1   1   2  1   
  2   1   3  1   
  3   2   4  1   
  4   2   5  1   
  5   2   6  1   
  6   3   7  1   
  7   3  28  1   
  8   3  29  1   
  9   4   8  1   
 10   4  30  1   
 11   4  31  1   
 12   5   9  1   
 13   5  32  1   
 14   5  33  1   
 15   6  10  1   
 16   6  34  1   
 17   6  35  1   
 18   7   8  1   
 19   7  36  1   
 20   7  37  1   
 21   8  11  1   
 22   8  12  1   
 23   9  13  1   
 24   9  38  1   
 25   9  39  1   
 26  10  13  1   
 27  10  40  1   
 28  10  41  1   
 29  11  42  1   
 30  12  43  1   
 31  12  44  1   
 32  12  45  1   
 33  13  14  1   
 34  13  46  1   
 35  14  15  1   
 36  14  16  1   
 37  14  47  1   
 38  15  17  1   
 39  15  48  1   
 40  15  49  1   
 41  16  18  1   
 42  16  50  1   
 43  16  51  1   
 44  17  19  1   
 45  17  52  1   
 46  17  53  1   
 47  18  19  1   
 48  18  54  1   
 49  18  55  1   
 50  19  20  1   
 51  20  21  ar  
 52  20  22  ar  
 53  21  23  ar  
 54  21  56  1   
 55  22  24  ar  
 56  22  57  1   
 57  23  25  1   
 58  23  26  ar  
 59  24  26  ar  
 60  24  58  1   
 61  25  27  1   
 62  26  59  1   
 63  27  60  1   
 64  27  61  1   
 65  27  62  1   
@<TRIPOS>SUBSTRUCTURE
  1 ****  14 GROUP 4 **** **** 0

# MOE 2024.06 (io_trps.svl 2023.06)
