@<TRIPOS>MOLECULE
NONAME
42 43 1 0 0 
SMALL
USER_CHARGES


@<TRIPOS>ATOM
  1 S       -0.4480     0.3950     1.2350 S.o2  1 <1>   1.4470 
  2 O       -0.1480    -0.6310     2.2080 O.2   1 <1>  -0.6500 
  3 O       -0.8670     1.6830     1.7450 O.2   1 <1>  -0.6500 
  4 N       -1.6830    -0.1530     0.2060 N.am  1 <1>  -0.8490 
  5 C        0.9920     0.6380     0.1700 C.ar  1 <1>  -0.0090 
  6 C       -1.4180    -1.2380    -0.7690 C.3   1 <1>   0.1960 
  7 C       -3.0410    -0.1090     0.7440 C.3   1 <1>   0.1960 
  8 C        0.9530     1.5040    -0.9110 C.ar  1 <1>   0.1900 
  9 C        2.1910    -0.0330     0.3920 C.ar  1 <1>  -0.1500 
 10 C       -1.8850    -2.6550    -0.3510 C.3   1 <1>  -0.1060 
 11 C       -3.4870    -1.4740     1.2640 C.3   1 <1>  -0.1600 
 12 F       -0.1390     2.1710    -1.1700 F     1 <1>  -0.1900 
 13 C        2.0310     1.7090    -1.7530 C.ar  1 <1>  -0.1500 
 14 C        3.2860     0.1550    -0.4370 C.ar  1 <1>  -0.1500 
 15 C       -1.9270    -3.5220    -1.6140 C.2   1 <1>   0.9060 
 16 C       -3.3370    -2.5120     0.1530 C.3   1 <1>   0.2000 
 17 C       -0.9550    -3.3380     0.7020 C.3   1 <1>  -0.1600 
 18 C        3.2090     1.0250    -1.5120 C.ar  1 <1>  -0.1500 
 19 O       -1.2970    -3.1720    -2.6190 O.co2 1 <1>  -0.9000 
 20 O       -2.6040    -4.5610    -1.6040 O.co2 1 <1>  -0.9000 
 21 O       -3.8160    -3.7230     0.6100 O.3   1 <1>  -0.6800 
 22 C        0.5150    -3.4850     0.2710 C.3   1 <1>  -0.1600 
 23 C        1.3380    -4.1670     1.3670 C.3   1 <1>  -0.2400 
 24 H       -1.9570    -0.9770    -1.6650 H     1 <1>   0.0800 
 25 H       -0.3820    -1.2540    -1.0540 H     1 <1>   0.0800 
 26 H       -3.1120     0.6240     1.5300 H     1 <1>   0.0800 
 27 H       -3.7060     0.1960    -0.0450 H     1 <1>   0.0800 
 28 H        2.2660    -0.7160     1.2230 H     1 <1>   0.1500 
 29 H       -4.5180    -1.4160     1.5570 H     1 <1>   0.0800 
 30 H       -2.9040    -1.7430     2.1250 H     1 <1>   0.0800 
 31 H        1.9440     2.3900    -2.5810 H     1 <1>   0.1500 
 32 H        4.2010    -0.3810    -0.2460 H     1 <1>   0.1500 
 33 H       -3.9640    -2.2300    -0.6770 H     1 <1>   0.0800 
 34 H       -1.0030    -2.8180     1.6360 H     1 <1>   0.0800 
 35 H       -1.3340    -4.3290     0.8890 H     1 <1>   0.0800 
 36 H        4.0600     1.1670    -2.1560 H     1 <1>   0.1500 
 37 H       -3.5530    -4.3810    -0.0950 H     1 <1>   0.4000 
 38 H        0.5720    -4.0700    -0.6320 H     1 <1>   0.0800 
 39 H        0.9450    -2.5230     0.0700 H     1 <1>   0.0800 
 40 H        0.9440    -5.1460     1.5710 H     1 <1>   0.0800 
 41 H        1.3080    -3.5830     2.2710 H     1 <1>   0.0800 
 42 H        2.3610    -4.2660     1.0510 H     1 <1>   0.0800 
@<TRIPOS>BOND
  1   1   2  2   
  2   1   3  2   
  3   1   4  am  
  4   1   5  1   
  5   4   6  1   
  6   4   7  1   
  7   5   8  ar  
  8   5   9  ar  
  9   6  10  1   
 10   6  24  1   
 11   6  25  1   
 12   7  11  1   
 13   7  26  1   
 14   7  27  1   
 15   8  12  1   
 16   8  13  ar  
 17   9  14  ar  
 18   9  28  1   
 19  10  15  1   
 20  10  16  1   
 21  10  17  1   
 22  11  16  1   
 23  11  29  1   
 24  11  30  1   
 25  13  18  ar  
 26  13  31  1   
 27  14  18  ar  
 28  14  32  1   
 29  15  19  ar  
 30  15  20  ar  
 31  16  21  1   
 32  16  33  1   
 33  17  22  1   
 34  17  34  1   
 35  17  35  1   
 36  18  36  1   
 37  21  37  1   
 38  22  23  1   
 39  22  38  1   
 40  22  39  1   
 41  23  40  1   
 42  23  41  1   
 43  23  42  1   
@<TRIPOS>SUBSTRUCTURE
  1 ****   6 GROUP 4 **** **** 0

# MOE 2024.06 (io_trps.svl 2023.06)
