@<TRIPOS>MOLECULE
NONAME
47 49 1 0 0 
SMALL
USER_CHARGES


@<TRIPOS>ATOM
  1 S       -0.6040     0.2290     1.2920 S.o2  1 <1>   1.5010 
  2 O       -1.1080     1.4180     1.9380 O.2   1 <1>  -0.6500 
  3 O       -0.5980    -1.0300     2.0100 O.2   1 <1>  -0.6500 
  4 N       -1.5480    -0.0470    -0.1000 N.am  1 <1>  -0.8490 
  5 C        1.0250     0.5380     0.6010 C.2   1 <1>  -0.0630 
  6 C       -1.5290    -1.4360    -0.5870 C.3   1 <1>   0.1960 
  7 C       -2.9040     0.5200    -0.0650 C.3   1 <1>   0.1960 
  8 C        1.2570     1.2640    -0.5600 C.2   1 <1>   0.1390 
  9 C        2.2700     0.1900     1.0150 C.2   1 <1>  -0.3020 
 10 C       -2.4780    -2.3730     0.2210 C.3   1 <1>   0.4230 
 11 C       -3.8380    -0.3490     0.7890 C.3   1 <1>  -0.1600 
 12 N        2.5170     1.3460    -0.8580 N.2   1 <1>  -0.7070 
 13 N        3.1470     0.6870     0.1240 N.pl3 1 <1>   0.3140 
 14 N       -2.3960    -3.8440    -0.1720 N.4   1 <1>  -0.9590 
 15 C       -3.9280    -1.8190     0.2910 C.3   1 <1>   0.0000 
 16 C        4.6100     0.5750     0.1570 C.3   1 <1>   0.0160 
 17 C       -3.5560    -4.6660     0.3060 C.3   1 <1>   0.3430 
 18 C       -2.1360    -4.1200    -1.6240 C.3   1 <1>   0.2630 
 19 C       -4.7430    -2.6510     1.3240 C.3   1 <1>  -0.1600 
 20 C       -4.6000    -1.8820    -1.1110 C.3   1 <1>   0.1200 
 21 C       -4.1740    -4.0630     1.5680 C.3   1 <1>  -0.1600 
 22 O       -5.8000    -1.1920    -1.1350 O.3   1 <1>  -0.6800 
 23 H       -1.8180    -1.4240    -1.6220 H     1 <1>   0.0800 
 24 H       -0.5200    -1.8110    -0.5310 H     1 <1>   0.0800 
 25 H       -2.8830     1.5280     0.3200 H     1 <1>   0.0800 
 26 H       -3.2890     0.5850    -1.0700 H     1 <1>   0.0800 
 27 H        0.4790     1.7130    -1.1570 H     1 <1>   0.1500 
 28 H        2.5640    -0.3720     1.8830 H     1 <1>   0.1500 
 29 H       -2.1300    -2.3340     1.2380 H     1 <1>   0.0800 
 30 H       -3.4830    -0.3190     1.8060 H     1 <1>   0.0800 
 31 H       -4.8130     0.1060     0.7990 H     1 <1>   0.0800 
 32 H       -1.5780    -4.1960     0.3500 H     1 <1>   0.4500 
 33 H        4.9100    -0.0270     0.9940 H     1 <1>   0.0800 
 34 H        5.0320     1.5590     0.2450 H     1 <1>   0.0800 
 35 H        4.9450     0.1230    -0.7580 H     1 <1>   0.0800 
 36 H       -4.3150    -4.7070    -0.4580 H     1 <1>   0.0800 
 37 H       -3.2330    -5.6760     0.5050 H     1 <1>   0.0800 
 38 H       -2.9420    -3.7420    -2.2310 H     1 <1>   0.0800 
 39 H       -2.0520    -5.1820    -1.7920 H     1 <1>   0.0800 
 40 H       -1.2160    -3.6560    -1.9410 H     1 <1>   0.0800 
 41 H       -4.7700    -2.1500     2.2770 H     1 <1>   0.0800 
 42 H       -5.7670    -2.7360     1.0040 H     1 <1>   0.0800 
 43 H       -4.8080    -2.8950    -1.4050 H     1 <1>   0.0800 
 44 H       -3.9790    -1.4330    -1.8650 H     1 <1>   0.0800 
 45 H       -4.9650    -4.7060     1.9170 H     1 <1>   0.0800 
 46 H       -3.4290    -4.0330     2.3440 H     1 <1>   0.0800 
 47 H       -6.4640    -1.5770    -0.5290 H     1 <1>   0.4000 
@<TRIPOS>BOND
  1   1   2  2   
  2   1   3  2   
  3   1   4  am  
  4   1   5  1   
  5   4   6  1   
  6   4   7  1   
  7   5   8  1   
  8   5   9  2   
  9   6  10  1   
 10   6  23  1   
 11   6  24  1   
 12   7  11  1   
 13   7  25  1   
 14   7  26  1   
 15   8  12  2   
 16   8  27  1   
 17   9  13  1   
 18   9  28  1   
 19  10  14  1   
 20  10  15  1   
 21  10  29  1   
 22  11  15  1   
 23  11  30  1   
 24  11  31  1   
 25  12  13  1   
 26  13  16  1   
 27  14  17  1   
 28  14  18  1   
 29  14  32  1   
 30  15  19  1   
 31  15  20  1   
 32  16  33  1   
 33  16  34  1   
 34  16  35  1   
 35  17  21  1   
 36  17  36  1   
 37  17  37  1   
 38  18  38  1   
 39  18  39  1   
 40  18  40  1   
 41  19  21  1   
 42  19  41  1   
 43  19  42  1   
 44  20  22  1   
 45  20  43  1   
 46  20  44  1   
 47  21  45  1   
 48  21  46  1   
 49  22  47  1   
@<TRIPOS>SUBSTRUCTURE
  1 ****   6 GROUP 4 **** **** 0

# MOE 2024.06 (io_trps.svl 2023.06)
