@<TRIPOS>MOLECULE
NONAME
51 53 1 0 0 
SMALL
USER_CHARGES


@<TRIPOS>ATOM
  1 O        0.5530     0.3880     0.3630 O.2   1 <1>  -0.5700 
  2 C        1.7430     0.1690     0.2680 C.2   1 <1>   0.7150 
  3 N        2.5770     1.2240     0.3860 N.am  1 <1>  -0.8000 
  4 C        2.2380    -1.1690     0.0480 C.2   1 <1>   0.0550 
  5 O        3.5350    -1.4450     0.0280 O.3   1 <1>  -0.2800 
  6 C        1.5600    -2.3260    -0.1600 C.2   1 <1>  -0.1500 
  7 C        3.7220    -2.7310    -0.1850 C.2   1 <1>  -0.0400 
  8 C        2.5120    -3.3410    -0.2960 C.2   1 <1>  -0.1810 
  9 C        5.1840    -3.2060    -0.2520 C.3   1 <1>   0.1800 
 10 C        2.1310    -4.7860    -0.5110 C.3   1 <1>   0.5240 
 11 C        5.3180    -4.6940    -0.6070 C.3   1 <1>  -0.2400 
 12 C        5.8500    -2.9690     1.1100 C.3   1 <1>  -0.2400 
 13 C        5.9290    -2.3960    -1.3230 C.3   1 <1>  -0.2400 
 14 N        2.0660    -5.4550     0.8270 N.4   1 <1>  -0.9590 
 15 C        1.9810    -6.9580     0.7540 C.3   1 <1>   0.5110 
 16 C        1.0810    -4.8280     1.7770 C.3   1 <1>   0.2630 
 17 C        0.6890    -7.5670     0.1680 C.2   1 <1>   0.1820 
 18 N        0.5300    -8.9400     0.0130 N.pl3 1 <1>  -0.6290 
 19 C       -0.4450    -6.9780    -0.2730 C.2   1 <1>   0.2000 
 20 C       -0.7050    -9.1470    -0.5200 C.cat 1 <1>   0.7910 
 21 C        1.3360   -10.0340     0.2890 C.2   1 <1>   0.2290 
 22 N       -1.2980    -7.9580    -0.6960 N.pl3 1 <1>  -0.7000 
 23 C       -1.1750   -10.4410    -0.7980 C.2   1 <1>  -0.1410 
 24 C        0.8970   -11.3000     0.0260 C.2   1 <1>  -0.1500 
 25 C       -0.3800   -11.5200    -0.5280 C.2   1 <1>  -0.1500 
 26 H        2.1940     2.1580     0.5270 H     1 <1>   0.3700 
 27 H        3.5880     1.1300     0.2990 H     1 <1>   0.3700 
 28 H        0.4870    -2.4150    -0.2120 H     1 <1>   0.1500 
 29 H        2.8700    -5.2610    -1.1340 H     1 <1>   0.0800 
 30 H        1.1800    -4.8340    -1.0160 H     1 <1>   0.0800 
 31 H        4.8660    -5.3140     0.1420 H     1 <1>   0.0800 
 32 H        6.3600    -4.9620    -0.6640 H     1 <1>   0.0800 
 33 H        4.8810    -4.8920    -1.5680 H     1 <1>   0.0800 
 34 H        5.3410    -3.5110     1.8850 H     1 <1>   0.0800 
 35 H        5.8240    -1.9220     1.3620 H     1 <1>   0.0800 
 36 H        6.8800    -3.2800     1.0910 H     1 <1>   0.0800 
 37 H        5.4610    -2.5230    -2.2830 H     1 <1>   0.0800 
 38 H        6.9550    -2.7090    -1.3980 H     1 <1>   0.0800 
 39 H        5.9170    -1.3480    -1.0820 H     1 <1>   0.0800 
 40 H        2.9880    -5.2290     1.2340 H     1 <1>   0.4500 
 41 H        2.1060    -7.3560     1.7480 H     1 <1>   0.0800 
 42 H        2.8080    -7.3210     0.1660 H     1 <1>   0.0800 
 43 H        0.0760    -4.8880     1.3950 H     1 <1>   0.0800 
 44 H        1.3210    -3.7870     1.9310 H     1 <1>   0.0800 
 45 H        1.1160    -5.3190     2.7370 H     1 <1>   0.0800 
 46 H       -0.7170    -5.9340    -0.3190 H     1 <1>   0.1500 
 47 H        2.3140    -9.8720     0.7140 H     1 <1>   0.1500 
 48 H       -2.2430    -7.8430    -1.0830 H     1 <1>   0.4500 
 49 H       -2.1560   -10.5600    -1.2190 H     1 <1>   0.1500 
 50 H        1.5170   -12.1560     0.2370 H     1 <1>   0.1500 
 51 H       -0.7040   -12.5310    -0.7270 H     1 <1>   0.1500 
@<TRIPOS>BOND
  1   1   2  2   
  2   2   3  am  
  3   2   4  1   
  4   3  26  1   
  5   3  27  1   
  6   4   5  1   
  7   4   6  2   
  8   5   7  1   
  9   6   8  1   
 10   6  28  1   
 11   7   8  2   
 12   7   9  1   
 13   8  10  1   
 14   9  11  1   
 15   9  12  1   
 16   9  13  1   
 17  10  14  1   
 18  10  29  1   
 19  10  30  1   
 20  11  31  1   
 21  11  32  1   
 22  11  33  1   
 23  12  34  1   
 24  12  35  1   
 25  12  36  1   
 26  13  37  1   
 27  13  38  1   
 28  13  39  1   
 29  14  15  1   
 30  14  16  1   
 31  14  40  1   
 32  15  17  1   
 33  15  41  1   
 34  15  42  1   
 35  16  43  1   
 36  16  44  1   
 37  16  45  1   
 38  17  18  1   
 39  17  19  2   
 40  18  20  ar  
 41  18  21  1   
 42  19  22  1   
 43  19  46  1   
 44  20  22  ar  
 45  20  23  1   
 46  21  24  2   
 47  21  47  1   
 48  22  48  1   
 49  23  25  2   
 50  23  49  1   
 51  24  25  1   
 52  24  50  1   
 53  25  51  1   
@<TRIPOS>SUBSTRUCTURE
  1 ****  10 GROUP 4 **** **** 0

# MOE 2024.06 (io_trps.svl 2023.06)
