@<TRIPOS>MOLECULE
F1913-0639
44 46 1 0 0 
SMALL
USER_CHARGES


@<TRIPOS>ATOM
  1 N      -11.8630     0.0050    -0.6090 N.4   1 <1>  -0.9590 
  2 C      -12.0960     0.7400     0.6560 C.3   1 <1>   0.3430 
  3 C      -13.1620    -0.5900    -0.9930 C.3   1 <1>   0.3430 
  4 C      -10.7470    -0.9730    -0.5300 C.3   1 <1>   0.4860 
  5 C      -13.5000     1.3080     0.5050 C.3   1 <1>  -0.1600 
  6 C      -14.1920     0.4440    -0.5550 C.3   1 <1>  -0.1600 
  7 C       -9.4590    -0.2060    -0.3040 C.ar  1 <1>  -0.1430 
  8 C       -8.8450     0.4570    -1.3550 C.ar  1 <1>  -0.1500 
  9 C       -8.8830    -0.1570     0.9560 C.ar  1 <1>  -0.1500 
 10 C       -7.6760     1.1660    -1.1450 C.ar  1 <1>  -0.1500 
 11 C       -7.7140     0.5540     1.1620 C.ar  1 <1>  -0.1500 
 12 C       -7.0990     1.2230     0.1160 C.ar  1 <1>  -0.1430 
 13 C       -5.8060     1.9940     0.3680 C.3   1 <1>   0.0630 
 14 C       -5.9740     3.4880     0.0540 C.3   1 <1>  -0.1600 
 15 C       -4.6420     1.3990    -0.4390 C.3   1 <1>  -0.1600 
 16 C       -4.6650     4.2510     0.2550 C.3   1 <1>   0.3430 
 17 C       -3.3540     2.1950    -0.2310 C.3   1 <1>   0.3430 
 18 N       -3.5930     3.6260    -0.5670 N.4   1 <1>  -0.9060 
 19 H      -11.6050     0.7080    -1.3130 H     1 <1>   0.4500 
 20 H      -11.3610     1.5150     0.8090 H     1 <1>   0.0800 
 21 H      -12.0720     0.0550     1.4890 H     1 <1>   0.0800 
 22 H      -13.3220    -1.5070    -0.4470 H     1 <1>   0.0800 
 23 H      -13.2180    -0.7870    -2.0520 H     1 <1>   0.0800 
 24 H      -10.6730    -1.5290    -1.4510 H     1 <1>   0.0800 
 25 H      -10.9120    -1.6670     0.2780 H     1 <1>   0.0800 
 26 H      -13.4450     2.3320     0.1770 H     1 <1>   0.0800 
 27 H      -14.0210     1.2800     1.4470 H     1 <1>   0.0800 
 28 H      -15.0690    -0.0430    -0.1640 H     1 <1>   0.0800 
 29 H      -14.4850     1.0470    -1.3980 H     1 <1>   0.0800 
 30 H       -9.2620     0.4260    -2.3480 H     1 <1>   0.1500 
 31 H       -9.3310    -0.6710     1.7900 H     1 <1>   0.1500 
 32 H       -7.2210     1.6690    -1.9810 H     1 <1>   0.1500 
 33 H       -7.2880     0.5750     2.1510 H     1 <1>   0.1500 
 34 H       -5.5580     1.9050     1.4130 H     1 <1>   0.0800 
 35 H       -6.7260     3.9020     0.7040 H     1 <1>   0.0800 
 36 H       -6.3140     3.6290    -0.9570 H     1 <1>   0.0800 
 37 H       -4.8790     1.3760    -1.4870 H     1 <1>   0.0800 
 38 H       -4.4800     0.3820    -0.1260 H     1 <1>   0.0800 
 39 H       -4.3890     4.2220     1.2970 H     1 <1>   0.0800 
 40 H       -4.8000     5.2830    -0.0300 H     1 <1>   0.0800 
 41 H       -2.5730     1.7910    -0.8560 H     1 <1>   0.0800 
 42 H       -3.0410     2.1100     0.7980 H     1 <1>   0.0800 
 43 H       -2.7190     4.1570    -0.4540 H     1 <1>   0.4500 
 44 H       -3.8510     3.6950    -1.5600 H     1 <1>   0.4500 
@<TRIPOS>BOND
  1   1   2  1   
  2   1   3  1   
  3   1   4  1   
  4   1  19  1   
  5   2   5  1   
  6   2  20  1   
  7   2  21  1   
  8   3   6  1   
  9   3  22  1   
 10   3  23  1   
 11   4   7  1   
 12   4  24  1   
 13   4  25  1   
 14   5   6  1   
 15   5  26  1   
 16   5  27  1   
 17   6  28  1   
 18   6  29  1   
 19   7   8  ar  
 20   7   9  ar  
 21   8  10  ar  
 22   8  30  1   
 23   9  11  ar  
 24   9  31  1   
 25  10  12  ar  
 26  10  32  1   
 27  11  12  ar  
 28  11  33  1   
 29  12  13  1   
 30  13  14  1   
 31  13  15  1   
 32  13  34  1   
 33  14  16  1   
 34  14  35  1   
 35  14  36  1   
 36  15  17  1   
 37  15  37  1   
 38  15  38  1   
 39  16  18  1   
 40  16  39  1   
 41  16  40  1   
 42  17  18  1   
 43  17  41  1   
 44  17  42  1   
 45  18  43  1   
 46  18  44  1   
@<TRIPOS>SUBSTRUCTURE
  1 ****  10 GROUP 4 **** **** 0

# MOE 2024.06 (io_trps.svl 2023.06)
