@<TRIPOS>MOLECULE
NONAME
41 44 1 0 0 
SMALL
USER_CHARGES


@<TRIPOS>ATOM
  1 S       -0.6990     0.3970     1.4420 S.3   1 <1>  -0.0800 
  2 C       -0.5480     1.8900     0.5410 C.2   1 <1>  -0.1400 
  3 C        0.9950     0.4820     1.9040 C.2   1 <1>  -0.1100 
  4 C        0.6960     2.3830     0.5930 C.2   1 <1>  -0.1810 
  5 C       -1.7030     2.5180    -0.1890 C.3   1 <1>   0.0200 
  6 C        1.5830     1.5770     1.3820 C.2   1 <1>  -0.1500 
  7 C        1.0690     3.6750    -0.1440 C.3   1 <1>   0.4610 
  8 C       -1.3320     3.9880    -0.4370 C.3   1 <1>   0.1200 
  9 O       -0.0210     4.1090    -0.9400 O.3   1 <1>  -0.5600 
 10 C        2.2140     3.4120    -1.1420 C.3   1 <1>  -0.1600 
 11 C        1.4060     4.7900     0.8580 C.3   1 <1>  -0.1600 
 12 C        3.5590     3.9370    -0.6470 C.3   1 <1>   0.2090 
 13 C        2.1730     5.9140     0.1710 C.3   1 <1>   0.2090 
 14 N        3.4680     5.3970    -0.3590 N.pl3 1 <1>  -0.8380 
 15 C        4.6290     6.0940    -0.0820 C.ar  1 <1>   0.4100 
 16 N        5.6310     5.4190     0.4660 N.ar  1 <1>  -0.6200 
 17 C        4.7050     7.4520    -0.3800 C.ar  1 <1>  -0.1500 
 18 C        6.7240     6.1110     0.7290 C.ar  1 <1>   0.1600 
 19 C        5.8470     8.1770    -0.1020 C.ar  1 <1>  -0.1430 
 20 C        6.8840     7.4600     0.4740 C.ar  1 <1>  -0.1500 
 21 C        5.9740     9.6720    -0.4130 C.3   1 <1>   1.1630 
 22 F        4.8010    10.2680    -0.5950 F     1 <1>  -0.3400 
 23 F        6.5810    10.3380     0.5620 F     1 <1>  -0.3400 
 24 F        6.6820     9.8920    -1.5120 F     1 <1>  -0.3400 
 25 H        1.3750    -0.3070     2.5260 H     1 <1>   0.1500 
 26 H       -2.5980     2.4620     0.4030 H     1 <1>   0.0800 
 27 H       -1.8680     2.0110    -1.1220 H     1 <1>   0.0800 
 28 H        2.6130     1.8510     1.5230 H     1 <1>   0.1500 
 29 H       -1.4020     4.5480     0.4780 H     1 <1>   0.0800 
 30 H       -2.0010     4.4230    -1.1590 H     1 <1>   0.0800 
 31 H        2.0040     3.8990    -2.0780 H     1 <1>   0.0800 
 32 H        2.2950     2.3590    -1.3370 H     1 <1>   0.0800 
 33 H        2.0230     4.4000     1.6460 H     1 <1>   0.0800 
 34 H        0.5160     5.1730     1.3160 H     1 <1>   0.0800 
 35 H        4.3150     3.7720    -1.3960 H     1 <1>   0.0800 
 36 H        3.8560     3.4160     0.2480 H     1 <1>   0.0800 
 37 H        2.3570     6.7060     0.8770 H     1 <1>   0.0800 
 38 H        1.5900     6.3100    -0.6440 H     1 <1>   0.0800 
 39 H        3.8520     7.9140    -0.8410 H     1 <1>   0.1500 
 40 H        7.5410     5.5690     1.1750 H     1 <1>   0.1500 
 41 H        7.8150     7.9400     0.7230 H     1 <1>   0.1500 
@<TRIPOS>BOND
  1   1   2  1   
  2   1   3  1   
  3   2   4  2   
  4   2   5  1   
  5   3   6  2   
  6   3  25  1   
  7   4   6  1   
  8   4   7  1   
  9   5   8  1   
 10   5  26  1   
 11   5  27  1   
 12   6  28  1   
 13   7   9  1   
 14   7  10  1   
 15   7  11  1   
 16   8   9  1   
 17   8  29  1   
 18   8  30  1   
 19  10  12  1   
 20  10  31  1   
 21  10  32  1   
 22  11  13  1   
 23  11  33  1   
 24  11  34  1   
 25  12  14  1   
 26  12  35  1   
 27  12  36  1   
 28  13  14  1   
 29  13  37  1   
 30  13  38  1   
 31  14  15  1   
 32  15  16  ar  
 33  15  17  ar  
 34  16  18  ar  
 35  17  19  ar  
 36  17  39  1   
 37  18  20  ar  
 38  18  40  1   
 39  19  20  ar  
 40  19  21  1   
 41  20  41  1   
 42  21  22  1   
 43  21  23  1   
 44  21  24  1   
@<TRIPOS>SUBSTRUCTURE
  1 ****  14 GROUP 4 **** **** 0

# MOE 2024.06 (io_trps.svl 2023.06)
