@<TRIPOS>MOLECULE
NONAME
49 52 1 0 0 
SMALL
USER_CHARGES


@<TRIPOS>ATOM
  1 F        1.8520    -5.5860    -1.4680 F     1 <1>  -0.1900 
  2 C        2.3200    -4.4080    -1.1400 C.ar  1 <1>   0.1900 
  3 C        1.7090    -3.6810    -0.1230 C.ar  1 <1>  -0.0230 
  4 C        3.4160    -3.9400    -1.8400 C.ar  1 <1>  -0.1500 
  5 N        0.5890    -4.1810     0.5940 N.pl3 1 <1>   0.5930 
  6 C        2.2390    -2.4270     0.1690 C.ar  1 <1>  -0.1500 
  7 C        3.9280    -2.6940    -1.5250 C.ar  1 <1>  -0.1500 
  8 N       -0.4890    -3.4180     0.9050 N.2   1 <1>  -0.7070 
  9 C        0.4220    -5.4230     1.1180 C.2   1 <1>  -0.3020 
 10 C        3.3370    -1.9400    -0.5230 C.ar  1 <1>  -0.1500 
 11 C       -1.2830    -4.1730     1.5900 C.2   1 <1>   0.1390 
 12 C       -0.7690    -5.4540     1.7540 C.2   1 <1>  -0.1810 
 13 C       -1.4380    -6.5950     2.4840 C.3   1 <1>   0.5240 
 14 N       -2.0450    -7.4770     1.4670 N.4   1 <1>  -0.9590 
 15 C       -3.1610    -6.8890     0.6700 C.3   1 <1>   0.3430 
 16 C       -2.4770    -8.8210     1.9060 C.3   1 <1>   0.3430 
 17 C       -4.0030    -8.0810     0.1910 C.3   1 <1>   0.2000 
 18 C       -3.3300    -9.3430     0.7500 C.3   1 <1>  -0.0800 
 19 O       -5.2840    -7.9800     0.7210 O.3   1 <1>  -0.6800 
 20 C       -2.4890   -10.0940    -0.3110 C.3   1 <1>   0.0210 
 21 C       -1.1680    -9.4380    -0.6920 C.2   1 <1>   0.1080 
 22 N       -1.0590    -8.2120    -1.1050 N.2   1 <1>  -0.7070 
 23 C        0.0650   -10.0800    -0.6450 C.2   1 <1>  -0.1500 
 24 N        0.2540    -8.0540    -1.3830 N.pl3 1 <1>   0.3000 
 25 C        0.9540    -9.1660    -1.0860 C.2   1 <1>  -0.3320 
 26 C        2.4560    -9.2940    -1.2700 C.3   1 <1>  -0.0600 
 27 H        3.8590    -4.5360    -2.6190 H     1 <1>   0.1500 
 28 H        1.7870    -1.8250     0.9410 H     1 <1>   0.1500 
 29 H        4.7810    -2.3080    -2.0580 H     1 <1>   0.1500 
 30 H        1.1660    -6.1900     1.0020 H     1 <1>   0.1500 
 31 H        3.7330    -0.9680    -0.2820 H     1 <1>   0.1500 
 32 H       -2.2270    -3.8240     1.9770 H     1 <1>   0.1500 
 33 H       -2.1880    -6.2230     3.1640 H     1 <1>   0.0800 
 34 H       -0.6960    -7.1380     3.0460 H     1 <1>   0.0800 
 35 H       -1.3210    -7.6470     0.7340 H     1 <1>   0.4500 
 36 H       -3.7660    -6.2300     1.2690 H     1 <1>   0.0800 
 37 H       -2.7630    -6.3500    -0.1750 H     1 <1>   0.0800 
 38 H       -1.6330    -9.4650     2.0990 H     1 <1>   0.0800 
 39 H       -3.0800    -8.7390     2.7960 H     1 <1>   0.0800 
 40 H       -4.0900    -8.0900    -0.8830 H     1 <1>   0.0800 
 41 H       -4.0700   -10.0340     1.1170 H     1 <1>   0.0800 
 42 H       -5.3220    -8.1510     1.6810 H     1 <1>   0.4000 
 43 H       -3.0730   -10.2230    -1.2060 H     1 <1>   0.0800 
 44 H       -2.2730   -11.0800     0.0600 H     1 <1>   0.0800 
 45 H        0.2500   -11.0940    -0.3340 H     1 <1>   0.1500 
 46 H        0.6470    -7.1850    -1.7760 H     1 <1>   0.2700 
 47 H        2.7860   -10.2720    -0.9680 H     1 <1>   0.0800 
 48 H        2.9710    -8.5590    -0.6770 H     1 <1>   0.0800 
 49 H        2.7170    -9.1520    -2.3040 H     1 <1>   0.0800 
@<TRIPOS>BOND
  1   1   2  1   
  2   2   3  ar  
  3   2   4  ar  
  4   3   5  1   
  5   3   6  ar  
  6   4   7  ar  
  7   4  27  1   
  8   5   8  1   
  9   5   9  1   
 10   6  10  ar  
 11   6  28  1   
 12   7  10  ar  
 13   7  29  1   
 14   8  11  2   
 15   9  12  2   
 16   9  30  1   
 17  10  31  1   
 18  11  12  1   
 19  11  32  1   
 20  12  13  1   
 21  13  14  1   
 22  13  33  1   
 23  13  34  1   
 24  14  15  1   
 25  14  16  1   
 26  14  35  1   
 27  15  17  1   
 28  15  36  1   
 29  15  37  1   
 30  16  18  1   
 31  16  38  1   
 32  16  39  1   
 33  17  18  1   
 34  17  19  1   
 35  17  40  1   
 36  18  20  1   
 37  18  41  1   
 38  19  42  1   
 39  20  21  1   
 40  20  43  1   
 41  20  44  1   
 42  21  22  2   
 43  21  23  1   
 44  22  24  1   
 45  23  25  2   
 46  23  45  1   
 47  24  25  1   
 48  24  46  1   
 49  25  26  1   
 50  26  47  1   
 51  26  48  1   
 52  26  49  1   
@<TRIPOS>SUBSTRUCTURE
  1 ****   9 GROUP 4 **** **** 0

# MOE 2024.06 (io_trps.svl 2023.06)
