@<TRIPOS>MOLECULE
NONAME
47 49 1 0 0 
SMALL
USER_CHARGES


@<TRIPOS>ATOM
  1 O       -2.0680     0.7210    -1.8390 O.2   1 <1>  -0.5700 
  2 C       -1.9540     0.8310    -0.6400 C.2   1 <1>   0.5690 
  3 N       -1.9020    -0.2400     0.1960 N.am  1 <1>  -0.5790 
  4 C       -1.8700     2.2280    -0.0230 C.3   1 <1>  -0.0190 
  5 C       -2.1200    -1.6390    -0.1870 C.3   1 <1>   0.1810 
  6 C       -2.8580     3.2180    -0.6730 C.3   1 <1>  -0.1600 
  7 C       -0.4260     2.7770    -0.0850 C.3   1 <1>  -0.1600 
  8 C       -3.5840    -2.0370    -0.0860 C.ar  1 <1>  -0.0320 
  9 C       -1.2580    -2.2330    -1.2540 C.3   1 <1>  -0.2000 
 10 C       -1.0380    -2.6060     0.1770 C.3   1 <1>  -0.2000 
 11 C       -2.8780     4.5820     0.0510 C.3   1 <1>   0.2000 
 12 C       -0.3380     4.3120     0.0520 C.3   1 <1>  -0.1600 
 13 C       -4.0700    -2.7130     1.0220 C.ar  1 <1>  -0.1500 
 14 C       -4.4550    -1.7070    -1.1120 C.ar  1 <1>  -0.1500 
 15 O       -3.1160     5.5900    -0.9010 O.3   1 <1>  -0.5600 
 16 C       -1.5500     4.8860     0.7920 C.3   1 <1>   0.2000 
 17 C       -5.4090    -3.0580     1.1010 C.ar  1 <1>  -0.1500 
 18 C       -5.7930    -2.0520    -1.0350 C.ar  1 <1>  -0.1500 
 19 C       -4.4370     5.7050    -1.3310 C.3   1 <1>   0.0400 
 20 O       -1.3850     6.2520     0.8890 O.3   1 <1>  -0.6800 
 21 C       -6.2770    -2.7290     0.0730 C.ar  1 <1>  -0.1440 
 22 C       -7.7440    -3.1100     0.1590 C.3   1 <1>  -0.0970 
 23 H       -1.8870    -0.0910     1.2010 H     1 <1>   0.3700 
 24 H       -2.1490     2.1380     1.0120 H     1 <1>   0.0800 
 25 H       -3.8470     2.7950    -0.6640 H     1 <1>   0.0800 
 26 H       -2.5640     3.3610    -1.6990 H     1 <1>   0.0800 
 27 H        0.1530     2.3140     0.6950 H     1 <1>   0.0800 
 28 H        0.0240     2.4990    -1.0240 H     1 <1>   0.0800 
 29 H       -1.6950    -2.9610    -1.9140 H     1 <1>   0.1000 
 30 H       -0.5570    -1.5890    -1.7550 H     1 <1>   0.1000 
 31 H       -0.1510    -2.2440     0.6640 H     1 <1>   0.1000 
 32 H       -1.2950    -3.6090     0.4680 H     1 <1>   0.1000 
 33 H       -3.6720     4.6040     0.7790 H     1 <1>   0.0800 
 34 H       -0.3080     4.7450    -0.9330 H     1 <1>   0.0800 
 35 H        0.5680     4.5800     0.5660 H     1 <1>   0.0800 
 36 H       -3.4070    -2.9740     1.8270 H     1 <1>   0.1500 
 37 H       -4.0820    -1.1770    -1.9720 H     1 <1>   0.1500 
 38 H       -1.5790     4.4880     1.7920 H     1 <1>   0.0800 
 39 H       -5.7720    -3.5860     1.9650 H     1 <1>   0.1500 
 40 H       -6.4530    -1.7900    -1.8430 H     1 <1>   0.1500 
 41 H       -4.4920     6.5240    -2.0250 H     1 <1>   0.0800 
 42 H       -5.0710     5.9050    -0.4850 H     1 <1>   0.0800 
 43 H       -4.7360     4.7970    -1.8240 H     1 <1>   0.0800 
 44 H       -1.8130     6.6290     0.0860 H     1 <1>   0.4000 
 45 H       -8.0810    -3.0760     1.1790 H     1 <1>   0.0800 
 46 H       -7.8820    -4.1070    -0.2200 H     1 <1>   0.0800 
 47 H       -8.3450    -2.4330    -0.4200 H     1 <1>   0.0800 
@<TRIPOS>BOND
  1   1   2  2   
  2   2   3  am  
  3   2   4  1   
  4   3   5  1   
  5   3  23  1   
  6   4   6  1   
  7   4   7  1   
  8   4  24  1   
  9   5   8  1   
 10   5   9  1   
 11   5  10  1   
 12   6  11  1   
 13   6  25  1   
 14   6  26  1   
 15   7  12  1   
 16   7  27  1   
 17   7  28  1   
 18   8  13  ar  
 19   8  14  ar  
 20   9  10  1   
 21   9  29  1   
 22   9  30  1   
 23  10  31  1   
 24  10  32  1   
 25  11  15  1   
 26  11  16  1   
 27  11  33  1   
 28  12  16  1   
 29  12  34  1   
 30  12  35  1   
 31  13  17  ar  
 32  13  36  1   
 33  14  18  ar  
 34  14  37  1   
 35  15  19  1   
 36  16  20  1   
 37  16  38  1   
 38  17  21  ar  
 39  17  39  1   
 40  18  21  ar  
 41  18  40  1   
 42  19  41  1   
 43  19  42  1   
 44  19  43  1   
 45  20  44  1   
 46  21  22  1   
 47  22  45  1   
 48  22  46  1   
 49  22  47  1   
@<TRIPOS>SUBSTRUCTURE
  1 ****   2 GROUP 4 **** **** 0

# MOE 2024.06 (io_trps.svl 2023.06)
