@<TRIPOS>MOLECULE
NONAME
51 53 1 0 0 
SMALL
USER_CHARGES


@<TRIPOS>ATOM
  1 O        1.0680    -1.6310    -1.9790 O.3   1 <1>  -0.6800 
  2 C        0.3730    -2.1100    -0.8780 C.3   1 <1>   0.1200 
  3 C        1.2120    -1.9940     0.4280 C.3   1 <1>   0.0000 
  4 C        2.6630    -2.5420     0.2960 C.3   1 <1>   0.4230 
  5 C        1.2740    -0.5050     0.8680 C.3   1 <1>  -0.1600 
  6 C        0.4850    -2.8000     1.5420 C.3   1 <1>  -0.1600 
  7 N        2.7210    -4.0160    -0.1040 N.4   1 <1>  -0.9590 
  8 C        3.5920    -1.5820    -0.5170 C.3   1 <1>   0.3430 
  9 C        2.1500     0.3780    -0.0280 C.3   1 <1>   0.3430 
 10 C        1.0360    -4.2290     1.7380 C.3   1 <1>  -0.1600 
 11 C        1.5880    -4.8380     0.4480 C.3   1 <1>   0.3430 
 12 C        2.8260    -4.2730    -1.5820 C.3   1 <1>   0.2630 
 13 N        3.5520    -0.1470    -0.0430 N.4   1 <1>  -0.9590 
 14 C        4.4380     0.7110    -0.8870 C.3   1 <1>   0.3430 
 15 C        4.7280     2.0260    -0.1660 C.3   1 <1>  -0.1600 
 16 C        5.8170     2.8380    -0.8890 C.3   1 <1>   0.0960 
 17 N        6.2160     3.9990    -0.0700 N.pl3 1 <1>   0.3140 
 18 N        6.7560     3.8370     1.1500 N.2   1 <1>  -0.7070 
 19 C        6.1000     5.3030    -0.3880 C.2   1 <1>  -0.3020 
 20 C        6.9780     5.0430     1.5780 C.2   1 <1>   0.1390 
 21 C        6.5850     6.0060     0.6570 C.2   1 <1>  -0.1500 
 22 H        0.4660    -1.5710    -2.7590 H     1 <1>   0.4000 
 23 H       -0.5400    -1.5430    -0.7890 H     1 <1>   0.0800 
 24 H        0.1030    -3.1310    -1.0850 H     1 <1>   0.0800 
 25 H        3.0550    -2.5050     1.2990 H     1 <1>   0.0800 
 26 H        1.6490    -0.4230     1.8740 H     1 <1>   0.0800 
 27 H        0.2790    -0.0920     0.8780 H     1 <1>   0.0800 
 28 H        0.5600    -2.3010     2.4950 H     1 <1>   0.0800 
 29 H       -0.5690    -2.8550     1.3240 H     1 <1>   0.0800 
 30 H        3.5710    -4.4110     0.3280 H     1 <1>   0.4500 
 31 H        3.2960    -1.6090    -1.5510 H     1 <1>   0.0800 
 32 H        4.6040    -1.9450    -0.4500 H     1 <1>   0.0800 
 33 H        2.1370     1.3880     0.3510 H     1 <1>   0.0800 
 34 H        1.7510     0.3940    -1.0300 H     1 <1>   0.0800 
 35 H        0.2480    -4.8590     2.1150 H     1 <1>   0.0800 
 36 H        1.8130    -4.2280     2.4830 H     1 <1>   0.0800 
 37 H        0.7880    -4.8900    -0.2730 H     1 <1>   0.0800 
 38 H        1.9220    -5.8470     0.6350 H     1 <1>   0.0800 
 39 H        1.9620    -3.8860    -2.0970 H     1 <1>   0.0800 
 40 H        2.8860    -5.3330    -1.7730 H     1 <1>   0.0800 
 41 H        3.7080    -3.8080    -1.9910 H     1 <1>   0.0800 
 42 H        3.9190    -0.0860     0.9200 H     1 <1>   0.4500 
 43 H        5.3740     0.2020    -1.0580 H     1 <1>   0.0800 
 44 H        3.9780     0.9020    -1.8440 H     1 <1>   0.0800 
 45 H        5.0760     1.8060     0.8300 H     1 <1>   0.0800 
 46 H        3.8400     2.6290    -0.1040 H     1 <1>   0.0800 
 47 H        5.4670     3.1910    -1.8420 H     1 <1>   0.0800 
 48 H        6.6970     2.2390    -1.0420 H     1 <1>   0.0800 
 49 H        5.6930     5.6570    -1.3170 H     1 <1>   0.1500 
 50 H        7.4160     5.2630     2.5380 H     1 <1>   0.1500 
 51 H        6.6650     7.0720     0.7800 H     1 <1>   0.1500 
@<TRIPOS>BOND
  1   1   2  1   
  2   1  22  1   
  3   2   3  1   
  4   2  23  1   
  5   2  24  1   
  6   3   4  1   
  7   3   5  1   
  8   3   6  1   
  9   4   7  1   
 10   4   8  1   
 11   4  25  1   
 12   5   9  1   
 13   5  26  1   
 14   5  27  1   
 15   6  10  1   
 16   6  28  1   
 17   6  29  1   
 18   7  11  1   
 19   7  12  1   
 20   7  30  1   
 21   8  13  1   
 22   8  31  1   
 23   8  32  1   
 24   9  13  1   
 25   9  33  1   
 26   9  34  1   
 27  10  11  1   
 28  10  35  1   
 29  10  36  1   
 30  11  37  1   
 31  11  38  1   
 32  12  39  1   
 33  12  40  1   
 34  12  41  1   
 35  13  14  1   
 36  13  42  1   
 37  14  15  1   
 38  14  43  1   
 39  14  44  1   
 40  15  16  1   
 41  15  45  1   
 42  15  46  1   
 43  16  17  1   
 44  16  47  1   
 45  16  48  1   
 46  17  18  1   
 47  17  19  1   
 48  18  20  2   
 49  19  21  2   
 50  19  49  1   
 51  20  21  1   
 52  20  50  1   
 53  21  51  1   
@<TRIPOS>SUBSTRUCTURE
  1 ****  13 GROUP 4 **** **** 0

# MOE 2024.06 (io_trps.svl 2023.06)
