@<TRIPOS>MOLECULE
NONAME
47 48 1 0 0 
SMALL
USER_CHARGES


@<TRIPOS>ATOM
  1 F       -1.0740    -1.8810     1.4810 F     1 <1>  -0.1900 
  2 C        0.0810    -1.8590     0.8670 C.ar  1 <1>   0.1900 
  3 C        0.8450    -3.0220     0.8020 C.ar  1 <1>  -0.1440 
  4 C        0.4760    -0.6710     0.2840 C.ar  1 <1>  -0.1500 
  5 C        2.0520    -2.9780     0.1130 C.ar  1 <1>  -0.1500 
  6 C        0.4130    -4.3280     1.4660 C.3   1 <1>   0.0450 
  7 C        1.6800    -0.6730    -0.3900 C.ar  1 <1>   0.1900 
  8 C        2.4740    -1.8020    -0.4890 C.ar  1 <1>  -0.1500 
  9 C        0.2050    -5.4820     0.4900 C.2   1 <1>   0.5690 
 10 F        2.0810     0.4310    -0.9590 F     1 <1>  -0.1900 
 11 O        0.9770    -6.4060     0.5730 O.2   1 <1>  -0.5700 
 12 N       -0.8290    -5.4990    -0.4170 N.am  1 <1>  -0.6600 
 13 C       -1.0770    -6.7240    -1.2460 C.3   1 <1>   0.3210 
 14 C       -1.7670    -4.3770    -0.7020 C.3   1 <1>   0.1400 
 15 C       -2.3980    -7.3910    -0.8610 C.2   1 <1>   0.0460 
 16 C       -2.8970    -4.3250     0.3420 C.3   1 <1>   0.3430 
 17 N       -3.5930    -6.9210    -1.2940 N.2   1 <1>  -0.5650 
 18 C       -2.5660    -8.4940    -0.0950 C.2   1 <1>  -0.3320 
 19 N       -4.0130    -3.4050    -0.0610 N.4   1 <1>  -0.9590 
 20 C       -4.4470    -7.7670    -0.8110 C.2   1 <1>   0.0360 
 21 N       -3.8860    -8.7440    -0.0690 N.pl3 1 <1>   0.0330 
 22 C       -1.5510    -9.3670     0.6280 C.3   1 <1>  -0.0600 
 23 C       -4.8900    -3.1200     1.1130 C.3   1 <1>   0.2630 
 24 C       -4.8150    -4.0110    -1.1730 C.3   1 <1>   0.2630 
 25 H       -0.1210     0.2190     0.3480 H     1 <1>   0.1500 
 26 H        2.6700    -3.8600     0.0420 H     1 <1>   0.1500 
 27 H       -0.4780    -4.2030     2.0470 H     1 <1>   0.0800 
 28 H        1.1840    -4.6160     2.1590 H     1 <1>   0.0800 
 29 H        3.4060    -1.7570    -1.0240 H     1 <1>   0.1500 
 30 H       -0.2790    -7.4330    -1.1300 H     1 <1>   0.0800 
 31 H       -1.1080    -6.4560    -2.2880 H     1 <1>   0.0800 
 32 H       -2.1870    -4.5280    -1.6800 H     1 <1>   0.0800 
 33 H       -1.2320    -3.4490    -0.7240 H     1 <1>   0.0800 
 34 H       -2.4810    -3.9940     1.2780 H     1 <1>   0.0800 
 35 H       -3.2890    -5.3190     0.4830 H     1 <1>   0.0800 
 36 H       -3.6030    -2.5150    -0.3840 H     1 <1>   0.4500 
 37 H       -5.5100    -7.7240    -0.9740 H     1 <1>   0.1500 
 38 H       -4.3630    -9.5220     0.3970 H     1 <1>   0.2700 
 39 H       -0.5610    -8.9550     0.5450 H     1 <1>   0.0800 
 40 H       -1.5450   -10.3570     0.2070 H     1 <1>   0.0800 
 41 H       -1.7960    -9.4350     1.6730 H     1 <1>   0.0800 
 42 H       -5.3270    -4.0330     1.4840 H     1 <1>   0.0800 
 43 H       -5.6840    -2.4460     0.8320 H     1 <1>   0.0800 
 44 H       -4.3180    -2.6640     1.9060 H     1 <1>   0.0800 
 45 H       -5.2330    -4.9550    -0.8590 H     1 <1>   0.0800 
 46 H       -4.1950    -4.1930    -2.0350 H     1 <1>   0.0800 
 47 H       -5.6190    -3.3540    -1.4600 H     1 <1>   0.0800 
@<TRIPOS>BOND
  1   1   2  1   
  2   2   3  ar  
  3   2   4  ar  
  4   3   5  ar  
  5   3   6  1   
  6   4   7  ar  
  7   4  25  1   
  8   5   8  ar  
  9   5  26  1   
 10   6   9  1   
 11   6  27  1   
 12   6  28  1   
 13   7   8  ar  
 14   7  10  1   
 15   8  29  1   
 16   9  11  2   
 17   9  12  am  
 18  12  13  1   
 19  12  14  1   
 20  13  15  1   
 21  13  30  1   
 22  13  31  1   
 23  14  16  1   
 24  14  32  1   
 25  14  33  1   
 26  15  17  1   
 27  15  18  2   
 28  16  19  1   
 29  16  34  1   
 30  16  35  1   
 31  17  20  2   
 32  18  21  1   
 33  18  22  1   
 34  19  23  1   
 35  19  24  1   
 36  19  36  1   
 37  20  21  1   
 38  20  37  1   
 39  21  38  1   
 40  22  39  1   
 41  22  40  1   
 42  22  41  1   
 43  23  42  1   
 44  23  43  1   
 45  23  44  1   
 46  24  45  1   
 47  24  46  1   
 48  24  47  1   
@<TRIPOS>SUBSTRUCTURE
  1 ****  14 GROUP 4 **** **** 0

# MOE 2024.06 (io_trps.svl 2023.06)
