@<TRIPOS>MOLECULE
NONAME
48 50 1 0 0 
SMALL
USER_CHARGES


@<TRIPOS>ATOM
  1 S       -0.5780    -2.2030    -1.6050 S.3   1 <1>  -0.0800 
  2 C       -0.2770    -2.4850     0.0950 C.2   1 <1>   0.2280 
  3 C       -2.2580    -2.5630    -1.3350 C.2   1 <1>  -0.1100 
  4 N       -1.3070    -2.8050     0.7710 N.2   1 <1>  -0.5650 
  5 C       -2.4400    -2.8530    -0.0370 C.2   1 <1>   0.0460 
  6 C       -3.7740    -3.2200     0.5980 C.3   1 <1>   0.3210 
  7 N       -3.9740    -4.7010     0.6000 N.am  1 <1>  -0.6600 
  8 C       -4.7300    -5.2900    -0.3910 C.2   1 <1>   0.5690 
  9 C       -3.0720    -5.4340     1.5380 C.3   1 <1>   0.0600 
 10 O       -5.2670    -4.6110    -1.2380 O.2   1 <1>  -0.5700 
 11 C       -4.9720    -6.8050    -0.4690 C.3   1 <1>   0.2610 
 12 O       -3.7690    -7.5580    -0.4110 O.3   1 <1>  -0.5600 
 13 C       -5.9620    -7.2300     0.6420 C.3   1 <1>   0.3640 
 14 C       -3.9450    -8.9470    -0.5900 C.3   1 <1>   0.1810 
 15 N       -5.9530    -8.6970     0.8590 N.am  1 <1>  -0.7300 
 16 C       -7.3830    -6.7760     0.3230 C.ar  1 <1>  -0.1430 
 17 C       -5.0370    -9.5280     0.3150 C.2   1 <1>   0.5690 
 18 C       -7.8670    -5.6060     0.8930 C.ar  1 <1>  -0.1500 
 19 C       -8.2010    -7.4940    -0.5420 C.ar  1 <1>  -0.1500 
 20 O       -5.0880   -10.7140     0.5180 O.2   1 <1>  -0.5700 
 21 C       -9.1440    -5.1540     0.6070 C.ar  1 <1>   0.0820 
 22 C       -9.4860    -7.0580    -0.8170 C.ar  1 <1>  -0.1500 
 23 O       -9.5250    -3.9780     1.1610 O.3   1 <1>  -0.3620 
 24 C       -9.9730    -5.9000    -0.2360 C.ar  1 <1>   0.0820 
 25 C       -9.6880    -2.9030     0.2620 C.3   1 <1>   0.0400 
 26 O      -11.2510    -5.5470    -0.5230 O.3   1 <1>  -0.3630 
 27 C      -12.1560    -5.5130     0.5590 C.3   1 <1>   0.0400 
 28 H        0.7370    -2.3680     0.4370 H     1 <1>   0.1500 
 29 H       -2.9320    -2.5270    -2.1720 H     1 <1>   0.1500 
 30 H       -4.5660    -2.7390     0.0510 H     1 <1>   0.0800 
 31 H       -3.8070    -2.8460     1.6060 H     1 <1>   0.0800 
 32 H       -2.9360    -4.8660     2.4420 H     1 <1>   0.0800 
 33 H       -2.1110    -5.5720     1.0720 H     1 <1>   0.0800 
 34 H       -3.4710    -6.3960     1.7980 H     1 <1>   0.0800 
 35 H       -5.4220    -7.0050    -1.4260 H     1 <1>   0.0800 
 36 H       -5.6600    -6.7650     1.5640 H     1 <1>   0.0800 
 37 H       -4.1970    -9.1270    -1.6190 H     1 <1>   0.0800 
 38 H       -3.0090    -9.4270    -0.3720 H     1 <1>   0.0800 
 39 H       -6.6940    -9.0900     1.4420 H     1 <1>   0.3700 
 40 H       -7.2570    -5.0200     1.5550 H     1 <1>   0.1500 
 41 H       -7.8470    -8.3980    -1.0070 H     1 <1>   0.1500 
 42 H      -10.1210    -7.6170    -1.4810 H     1 <1>   0.1500 
 43 H       -9.8910    -2.0150     0.8320 H     1 <1>   0.0800 
 44 H      -10.5110    -3.1120    -0.3980 H     1 <1>   0.0800 
 45 H       -8.7790    -2.7820    -0.3020 H     1 <1>   0.0800 
 46 H      -13.1470    -5.3800     0.1630 H     1 <1>   0.0800 
 47 H      -11.9090    -4.6930     1.2070 H     1 <1>   0.0800 
 48 H      -12.0940    -6.4450     1.0930 H     1 <1>   0.0800 
@<TRIPOS>BOND
  1   1   2  1   
  2   1   3  1   
  3   2   4  2   
  4   2  28  1   
  5   3   5  2   
  6   3  29  1   
  7   4   5  1   
  8   5   6  1   
  9   6   7  1   
 10   6  30  1   
 11   6  31  1   
 12   7   8  am  
 13   7   9  1   
 14   8  10  2   
 15   8  11  1   
 16   9  32  1   
 17   9  33  1   
 18   9  34  1   
 19  11  12  1   
 20  11  13  1   
 21  11  35  1   
 22  12  14  1   
 23  13  15  1   
 24  13  16  1   
 25  13  36  1   
 26  14  17  1   
 27  14  37  1   
 28  14  38  1   
 29  15  17  am  
 30  15  39  1   
 31  16  18  ar  
 32  16  19  ar  
 33  17  20  2   
 34  18  21  ar  
 35  18  40  1   
 36  19  22  ar  
 37  19  41  1   
 38  21  23  1   
 39  21  24  ar  
 40  22  24  ar  
 41  22  42  1   
 42  23  25  1   
 43  24  26  1   
 44  25  43  1   
 45  25  44  1   
 46  25  45  1   
 47  26  27  1   
 48  27  46  1   
 49  27  47  1   
 50  27  48  1   
@<TRIPOS>SUBSTRUCTURE
  1 ****   8 GROUP 4 **** **** 0

# MOE 2024.06 (io_trps.svl 2023.06)
