@<TRIPOS>MOLECULE
NONAME
49 51 1 0 0 
SMALL
USER_CHARGES


@<TRIPOS>ATOM
  1 S       -0.1410     0.5250     1.1680 S.o2  1 <1>   1.2040 
  2 O        0.3320     0.4650     2.5330 O.2   1 <1>  -0.6500 
  3 O       -0.2060     1.7980     0.4830 O.2   1 <1>  -0.6500 
  4 C       -1.7300    -0.3270     1.0310 C.ar  1 <1>  -0.0090 
  5 C        0.9180    -0.5330     0.2020 C.3   1 <1>  -0.1350 
  6 C       -2.6210    -0.0270     0.0080 C.ar  1 <1>  -0.1500 
  7 C       -2.0800    -1.3360     1.9200 C.ar  1 <1>  -0.1500 
  8 C       -3.8160    -0.7130    -0.1290 C.ar  1 <1>  -0.1500 
  9 C       -3.2720    -2.0260     1.7880 C.ar  1 <1>  -0.1500 
 10 C       -4.1490    -1.7190     0.7610 C.ar  1 <1>  -0.1430 
 11 C       -5.4630    -2.4830     0.6140 C.3   1 <1>   0.0440 
 12 C       -5.3650    -3.7640    -0.2160 C.2   1 <1>   0.5690 
 13 O       -4.2740    -4.2600    -0.3770 O.2   1 <1>  -0.5700 
 14 N       -6.4940    -4.3450    -0.7530 N.am  1 <1>  -0.6600 
 15 C       -7.8850    -3.9070    -0.4190 C.3   1 <1>   0.2200 
 16 C       -6.3420    -5.5000    -1.6930 C.3   1 <1>   0.0600 
 17 C       -8.8710    -5.0410    -0.1370 C.3   1 <1>  -0.1600 
 18 C       -8.5330    -3.1130    -1.5490 C.3   1 <1>  -0.1600 
 19 C      -10.2510    -4.4030    -0.3420 C.3   1 <1>  -0.0800 
 20 C      -10.0380    -3.1840    -1.2580 C.3   1 <1>  -0.0800 
 21 C      -10.8790    -3.8690     0.9530 C.3   1 <1>  -0.1600 
 22 C      -10.5700    -1.9650    -0.4880 C.3   1 <1>  -0.1600 
 23 C      -11.5140    -2.5470     0.5510 C.3   1 <1>   0.2000 
 24 O      -11.5990    -1.7090     1.6400 O.3   1 <1>  -0.6800 
 25 H        0.9400    -1.5210     0.6180 H     1 <1>   0.0800 
 26 H        1.9170    -0.1420     0.1940 H     1 <1>   0.0800 
 27 H        0.5660    -0.5910    -0.8100 H     1 <1>   0.0800 
 28 H       -2.3780     0.7540    -0.6940 H     1 <1>   0.1500 
 29 H       -1.4120    -1.5880     2.7260 H     1 <1>   0.1500 
 30 H       -4.4800    -0.4600    -0.9370 H     1 <1>   0.1500 
 31 H       -3.5110    -2.8110     2.4860 H     1 <1>   0.1500 
 32 H       -6.1790    -1.8270     0.1590 H     1 <1>   0.0800 
 33 H       -5.8270    -2.7450     1.5890 H     1 <1>   0.0800 
 34 H       -7.8760    -3.2860     0.4600 H     1 <1>   0.0800 
 35 H       -7.0740    -5.4510    -2.4780 H     1 <1>   0.0800 
 36 H       -6.4590    -6.4230    -1.1530 H     1 <1>   0.0800 
 37 H       -5.3650    -5.4930    -2.1470 H     1 <1>   0.0800 
 38 H       -8.7680    -5.8320    -0.8560 H     1 <1>   0.0800 
 39 H       -8.7450    -5.4440     0.8510 H     1 <1>   0.0800 
 40 H       -8.1680    -2.1030    -1.5920 H     1 <1>   0.0800 
 41 H       -8.3420    -3.5940    -2.4910 H     1 <1>   0.0800 
 42 H      -10.9270    -5.1020    -0.8080 H     1 <1>   0.0800 
 43 H      -10.5950    -3.3050    -2.1720 H     1 <1>   0.0800 
 44 H      -10.1180    -3.6970     1.6930 H     1 <1>   0.0800 
 45 H      -11.6140    -4.5510     1.3430 H     1 <1>   0.0800 
 46 H      -11.0850    -1.2840    -1.1420 H     1 <1>   0.0800 
 47 H       -9.7620    -1.4510     0.0020 H     1 <1>   0.0800 
 48 H      -12.5000    -2.6970     0.1420 H     1 <1>   0.0800 
 49 H      -10.7150    -1.5700     2.0260 H     1 <1>   0.4000 
@<TRIPOS>BOND
  1   1   2  2   
  2   1   3  2   
  3   1   4  1   
  4   1   5  1   
  5   4   6  ar  
  6   4   7  ar  
  7   5  25  1   
  8   5  26  1   
  9   5  27  1   
 10   6   8  ar  
 11   6  28  1   
 12   7   9  ar  
 13   7  29  1   
 14   8  10  ar  
 15   8  30  1   
 16   9  10  ar  
 17   9  31  1   
 18  10  11  1   
 19  11  12  1   
 20  11  32  1   
 21  11  33  1   
 22  12  13  2   
 23  12  14  am  
 24  14  15  1   
 25  14  16  1   
 26  15  17  1   
 27  15  18  1   
 28  15  34  1   
 29  16  35  1   
 30  16  36  1   
 31  16  37  1   
 32  17  19  1   
 33  17  38  1   
 34  17  39  1   
 35  18  20  1   
 36  18  40  1   
 37  18  41  1   
 38  19  20  1   
 39  19  21  1   
 40  19  42  1   
 41  20  22  1   
 42  20  43  1   
 43  21  23  1   
 44  21  44  1   
 45  21  45  1   
 46  22  23  1   
 47  22  46  1   
 48  22  47  1   
 49  23  24  1   
 50  23  48  1   
 51  24  49  1   
@<TRIPOS>SUBSTRUCTURE
  1 ****  11 GROUP 4 **** **** 0

# MOE 2024.06 (io_trps.svl 2023.06)
