@<TRIPOS>MOLECULE
NONAME
42 44 1 0 0 
SMALL
USER_CHARGES


@<TRIPOS>ATOM
  1 O       -0.1560     0.2650    -0.7530 O.2   1 <1>  -0.5700 
  2 C       -1.3100    -0.0640    -0.5480 C.2   1 <1>   0.7800 
  3 O       -1.7040    -1.3370    -0.4920 O.3   1 <1>  -0.2330 
  4 N       -2.3600     0.7810    -0.3260 N.am  1 <1>  -0.4770 
  5 C       -3.0250    -1.3230    -0.2210 C.ar  1 <1>   0.0820 
  6 C       -3.4610    -0.0210    -0.1110 C.ar  1 <1>   0.1170 
  7 C       -2.3040     2.2550    -0.3240 C.3   1 <1>   0.1400 
  8 C       -3.8800    -2.3960    -0.0610 C.ar  1 <1>  -0.1500 
  9 C       -4.7920     0.2490     0.1710 C.ar  1 <1>  -0.1500 
 10 C       -1.9180     2.7560     1.0660 C.3   1 <1>  -0.0990 
 11 C       -5.2110    -2.1270     0.2190 C.ar  1 <1>  -0.1500 
 12 C       -5.6690    -0.8140     0.3350 C.ar  1 <1>  -0.1440 
 13 C       -1.7610     4.2550     1.0350 C.2   1 <1>   0.5690 
 14 C       -7.1340    -0.5630     0.6450 C.3   1 <1>  -0.0960 
 15 O       -2.7470     4.9370     0.9120 O.2   1 <1>  -0.5700 
 16 N       -0.5160     4.7850     1.1220 N.am  1 <1>  -0.7300 
 17 C       -0.2170     6.2390     1.1540 C.3   1 <1>   0.1400 
 18 C       -0.1640     6.8010    -0.2680 C.3   1 <1>  -0.0170 
 19 C        0.4630     8.1860    -0.2870 C.ar  1 <1>   0.1670 
 20 N       -0.1040     9.1090     0.4750 N.ar  1 <1>  -0.6200 
 21 C        1.5830     8.4300    -1.0810 C.ar  1 <1>   0.1600 
 22 C        0.5120    10.2760     0.3880 C.ar  1 <1>   0.1600 
 23 N        2.2040     9.5950    -1.1660 N.ar  1 <1>  -0.6200 
 24 C        1.6280    10.5110    -0.4050 C.ar  1 <1>   0.1600 
 25 H       -3.2610     2.6560    -0.6110 H     1 <1>   0.0800 
 26 H       -1.5720     2.5780    -1.0450 H     1 <1>   0.0800 
 27 H       -3.5150    -3.4030    -0.1530 H     1 <1>   0.1500 
 28 H       -5.1250     1.2670     0.2580 H     1 <1>   0.1500 
 29 H       -0.9960     2.3010     1.3780 H     1 <1>   0.0800 
 30 H       -2.6890     2.5050     1.7710 H     1 <1>   0.0800 
 31 H       -5.8990    -2.9450     0.3490 H     1 <1>   0.1500 
 32 H       -7.3530     0.4900     0.6460 H     1 <1>   0.0800 
 33 H       -7.3780    -0.9640     1.6120 H     1 <1>   0.0800 
 34 H       -7.7520    -1.0390    -0.0950 H     1 <1>   0.0800 
 35 H        0.2910     4.1630     1.2090 H     1 <1>   0.3700 
 36 H        0.7260     6.3950     1.6490 H     1 <1>   0.0800 
 37 H       -0.9800     6.7550     1.7150 H     1 <1>   0.0800 
 38 H       -1.1650     6.8670    -0.6560 H     1 <1>   0.0800 
 39 H        0.4020     6.1370    -0.8940 H     1 <1>   0.0800 
 40 H        1.9850     7.6290    -1.6740 H     1 <1>   0.1500 
 41 H        0.1140    11.0860     0.9730 H     1 <1>   0.1500 
 42 H        2.0610    11.4950    -0.4100 H     1 <1>   0.1500 
@<TRIPOS>BOND
  1   1   2  2   
  2   2   3  1   
  3   2   4  am  
  4   3   5  1   
  5   4   6  1   
  6   4   7  1   
  7   5   6  ar  
  8   5   8  ar  
  9   6   9  ar  
 10   7  10  1   
 11   7  25  1   
 12   7  26  1   
 13   8  11  ar  
 14   8  27  1   
 15   9  12  ar  
 16   9  28  1   
 17  10  13  1   
 18  10  29  1   
 19  10  30  1   
 20  11  12  ar  
 21  11  31  1   
 22  12  14  1   
 23  13  15  2   
 24  13  16  am  
 25  14  32  1   
 26  14  33  1   
 27  14  34  1   
 28  16  17  1   
 29  16  35  1   
 30  17  18  1   
 31  17  36  1   
 32  17  37  1   
 33  18  19  1   
 34  18  38  1   
 35  18  39  1   
 36  19  20  ar  
 37  19  21  ar  
 38  20  22  ar  
 39  21  23  ar  
 40  21  40  1   
 41  22  24  ar  
 42  22  41  1   
 43  23  24  ar  
 44  24  42  1   
@<TRIPOS>SUBSTRUCTURE
  1 ****  10 GROUP 4 **** **** 0

# MOE 2024.06 (io_trps.svl 2023.06)
