@<TRIPOS>MOLECULE
NONAME
42 44 1 0 0 
SMALL
USER_CHARGES


@<TRIPOS>ATOM
  1 O        0.3640    -1.3350     2.0820 O.2   1 <1>  -0.5700 
  2 C        0.2200    -2.4260     1.5480 C.2   1 <1>   0.6160 
  3 N       -0.1230    -2.5230     0.2080 N.am  1 <1>  -0.4690 
  4 C        0.3950    -3.6370     2.2700 C.2   1 <1>  -0.1360 
  5 C       -0.2960    -3.7540    -0.3800 C.2   1 <1>  -0.0410 
  6 C       -0.2970    -1.2800    -0.5870 C.3   1 <1>   0.0600 
  7 C        0.2230    -4.8490     1.6800 C.2   1 <1>  -0.1500 
  8 C       -0.1480    -4.9390     0.3010 C.2   1 <1>   0.0140 
  9 C       -0.3600    -6.2140    -0.3500 C.2   1 <1>   0.6160 
 10 O       -0.4560    -6.2880    -1.5610 O.2   1 <1>  -0.5700 
 11 N       -0.4920    -7.3680     0.3670 N.am  1 <1>  -0.7300 
 12 C       -0.7110    -8.7180    -0.2030 C.3   1 <1>   0.2200 
 13 C       -2.1690    -9.1430    -0.0740 C.3   1 <1>  -0.0800 
 14 C       -0.0450    -9.7410     0.7060 C.3   1 <1>   0.1200 
 15 C       -2.2400    -9.7100     1.3500 C.3   1 <1>   0.1200 
 16 C       -3.2190    -8.0590    -0.3790 C.3   1 <1>  -0.0170 
 17 O       -0.9210    -9.8840     1.7820 O.3   1 <1>  -0.5600 
 18 C       -4.6270    -8.6240    -0.2850 C.ar  1 <1>  -0.1430 
 19 C       -5.4200    -8.4370     0.8300 C.ar  1 <1>  -0.1500 
 20 C       -5.1850    -9.3550    -1.3140 C.ar  1 <1>  -0.1500 
 21 C       -6.6930    -8.9820     0.8630 C.ar  1 <1>   0.1600 
 22 C       -6.4690    -9.8560    -1.1800 C.ar  1 <1>   0.1600 
 23 N       -7.2360    -9.6890    -0.1150 N.ar  1 <1>  -0.6200 
 24 H        0.6720    -3.5310     3.3020 H     1 <1>   0.1500 
 25 H       -0.5630    -3.7690    -1.4250 H     1 <1>   0.1500 
 26 H       -0.5490    -1.5120    -1.6060 H     1 <1>   0.0800 
 27 H        0.6170    -0.7120    -0.5690 H     1 <1>   0.0800 
 28 H       -1.0840    -0.6860    -0.1540 H     1 <1>   0.0800 
 29 H        0.3720    -5.7530     2.2440 H     1 <1>   0.1500 
 30 H       -0.5280    -7.3480     1.3870 H     1 <1>   0.3700 
 31 H       -0.3470    -8.7710    -1.2160 H     1 <1>   0.0800 
 32 H       -2.3310    -9.9630    -0.7520 H     1 <1>   0.0800 
 33 H        0.9200    -9.4230     1.0590 H     1 <1>   0.0800 
 34 H        0.0380   -10.6950     0.2150 H     1 <1>   0.0800 
 35 H       -2.7450   -10.6610     1.3740 H     1 <1>   0.0800 
 36 H       -2.7180    -9.0280     2.0300 H     1 <1>   0.0800 
 37 H       -3.0550    -7.6720    -1.3710 H     1 <1>   0.0800 
 38 H       -3.1220    -7.2350     0.3070 H     1 <1>   0.0800 
 39 H       -5.0630    -7.8750     1.6720 H     1 <1>   0.1500 
 40 H       -4.6330    -9.5380    -2.2180 H     1 <1>   0.1500 
 41 H       -7.2970    -8.8270     1.7400 H     1 <1>   0.1500 
 42 H       -6.8880   -10.4240    -1.9930 H     1 <1>   0.1500 
@<TRIPOS>BOND
  1   1   2  2   
  2   2   3  am  
  3   2   4  1   
  4   3   5  1   
  5   3   6  1   
  6   4   7  2   
  7   4  24  1   
  8   5   8  2   
  9   5  25  1   
 10   6  26  1   
 11   6  27  1   
 12   6  28  1   
 13   7   8  1   
 14   7  29  1   
 15   8   9  1   
 16   9  10  2   
 17   9  11  am  
 18  11  12  1   
 19  11  30  1   
 20  12  13  1   
 21  12  14  1   
 22  12  31  1   
 23  13  15  1   
 24  13  16  1   
 25  13  32  1   
 26  14  17  1   
 27  14  33  1   
 28  14  34  1   
 29  15  17  1   
 30  15  35  1   
 31  15  36  1   
 32  16  18  1   
 33  16  37  1   
 34  16  38  1   
 35  18  19  ar  
 36  18  20  ar  
 37  19  21  ar  
 38  19  39  1   
 39  20  22  ar  
 40  20  40  1   
 41  21  23  ar  
 42  21  41  1   
 43  22  23  ar  
 44  22  42  1   
@<TRIPOS>SUBSTRUCTURE
  1 ****  11 GROUP 4 **** **** 0

# MOE 2024.06 (io_trps.svl 2023.06)
