@<TRIPOS>MOLECULE
NONAME
43 45 1 0 0 
SMALL
USER_CHARGES


@<TRIPOS>ATOM
  1 CL       0.3250     1.2940    -1.7770 Cl    1 <1>  -0.1770 
  2 C       -0.7990     1.8060    -0.5390 C.ar  1 <1>   0.1770 
  3 C       -1.1830     3.1420    -0.4260 C.ar  1 <1>  -0.1440 
  4 C       -1.2830     0.8380     0.3200 C.ar  1 <1>  -0.1500 
  5 C       -2.0830     3.4970     0.5740 C.ar  1 <1>  -0.1500 
  6 C       -0.6590     4.2350    -1.3590 C.3   1 <1>   0.0450 
  7 C       -2.1680     1.2290     1.3020 C.ar  1 <1>   0.1900 
  8 C       -2.5790     2.5410     1.4460 C.ar  1 <1>  -0.1500 
  9 C       -0.0080     5.3900    -0.6060 C.2   1 <1>   0.5690 
 10 F       -2.6340     0.3290     2.1240 F     1 <1>  -0.1900 
 11 O       -0.4500     6.4980    -0.7970 O.2   1 <1>  -0.5700 
 12 N        1.0640     5.2110     0.2370 N.am  1 <1>  -0.6600 
 13 C        1.4120     6.2640     1.2480 C.3   1 <1>   0.1400 
 14 C        1.9630     4.0200     0.2390 C.3   1 <1>   0.1400 
 15 C        2.7900     6.9550     1.0450 C.3   1 <1>   0.4230 
 16 C        3.3850     4.3910    -0.2360 C.3   1 <1>  -0.0800 
 17 N        3.3110     6.9810    -0.3810 N.4   1 <1>  -0.9590 
 18 C        3.8520     6.4080     2.0240 C.3   1 <1>   0.1200 
 19 C        4.4260     4.3980     0.8940 C.3   1 <1>   0.1200 
 20 C        3.4100     5.6620    -1.1030 C.3   1 <1>   0.3430 
 21 C        2.4860     7.9240    -1.2010 C.3   1 <1>   0.2630 
 22 O        3.9220     5.0170     2.0310 O.3   1 <1>  -0.5600 
 23 H       -0.9820    -0.1890     0.2270 H     1 <1>   0.1500 
 24 H       -2.4040     4.5200     0.6810 H     1 <1>   0.1500 
 25 H       -1.4920     4.6220    -1.9180 H     1 <1>   0.0800 
 26 H        0.0430     3.8590    -2.0750 H     1 <1>   0.0800 
 27 H       -3.2740     2.8040     2.2240 H     1 <1>   0.1500 
 28 H        0.6570     7.0300     1.2450 H     1 <1>   0.0800 
 29 H        1.3770     5.8220     2.2290 H     1 <1>   0.0800 
 30 H        1.9860     3.5870     1.2260 H     1 <1>   0.0800 
 31 H        1.5740     3.2680    -0.4200 H     1 <1>   0.0800 
 32 H        2.6490     7.9800     1.3440 H     1 <1>   0.0800 
 33 H        3.6890     3.5930    -0.8900 H     1 <1>   0.0800 
 34 H        4.2630     7.3640    -0.3310 H     1 <1>   0.4500 
 35 H        3.5820     6.6990     3.0240 H     1 <1>   0.0800 
 36 H        4.8280     6.8100     1.8170 H     1 <1>   0.0800 
 37 H        5.3480     4.8720     0.6030 H     1 <1>   0.0800 
 38 H        4.6490     3.3820     1.1780 H     1 <1>   0.0800 
 39 H        2.5900     5.5860    -1.7990 H     1 <1>   0.0800 
 40 H        4.3160     5.6580    -1.6870 H     1 <1>   0.0800 
 41 H        1.4740     7.5620    -1.2850 H     1 <1>   0.0800 
 42 H        2.8960     8.0200    -2.1930 H     1 <1>   0.0800 
 43 H        2.4610     8.9000    -0.7450 H     1 <1>   0.0800 
@<TRIPOS>BOND
  1   1   2  1   
  2   2   3  ar  
  3   2   4  ar  
  4   3   5  ar  
  5   3   6  1   
  6   4   7  ar  
  7   4  23  1   
  8   5   8  ar  
  9   5  24  1   
 10   6   9  1   
 11   6  25  1   
 12   6  26  1   
 13   7   8  ar  
 14   7  10  1   
 15   8  27  1   
 16   9  11  2   
 17   9  12  am  
 18  12  13  1   
 19  12  14  1   
 20  13  15  1   
 21  13  28  1   
 22  13  29  1   
 23  14  16  1   
 24  14  30  1   
 25  14  31  1   
 26  15  17  1   
 27  15  18  1   
 28  15  32  1   
 29  16  19  1   
 30  16  20  1   
 31  16  33  1   
 32  17  20  1   
 33  17  21  1   
 34  17  34  1   
 35  18  22  1   
 36  18  35  1   
 37  18  36  1   
 38  19  22  1   
 39  19  37  1   
 40  19  38  1   
 41  20  39  1   
 42  20  40  1   
 43  21  41  1   
 44  21  42  1   
 45  21  43  1   
@<TRIPOS>SUBSTRUCTURE
  1 ****  12 GROUP 4 **** **** 0

# MOE 2024.06 (io_trps.svl 2023.06)
