@<TRIPOS>MOLECULE
NONAME
54 57 1 0 0 
SMALL
USER_CHARGES


@<TRIPOS>ATOM
  1 O        0.8410     0.1370    -0.6520 O.3   1 <1>  -0.5600 
  2 C        2.0750    -0.3960    -0.2530 C.3   1 <1>   0.3440 
  3 C        0.8730     1.4730    -1.0620 C.3   1 <1>   0.2950 
  4 C        1.9000    -1.8510     0.1590 C.ar  1 <1>  -0.1440 
  5 C        2.6350     0.4090     0.9430 C.3   1 <1>   0.3430 
  6 C       -0.5420     1.8560    -1.4950 C.3   1 <1>  -0.1950 
  7 C        1.3620     2.3730     0.0960 C.3   1 <1>   0.3430 
  8 C        2.9200    -2.7610    -0.0840 C.ar  1 <1>  -0.1500 
  9 C        0.7440    -2.2870     0.7940 C.ar  1 <1>  -0.1500 
 10 N        2.6640     1.8940     0.6870 N.4   1 <1>  -0.9590 
 11 C       -1.0470     1.5230    -2.8630 C.3   1 <1>  -0.2000 
 12 C       -0.7760     2.9530    -2.4870 C.3   1 <1>  -0.2000 
 13 C        2.7910    -4.0810     0.3090 C.ar  1 <1>  -0.1500 
 14 C        0.6150    -3.6070     1.1870 C.ar  1 <1>  -0.1500 
 15 C        3.0540     2.6760     1.8860 C.3   1 <1>   0.4860 
 16 C        1.6390    -4.5050     0.9470 C.ar  1 <1>  -0.1500 
 17 C        3.2980     4.1060     1.4510 C.ar  1 <1>  -0.1430 
 18 C        4.2900     4.4000     0.5190 C.ar  1 <1>   0.0820 
 19 C        2.5270     5.1290     1.9860 C.ar  1 <1>  -0.1500 
 20 O        5.0160     3.3640     0.0160 O.3   1 <1>  -0.3620 
 21 C        4.4980     5.7200     0.1310 C.ar  1 <1>  -0.1500 
 22 C        2.7400     6.4380     1.5930 C.ar  1 <1>  -0.1500 
 23 C        6.2810     3.6030    -0.5790 C.3   1 <1>   0.1200 
 24 C        3.7240     6.7320     0.6680 C.ar  1 <1>  -0.1500 
 25 C        6.9600     2.2600    -0.8480 C.3   1 <1>   0.1200 
 26 O        8.2270     2.4800    -1.3600 O.3   1 <1>  -0.6800 
 27 H        2.7480    -0.3420    -1.0910 H     1 <1>   0.0800 
 28 H        1.5390     1.5540    -1.9050 H     1 <1>   0.0800 
 29 H        3.6250     0.0520     1.1710 H     1 <1>   0.0800 
 30 H        2.0090     0.1990     1.7950 H     1 <1>   0.0800 
 31 H       -1.2520     1.7680    -0.6890 H     1 <1>   0.1000 
 32 H        0.5980     2.3790     0.8550 H     1 <1>   0.0800 
 33 H        1.4700     3.3830    -0.2660 H     1 <1>   0.0800 
 34 H        3.8250    -2.4600    -0.5840 H     1 <1>   0.1500 
 35 H       -0.0690    -1.6060     0.9810 H     1 <1>   0.1500 
 36 H        3.4130     2.1130     0.0080 H     1 <1>   0.4500 
 37 H       -0.3900     1.0310    -3.5590 H     1 <1>   0.1000 
 38 H       -2.0680     1.1970    -2.9680 H     1 <1>   0.1000 
 39 H       -1.6220     3.6080    -2.3570 H     1 <1>   0.1000 
 40 H        0.0510     3.4450    -2.9700 H     1 <1>   0.1000 
 41 H        3.5840    -4.7830     0.1170 H     1 <1>   0.1500 
 42 H       -0.2850    -3.9390     1.6760 H     1 <1>   0.1500 
 43 H        2.2780     2.6360     2.6320 H     1 <1>   0.0800 
 44 H        3.9640     2.2790     2.3080 H     1 <1>   0.0800 
 45 H        1.5370    -5.5330     1.2520 H     1 <1>   0.1500 
 46 H        1.7590     4.9260     2.7130 H     1 <1>   0.1500 
 47 H        5.2520     5.9870    -0.5870 H     1 <1>   0.1500 
 48 H        2.1430     7.2330     2.0100 H     1 <1>   0.1500 
 49 H        6.1300     4.1370    -1.5010 H     1 <1>   0.0800 
 50 H        6.8730     4.1860     0.1060 H     1 <1>   0.0800 
 51 H        3.8870     7.7540     0.3670 H     1 <1>   0.1500 
 52 H        6.4060     1.6750    -1.5610 H     1 <1>   0.0800 
 53 H        7.0770     1.7110     0.0710 H     1 <1>   0.0800 
 54 H        8.1990     2.8360    -2.2710 H     1 <1>   0.4000 
@<TRIPOS>BOND
  1   1   2  1   
  2   1   3  1   
  3   2   4  1   
  4   2   5  1   
  5   2  27  1   
  6   3   6  1   
  7   3   7  1   
  8   3  28  1   
  9   4   8  ar  
 10   4   9  ar  
 11   5  10  1   
 12   5  29  1   
 13   5  30  1   
 14   6  11  1   
 15   6  12  1   
 16   6  31  1   
 17   7  10  1   
 18   7  32  1   
 19   7  33  1   
 20   8  13  ar  
 21   8  34  1   
 22   9  14  ar  
 23   9  35  1   
 24  10  15  1   
 25  10  36  1   
 26  11  12  1   
 27  11  37  1   
 28  11  38  1   
 29  12  39  1   
 30  12  40  1   
 31  13  16  ar  
 32  13  41  1   
 33  14  16  ar  
 34  14  42  1   
 35  15  17  1   
 36  15  43  1   
 37  15  44  1   
 38  16  45  1   
 39  17  18  ar  
 40  17  19  ar  
 41  18  20  1   
 42  18  21  ar  
 43  19  22  ar  
 44  19  46  1   
 45  20  23  1   
 46  21  24  ar  
 47  21  47  1   
 48  22  24  ar  
 49  22  48  1   
 50  23  25  1   
 51  23  49  1   
 52  23  50  1   
 53  24  51  1   
 54  25  26  1   
 55  25  52  1   
 56  25  53  1   
 57  26  54  1   
@<TRIPOS>SUBSTRUCTURE
  1 ****  10 GROUP 4 **** **** 0

# MOE 2024.06 (io_trps.svl 2023.06)
