@<TRIPOS>MOLECULE
NONAME
54 56 1 0 0 
SMALL
USER_CHARGES


@<TRIPOS>ATOM
  1 S       -1.1300    -2.7810     1.8470 S.o2  1 <1>   1.2040 
  2 O       -1.3310    -2.4230     3.2340 O.2   1 <1>  -0.6500 
  3 O        0.0220    -2.2710     1.1360 O.2   1 <1>  -0.6500 
  4 C       -2.6300    -2.4340     0.9040 C.ar  1 <1>  -0.0090 
  5 C       -1.0660    -4.5610     1.7560 C.3   1 <1>  -0.1350 
  6 C       -2.5940    -2.3790    -0.4820 C.ar  1 <1>  -0.1500 
  7 C       -3.8630    -2.2930     1.5310 C.ar  1 <1>  -0.1500 
  8 C       -3.7550    -2.2710    -1.2220 C.ar  1 <1>  -0.1500 
  9 C       -5.0300    -2.1800     0.7960 C.ar  1 <1>  -0.1500 
 10 C       -4.9830    -2.2160    -0.5870 C.ar  1 <1>  -0.1430 
 11 C       -6.2530    -2.2980    -1.4220 C.3   1 <1>   0.0440 
 12 C       -6.4320    -3.7470    -1.8670 C.2   1 <1>   0.5690 
 13 O       -6.0160    -4.0340    -2.9660 O.2   1 <1>  -0.5700 
 14 N       -6.9720    -4.6950    -1.0300 N.am  1 <1>  -0.6600 
 15 C       -6.5410    -6.1360    -1.1090 C.3   1 <1>   0.1400 
 16 C       -8.0440    -4.4400    -0.0310 C.3   1 <1>   0.1400 
 17 C       -6.0390    -6.6420     0.2660 C.3   1 <1>  -0.1060 
 18 C       -7.6050    -4.9120     1.3530 C.3   1 <1>  -0.1600 
 19 C       -5.8580    -8.1560     0.2470 C.2   1 <1>   0.9060 
 20 C       -7.1600    -6.3720     1.2940 C.3   1 <1>   0.2000 
 21 C       -4.7030    -5.9470     0.6580 C.3   1 <1>  -0.0160 
 22 O       -6.1570    -8.8070    -0.7590 O.co2 1 <1>  -0.9000 
 23 O       -5.5030    -8.7130     1.3000 O.co2 1 <1>  -0.9000 
 24 O       -6.7520    -6.7400     2.5610 O.3   1 <1>  -0.6800 
 25 C       -3.4850    -6.3420    -0.1730 C.ar  1 <1>  -0.1440 
 26 C       -2.6770    -7.3890     0.2420 C.ar  1 <1>  -0.1500 
 27 C       -3.1560    -5.6560    -1.3300 C.ar  1 <1>  -0.1500 
 28 C       -1.5410    -7.7270    -0.4740 C.ar  1 <1>  -0.1500 
 29 C       -2.0210    -5.9890    -2.0490 C.ar  1 <1>  -0.1500 
 30 C       -1.2080    -7.0230    -1.6180 C.ar  1 <1>  -0.1500 
 31 H       -1.9480    -4.9920     2.1900 H     1 <1>   0.0800 
 32 H       -0.2090    -4.9290     2.2840 H     1 <1>   0.0800 
 33 H       -1.0020    -4.8830     0.7340 H     1 <1>   0.0800 
 34 H       -1.6470    -2.4510    -0.9920 H     1 <1>   0.1500 
 35 H       -3.9120    -2.2960     2.6070 H     1 <1>   0.1500 
 36 H       -3.7030    -2.2720    -2.2990 H     1 <1>   0.1500 
 37 H       -5.9730    -2.1010     1.3090 H     1 <1>   0.1500 
 38 H       -6.1490    -1.6790    -2.2940 H     1 <1>   0.0800 
 39 H       -7.1000    -1.9420    -0.8740 H     1 <1>   0.0800 
 40 H       -7.3820    -6.7290    -1.4260 H     1 <1>   0.0800 
 41 H       -5.7690    -6.2660    -1.8480 H     1 <1>   0.0800 
 42 H       -8.3120    -3.4010     0.0060 H     1 <1>   0.0800 
 43 H       -8.9200    -4.9910    -0.3290 H     1 <1>   0.0800 
 44 H       -8.4310    -4.8230     2.0350 H     1 <1>   0.0800 
 45 H       -6.8020    -4.2960     1.7110 H     1 <1>   0.0800 
 46 H       -8.0080    -6.9920     1.0490 H     1 <1>   0.0800 
 47 H       -4.8200    -4.8850     0.6000 H     1 <1>   0.0800 
 48 H       -4.4740    -6.1740     1.6840 H     1 <1>   0.0800 
 49 H       -6.2620    -7.6060     2.4420 H     1 <1>   0.4000 
 50 H       -2.9440    -7.9530     1.1210 H     1 <1>   0.1500 
 51 H       -3.7910    -4.8650    -1.6810 H     1 <1>   0.1500 
 52 H       -0.9290    -8.5460    -0.1420 H     1 <1>   0.1500 
 53 H       -1.7800    -5.4490    -2.9470 H     1 <1>   0.1500 
 54 H       -0.3290    -7.2880    -2.1770 H     1 <1>   0.1500 
@<TRIPOS>BOND
  1   1   2  2   
  2   1   3  2   
  3   1   4  1   
  4   1   5  1   
  5   4   6  ar  
  6   4   7  ar  
  7   5  31  1   
  8   5  32  1   
  9   5  33  1   
 10   6   8  ar  
 11   6  34  1   
 12   7   9  ar  
 13   7  35  1   
 14   8  10  ar  
 15   8  36  1   
 16   9  10  ar  
 17   9  37  1   
 18  10  11  1   
 19  11  12  1   
 20  11  38  1   
 21  11  39  1   
 22  12  13  2   
 23  12  14  am  
 24  14  15  1   
 25  14  16  1   
 26  15  17  1   
 27  15  40  1   
 28  15  41  1   
 29  16  18  1   
 30  16  42  1   
 31  16  43  1   
 32  17  19  1   
 33  17  20  1   
 34  17  21  1   
 35  18  20  1   
 36  18  44  1   
 37  18  45  1   
 38  19  22  ar  
 39  19  23  ar  
 40  20  24  1   
 41  20  46  1   
 42  21  25  1   
 43  21  47  1   
 44  21  48  1   
 45  24  49  1   
 46  25  26  ar  
 47  25  27  ar  
 48  26  28  ar  
 49  26  50  1   
 50  27  29  ar  
 51  27  51  1   
 52  28  30  ar  
 53  28  52  1   
 54  29  30  ar  
 55  29  53  1   
 56  30  54  1   
@<TRIPOS>SUBSTRUCTURE
  1 ****  21 GROUP 4 **** **** 0

# MOE 2024.06 (io_trps.svl 2023.06)
