@<TRIPOS>MOLECULE
NONAME
57 59 1 0 0 
SMALL
USER_CHARGES


@<TRIPOS>ATOM
  1 O       -1.9150     0.1200     2.3260 O.2   1 <1>  -0.5700 
  2 C       -2.0440     0.6750     1.2510 C.2   1 <1>   0.5440 
  3 N       -2.6960     0.0100     0.2390 N.am  1 <1>  -0.6600 
  4 C       -1.5500     2.0270     1.0650 C.ar  1 <1>   0.0860 
  5 C       -2.6350    -1.4920     0.2080 C.3   1 <1>   0.3640 
  6 C       -3.8520     0.6720    -0.4300 C.3   1 <1>   0.1400 
  7 C       -1.0570     2.4610    -0.1630 C.ar  1 <1>  -0.1500 
  8 C       -1.5440     2.9460     2.1120 C.ar  1 <1>  -0.1500 
  9 C       -1.1700    -1.8950     0.0020 C.ar  1 <1>  -0.1430 
 10 C       -3.5050    -2.1710    -0.8980 C.3   1 <1>   0.2000 
 11 C       -4.3310    -0.1100    -1.6530 C.3   1 <1>   0.1200 
 12 C       -0.6000     3.7500    -0.3640 C.ar  1 <1>   0.0830 
 13 C       -1.0960     4.2430     1.9360 C.ar  1 <1>  -0.1500 
 14 C       -0.5430    -2.7290     0.9170 C.ar  1 <1>  -0.1500 
 15 C       -0.4510    -1.4400    -1.0960 C.ar  1 <1>  -0.1500 
 16 O       -4.6260    -1.4140    -1.2710 O.3   1 <1>  -0.5600 
 17 C       -4.0390    -3.5500    -0.4770 C.3   1 <1>   0.1200 
 18 O       -0.1580     4.0090    -1.6260 O.3   1 <1>  -0.3630 
 19 C       -0.6280     4.6720     0.6960 C.ar  1 <1>   0.0830 
 20 C        0.7740    -3.1180     0.7380 C.ar  1 <1>   0.0830 
 21 C        0.8710    -1.8100    -1.2760 C.ar  1 <1>  -0.1500 
 22 O       -3.0180    -4.4020    -0.0670 O.3   1 <1>  -0.6800 
 23 C        0.9220     4.8900    -1.8500 C.3   1 <1>   0.0400 
 24 O       -0.2190     5.9550     0.4970 O.3   1 <1>  -0.3630 
 25 O        1.3080    -3.9690     1.6470 O.3   1 <1>  -0.3620 
 26 C        1.4950    -2.6370    -0.3590 C.ar  1 <1>   0.0830 
 27 C       -0.2810     6.9390     1.5050 C.3   1 <1>   0.0400 
 28 C        1.5620    -5.2790     1.1920 C.3   1 <1>   0.0400 
 29 O        2.8000    -2.9390    -0.5750 O.3   1 <1>  -0.3630 
 30 C        3.7160    -2.4580     0.3840 C.3   1 <1>   0.0400 
 31 H       -2.9690    -1.8570     1.1640 H     1 <1>   0.0800 
 32 H       -4.6640     0.7480     0.2730 H     1 <1>   0.0800 
 33 H       -3.5830     1.6680    -0.7340 H     1 <1>   0.0800 
 34 H       -1.0210     1.7720    -0.9860 H     1 <1>   0.1500 
 35 H       -1.9000     2.6290     3.0780 H     1 <1>   0.1500 
 36 H       -2.9150    -2.2980    -1.7870 H     1 <1>   0.0800 
 37 H       -3.5820    -0.1240    -2.4270 H     1 <1>   0.0800 
 38 H       -5.2310     0.3300    -2.0450 H     1 <1>   0.0800 
 39 H       -1.1240     4.9020     2.7820 H     1 <1>   0.1500 
 40 H       -1.0760    -3.0890     1.7800 H     1 <1>   0.1500 
 41 H       -0.9160    -0.7860    -1.8130 H     1 <1>   0.1500 
 42 H       -4.5470    -4.0160    -1.3020 H     1 <1>   0.0800 
 43 H       -4.7220    -3.4450     0.3480 H     1 <1>   0.0800 
 44 H        1.4280    -1.4510    -2.1230 H     1 <1>   0.1500 
 45 H       -2.3070    -4.4570    -0.7370 H     1 <1>   0.4000 
 46 H        1.3430     4.6670    -2.8130 H     1 <1>   0.0800 
 47 H        1.6600     4.7460    -1.0810 H     1 <1>   0.0800 
 48 H        0.5530     5.9000    -1.8410 H     1 <1>   0.0800 
 49 H        0.0750     7.8650     1.0900 H     1 <1>   0.0800 
 50 H        0.3490     6.6410     2.3240 H     1 <1>   0.0800 
 51 H       -1.3020     7.0510     1.8230 H     1 <1>   0.0800 
 52 H        1.9280    -5.8570     2.0200 H     1 <1>   0.0800 
 53 H        2.2990    -5.2460     0.4100 H     1 <1>   0.0800 
 54 H        0.6430    -5.7010     0.8240 H     1 <1>   0.0800 
 55 H        4.7110    -2.6400     0.0190 H     1 <1>   0.0800 
 56 H        3.5660    -2.9770     1.3130 H     1 <1>   0.0800 
 57 H        3.5580    -1.4020     0.5170 H     1 <1>   0.0800 
@<TRIPOS>BOND
  1   1   2  2   
  2   2   3  am  
  3   2   4  1   
  4   3   5  1   
  5   3   6  1   
  6   4   7  ar  
  7   4   8  ar  
  8   5   9  1   
  9   5  10  1   
 10   5  31  1   
 11   6  11  1   
 12   6  32  1   
 13   6  33  1   
 14   7  12  ar  
 15   7  34  1   
 16   8  13  ar  
 17   8  35  1   
 18   9  14  ar  
 19   9  15  ar  
 20  10  16  1   
 21  10  17  1   
 22  10  36  1   
 23  11  16  1   
 24  11  37  1   
 25  11  38  1   
 26  12  18  1   
 27  12  19  ar  
 28  13  19  ar  
 29  13  39  1   
 30  14  20  ar  
 31  14  40  1   
 32  15  21  ar  
 33  15  41  1   
 34  17  22  1   
 35  17  42  1   
 36  17  43  1   
 37  18  23  1   
 38  19  24  1   
 39  20  25  1   
 40  20  26  ar  
 41  21  26  ar  
 42  21  44  1   
 43  22  45  1   
 44  23  46  1   
 45  23  47  1   
 46  23  48  1   
 47  24  27  1   
 48  25  28  1   
 49  26  29  1   
 50  27  49  1   
 51  27  50  1   
 52  27  51  1   
 53  28  52  1   
 54  28  53  1   
 55  28  54  1   
 56  29  30  1   
 57  30  55  1   
 58  30  56  1   
 59  30  57  1   
@<TRIPOS>SUBSTRUCTURE
  1 ****   2 GROUP 4 **** **** 0

# MOE 2024.06 (io_trps.svl 2023.06)
