@<TRIPOS>MOLECULE
NONAME
53 55 1 0 0 
SMALL
USER_CHARGES


@<TRIPOS>ATOM
  1 S        1.0430     2.0760     1.1050 S.o2  1 <1>   1.3330 
  2 O       -0.0600     2.9620     1.3760 O.2   1 <1>  -0.6500 
  3 O        2.3890     2.6050     1.1810 O.2   1 <1>  -0.6500 
  4 N        0.8730     1.5320    -0.4940 N.am  1 <1>  -0.8490 
  5 C        0.8720     0.6000     2.0850 C.3   1 <1>  -0.1350 
  6 C        2.0290     0.9040    -1.1710 C.3   1 <1>   0.1960 
  7 C       -0.0470     2.2760    -1.3620 C.3   1 <1>   0.1960 
  8 C        3.2210     1.8390    -1.5060 C.3   1 <1>   0.3430 
  9 C        0.4660     3.6740    -1.7330 C.3   1 <1>  -0.1600 
 10 N        2.8860     3.2970    -1.4510 N.4   1 <1>  -0.9590 
 11 C        1.8300     3.7050    -2.4190 C.3   1 <1>   0.3430 
 12 C        4.1040     4.1540    -1.4530 C.3   1 <1>   0.4860 
 13 C        3.7150     5.6000    -1.2480 C.ar  1 <1>  -0.1430 
 14 C        3.1760     6.0520    -0.0640 C.ar  1 <1>   0.1600 
 15 C        3.8770     6.5280    -2.2520 C.ar  1 <1>   0.1600 
 16 N        2.8060     7.2970     0.0980 N.ar  1 <1>  -0.6200 
 17 N        3.5100     7.7750    -2.1150 N.ar  1 <1>  -0.6200 
 18 C        2.9810     8.0980    -0.9450 C.ar  1 <1>   0.7200 
 19 N        2.5970     9.3870    -0.8450 N.pl3 1 <1>  -0.8690 
 20 C        2.3570    10.1090     0.4360 C.3   1 <1>   0.2090 
 21 C        3.6710    10.4460     1.1590 C.3   1 <1>   0.2000 
 22 O        3.4200    11.3270     2.2070 O.3   1 <1>  -0.5600 
 23 C        4.7070    11.1750     0.3120 C.3   1 <1>  -0.1600 
 24 C        4.5890    11.9890     2.5690 C.3   1 <1>   0.1200 
 25 C        5.5010    11.9580     1.3440 C.3   1 <1>  -0.1600 
 26 H        0.9570     0.8390     3.1280 H     1 <1>   0.0800 
 27 H        1.6310    -0.1130     1.8340 H     1 <1>   0.0800 
 28 H       -0.0900     0.1560     1.9170 H     1 <1>   0.0800 
 29 H        1.6880     0.4500    -2.0860 H     1 <1>   0.0800 
 30 H        2.3980     0.0980    -0.5580 H     1 <1>   0.0800 
 31 H       -1.0000     2.3740    -0.8640 H     1 <1>   0.0800 
 32 H       -0.2260     1.7070    -2.2600 H     1 <1>   0.0800 
 33 H        3.6130     1.5810    -2.4770 H     1 <1>   0.0800 
 34 H        3.9970     1.6380    -0.7850 H     1 <1>   0.0800 
 35 H        0.4730     4.3120    -0.8670 H     1 <1>   0.0800 
 36 H       -0.2490     4.1040    -2.4120 H     1 <1>   0.0800 
 37 H        2.4720     3.4100    -0.5040 H     1 <1>   0.4500 
 38 H        2.0080     4.7120    -2.7600 H     1 <1>   0.0800 
 39 H        1.8320     3.0550    -3.2790 H     1 <1>   0.0800 
 40 H        4.6280     4.0470    -2.3890 H     1 <1>   0.0800 
 41 H        4.7640     3.8510    -0.6560 H     1 <1>   0.0800 
 42 H        3.0350     5.3840     0.7720 H     1 <1>   0.1500 
 43 H        4.3110     6.2480    -3.1980 H     1 <1>   0.1500 
 44 H        2.8950     9.9560    -1.6350 H     1 <1>   0.4000 
 45 H        1.7450     9.5030     1.0820 H     1 <1>   0.0800 
 46 H        1.8260    11.0210     0.2240 H     1 <1>   0.0800 
 47 H        4.0940     9.5520     1.5840 H     1 <1>   0.0800 
 48 H        4.2130    11.8500    -0.3650 H     1 <1>   0.0800 
 49 H        5.3150    10.4880    -0.2490 H     1 <1>   0.0800 
 50 H        5.0300    11.4640     3.4000 H     1 <1>   0.0800 
 51 H        4.3350    12.9940     2.8600 H     1 <1>   0.0800 
 52 H        5.7300    12.9510     1.0010 H     1 <1>   0.0800 
 53 H        6.4180    11.4520     1.5910 H     1 <1>   0.0800 
@<TRIPOS>BOND
  1   1   2  2   
  2   1   3  2   
  3   1   4  am  
  4   1   5  1   
  5   4   6  1   
  6   4   7  1   
  7   5  26  1   
  8   5  27  1   
  9   5  28  1   
 10   6   8  1   
 11   6  29  1   
 12   6  30  1   
 13   7   9  1   
 14   7  31  1   
 15   7  32  1   
 16   8  10  1   
 17   8  33  1   
 18   8  34  1   
 19   9  11  1   
 20   9  35  1   
 21   9  36  1   
 22  10  11  1   
 23  10  12  1   
 24  10  37  1   
 25  11  38  1   
 26  11  39  1   
 27  12  13  1   
 28  12  40  1   
 29  12  41  1   
 30  13  14  ar  
 31  13  15  ar  
 32  14  16  ar  
 33  14  42  1   
 34  15  17  ar  
 35  15  43  1   
 36  16  18  ar  
 37  17  18  ar  
 38  18  19  1   
 39  19  20  1   
 40  19  44  1   
 41  20  21  1   
 42  20  45  1   
 43  20  46  1   
 44  21  22  1   
 45  21  23  1   
 46  21  47  1   
 47  22  24  1   
 48  23  25  1   
 49  23  48  1   
 50  23  49  1   
 51  24  25  1   
 52  24  50  1   
 53  24  51  1   
 54  25  52  1   
 55  25  53  1   
@<TRIPOS>SUBSTRUCTURE
  1 ****  14 GROUP 4 **** **** 0

# MOE 2024.06 (io_trps.svl 2023.06)
