@<TRIPOS>MOLECULE
NONAME
40 42 1 0 0 
SMALL
USER_CHARGES


@<TRIPOS>ATOM
  1 S       -0.1520     0.0890    -0.3190 S.3   1 <1>  -0.0800 
  2 C       -1.4370    -0.7340     0.5710 C.2   1 <1>  -0.0450 
  3 C       -0.7310     1.6720     0.1540 C.2   1 <1>  -0.1400 
  4 C       -1.4740    -2.1760     0.5360 C.2   1 <1>   0.7150 
  5 C       -2.2110     0.2060     1.1740 C.2   1 <1>  -0.1500 
  6 C       -1.8180     1.5560     0.9360 C.2   1 <1>  -0.1500 
  7 C        0.0370     2.8740    -0.3550 C.3   1 <1>  -0.0600 
  8 O       -0.4430    -2.8200     0.5990 O.2   1 <1>  -0.5700 
  9 N       -2.6660    -2.8630     0.4380 N.am  1 <1>  -0.6600 
 10 C       -3.9430    -2.2780    -0.0480 C.3   1 <1>   0.1400 
 11 C       -2.7180    -4.3470     0.3270 C.3   1 <1>   0.1400 
 12 C       -4.9400    -3.4330     0.0140 C.3   1 <1>   0.2000 
 13 C       -4.0820    -4.6600    -0.3000 C.3   1 <1>  -0.0800 
 14 O       -5.4140    -3.5170     1.3150 O.3   1 <1>  -0.6800 
 15 C       -4.6710    -6.0140     0.1340 C.3   1 <1>   0.0210 
 16 C       -3.7300    -7.1500    -0.2170 C.2   1 <1>   0.1080 
 17 N       -3.3660    -7.4110    -1.4340 N.2   1 <1>  -0.7070 
 18 C       -3.1500    -8.0170     0.7020 C.2   1 <1>  -0.1500 
 19 N       -2.5350    -8.4640    -1.3230 N.pl3 1 <1>   0.3000 
 20 C       -2.3870    -8.8490    -0.0380 C.2   1 <1>  -0.3320 
 21 C       -1.5120   -10.0050     0.4100 C.3   1 <1>  -0.0600 
 22 H       -3.0580    -0.0090     1.8000 H     1 <1>   0.1500 
 23 H       -2.3660     2.3770     1.3640 H     1 <1>   0.1500 
 24 H       -0.4120     3.7820     0.0040 H     1 <1>   0.0800 
 25 H        0.0320     2.8830    -1.4300 H     1 <1>   0.0800 
 26 H        1.0550     2.8290    -0.0110 H     1 <1>   0.0800 
 27 H       -4.2720    -1.4510     0.5550 H     1 <1>   0.0800 
 28 H       -3.8160    -1.9560    -1.0670 H     1 <1>   0.0800 
 29 H       -1.9170    -4.7210    -0.2890 H     1 <1>   0.0800 
 30 H       -2.6360    -4.7760     1.3100 H     1 <1>   0.0800 
 31 H       -5.7770    -3.3110    -0.6520 H     1 <1>   0.0800 
 32 H       -3.9370    -4.6910    -1.3660 H     1 <1>   0.0800 
 33 H       -4.6490    -3.4990     1.9250 H     1 <1>   0.4000 
 34 H       -5.6070    -6.1760    -0.3680 H     1 <1>   0.0800 
 35 H       -4.8550    -6.0280     1.1930 H     1 <1>   0.0800 
 36 H       -3.2950    -8.0040     1.7670 H     1 <1>   0.1500 
 37 H       -2.0870    -8.8950    -2.1400 H     1 <1>   0.2700 
 38 H       -1.5610   -10.1130     1.4790 H     1 <1>   0.0800 
 39 H       -0.4890    -9.8280     0.1300 H     1 <1>   0.0800 
 40 H       -1.8470   -10.9220    -0.0410 H     1 <1>   0.0800 
@<TRIPOS>BOND
  1   1   2  1   
  2   1   3  1   
  3   2   4  1   
  4   2   5  2   
  5   3   6  2   
  6   3   7  1   
  7   4   8  2   
  8   4   9  am  
  9   5   6  1   
 10   5  22  1   
 11   6  23  1   
 12   7  24  1   
 13   7  25  1   
 14   7  26  1   
 15   9  10  1   
 16   9  11  1   
 17  10  12  1   
 18  10  27  1   
 19  10  28  1   
 20  11  13  1   
 21  11  29  1   
 22  11  30  1   
 23  12  13  1   
 24  12  14  1   
 25  12  31  1   
 26  13  15  1   
 27  13  32  1   
 28  14  33  1   
 29  15  16  1   
 30  15  34  1   
 31  15  35  1   
 32  16  17  2   
 33  16  18  1   
 34  17  19  1   
 35  18  20  2   
 36  18  36  1   
 37  19  20  1   
 38  19  37  1   
 39  20  21  1   
 40  21  38  1   
 41  21  39  1   
 42  21  40  1   
@<TRIPOS>SUBSTRUCTURE
  1 ****  11 GROUP 4 **** **** 0

# MOE 2024.06 (io_trps.svl 2023.06)
