@<TRIPOS>MOLECULE
NONAME
47 50 1 0 0 
SMALL
USER_CHARGES


@<TRIPOS>ATOM
  1 O        2.8630    -0.9470    -2.1320 O.2   1 <1>  -0.5700 
  2 C        2.2120    -1.2180    -1.1490 C.2   1 <1>   0.5690 
  3 N        1.7810    -0.2820    -0.2650 N.am  1 <1>  -0.5790 
  4 C        1.8450    -2.6780    -0.8720 C.3   1 <1>   0.1710 
  5 C        1.9840     1.1680    -0.3470 C.3   1 <1>   0.0490 
  6 N        0.6120    -2.8590    -0.0470 N.3   1 <1>  -0.8100 
  7 C        2.0900     1.9350     0.9290 C.3   1 <1>  -0.2000 
  8 C        0.8610     2.0550     0.0780 C.3   1 <1>  -0.2000 
  9 C       -0.6080    -2.4770    -0.7740 C.3   1 <1>   0.1100 
 10 C        0.4140    -4.2670     0.3350 C.3   1 <1>   0.1100 
 11 C       -1.7250    -3.1720    -0.0070 C.3   1 <1>   0.2000 
 12 C       -1.1070    -4.5190     0.3610 C.3   1 <1>  -0.0800 
 13 O       -1.9280    -2.4680     1.1650 O.3   1 <1>  -0.6800 
 14 C       -1.5310    -5.6130    -0.6370 C.3   1 <1>  -0.0160 
 15 C       -0.9060    -6.9570    -0.3020 C.ar  1 <1>   0.1670 
 16 N        0.1300    -7.3260    -0.9920 N.ar  1 <1>  -0.6200 
 17 C       -1.4680    -7.7270     0.7290 C.ar  1 <1>  -0.1500 
 18 C        0.6970    -8.5230    -0.6920 C.ar  1 <1>   0.3100 
 19 C       -0.9190    -8.9300     1.0520 C.ar  1 <1>  -0.1500 
 20 C        0.2050    -9.3640     0.3300 C.ar  1 <1>   0.0000 
 21 C        1.8190    -8.9450    -1.4220 C.ar  1 <1>  -0.1500 
 22 C        0.8550   -10.5890     0.5810 C.ar  1 <1>  -0.1500 
 23 C        2.4370   -10.1390    -1.1640 C.ar  1 <1>  -0.1500 
 24 C        1.9480   -10.9700    -0.1500 C.ar  1 <1>  -0.1500 
 25 H        1.1930    -0.6250     0.4980 H     1 <1>   0.3700 
 26 H        2.6780    -3.1220    -0.3570 H     1 <1>   0.0800 
 27 H        1.7340    -3.1870    -1.8140 H     1 <1>   0.0800 
 28 H        2.5940     1.4670    -1.1850 H     1 <1>   0.1000 
 29 H        2.0330     1.4010     1.8610 H     1 <1>   0.1000 
 30 H        2.7640     2.7730     0.9710 H     1 <1>   0.1000 
 31 H        0.7010     2.9740    -0.4580 H     1 <1>   0.1000 
 32 H       -0.0560     1.6060     0.4150 H     1 <1>   0.1000 
 33 H       -0.7470    -1.4100    -0.8030 H     1 <1>   0.0800 
 34 H       -0.5750    -2.8590    -1.7810 H     1 <1>   0.0800 
 35 H        0.8940    -4.9170    -0.3780 H     1 <1>   0.0800 
 36 H        0.8490    -4.4460     1.3040 H     1 <1>   0.0800 
 37 H       -2.6560    -3.2320    -0.5440 H     1 <1>   0.0800 
 38 H       -1.4170    -4.8220     1.3470 H     1 <1>   0.0800 
 39 H       -1.0420    -2.3160     1.5530 H     1 <1>   0.4000 
 40 H       -1.2450    -5.3310    -1.6350 H     1 <1>   0.0800 
 41 H       -2.6020    -5.7170    -0.6240 H     1 <1>   0.0800 
 42 H       -2.3280    -7.3540     1.2540 H     1 <1>   0.1500 
 43 H       -1.3200    -9.5470     1.8360 H     1 <1>   0.1500 
 44 H        2.1780    -8.2930    -2.1970 H     1 <1>   0.1500 
 45 H        0.4750   -11.2240     1.3610 H     1 <1>   0.1500 
 46 H        3.2970   -10.4510    -1.7310 H     1 <1>   0.1500 
 47 H        2.4430   -11.9070     0.0430 H     1 <1>   0.1500 
@<TRIPOS>BOND
  1   1   2  2   
  2   2   3  am  
  3   2   4  1   
  4   3   5  1   
  5   3  25  1   
  6   4   6  1   
  7   4  26  1   
  8   4  27  1   
  9   5   7  1   
 10   5   8  1   
 11   5  28  1   
 12   6   9  1   
 13   6  10  1   
 14   7   8  1   
 15   7  29  1   
 16   7  30  1   
 17   8  31  1   
 18   8  32  1   
 19   9  11  1   
 20   9  33  1   
 21   9  34  1   
 22  10  12  1   
 23  10  35  1   
 24  10  36  1   
 25  11  12  1   
 26  11  13  1   
 27  11  37  1   
 28  12  14  1   
 29  12  38  1   
 30  13  39  1   
 31  14  15  1   
 32  14  40  1   
 33  14  41  1   
 34  15  16  ar  
 35  15  17  ar  
 36  16  18  ar  
 37  17  19  ar  
 38  17  42  1   
 39  18  20  ar  
 40  18  21  ar  
 41  19  20  ar  
 42  19  43  1   
 43  20  22  ar  
 44  21  23  ar  
 45  21  44  1   
 46  22  24  ar  
 47  22  45  1   
 48  23  24  ar  
 49  23  46  1   
 50  24  47  1   
@<TRIPOS>SUBSTRUCTURE
  1 ****  10 GROUP 4 **** **** 0

# MOE 2024.06 (io_trps.svl 2023.06)
