@<TRIPOS>MOLECULE
NONAME
48 52 1 0 0 
SMALL
USER_CHARGES


@<TRIPOS>ATOM
  1 S       -3.6030    -1.4680    -3.2890 S.3   1 <1>  -0.0800 
  2 C       -3.4690    -2.2030    -1.7020 C.2   1 <1>  -0.1100 
  3 C       -3.5010     0.1390    -2.5960 C.2   1 <1>  -0.1100 
  4 C       -3.3640    -1.2630    -0.7420 C.2   1 <1>  -0.1810 
  5 C       -3.3790     0.0740    -1.2570 C.2   1 <1>  -0.1500 
  6 C       -3.2410    -1.5130     0.7590 C.3   1 <1>   0.0820 
  7 C       -3.4960    -2.9600     1.1680 C.2   1 <1>   0.5690 
  8 O       -2.5350    -3.6260     1.4800 O.2   1 <1>  -0.5700 
  9 N       -4.7640    -3.4930     1.1910 N.am  1 <1>  -0.6600 
 10 C       -4.9420    -4.9060     1.6460 C.3   1 <1>   0.1400 
 11 C       -5.9890    -2.7820     0.7100 C.3   1 <1>   0.1400 
 12 C       -6.4120    -5.2410     1.8990 C.3   1 <1>  -0.1600 
 13 C       -6.8110    -3.7440    -0.1410 C.3   1 <1>  -0.1600 
 14 C       -7.3130    -4.9380     0.6900 C.3   1 <1>   0.4600 
 15 O       -8.5630    -4.5960     1.2480 O.3   1 <1>  -0.5600 
 16 C       -7.4650    -6.1820    -0.1810 C.2   1 <1>  -0.3320 
 17 C       -9.7210    -4.7700     0.4640 C.3   1 <1>   0.1200 
 18 N       -6.4580    -6.8630    -0.8080 N.pl3 1 <1>   0.0330 
 19 C       -8.6400    -6.7880    -0.4440 C.2   1 <1>  -0.1810 
 20 C       -9.9360    -6.2490     0.1060 C.3   1 <1>   0.0210 
 21 C       -7.0160    -7.9260    -1.4760 C.ar  1 <1>  -0.1520 
 22 C       -8.3920    -7.9080    -1.2630 C.ar  1 <1>   0.0000 
 23 C       -6.4250    -8.9190    -2.2610 C.ar  1 <1>  -0.1500 
 24 C       -9.1940    -8.8980    -1.8400 C.ar  1 <1>  -0.1500 
 25 C       -7.2270    -9.8860    -2.8240 C.ar  1 <1>  -0.1500 
 26 C       -8.6110    -9.8760    -2.6130 C.ar  1 <1>  -0.1500 
 27 H       -3.4820    -3.2780    -1.6560 H     1 <1>   0.1500 
 28 H       -3.5430     0.9730    -3.2740 H     1 <1>   0.1500 
 29 H       -3.2950     0.9250    -0.6030 H     1 <1>   0.1500 
 30 H       -3.9310    -0.8840     1.2890 H     1 <1>   0.0800 
 31 H       -2.2510    -1.2380     1.0730 H     1 <1>   0.0800 
 32 H       -4.3800    -5.0600     2.5520 H     1 <1>   0.0800 
 33 H       -4.5390    -5.5630     0.8950 H     1 <1>   0.0800 
 34 H       -5.7340    -1.9230     0.1170 H     1 <1>   0.0800 
 35 H       -6.5690    -2.4510     1.5550 H     1 <1>   0.0800 
 36 H       -6.7370    -4.6620     2.7450 H     1 <1>   0.0800 
 37 H       -6.5050    -6.2780     2.1650 H     1 <1>   0.0800 
 38 H       -6.1850    -4.0900    -0.9420 H     1 <1>   0.0800 
 39 H       -7.6350    -3.2230    -0.5890 H     1 <1>   0.0800 
 40 H       -9.6210    -4.1840    -0.4320 H     1 <1>   0.0800 
 41 H      -10.5580    -4.4000     1.0290 H     1 <1>   0.0800 
 42 H       -5.4600    -6.6330    -0.7990 H     1 <1>   0.2700 
 43 H      -10.7150    -6.3350    -0.6290 H     1 <1>   0.0800 
 44 H      -10.2210    -6.8050     0.9810 H     1 <1>   0.0800 
 45 H       -5.3620    -8.9210    -2.4180 H     1 <1>   0.1500 
 46 H      -10.2540    -8.8780    -1.6680 H     1 <1>   0.1500 
 47 H       -6.7960   -10.6620    -3.4320 H     1 <1>   0.1500 
 48 H       -9.2150   -10.6440    -3.0630 H     1 <1>   0.1500 
@<TRIPOS>BOND
  1   1   2  1   
  2   1   3  1   
  3   2   4  2   
  4   2  27  1   
  5   3   5  2   
  6   3  28  1   
  7   4   5  1   
  8   4   6  1   
  9   5  29  1   
 10   6   7  1   
 11   6  30  1   
 12   6  31  1   
 13   7   8  2   
 14   7   9  am  
 15   9  10  1   
 16   9  11  1   
 17  10  12  1   
 18  10  32  1   
 19  10  33  1   
 20  11  13  1   
 21  11  34  1   
 22  11  35  1   
 23  12  14  1   
 24  12  36  1   
 25  12  37  1   
 26  13  14  1   
 27  13  38  1   
 28  13  39  1   
 29  14  15  1   
 30  14  16  1   
 31  15  17  1   
 32  16  18  1   
 33  16  19  2   
 34  17  20  1   
 35  17  40  1   
 36  17  41  1   
 37  18  21  1   
 38  18  42  1   
 39  19  20  1   
 40  19  22  1   
 41  20  43  1   
 42  20  44  1   
 43  21  22  ar  
 44  21  23  ar  
 45  22  24  ar  
 46  23  25  ar  
 47  23  45  1   
 48  24  26  ar  
 49  24  46  1   
 50  25  26  ar  
 51  25  47  1   
 52  26  48  1   
@<TRIPOS>SUBSTRUCTURE
  1 ****  13 GROUP 4 **** **** 0

# MOE 2024.06 (io_trps.svl 2023.06)
