@<TRIPOS>MOLECULE
NONAME
54 56 1 0 0 
SMALL
USER_CHARGES


@<TRIPOS>ATOM
  1 O       -1.1050     0.6020     1.7470 O.2   1 <1>  -0.5700 
  2 C       -1.5230     1.0590     0.7100 C.2   1 <1>   0.5690 
  3 N       -2.0520     0.2640    -0.2690 N.am  1 <1>  -0.6600 
  4 C       -1.4530     2.5650     0.4970 C.3   1 <1>  -0.0990 
  5 C       -2.1080    -1.2300    -0.0830 C.3   1 <1>   0.3640 
  6 C       -2.6830     0.8020    -1.5170 C.3   1 <1>   0.1400 
  7 C       -0.7460     3.3240     1.6300 C.3   1 <1>  -0.0170 
  8 C       -0.9190    -1.9420    -0.7510 C.ar  1 <1>  -0.1440 
  9 C       -3.4620    -1.8390    -0.5690 C.3   1 <1>   0.2000 
 10 C       -3.3390    -0.2970    -2.3650 C.3   1 <1>   0.1200 
 11 C       -0.6980     4.8100     1.3130 C.ar  1 <1>  -0.1440 
 12 C       -0.0790    -1.3460    -1.6860 C.ar  1 <1>  -0.1500 
 13 C       -0.6700    -3.2600    -0.3870 C.ar  1 <1>  -0.1500 
 14 O       -4.1450    -1.0810    -1.5450 O.3   1 <1>  -0.5600 
 15 C       -4.4380    -2.0280     0.5980 C.3   1 <1>   0.1200 
 16 C        0.4060     5.3570     0.6780 C.ar  1 <1>  -0.1500 
 17 C       -1.7630     5.6290     1.6500 C.ar  1 <1>  -0.1500 
 18 C        0.9650    -2.0550    -2.2550 C.ar  1 <1>  -0.1500 
 19 C        0.3730    -3.9710    -0.9530 C.ar  1 <1>  -0.1500 
 20 O       -4.0150    -3.0740     1.4130 O.3   1 <1>  -0.6800 
 21 C        0.4500     6.7170     0.3770 C.ar  1 <1>   0.0820 
 22 C       -1.7270     6.9800     1.3530 C.ar  1 <1>  -0.1500 
 23 C        1.1910    -3.3700    -1.8910 C.ar  1 <1>  -0.1500 
 24 O        1.5110     7.3010    -0.2420 O.3   1 <1>  -0.3620 
 25 C       -0.6270     7.5310     0.7170 C.ar  1 <1>  -0.1440 
 26 C        2.6880     6.5810    -0.5330 C.3   1 <1>   0.0400 
 27 C       -0.6040     9.0190     0.3980 C.3   1 <1>  -0.0970 
 28 H       -0.9280     2.7570    -0.4200 H     1 <1>   0.0800 
 29 H       -2.4530     2.9440     0.4030 H     1 <1>   0.0800 
 30 H       -2.0210    -1.4480     0.9680 H     1 <1>   0.0800 
 31 H       -3.4410     1.5160    -1.2480 H     1 <1>   0.0800 
 32 H       -1.9410     1.3080    -2.1080 H     1 <1>   0.0800 
 33 H        0.2530     2.9430     1.7560 H     1 <1>   0.0800 
 34 H       -1.2710     3.1670     2.5570 H     1 <1>   0.0800 
 35 H       -3.2810    -2.8020    -1.0110 H     1 <1>   0.0800 
 36 H       -2.6050    -0.9250    -2.8410 H     1 <1>   0.0800 
 37 H       -3.9640     0.1400    -3.1230 H     1 <1>   0.0800 
 38 H       -0.2170    -0.3240    -1.9800 H     1 <1>   0.1500 
 39 H       -1.2900    -3.7420     0.3500 H     1 <1>   0.1500 
 40 H       -5.4240    -2.2640     0.2360 H     1 <1>   0.0800 
 41 H       -4.4780    -1.1340     1.1970 H     1 <1>   0.0800 
 42 H        1.2230     4.7110     0.4230 H     1 <1>   0.1500 
 43 H       -2.6250     5.2180     2.1450 H     1 <1>   0.1500 
 44 H        1.6060    -1.5830    -2.9780 H     1 <1>   0.1500 
 45 H        0.5510    -4.9910    -0.6600 H     1 <1>   0.1500 
 46 H       -4.2620    -3.9370     1.0240 H     1 <1>   0.4000 
 47 H       -2.5630     7.6000     1.6220 H     1 <1>   0.1500 
 48 H        2.0030    -3.9210    -2.3330 H     1 <1>   0.1500 
 49 H        3.3930     7.2600    -0.9750 H     1 <1>   0.0800 
 50 H        2.4530     5.7940    -1.2270 H     1 <1>   0.0800 
 51 H        3.0880     6.1830     0.3830 H     1 <1>   0.0800 
 52 H       -1.5080     9.5020     0.7220 H     1 <1>   0.0800 
 53 H       -0.4980     9.1620    -0.6620 H     1 <1>   0.0800 
 54 H        0.2310     9.4830     0.8930 H     1 <1>   0.0800 
@<TRIPOS>BOND
  1   1   2  2   
  2   2   3  am  
  3   2   4  1   
  4   3   5  1   
  5   3   6  1   
  6   4   7  1   
  7   4  28  1   
  8   4  29  1   
  9   5   8  1   
 10   5   9  1   
 11   5  30  1   
 12   6  10  1   
 13   6  31  1   
 14   6  32  1   
 15   7  11  1   
 16   7  33  1   
 17   7  34  1   
 18   8  12  ar  
 19   8  13  ar  
 20   9  14  1   
 21   9  15  1   
 22   9  35  1   
 23  10  14  1   
 24  10  36  1   
 25  10  37  1   
 26  11  16  ar  
 27  11  17  ar  
 28  12  18  ar  
 29  12  38  1   
 30  13  19  ar  
 31  13  39  1   
 32  15  20  1   
 33  15  40  1   
 34  15  41  1   
 35  16  21  ar  
 36  16  42  1   
 37  17  22  ar  
 38  17  43  1   
 39  18  23  ar  
 40  18  44  1   
 41  19  23  ar  
 42  19  45  1   
 43  20  46  1   
 44  21  24  1   
 45  21  25  ar  
 46  22  25  ar  
 47  22  47  1   
 48  23  48  1   
 49  24  26  1   
 50  25  27  1   
 51  26  49  1   
 52  26  50  1   
 53  26  51  1   
 54  27  52  1   
 55  27  53  1   
 56  27  54  1   
@<TRIPOS>SUBSTRUCTURE
  1 ****   2 GROUP 4 **** **** 0

# MOE 2024.06 (io_trps.svl 2023.06)
