@<TRIPOS>MOLECULE
NONAME
57 59 1 0 0 
SMALL
USER_CHARGES


@<TRIPOS>ATOM
  1 F       -1.3370    -0.9870    -2.7410 F     1 <1>  -0.1900 
  2 C       -1.7570    -1.4200    -1.5800 C.ar  1 <1>   0.1900 
  3 C       -0.9320    -2.2260    -0.8010 C.ar  1 <1>  -0.1440 
  4 C       -3.0300    -1.0350    -1.2060 C.ar  1 <1>  -0.1500 
  5 C       -1.4650    -2.6670     0.4190 C.ar  1 <1>   0.0830 
  6 C        0.4500    -2.5730    -1.3580 C.3   1 <1>   0.2840 
  7 C       -3.5270    -1.4680     0.0070 C.ar  1 <1>  -0.1500 
  8 O       -0.8280    -3.4460     1.3310 O.3   1 <1>  -0.1650 
  9 C       -2.7420    -2.2760     0.8080 C.ar  1 <1>  -0.1500 
 10 N        1.5500    -2.3810    -0.3960 N.am  1 <1>  -0.7300 
 11 C       -0.1040    -4.5750     1.1300 C.ar  1 <1>   0.0830 
 12 C        2.5960    -2.1200     0.3970 C.2   1 <1>   0.5690 
 13 C       -0.1680    -5.4050     0.0060 C.ar  1 <1>   0.0830 
 14 C        0.7840    -4.8960     2.1420 C.ar  1 <1>  -0.1500 
 15 O        2.8810    -2.8310     1.3270 O.2   1 <1>  -0.5700 
 16 C        3.5140    -0.9760     0.0120 C.3   1 <1>  -0.0990 
 17 O       -1.1050    -5.2610    -0.9570 O.3   1 <1>  -0.3630 
 18 C        0.7640    -6.4120    -0.1550 C.ar  1 <1>  -0.1500 
 19 C        1.6720    -5.9430     1.9940 C.ar  1 <1>  -0.1500 
 20 C        5.0070    -1.3520    -0.1160 C.3   1 <1>  -0.1600 
 21 C       -2.4010    -5.7110    -0.6320 C.3   1 <1>   0.0400 
 22 C        1.7360    -6.6780     0.8100 C.ar  1 <1>   0.0860 
 23 C        5.2720    -2.7000    -0.8010 C.3   1 <1>   0.3430 
 24 C        2.7530    -7.6820     0.5590 C.2   1 <1>   0.5440 
 25 N        5.2300    -3.7830     0.2110 N.4   1 <1>  -0.9060 
 26 O        2.4800    -8.6850    -0.0610 O.2   1 <1>  -0.5700 
 27 N        4.0650    -7.5750     0.9210 N.am  1 <1>  -0.7300 
 28 C        5.5250    -5.1310    -0.3400 C.3   1 <1>   0.3430 
 29 C        4.8290    -6.5460     1.6600 C.3   1 <1>   0.1400 
 30 C        5.9840    -6.0570     0.7870 C.3   1 <1>  -0.1600 
 31 H       -3.6160    -0.4080    -1.8530 H     1 <1>   0.1500 
 32 H        0.6760    -1.9550    -2.2090 H     1 <1>   0.0800 
 33 H        0.4630    -3.5840    -1.7180 H     1 <1>   0.0800 
 34 H       -4.5150    -1.1790     0.3250 H     1 <1>   0.1500 
 35 H       -3.1240    -2.6130     1.7560 H     1 <1>   0.1500 
 36 H        1.1130    -3.0330     0.2680 H     1 <1>   0.3700 
 37 H        0.7870    -4.3100     3.0450 H     1 <1>   0.1500 
 38 H        3.4020    -0.1950     0.7420 H     1 <1>   0.0800 
 39 H        3.1750    -0.5760    -0.9280 H     1 <1>   0.0800 
 40 H        0.7330    -7.0120    -1.0490 H     1 <1>   0.1500 
 41 H        2.3250    -6.1880     2.8110 H     1 <1>   0.1500 
 42 H        5.4700    -1.3360     0.8550 H     1 <1>   0.0800 
 43 H        5.4830    -0.5810    -0.6990 H     1 <1>   0.0800 
 44 H       -3.0460    -5.5110    -1.4680 H     1 <1>   0.0800 
 45 H       -2.7530    -5.1850     0.2380 H     1 <1>   0.0800 
 46 H       -2.3630    -6.7690    -0.4400 H     1 <1>   0.0800 
 47 H        6.2490    -2.6780    -1.2580 H     1 <1>   0.0800 
 48 H        4.5390    -2.8730    -1.5740 H     1 <1>   0.0800 
 49 H        4.2950    -3.7620     0.6690 H     1 <1>   0.4500 
 50 H        5.8960    -3.5580     0.9580 H     1 <1>   0.4500 
 51 H        4.5840    -8.4370     0.7210 H     1 <1>   0.3700 
 52 H        6.3200    -5.0540    -1.0650 H     1 <1>   0.0800 
 53 H        4.6560    -5.5410    -0.8310 H     1 <1>   0.0800 
 54 H        5.2170    -6.9930     2.5610 H     1 <1>   0.0800 
 55 H        4.2080    -5.7150     1.9390 H     1 <1>   0.0800 
 56 H        6.7130    -5.5540     1.3970 H     1 <1>   0.0800 
 57 H        6.4760    -6.9140     0.3590 H     1 <1>   0.0800 
@<TRIPOS>BOND
  1   1   2  1   
  2   2   3  ar  
  3   2   4  ar  
  4   3   5  ar  
  5   3   6  1   
  6   4   7  ar  
  7   4  31  1   
  8   5   8  1   
  9   5   9  ar  
 10   6  10  1   
 11   6  32  1   
 12   6  33  1   
 13   7   9  ar  
 14   7  34  1   
 15   8  11  1   
 16   9  35  1   
 17  10  12  am  
 18  10  36  1   
 19  11  13  ar  
 20  11  14  ar  
 21  12  15  2   
 22  12  16  1   
 23  13  17  1   
 24  13  18  ar  
 25  14  19  ar  
 26  14  37  1   
 27  16  20  1   
 28  16  38  1   
 29  16  39  1   
 30  17  21  1   
 31  18  22  ar  
 32  18  40  1   
 33  19  22  ar  
 34  19  41  1   
 35  20  23  1   
 36  20  42  1   
 37  20  43  1   
 38  21  44  1   
 39  21  45  1   
 40  21  46  1   
 41  22  24  1   
 42  23  25  1   
 43  23  47  1   
 44  23  48  1   
 45  24  26  2   
 46  24  27  am  
 47  25  28  1   
 48  25  49  1   
 49  25  50  1   
 50  27  29  1   
 51  27  51  1   
 52  28  30  1   
 53  28  52  1   
 54  28  53  1   
 55  29  30  1   
 56  29  54  1   
 57  29  55  1   
 58  30  56  1   
 59  30  57  1   
@<TRIPOS>SUBSTRUCTURE
  1 ****  10 GROUP 4 **** **** 0

# MOE 2024.06 (io_trps.svl 2023.06)
