@<TRIPOS>MOLECULE
NONAME
54 57 1 0 0 
SMALL
USER_CHARGES


@<TRIPOS>ATOM
  1 O        0.3340     1.0590     0.5840 O.2   1 <1>  -0.5700 
  2 C       -0.5530     1.8510     0.8160 C.2   1 <1>   0.5690 
  3 N       -1.7760     1.7600     0.1910 N.am  1 <1>  -0.6600 
  4 C       -0.2600     2.9260     1.8700 C.3   1 <1>   0.1810 
  5 C       -2.9380     2.6700     0.4500 C.3   1 <1>   0.1400 
  6 C       -2.0740     0.6710    -0.7810 C.3   1 <1>   0.1400 
  7 O       -0.2910     4.2410     1.3600 O.3   1 <1>  -0.5600 
  8 C       -3.4520     3.3140    -0.8550 C.3   1 <1>   0.1430 
  9 C       -2.5500     1.2690    -2.1090 C.3   1 <1>  -0.1600 
 10 C        0.9270     4.7850     0.9650 C.3   1 <1>   0.2000 
 11 C       -4.7150     4.1160    -0.5950 C.ar  1 <1>   0.1660 
 12 C       -3.7400     2.2260    -1.9130 C.3   1 <1>  -0.1600 
 13 C       -2.4830     4.4000    -1.3960 C.3   1 <1>  -0.1600 
 14 C        0.7110     6.2920     0.8770 C.3   1 <1>  -0.2400 
 15 C        1.3450     4.2140    -0.3910 C.3   1 <1>  -0.2400 
 16 N       -5.7570     3.6940     0.0820 N.ar  1 <1>  -0.6200 
 17 C       -4.6520     5.3520    -1.1590 C.ar  1 <1>  -0.1440 
 18 C       -3.3480     5.5750    -1.8820 C.3   1 <1>  -0.0170 
 19 C       -6.7730     4.5610     0.1930 C.ar  1 <1>   0.6200 
 20 C       -5.7310     6.1820    -1.0010 C.ar  1 <1>   0.1600 
 21 N       -6.7920     5.7970    -0.3280 N.ar  1 <1>  -0.6200 
 22 C       -7.9470     4.1270     0.9380 C.ar  1 <1>   0.0000 
 23 C       -8.7640     5.0370     1.6150 C.ar  1 <1>  -0.1500 
 24 C       -8.3120     2.7790     1.0120 C.ar  1 <1>  -0.1500 
 25 C       -9.8800     4.6290     2.3230 C.ar  1 <1>  -0.1500 
 26 C       -9.4260     2.3630     1.7190 C.ar  1 <1>  -0.1500 
 27 C      -10.2140     3.2880     2.3770 C.ar  1 <1>  -0.1500 
 28 H        0.6960     2.7390     2.3240 H     1 <1>   0.0800 
 29 H       -1.0090     2.8630     2.6370 H     1 <1>   0.0800 
 30 H       -2.6850     3.4440     1.1510 H     1 <1>   0.0800 
 31 H       -3.7310     2.0890     0.8870 H     1 <1>   0.0800 
 32 H       -2.8410     0.0380    -0.3690 H     1 <1>   0.0800 
 33 H       -1.2010     0.0640    -0.9550 H     1 <1>   0.0800 
 34 H       -2.8390     0.4700    -2.7680 H     1 <1>   0.0800 
 35 H       -1.7250     1.7820    -2.5700 H     1 <1>   0.0800 
 36 H        1.6700     4.5740     1.7170 H     1 <1>   0.0800 
 37 H       -4.0010     2.6840    -2.8510 H     1 <1>   0.0800 
 38 H       -4.5910     1.6510    -1.5880 H     1 <1>   0.0800 
 39 H       -1.8320     4.0370    -2.1690 H     1 <1>   0.0800 
 40 H       -1.8720     4.7590    -0.5880 H     1 <1>   0.0800 
 41 H       -0.0400     6.5210     0.1430 H     1 <1>   0.0800 
 42 H        1.6270     6.7790     0.5970 H     1 <1>   0.0800 
 43 H        0.4020     6.6730     1.8330 H     1 <1>   0.0800 
 44 H        0.5500     4.3160    -1.1060 H     1 <1>   0.0800 
 45 H        1.6170     3.1790    -0.3020 H     1 <1>   0.0800 
 46 H        2.2050     4.7420    -0.7580 H     1 <1>   0.0800 
 47 H       -3.5080     5.5150    -2.9450 H     1 <1>   0.0800 
 48 H       -2.9060     6.5220    -1.6280 H     1 <1>   0.0800 
 49 H       -5.7270     7.1700    -1.4290 H     1 <1>   0.1500 
 50 H       -8.5200     6.0850     1.5850 H     1 <1>   0.1500 
 51 H       -7.7120     2.0440     0.5050 H     1 <1>   0.1500 
 52 H      -10.4890     5.3550     2.8320 H     1 <1>   0.1500 
 53 H       -9.6790     1.3180     1.7570 H     1 <1>   0.1500 
 54 H      -11.0810     2.9680     2.9270 H     1 <1>   0.1500 
@<TRIPOS>BOND
  1   1   2  2   
  2   2   3  am  
  3   2   4  1   
  4   3   5  1   
  5   3   6  1   
  6   4   7  1   
  7   4  28  1   
  8   4  29  1   
  9   5   8  1   
 10   5  30  1   
 11   5  31  1   
 12   6   9  1   
 13   6  32  1   
 14   6  33  1   
 15   7  10  1   
 16   8  11  1   
 17   8  12  1   
 18   8  13  1   
 19   9  12  1   
 20   9  34  1   
 21   9  35  1   
 22  10  14  1   
 23  10  15  1   
 24  10  36  1   
 25  11  16  ar  
 26  11  17  ar  
 27  12  37  1   
 28  12  38  1   
 29  13  18  1   
 30  13  39  1   
 31  13  40  1   
 32  14  41  1   
 33  14  42  1   
 34  14  43  1   
 35  15  44  1   
 36  15  45  1   
 37  15  46  1   
 38  16  19  ar  
 39  17  18  1   
 40  17  20  ar  
 41  18  47  1   
 42  18  48  1   
 43  19  21  ar  
 44  19  22  1   
 45  20  21  ar  
 46  20  49  1   
 47  22  23  ar  
 48  22  24  ar  
 49  23  25  ar  
 50  23  50  1   
 51  24  26  ar  
 52  24  51  1   
 53  25  27  ar  
 54  25  52  1   
 55  26  27  ar  
 56  26  53  1   
 57  27  54  1   
@<TRIPOS>SUBSTRUCTURE
  1 ****  11 GROUP 4 **** **** 0

# MOE 2024.06 (io_trps.svl 2023.06)
