@<TRIPOS>MOLECULE
NONAME
45 49 1 0 0 
SMALL
USER_CHARGES


@<TRIPOS>ATOM
  1 N       -0.7720    -0.3790     0.7600 N.2   1 <1>  -0.6210 
  2 C        0.5160    -0.3900     0.8580 C.2   1 <1>   0.9190 
  3 C       -1.4110    -1.5000     0.3930 C.2   1 <1>   0.2710 
  4 N        1.2700    -1.4790     0.5950 N.pl3 1 <1>  -0.6690 
  5 N        1.1210     0.7310     1.2410 N.pl3 1 <1>  -0.8500 
  6 N       -2.7790    -1.4420     0.3120 N.pl3 1 <1>  -0.8380 
  7 C       -0.7080    -2.6510     0.1180 C.2   1 <1>  -0.1410 
  8 C        0.6600    -2.6030     0.2300 C.cat 1 <1>   0.7910 
  9 C        2.6120    -1.7660     0.6020 C.2   1 <1>   0.5030 
 10 C       -3.5870    -0.3220     0.9160 C.3   1 <1>   0.2090 
 11 C       -3.6110    -2.4600    -0.4130 C.3   1 <1>   0.2090 
 12 N        1.6290    -3.5130     0.0380 N.pl3 1 <1>  -0.3930 
 13 N        2.8570    -2.9780     0.2740 N.2   1 <1>  -0.2600 
 14 C       -4.3490     0.4720    -0.1700 C.3   1 <1>   0.1430 
 15 C       -4.9950    -1.9170    -0.8100 C.3   1 <1>  -0.1600 
 16 C       -5.4370     1.2630     0.5380 C.ar  1 <1>   0.1670 
 17 C       -4.9090    -0.4560    -1.2800 C.3   1 <1>  -0.1600 
 18 C       -3.4720     1.6000    -0.7770 C.3   1 <1>  -0.1600 
 19 N       -6.5480     0.7630     1.0250 N.ar  1 <1>  -0.6200 
 20 C       -5.1150     2.5850     0.6340 C.ar  1 <1>  -0.1430 
 21 C       -3.7740     2.8840     0.0130 C.3   1 <1>  -0.0170 
 22 C       -7.3270     1.6560     1.6160 C.ar  1 <1>   0.7200 
 23 C       -6.0100     3.4200     1.2590 C.ar  1 <1>   0.1600 
 24 N       -7.1360     2.9610     1.7560 N.ar  1 <1>  -0.6200 
 25 N       -8.4680     1.1830     2.1160 N.pl3 1 <1>  -0.9000 
 26 H        0.5270     1.5330     1.4570 H     1 <1>   0.4000 
 27 H        2.1120     0.8510     1.4220 H     1 <1>   0.4000 
 28 H       -1.1970    -3.5590    -0.1650 H     1 <1>   0.1500 
 29 H        3.3620    -1.0340     0.8590 H     1 <1>   0.1500 
 30 H       -2.9780     0.3450     1.4990 H     1 <1>   0.0800 
 31 H       -4.2990    -0.7570     1.5960 H     1 <1>   0.0800 
 32 H       -3.7350    -3.3310     0.2070 H     1 <1>   0.0800 
 33 H       -3.0940    -2.7500    -1.3120 H     1 <1>   0.0800 
 34 H        1.4900    -4.4890    -0.2480 H     1 <1>   0.4500 
 35 H       -5.6630    -1.9850     0.0320 H     1 <1>   0.0800 
 36 H       -5.4060    -2.5300    -1.5920 H     1 <1>   0.0800 
 37 H       -4.2590    -0.4300    -2.1360 H     1 <1>   0.0800 
 38 H       -5.8790    -0.1110    -1.5960 H     1 <1>   0.0800 
 39 H       -3.7640     1.7710    -1.7990 H     1 <1>   0.0800 
 40 H       -2.4260     1.3500    -0.7610 H     1 <1>   0.0800 
 41 H       -3.8150     3.7460    -0.6310 H     1 <1>   0.0800 
 42 H       -3.0420     3.0370     0.7870 H     1 <1>   0.0800 
 43 H       -5.8000     4.4710     1.3540 H     1 <1>   0.1500 
 44 H       -9.1880     1.8820     2.2740 H     1 <1>   0.4000 
 45 H       -8.7650     0.2900     1.7370 H     1 <1>   0.4000 
@<TRIPOS>BOND
  1   1   2  2   
  2   1   3  1   
  3   2   4  1   
  4   2   5  1   
  5   3   6  1   
  6   3   7  2   
  7   4   8  ar  
  8   4   9  1   
  9   5  26  1   
 10   5  27  1   
 11   6  10  1   
 12   6  11  1   
 13   7   8  1   
 14   7  28  1   
 15   8  12  ar  
 16   9  13  2   
 17   9  29  1   
 18  10  14  1   
 19  10  30  1   
 20  10  31  1   
 21  11  15  1   
 22  11  32  1   
 23  11  33  1   
 24  12  13  1   
 25  12  34  1   
 26  14  16  1   
 27  14  17  1   
 28  14  18  1   
 29  15  17  1   
 30  15  35  1   
 31  15  36  1   
 32  16  19  ar  
 33  16  20  ar  
 34  17  37  1   
 35  17  38  1   
 36  18  21  1   
 37  18  39  1   
 38  18  40  1   
 39  19  22  ar  
 40  20  21  1   
 41  20  23  ar  
 42  21  41  1   
 43  21  42  1   
 44  22  24  ar  
 45  22  25  1   
 46  23  24  ar  
 47  23  43  1   
 48  25  44  1   
 49  25  45  1   
@<TRIPOS>SUBSTRUCTURE
  1 ****  10 GROUP 4 **** **** 0

# MOE 2024.06 (io_trps.svl 2023.06)
