@<TRIPOS>MOLECULE
NONAME
48 50 1 0 0 
SMALL
USER_CHARGES


@<TRIPOS>ATOM
  1 S        0.9930    -0.2570    -1.0990 S.o2  1 <1>   1.3330 
  2 O        2.2100    -0.8390    -0.5790 O.2   1 <1>  -0.6500 
  3 O        0.6440    -0.4610    -2.4860 O.2   1 <1>  -0.6500 
  4 N       -0.3050    -0.8520    -0.1760 N.am  1 <1>  -0.8490 
  5 C        0.9830     1.5080    -0.7460 C.3   1 <1>  -0.0550 
  6 C       -1.6080    -0.7030    -0.8360 C.3   1 <1>   0.1160 
  7 C       -0.1100    -2.2500     0.2210 C.3   1 <1>   0.1160 
  8 C        1.6260     1.9830     0.5770 C.3   1 <1>  -0.0800 
  9 C        3.1430     1.7820     0.6240 C.3   1 <1>   0.2200 
 10 C        1.1270     1.3260     1.8700 C.3   1 <1>   0.1200 
 11 N        3.8050     3.0980     0.7590 N.am  1 <1>  -0.7300 
 12 C        3.3440     0.9500     1.8890 C.3   1 <1>   0.1200 
 13 O        2.2470     1.2480     2.6900 O.3   1 <1>  -0.5600 
 14 C        4.1020     3.9330    -0.2790 C.2   1 <1>   0.6160 
 15 O        3.7840     3.5840    -1.4000 O.2   1 <1>  -0.5700 
 16 C        4.7710     5.1990    -0.0440 C.2   1 <1>   0.0140 
 17 C        5.5150     5.7980    -1.0110 C.2   1 <1>  -0.1780 
 18 C        4.5950     5.8200     1.2520 C.2   1 <1>  -0.1500 
 19 C        6.2310     7.0480    -0.9620 C.ar  1 <1>   0.0280 
 20 C        5.4610     6.6290     1.8850 C.2   1 <1>  -0.0730 
 21 C        6.7740     7.6020     0.2080 C.ar  1 <1>   0.0820 
 22 C        6.4190     7.7540    -2.1470 C.ar  1 <1>  -0.1500 
 23 O        6.6810     6.9810     1.4170 O.3   1 <1>  -0.1590 
 24 C        7.4670     8.7980     0.1780 C.ar  1 <1>  -0.1500 
 25 C        7.1090     8.9550    -2.1790 C.ar  1 <1>  -0.1500 
 26 C        7.6350     9.4810    -1.0150 C.ar  1 <1>  -0.1500 
 27 H        1.5040     2.0060    -1.5430 H     1 <1>   0.0800 
 28 H       -0.0290     1.8590    -0.7790 H     1 <1>   0.0800 
 29 H       -2.3970    -1.0060    -0.1690 H     1 <1>   0.0800 
 30 H       -1.6510    -1.3100    -1.7260 H     1 <1>   0.0800 
 31 H       -1.7720     0.3240    -1.1120 H     1 <1>   0.0800 
 32 H       -0.9440    -2.5930     0.8090 H     1 <1>   0.0800 
 33 H        0.7820    -2.3440     0.8180 H     1 <1>   0.0800 
 34 H       -0.0090    -2.8750    -0.6510 H     1 <1>   0.0800 
 35 H        1.4100     3.0340     0.6620 H     1 <1>   0.0800 
 36 H        3.5360     1.2680    -0.2380 H     1 <1>   0.0800 
 37 H        0.7730     0.3230     1.7240 H     1 <1>   0.0800 
 38 H        0.3710     1.9100     2.3650 H     1 <1>   0.0800 
 39 H        4.0350     3.3730     1.7150 H     1 <1>   0.3700 
 40 H        4.2530     1.1860     2.4110 H     1 <1>   0.0800 
 41 H        3.3120    -0.1020     1.6620 H     1 <1>   0.0800 
 42 H        5.5850     5.3030    -1.9640 H     1 <1>   0.1500 
 43 H        3.6590     5.5910     1.7300 H     1 <1>   0.1500 
 44 H        5.2650     7.0620     2.8510 H     1 <1>   0.1500 
 45 H        6.0170     7.3610    -3.0640 H     1 <1>   0.1500 
 46 H        7.8790     9.1970     1.0870 H     1 <1>   0.1500 
 47 H        7.2340     9.4780    -3.1110 H     1 <1>   0.1500 
 48 H        8.1730    10.4130    -1.0340 H     1 <1>   0.1500 
@<TRIPOS>BOND
  1   1   2  2   
  2   1   3  2   
  3   1   4  am  
  4   1   5  1   
  5   4   6  1   
  6   4   7  1   
  7   5   8  1   
  8   5  27  1   
  9   5  28  1   
 10   6  29  1   
 11   6  30  1   
 12   6  31  1   
 13   7  32  1   
 14   7  33  1   
 15   7  34  1   
 16   8   9  1   
 17   8  10  1   
 18   8  35  1   
 19   9  11  1   
 20   9  12  1   
 21   9  36  1   
 22  10  13  1   
 23  10  37  1   
 24  10  38  1   
 25  11  14  am  
 26  11  39  1   
 27  12  13  1   
 28  12  40  1   
 29  12  41  1   
 30  14  15  2   
 31  14  16  1   
 32  16  17  2   
 33  16  18  1   
 34  17  19  1   
 35  17  42  1   
 36  18  20  2   
 37  18  43  1   
 38  19  21  ar  
 39  19  22  ar  
 40  20  23  1   
 41  20  44  1   
 42  21  23  1   
 43  21  24  ar  
 44  22  25  ar  
 45  22  45  1   
 46  24  26  ar  
 47  24  46  1   
 48  25  26  ar  
 49  25  47  1   
 50  26  48  1   
@<TRIPOS>SUBSTRUCTURE
  1 ****  14 GROUP 4 **** **** 0

# MOE 2024.06 (io_trps.svl 2023.06)
