@<TRIPOS>MOLECULE
NONAME
35 37 1 0 0 
SMALL
USER_CHARGES


@<TRIPOS>ATOM
  1 CL      -0.4370     0.2780    -0.0020 Cl    1 <1>  -0.1770 
  2 C       -1.9040    -0.6740     0.0680 C.ar  1 <1>   0.1770 
  3 C       -1.8580    -2.0470     0.0610 C.ar  1 <1>   0.1600 
  4 C       -3.1370    -0.0740     0.1300 C.ar  1 <1>   0.1600 
  5 N       -2.9520    -2.7750     0.1130 N.ar  1 <1>  -0.6200 
  6 N       -4.2470    -0.7770     0.1830 N.ar  1 <1>  -0.6200 
  7 C       -4.1050    -2.1040     0.1770 C.ar  1 <1>   0.7200 
  8 N       -5.2540    -2.8500     0.2450 N.pl3 1 <1>  -0.8380 
  9 C       -6.6080    -2.2820     0.0290 C.3   1 <1>   0.2090 
 10 C       -5.2710    -4.3260     0.1230 C.3   1 <1>   0.2090 
 11 C       -7.4740    -3.4750    -0.3800 C.3   1 <1>   0.2000 
 12 C       -6.7510    -4.7100     0.1560 C.3   1 <1>  -0.0800 
 13 O       -8.7520    -3.4040     0.1550 O.3   1 <1>  -0.6800 
 14 C       -7.0770    -5.9850    -0.6360 C.3   1 <1>   0.0200 
 15 C       -6.2680    -7.1650    -0.1340 C.2   1 <1>  -0.0400 
 16 O       -6.4090    -7.5790     1.0970 O.3   1 <1>  -0.0190 
 17 C       -5.3520    -7.9430    -0.7290 C.2   1 <1>  -0.1500 
 18 N       -5.6340    -8.5920     1.3590 N.2   1 <1>  -0.4100 
 19 C       -4.9860    -8.8340     0.2760 C.2   1 <1>   0.1080 
 20 C       -3.9660    -9.9400     0.1270 C.3   1 <1>  -0.0590 
 21 H       -0.9080    -2.5480     0.0130 H     1 <1>   0.1500 
 22 H       -3.2070     1.0000     0.1360 H     1 <1>   0.1500 
 23 H       -6.9550    -1.8450     0.9490 H     1 <1>   0.0800 
 24 H       -6.5910    -1.5390    -0.7490 H     1 <1>   0.0800 
 25 H       -4.8190    -4.6080    -0.8130 H     1 <1>   0.0800 
 26 H       -4.7290    -4.7840     0.9340 H     1 <1>   0.0800 
 27 H       -7.5570    -3.5040    -1.4530 H     1 <1>   0.0800 
 28 H       -7.0120    -4.8560     1.1900 H     1 <1>   0.0800 
 29 H       -8.7080    -3.3980     1.1310 H     1 <1>   0.4000 
 30 H       -6.8660    -5.8320    -1.6800 H     1 <1>   0.0800 
 31 H       -8.1240    -6.2110    -0.5370 H     1 <1>   0.0800 
 32 H       -4.9670    -7.9170    -1.7310 H     1 <1>   0.1500 
 33 H       -4.2560   -10.6000    -0.6690 H     1 <1>   0.0800 
 34 H       -3.8990   -10.5040     1.0400 H     1 <1>   0.0800 
 35 H       -3.0020    -9.5190    -0.0930 H     1 <1>   0.0800 
@<TRIPOS>BOND
  1   1   2  1   
  2   2   3  ar  
  3   2   4  ar  
  4   3   5  ar  
  5   3  21  1   
  6   4   6  ar  
  7   4  22  1   
  8   5   7  ar  
  9   6   7  ar  
 10   7   8  1   
 11   8   9  1   
 12   8  10  1   
 13   9  11  1   
 14   9  23  1   
 15   9  24  1   
 16  10  12  1   
 17  10  25  1   
 18  10  26  1   
 19  11  12  1   
 20  11  13  1   
 21  11  27  1   
 22  12  14  1   
 23  12  28  1   
 24  13  29  1   
 25  14  15  1   
 26  14  30  1   
 27  14  31  1   
 28  15  16  1   
 29  15  17  2   
 30  16  18  1   
 31  17  19  1   
 32  17  32  1   
 33  18  19  2   
 34  19  20  1   
 35  20  33  1   
 36  20  34  1   
 37  20  35  1   
@<TRIPOS>SUBSTRUCTURE
  1 ****  10 GROUP 4 **** **** 0

# MOE 2024.06 (io_trps.svl 2023.06)
