@<TRIPOS>MOLECULE
NONAME
36 37 1 0 0 
SMALL
USER_CHARGES


@<TRIPOS>ATOM
  1 S       -0.1500    -0.0530     0.4100 S.3   1 <1>  -0.0800 
  2 C       -1.0870    -0.9510    -0.7370 C.2   1 <1>   0.4420 
  3 C       -0.1540     1.2640    -0.7180 C.2   1 <1>   0.1980 
  4 N       -1.3140    -0.2810    -1.8070 N.2   1 <1>  -0.3380 
  5 N       -1.4430    -2.2300    -0.3630 N.am  1 <1>  -0.4940 
  6 N       -0.7810     0.9790    -1.7900 N.2   1 <1>  -0.3380 
  7 C        0.5830     2.5470    -0.3270 C.3   1 <1>   0.3800 
  8 C       -2.2140    -3.1600    -1.0170 C.2   1 <1>   0.5440 
  9 O        0.2820     2.8660     1.0030 O.3   1 <1>  -0.5600 
 10 C        0.1850     3.7390    -1.2060 C.3   1 <1>  -0.2400 
 11 O       -2.8080    -2.8610    -2.0290 O.2   1 <1>  -0.5700 
 12 C       -2.3390    -4.4950    -0.4660 C.ar  1 <1>   0.0860 
 13 C        1.2560     3.5890     1.6910 C.3   1 <1>   0.0400 
 14 C       -1.3300    -5.1270     0.2500 C.ar  1 <1>  -0.1500 
 15 C       -3.4970    -5.2420    -0.6210 C.ar  1 <1>  -0.1500 
 16 C       -1.5250    -6.3950     0.7650 C.ar  1 <1>   0.1670 
 17 C       -3.6010    -6.5050    -0.0700 C.ar  1 <1>   0.1670 
 18 N       -2.6400    -7.0870     0.6240 N.ar  1 <1>  -0.6200 
 19 C       -0.4250    -7.0840     1.5460 C.3   1 <1>  -0.0970 
 20 C       -4.8700    -7.3120    -0.2420 C.3   1 <1>  -0.0970 
 21 H       -1.1240    -2.5010     0.5610 H     1 <1>   0.3700 
 22 H        1.6400     2.3610    -0.4080 H     1 <1>   0.0800 
 23 H       -0.8660     3.9380    -1.0960 H     1 <1>   0.0800 
 24 H        0.3790     3.5070    -2.2380 H     1 <1>   0.0800 
 25 H        0.7480     4.6150    -0.9490 H     1 <1>   0.0800 
 26 H        0.9050     3.7460     2.6960 H     1 <1>   0.0800 
 27 H        1.4080     4.5410     1.2140 H     1 <1>   0.0800 
 28 H        2.1720     3.0240     1.7150 H     1 <1>   0.0800 
 29 H       -0.3870    -4.6370     0.3970 H     1 <1>   0.1500 
 30 H       -4.3160    -4.8240    -1.1790 H     1 <1>   0.1500 
 31 H        0.4510    -6.4680     1.6180 H     1 <1>   0.0800 
 32 H       -0.1630    -8.0050     1.0570 H     1 <1>   0.0800 
 33 H       -0.7760    -7.3100     2.5360 H     1 <1>   0.0800 
 34 H       -5.6000    -6.7730    -0.8170 H     1 <1>   0.0800 
 35 H       -5.2840    -7.5380     0.7240 H     1 <1>   0.0800 
 36 H       -4.6420    -8.2340    -0.7440 H     1 <1>   0.0800 
@<TRIPOS>BOND
  1   1   2  1   
  2   1   3  1   
  3   2   4  2   
  4   2   5  1   
  5   3   6  2   
  6   3   7  1   
  7   4   6  1   
  8   5   8  am  
  9   5  21  1   
 10   7   9  1   
 11   7  10  1   
 12   7  22  1   
 13   8  11  2   
 14   8  12  1   
 15   9  13  1   
 16  10  23  1   
 17  10  24  1   
 18  10  25  1   
 19  12  14  ar  
 20  12  15  ar  
 21  13  26  1   
 22  13  27  1   
 23  13  28  1   
 24  14  16  ar  
 25  14  29  1   
 26  15  17  ar  
 27  15  30  1   
 28  16  18  ar  
 29  16  19  1   
 30  17  18  ar  
 31  17  20  1   
 32  19  31  1   
 33  19  32  1   
 34  19  33  1   
 35  20  34  1   
 36  20  35  1   
 37  20  36  1   
@<TRIPOS>SUBSTRUCTURE
  1 ****   5 GROUP 4 **** **** 0

# MOE 2024.06 (io_trps.svl 2023.06)
