@<TRIPOS>MOLECULE
NONAME
48 50 1 0 0 
SMALL
USER_CHARGES


@<TRIPOS>ATOM
  1 F        0.2540     2.7400     0.2240 F     1 <1>  -0.1900 
  2 C        1.3560     2.0970    -0.0530 C.ar  1 <1>   0.1900 
  3 C        1.4070     0.7140     0.1250 C.ar  1 <1>   0.0860 
  4 C        2.4160     2.8460    -0.5350 C.ar  1 <1>  -0.1500 
  5 C        2.6220     0.1260    -0.2240 C.ar  1 <1>   0.1900 
  6 C        0.2890    -0.0450     0.6390 C.2   1 <1>   0.5440 
  7 C        3.6010     2.2120    -0.8690 C.ar  1 <1>  -0.1500 
  8 F        2.7770    -1.1620    -0.0840 F     1 <1>  -0.1900 
  9 C        3.7040     0.8390    -0.7120 C.ar  1 <1>  -0.1500 
 10 O       -0.2870     0.3200     1.6490 O.2   1 <1>  -0.5700 
 11 N       -0.1680    -1.2050     0.0510 N.am  1 <1>  -0.6600 
 12 C       -0.3610    -1.4080    -1.4250 C.3   1 <1>   0.2200 
 13 C       -0.1180    -2.4400     0.8890 C.3   1 <1>   0.0600 
 14 C       -0.7570    -0.1290    -2.1750 C.3   1 <1>  -0.1600 
 15 C       -1.5720    -2.3070    -1.7220 C.3   1 <1>  -0.1600 
 16 C       -2.2840     0.0130    -2.0650 C.3   1 <1>  -0.0800 
 17 C       -2.8180    -1.4050    -1.8100 C.3   1 <1>  -0.0800 
 18 C       -2.7390     0.8710    -0.8740 C.3   1 <1>  -0.1600 
 19 C       -3.6370    -1.3330    -0.5100 C.3   1 <1>  -0.1600 
 20 C       -3.0820    -0.1260     0.2310 C.3   1 <1>   0.4230 
 21 N       -3.9820     0.3960     1.2980 N.4   1 <1>  -0.9590 
 22 C       -5.2620     1.0100     0.8270 C.3   1 <1>   0.2630 
 23 C       -3.2050     1.3520     2.1490 C.3   1 <1>   0.2630 
 24 H        2.3130     3.9110    -0.6490 H     1 <1>   0.1500 
 25 H        4.4350     2.7810    -1.2460 H     1 <1>   0.1500 
 26 H        4.6160     0.3250    -0.9630 H     1 <1>   0.1500 
 27 H        0.5410    -1.8320    -1.8360 H     1 <1>   0.0800 
 28 H        0.4120    -3.2190     0.3690 H     1 <1>   0.0800 
 29 H       -1.1150    -2.7730     1.1170 H     1 <1>   0.0800 
 30 H        0.3940    -2.2410     1.8160 H     1 <1>   0.0800 
 31 H       -0.2310     0.7560    -1.8830 H     1 <1>   0.0800 
 32 H       -0.5250    -0.2900    -3.2140 H     1 <1>   0.0800 
 33 H       -1.4150    -2.7290    -2.7000 H     1 <1>   0.0800 
 34 H       -1.6920    -3.1350    -1.0500 H     1 <1>   0.0800 
 35 H       -2.6770     0.4220    -2.9820 H     1 <1>   0.0800 
 36 H       -3.4470    -1.7380    -2.6200 H     1 <1>   0.0800 
 37 H       -3.6060     1.4230    -1.1820 H     1 <1>   0.0800 
 38 H       -1.9770     1.5590    -0.5580 H     1 <1>   0.0800 
 39 H       -3.5450    -2.2310     0.0730 H     1 <1>   0.0800 
 40 H       -4.6680    -1.1760    -0.7690 H     1 <1>   0.0800 
 41 H       -2.1700    -0.4410     0.6970 H     1 <1>   0.0800 
 42 H       -4.2070    -0.4150     1.8890 H     1 <1>   0.4500 
 43 H       -5.0620     1.8960     0.2480 H     1 <1>   0.0800 
 44 H       -5.8750     1.2840     1.6700 H     1 <1>   0.0800 
 45 H       -5.8120     0.3130     0.2160 H     1 <1>   0.0800 
 46 H       -2.8770     2.1960     1.5630 H     1 <1>   0.0800 
 47 H       -2.3330     0.8650     2.5560 H     1 <1>   0.0800 
 48 H       -3.8100     1.7100     2.9660 H     1 <1>   0.0800 
@<TRIPOS>BOND
  1   1   2  1   
  2   2   3  ar  
  3   2   4  ar  
  4   3   5  ar  
  5   3   6  1   
  6   4   7  ar  
  7   4  24  1   
  8   5   8  1   
  9   5   9  ar  
 10   6  10  2   
 11   6  11  am  
 12   7   9  ar  
 13   7  25  1   
 14   9  26  1   
 15  11  12  1   
 16  11  13  1   
 17  12  14  1   
 18  12  15  1   
 19  12  27  1   
 20  13  28  1   
 21  13  29  1   
 22  13  30  1   
 23  14  16  1   
 24  14  31  1   
 25  14  32  1   
 26  15  17  1   
 27  15  33  1   
 28  15  34  1   
 29  16  17  1   
 30  16  18  1   
 31  16  35  1   
 32  17  19  1   
 33  17  36  1   
 34  18  20  1   
 35  18  37  1   
 36  18  38  1   
 37  19  20  1   
 38  19  39  1   
 39  19  40  1   
 40  20  21  1   
 41  20  41  1   
 42  21  22  1   
 43  21  23  1   
 44  21  42  1   
 45  22  43  1   
 46  22  44  1   
 47  22  45  1   
 48  23  46  1   
 49  23  47  1   
 50  23  48  1   
@<TRIPOS>SUBSTRUCTURE
  1 ****   6 GROUP 4 **** **** 0

# MOE 2024.06 (io_trps.svl 2023.06)
