@<TRIPOS>MOLECULE
NONAME
47 50 1 0 0 
SMALL
USER_CHARGES


@<TRIPOS>ATOM
  1 O        0.4250     0.8920     1.6450 O.3   1 <1>  -0.0190 
  2 N        1.2420    -0.1210     1.6320 N.2   1 <1>  -0.4100 
  3 C        0.7020     1.7560     0.7050 C.2   1 <1>  -0.0400 
  4 C        2.0570     0.0900     0.6630 C.2   1 <1>   0.1080 
  5 C        1.7610     1.2900     0.0230 C.2   1 <1>  -0.1500 
  6 C       -0.1590     3.0030     0.5850 C.3   1 <1>   0.0200 
  7 C        3.1820    -0.8470     0.2810 C.3   1 <1>  -0.0590 
  8 C        0.4580     4.0700    -0.3410 C.3   1 <1>  -0.0800 
  9 C       -0.4240     5.2940    -0.6040 C.3   1 <1>   0.2000 
 10 C        1.7840     4.6530     0.1840 C.3   1 <1>   0.1100 
 11 O       -1.0780     5.6590     0.5590 O.3   1 <1>  -0.6800 
 12 C        0.6080     6.3750    -0.8960 C.3   1 <1>   0.1100 
 13 N        1.6710     6.1210     0.0950 N.3   1 <1>  -0.8100 
 14 C        2.9480     6.7870    -0.2120 C.3   1 <1>   0.2780 
 15 C        2.8910     8.2690     0.1500 C.2   1 <1>   0.1820 
 16 N        3.8370     9.1940    -0.2220 N.pl3 1 <1>  -0.7000 
 17 C        1.9570     8.9180     0.8740 C.2   1 <1>   0.2000 
 18 C        3.4740    10.3920     0.2710 C.cat 1 <1>   0.7910 
 19 N        2.3120    10.2490     0.9520 N.pl3 1 <1>  -0.6290 
 20 C        4.1030    11.6530     0.1690 C.2   1 <1>  -0.1290 
 21 C        1.7170    11.3290     1.5610 C.2   1 <1>   0.2290 
 22 C        3.5130    12.7330     0.7750 C.2   1 <1>  -0.1500 
 23 C        5.4120    11.8090    -0.5980 C.3   1 <1>  -0.1020 
 24 C        2.3030    12.5580     1.4780 C.2   1 <1>  -0.1500 
 25 H        2.2850     1.7000    -0.8190 H     1 <1>   0.1500 
 26 H       -1.1270     2.7160     0.2130 H     1 <1>   0.0800 
 27 H       -0.2980     3.4100     1.5710 H     1 <1>   0.0800 
 28 H        3.0950    -1.1190    -0.7550 H     1 <1>   0.0800 
 29 H        3.1350    -1.7390     0.8800 H     1 <1>   0.0800 
 30 H        4.1280    -0.3670     0.4460 H     1 <1>   0.0800 
 31 H        0.6570     3.6110    -1.2930 H     1 <1>   0.0800 
 32 H       -1.1490     5.1550    -1.3880 H     1 <1>   0.0800 
 33 H        2.5990     4.2890    -0.4190 H     1 <1>   0.0800 
 34 H        1.9570     4.3690     1.2100 H     1 <1>   0.0800 
 35 H       -0.3900     5.8610     1.2250 H     1 <1>   0.4000 
 36 H        0.1840     7.3590    -0.8010 H     1 <1>   0.0800 
 37 H        0.9870     6.2410    -1.8960 H     1 <1>   0.0800 
 38 H        3.7350     6.3310     0.3660 H     1 <1>   0.0800 
 39 H        3.1830     6.6680    -1.2560 H     1 <1>   0.0800 
 40 H        4.6830     9.0380    -0.7710 H     1 <1>   0.4500 
 41 H        1.0690     8.5160     1.3360 H     1 <1>   0.1500 
 42 H        0.7920    11.1700     2.0930 H     1 <1>   0.1500 
 43 H        3.9470    13.7190     0.7310 H     1 <1>   0.1500 
 44 H        6.1800    11.1960    -0.1590 H     1 <1>   0.0800 
 45 H        5.7490    12.8310    -0.5760 H     1 <1>   0.0800 
 46 H        5.2800    11.5250    -1.6280 H     1 <1>   0.0800 
 47 H        1.8520    13.4160     1.9480 H     1 <1>   0.1500 
@<TRIPOS>BOND
  1   1   2  1   
  2   1   3  1   
  3   2   4  2   
  4   3   5  2   
  5   3   6  1   
  6   4   5  1   
  7   4   7  1   
  8   5  25  1   
  9   6   8  1   
 10   6  26  1   
 11   6  27  1   
 12   7  28  1   
 13   7  29  1   
 14   7  30  1   
 15   8   9  1   
 16   8  10  1   
 17   8  31  1   
 18   9  11  1   
 19   9  12  1   
 20   9  32  1   
 21  10  13  1   
 22  10  33  1   
 23  10  34  1   
 24  11  35  1   
 25  12  13  1   
 26  12  36  1   
 27  12  37  1   
 28  13  14  1   
 29  14  15  1   
 30  14  38  1   
 31  14  39  1   
 32  15  16  1   
 33  15  17  2   
 34  16  18  ar  
 35  16  40  1   
 36  17  19  1   
 37  17  41  1   
 38  18  19  ar  
 39  18  20  1   
 40  19  21  1   
 41  20  22  2   
 42  20  23  1   
 43  21  24  2   
 44  21  42  1   
 45  22  24  1   
 46  22  43  1   
 47  23  44  1   
 48  23  45  1   
 49  23  46  1   
 50  24  47  1   
@<TRIPOS>SUBSTRUCTURE
  1 ****  13 GROUP 4 **** **** 0

# MOE 2024.06 (io_trps.svl 2023.06)
