@<TRIPOS>MOLECULE
NONAME
38 40 1 0 0 
SMALL
USER_CHARGES


@<TRIPOS>ATOM
  1 O        0.4910    -0.5580    -1.4710 O.2   1 <1>  -0.5700 
  2 C        1.3110    -0.7670    -0.6000 C.2   1 <1>   0.7150 
  3 N        2.1460     0.2430    -0.2550 N.am  1 <1>  -0.7300 
  4 C        1.4420    -2.0260     0.0780 C.2   1 <1>  -0.2370 
  5 C        2.1290     1.5850    -0.8530 C.3   1 <1>   0.3640 
  6 N        0.4160    -2.8560     0.4910 N.pl3 1 <1>   0.0480 
  7 C        2.6260    -2.6190     0.4400 C.2   1 <1>  -0.1500 
  8 C        3.3930     2.2860    -0.4550 C.ar  1 <1>  -0.1430 
  9 C        1.0640     2.4820    -0.1920 C.3   1 <1>   0.1200 
 10 C        0.9870    -3.9340     1.0890 C.2   1 <1>  -0.3020 
 11 C       -1.0700    -2.7030     0.4290 C.3   1 <1>   0.1760 
 12 C        2.3390    -3.8200     1.0730 C.2   1 <1>  -0.1500 
 13 C        3.0770     3.2800     0.4360 C.ar  1 <1>   0.0830 
 14 C        4.7070     2.0660    -0.8260 C.ar  1 <1>  -0.1500 
 15 O        1.7590     3.3680     0.6810 O.3   1 <1>  -0.3630 
 16 C       -1.6100    -3.0000    -0.9750 C.3   1 <1>  -0.2400 
 17 C       -1.5460    -1.3470     0.9660 C.3   1 <1>  -0.2400 
 18 C        4.0510     4.0860     0.9930 C.ar  1 <1>  -0.1500 
 19 C        5.6970     2.8690    -0.2780 C.ar  1 <1>  -0.1500 
 20 C        5.3720     3.8730     0.6270 C.ar  1 <1>  -0.1500 
 21 H        2.7650     0.1270     0.5450 H     1 <1>   0.3700 
 22 H        1.9990     1.5300    -1.9210 H     1 <1>   0.0800 
 23 H        3.6200    -2.2420     0.2660 H     1 <1>   0.1500 
 24 H        0.3460     1.9180     0.3740 H     1 <1>   0.0800 
 25 H        0.5680     3.0820    -0.9320 H     1 <1>   0.0800 
 26 H        0.4070    -4.7400     1.5040 H     1 <1>   0.1500 
 27 H       -1.4790    -3.4520     1.0840 H     1 <1>   0.0800 
 28 H        3.0640    -4.5110     1.4680 H     1 <1>   0.1500 
 29 H        4.9560     1.2850    -1.5250 H     1 <1>   0.1500 
 30 H       -1.2860    -2.2620    -1.6840 H     1 <1>   0.0800 
 31 H       -2.6840    -3.0010    -0.9610 H     1 <1>   0.0800 
 32 H       -1.2740    -3.9680    -1.3010 H     1 <1>   0.0800 
 33 H       -1.3080    -0.5490     0.2900 H     1 <1>   0.0800 
 34 H       -1.0990    -1.1500     1.9240 H     1 <1>   0.0800 
 35 H       -2.6140    -1.3640     1.0880 H     1 <1>   0.0800 
 36 H        3.7770     4.8560     1.6900 H     1 <1>   0.1500 
 37 H        6.7250     2.7140    -0.5560 H     1 <1>   0.1500 
 38 H        6.1480     4.4890     1.0460 H     1 <1>   0.1500 
@<TRIPOS>BOND
  1   1   2  2   
  2   2   3  am  
  3   2   4  1   
  4   3   5  1   
  5   3  21  1   
  6   4   6  1   
  7   4   7  2   
  8   5   8  1   
  9   5   9  1   
 10   5  22  1   
 11   6  10  1   
 12   6  11  1   
 13   7  12  1   
 14   7  23  1   
 15   8  13  ar  
 16   8  14  ar  
 17   9  15  1   
 18   9  24  1   
 19   9  25  1   
 20  10  12  2   
 21  10  26  1   
 22  11  16  1   
 23  11  17  1   
 24  11  27  1   
 25  12  28  1   
 26  13  15  1   
 27  13  18  ar  
 28  14  19  ar  
 29  14  29  1   
 30  16  30  1   
 31  16  31  1   
 32  16  32  1   
 33  17  33  1   
 34  17  34  1   
 35  17  35  1   
 36  18  20  ar  
 37  18  36  1   
 38  19  20  ar  
 39  19  37  1   
 40  20  38  1   
@<TRIPOS>SUBSTRUCTURE
  1 ****   3 GROUP 4 **** **** 0

# MOE 2024.06 (io_trps.svl 2023.06)
