@<TRIPOS>MOLECULE
NONAME
42 45 1 0 0 
SMALL
USER_CHARGES


@<TRIPOS>ATOM
  1 S        0.0770    -0.5710    -0.5160 S.3   1 <1>  -0.4600 
  2 C       -1.3510     0.5340    -0.2710 C.3   1 <1>   0.2510 
  3 C       -0.7850    -2.1680    -0.4240 C.3   1 <1>   0.2510 
  4 C       -2.5100    -0.4260    -0.1500 C.2   1 <1>   0.1080 
  5 C       -2.2290    -1.7740    -0.2280 C.2   1 <1>  -0.1810 
  6 N       -3.7690    -0.1790     0.0200 N.2   1 <1>  -0.7070 
  7 C       -3.4190    -2.4030    -0.0890 C.2   1 <1>  -0.0880 
  8 N       -4.3460    -1.4070     0.0650 N.pl3 1 <1>   0.3140 
  9 N       -3.6320    -3.8020    -0.1270 N.am  1 <1>  -0.4940 
 10 C       -5.8080    -1.5160     0.1680 C.3   1 <1>   0.0160 
 11 C       -4.4960    -4.6090     0.5780 C.2   1 <1>   0.5440 
 12 O       -5.3130    -4.1190     1.3330 O.2   1 <1>  -0.5700 
 13 C       -4.4280    -6.0450     0.4030 C.ar  1 <1>   0.0860 
 14 C       -3.2120    -6.7150     0.2460 C.ar  1 <1>  -0.1500 
 15 C       -5.5860    -6.8210     0.3790 C.ar  1 <1>  -0.1500 
 16 C       -3.1610    -8.0830     0.0560 C.ar  1 <1>  -0.1500 
 17 C       -5.5360    -8.1880     0.1890 C.ar  1 <1>  -0.1500 
 18 C       -4.3230    -8.8480     0.0230 C.ar  1 <1>   0.1170 
 19 N       -4.2750   -10.2370    -0.1620 N.am  1 <1>  -0.4770 
 20 C       -5.1320   -11.0070    -0.8970 C.2   1 <1>   0.5690 
 21 C       -3.3240   -11.0820     0.5910 C.3   1 <1>   0.1400 
 22 O       -6.0340   -10.6160    -1.5950 O.2   1 <1>  -0.5700 
 23 C       -4.8310   -12.4730    -0.7390 C.3   1 <1>  -0.0990 
 24 C       -3.4970   -12.4930     0.0160 C.3   1 <1>  -0.1600 
 25 H       -1.4430     1.1720    -1.1310 H     1 <1>   0.0800 
 26 H       -1.1980     1.0980     0.6310 H     1 <1>   0.0800 
 27 H       -0.3920    -2.7120     0.4170 H     1 <1>   0.0800 
 28 H       -0.6210    -2.6900    -1.3490 H     1 <1>   0.0800 
 29 H       -3.0040    -4.3080    -0.7490 H     1 <1>   0.3700 
 30 H       -6.2550    -0.6080    -0.1880 H     1 <1>   0.0800 
 31 H       -6.0730    -1.6700     1.1970 H     1 <1>   0.0800 
 32 H       -6.1470    -2.3440    -0.4250 H     1 <1>   0.0800 
 33 H       -2.2910    -6.1600     0.2810 H     1 <1>   0.1500 
 34 H       -6.5400    -6.3380     0.5090 H     1 <1>   0.1500 
 35 H       -2.2090    -8.5620    -0.0750 H     1 <1>   0.1500 
 36 H       -6.4500    -8.7560     0.1670 H     1 <1>   0.1500 
 37 H       -3.5870   -11.0590     1.6350 H     1 <1>   0.0800 
 38 H       -2.3120   -10.7370     0.4640 H     1 <1>   0.0800 
 39 H       -4.7590   -12.9510    -1.6990 H     1 <1>   0.0800 
 40 H       -5.6140   -12.9270    -0.1600 H     1 <1>   0.0800 
 41 H       -3.4800   -13.2400     0.7890 H     1 <1>   0.0800 
 42 H       -2.6940   -12.6900    -0.6730 H     1 <1>   0.0800 
@<TRIPOS>BOND
  1   1   2  1   
  2   1   3  1   
  3   2   4  1   
  4   2  25  1   
  5   2  26  1   
  6   3   5  1   
  7   3  27  1   
  8   3  28  1   
  9   4   5  1   
 10   4   6  2   
 11   5   7  2   
 12   6   8  1   
 13   7   8  1   
 14   7   9  1   
 15   8  10  1   
 16   9  11  am  
 17   9  29  1   
 18  10  30  1   
 19  10  31  1   
 20  10  32  1   
 21  11  12  2   
 22  11  13  1   
 23  13  14  ar  
 24  13  15  ar  
 25  14  16  ar  
 26  14  33  1   
 27  15  17  ar  
 28  15  34  1   
 29  16  18  ar  
 30  16  35  1   
 31  17  18  ar  
 32  17  36  1   
 33  18  19  1   
 34  19  20  am  
 35  19  21  1   
 36  20  22  2   
 37  20  23  1   
 38  21  24  1   
 39  21  37  1   
 40  21  38  1   
 41  23  24  1   
 42  23  39  1   
 43  23  40  1   
 44  24  41  1   
 45  24  42  1   
@<TRIPOS>SUBSTRUCTURE
  1 ****  13 GROUP 4 **** **** 0

# MOE 2024.06 (io_trps.svl 2023.06)
