@<TRIPOS>MOLECULE
NONAME
43 45 1 0 0 
SMALL
USER_CHARGES


@<TRIPOS>ATOM
  1 CL      -0.5400    -0.3460     1.4520 Cl    1 <1>  -0.1230 
  2 C       -1.2620    -1.9310     1.2340 C.2   1 <1>   0.1230 
  3 C       -0.5730    -3.1170     1.0420 C.2   1 <1>   0.1390 
  4 C       -2.5700    -2.2420     1.2170 C.2   1 <1>  -0.3020 
  5 N       -1.3940    -4.1190     0.9110 N.2   1 <1>  -0.7070 
  6 N       -2.6300    -3.5770     1.0210 N.pl3 1 <1>   0.3140 
  7 C       -3.8580    -4.3900     0.9330 C.3   1 <1>   0.0960 
  8 C       -3.7430    -5.4140    -0.2020 C.3   1 <1>   0.1100 
  9 N       -4.9890    -6.1970    -0.3550 N.3   1 <1>  -0.8100 
 10 C       -6.0330    -5.4640    -1.1170 C.3   1 <1>   0.1100 
 11 C       -4.7000    -7.4980    -1.0140 C.3   1 <1>   0.1100 
 12 C       -7.3350    -6.2900    -1.2790 C.3   1 <1>   0.3430 
 13 C       -5.9710    -8.3500    -1.2470 C.3   1 <1>   0.3430 
 14 N       -7.1850    -7.6620    -0.6940 N.4   1 <1>  -0.9590 
 15 C       -8.4230    -8.4810    -0.7390 C.3   1 <1>   0.4860 
 16 C       -8.1880    -9.7720     0.0260 C.ar  1 <1>  -0.1430 
 17 C       -8.0650   -10.9740    -0.6640 C.ar  1 <1>  -0.1500 
 18 C       -8.0920    -9.7550     1.4140 C.ar  1 <1>  -0.1500 
 19 C       -7.8370   -12.1530     0.0260 C.ar  1 <1>  -0.1500 
 20 C       -7.8640   -10.9290     2.1120 C.ar  1 <1>  -0.1500 
 21 C       -7.7390   -12.1080     1.4030 C.ar  1 <1>   0.1900 
 22 F       -7.5210   -13.2160     2.0560 F     1 <1>  -0.1900 
 23 H        0.5000    -3.2020     1.0070 H     1 <1>   0.1500 
 24 H       -3.4260    -1.6040     1.3330 H     1 <1>   0.1500 
 25 H       -4.6870    -3.7310     0.7650 H     1 <1>   0.0800 
 26 H       -3.9890    -4.9000     1.8690 H     1 <1>   0.0800 
 27 H       -2.9320    -6.0810     0.0440 H     1 <1>   0.0800 
 28 H       -3.4970    -4.9170    -1.1270 H     1 <1>   0.0800 
 29 H       -5.6580    -5.2080    -2.0940 H     1 <1>   0.0800 
 30 H       -6.2720    -4.5430    -0.6150 H     1 <1>   0.0800 
 31 H       -4.0180    -8.0620    -0.3990 H     1 <1>   0.0800 
 32 H       -4.2120    -7.3300    -1.9600 H     1 <1>   0.0800 
 33 H       -7.5810    -6.3570    -2.3250 H     1 <1>   0.0800 
 34 H       -8.1390    -5.7690    -0.7860 H     1 <1>   0.0800 
 35 H       -5.8370    -9.3070    -0.7670 H     1 <1>   0.0800 
 36 H       -6.0930    -8.5270    -2.3020 H     1 <1>   0.0800 
 37 H       -6.9300    -7.5010     0.2910 H     1 <1>   0.4500 
 38 H       -8.6850    -8.7030    -1.7600 H     1 <1>   0.0800 
 39 H       -9.2400    -7.9430    -0.2860 H     1 <1>   0.0800 
 40 H       -8.1470   -11.0110    -1.7370 H     1 <1>   0.1500 
 41 H       -8.1960    -8.8370     1.9680 H     1 <1>   0.1500 
 42 H       -7.7390   -13.0950    -0.4860 H     1 <1>   0.1500 
 43 H       -7.7870   -10.9410     3.1850 H     1 <1>   0.1500 
@<TRIPOS>BOND
  1   1   2  1   
  2   2   3  1   
  3   2   4  2   
  4   3   5  2   
  5   3  23  1   
  6   4   6  1   
  7   4  24  1   
  8   5   6  1   
  9   6   7  1   
 10   7   8  1   
 11   7  25  1   
 12   7  26  1   
 13   8   9  1   
 14   8  27  1   
 15   8  28  1   
 16   9  10  1   
 17   9  11  1   
 18  10  12  1   
 19  10  29  1   
 20  10  30  1   
 21  11  13  1   
 22  11  31  1   
 23  11  32  1   
 24  12  14  1   
 25  12  33  1   
 26  12  34  1   
 27  13  14  1   
 28  13  35  1   
 29  13  36  1   
 30  14  15  1   
 31  14  37  1   
 32  15  16  1   
 33  15  38  1   
 34  15  39  1   
 35  16  17  ar  
 36  16  18  ar  
 37  17  19  ar  
 38  17  40  1   
 39  18  20  ar  
 40  18  41  1   
 41  19  21  ar  
 42  19  42  1   
 43  20  21  ar  
 44  20  43  1   
 45  21  22  1   
@<TRIPOS>SUBSTRUCTURE
  1 ****   9 GROUP 4 **** **** 0

# MOE 2024.06 (io_trps.svl 2023.06)
