@<TRIPOS>MOLECULE
NONAME
51 54 1 0 0 
SMALL
USER_CHARGES


@<TRIPOS>ATOM
  1 S        1.1850    -0.3720    -1.4390 S.3   1 <1>  -0.3320 
  2 C        0.6950    -1.7380    -0.3660 C.ar  1 <1>   0.1020 
  3 C        1.4950     1.0610    -0.3240 C.3   1 <1>   0.1500 
  4 C        1.1380    -3.0230    -0.6580 C.ar  1 <1>  -0.1440 
  5 C       -0.1140    -1.4900     0.7320 C.ar  1 <1>  -0.1500 
  6 C        1.8470     2.2560    -1.2120 C.3   1 <1>  -0.1600 
  7 C        2.6540     0.6910     0.6070 C.3   1 <1>  -0.1600 
  8 C        0.7740    -4.0580     0.1900 C.ar  1 <1>  -0.1500 
  9 C        2.0060    -3.3140    -1.8740 C.3   1 <1>  -0.0970 
 10 C       -0.4680    -2.5340     1.5690 C.ar  1 <1>  -0.1500 
 11 C        2.3230     3.4390    -0.3750 C.3   1 <1>   0.3430 
 12 C        3.1200     1.9000     1.4120 C.3   1 <1>   0.3430 
 13 C       -0.0210    -3.8150     1.2980 C.ar  1 <1>  -0.1500 
 14 N        3.4670     3.0140     0.4870 N.4   1 <1>  -0.9590 
 15 C        4.0680     4.1880     1.2160 C.3   1 <1>   0.5240 
 16 C        4.7970     5.1480     0.2720 C.2   1 <1>   0.3350 
 17 N        5.1650     4.8620    -0.9130 N.2   1 <1>  -0.4100 
 18 N        5.1070     6.3790     0.6410 N.2   1 <1>  -0.5650 
 19 O        5.7630     5.9120    -1.3890 O.3   1 <1>  -0.0190 
 20 C        5.7080     6.7870    -0.4140 C.2   1 <1>   0.2980 
 21 C        6.3430     8.1610    -0.6560 C.3   1 <1>   0.3800 
 22 O        7.6970     8.0320    -0.9740 O.3   1 <1>  -0.5600 
 23 C        6.3270     9.1130     0.5350 C.3   1 <1>  -0.1600 
 24 C        8.4150     9.1760    -0.6250 C.3   1 <1>   0.1200 
 25 C        7.4910    10.0370     0.2330 C.3   1 <1>  -0.1600 
 26 H        0.5890     1.2520     0.2240 H     1 <1>   0.0800 
 27 H       -0.4820    -0.5050     0.9360 H     1 <1>   0.1500 
 28 H        0.9800     2.5460    -1.7790 H     1 <1>   0.0800 
 29 H        2.6190     1.9830    -1.9110 H     1 <1>   0.0800 
 30 H        3.4770     0.3060     0.0320 H     1 <1>   0.0800 
 31 H        2.3410    -0.0830     1.2850 H     1 <1>   0.0800 
 32 H        1.1050    -5.0620    -0.0080 H     1 <1>   0.1500 
 33 H        2.9320    -2.7740    -1.8060 H     1 <1>   0.0800 
 34 H        1.4930    -3.0140    -2.7710 H     1 <1>   0.0800 
 35 H        2.2290    -4.3630    -1.9480 H     1 <1>   0.0800 
 36 H       -1.0960    -2.3550     2.4250 H     1 <1>   0.1500 
 37 H        1.5120     3.7980     0.2390 H     1 <1>   0.0800 
 38 H        2.6300     4.2380    -1.0340 H     1 <1>   0.0800 
 39 H        3.9810     1.6230     2.0020 H     1 <1>   0.0800 
 40 H        2.3340     2.2100     2.0830 H     1 <1>   0.0800 
 41 H       -0.2950    -4.6280     1.9480 H     1 <1>   0.1500 
 42 H        4.2060     2.6900    -0.1580 H     1 <1>   0.4500 
 43 H        4.7820     3.8410     1.9420 H     1 <1>   0.0800 
 44 H        3.2990     4.7330     1.7370 H     1 <1>   0.0800 
 45 H        5.8670     8.6290    -1.5000 H     1 <1>   0.0800 
 46 H        6.5190     8.5650     1.4410 H     1 <1>   0.0800 
 47 H        5.3900     9.6330     0.6240 H     1 <1>   0.0800 
 48 H        8.7150     9.6850    -1.5260 H     1 <1>   0.0800 
 49 H        9.2860     8.8630    -0.0750 H     1 <1>   0.0800 
 50 H        7.9830    10.3820     1.1250 H     1 <1>   0.0800 
 51 H        7.1630    10.8870    -0.3390 H     1 <1>   0.0800 
@<TRIPOS>BOND
  1   1   2  1   
  2   1   3  1   
  3   2   4  ar  
  4   2   5  ar  
  5   3   6  1   
  6   3   7  1   
  7   3  26  1   
  8   4   8  ar  
  9   4   9  1   
 10   5  10  ar  
 11   5  27  1   
 12   6  11  1   
 13   6  28  1   
 14   6  29  1   
 15   7  12  1   
 16   7  30  1   
 17   7  31  1   
 18   8  13  ar  
 19   8  32  1   
 20   9  33  1   
 21   9  34  1   
 22   9  35  1   
 23  10  13  ar  
 24  10  36  1   
 25  11  14  1   
 26  11  37  1   
 27  11  38  1   
 28  12  14  1   
 29  12  39  1   
 30  12  40  1   
 31  13  41  1   
 32  14  15  1   
 33  14  42  1   
 34  15  16  1   
 35  15  43  1   
 36  15  44  1   
 37  16  17  2   
 38  16  18  1   
 39  17  19  1   
 40  18  20  2   
 41  19  20  1   
 42  20  21  1   
 43  21  22  1   
 44  21  23  1   
 45  21  45  1   
 46  22  24  1   
 47  23  25  1   
 48  23  46  1   
 49  23  47  1   
 50  24  25  1   
 51  24  48  1   
 52  24  49  1   
 53  25  50  1   
 54  25  51  1   
@<TRIPOS>SUBSTRUCTURE
  1 ****  14 GROUP 4 **** **** 0

# MOE 2024.06 (io_trps.svl 2023.06)
