@<TRIPOS>MOLECULE
NONAME
57 60 1 0 0 
SMALL
USER_CHARGES


@<TRIPOS>ATOM
  1 O       -0.5220     0.0030     0.5710 O.2   1 <1>  -0.5700 
  2 C       -1.5450     0.6010     0.2920 C.2   1 <1>   0.7150 
  3 N       -2.6390    -0.1290    -0.1070 N.am  1 <1>  -0.6600 
  4 C       -1.5920     2.0340     0.3630 C.2   1 <1>  -0.2370 
  5 C       -3.7570     0.4140    -0.9180 C.3   1 <1>   0.1400 
  6 C       -2.6160    -1.6100    -0.1720 C.3   1 <1>   0.1400 
  7 N       -0.5490     2.8580     0.0720 N.pl3 1 <1>   0.3140 
  8 C       -2.6120     2.8630     0.7250 C.2   1 <1>  -0.1500 
  9 C       -4.2970    -0.7860    -1.6950 C.3   1 <1>   0.2000 
 10 C       -3.9190    -2.0120    -0.8660 C.3   1 <1>  -0.0800 
 11 N       -0.8790     4.1540     0.2230 N.2   1 <1>  -0.7070 
 12 C        0.8170     2.4350    -0.3520 C.3   1 <1>   0.0960 
 13 C       -2.1160     4.1480     0.6160 C.2   1 <1>   0.1080 
 14 O       -5.6730    -0.7200    -1.8450 O.3   1 <1>  -0.6800 
 15 C       -3.7940    -3.2900    -1.7120 C.3   1 <1>  -0.0170 
 16 C        1.6090     3.5370    -1.0740 C.3   1 <1>  -0.2400 
 17 C       -2.8890     5.4280     0.9130 C.3   1 <1>   0.1010 
 18 C       -3.4470    -4.4920    -0.8400 C.ar  1 <1>  -0.1440 
 19 C       -3.3450     5.4650     2.3760 C.3   1 <1>  -0.2400 
 20 C       -4.0870     5.5740    -0.0320 C.3   1 <1>  -0.2400 
 21 C       -4.4150    -5.1620    -0.0540 C.ar  1 <1>   0.0000 
 22 C       -2.1640    -4.9550    -0.7900 C.ar  1 <1>  -0.1500 
 23 C       -3.9780    -6.2500     0.7400 C.ar  1 <1>   0.3100 
 24 C       -5.7870    -4.8200    -0.0110 C.ar  1 <1>  -0.1500 
 25 C       -1.8390    -6.0460     0.0240 C.ar  1 <1>   0.1600 
 26 N       -2.6910    -6.6790     0.7670 N.ar  1 <1>  -0.6200 
 27 C       -4.9120    -6.9250     1.5410 C.ar  1 <1>  -0.1500 
 28 C       -6.6730    -5.5010     0.7790 C.ar  1 <1>  -0.1500 
 29 C       -6.2320    -6.5660     1.5680 C.ar  1 <1>  -0.1500 
 30 H       -4.5090     0.8100    -0.2590 H     1 <1>   0.0800 
 31 H       -3.4070     1.1790    -1.5890 H     1 <1>   0.0800 
 32 H       -1.7600    -1.9220    -0.7470 H     1 <1>   0.0800 
 33 H       -2.5500    -2.0340     0.8170 H     1 <1>   0.0800 
 34 H       -3.6020     2.5990     1.0430 H     1 <1>   0.1500 
 35 H       -3.8490    -0.8190    -2.6740 H     1 <1>   0.0800 
 36 H       -4.6530    -2.1580    -0.0930 H     1 <1>   0.0800 
 37 H        1.3500     2.1190     0.5260 H     1 <1>   0.0800 
 38 H        0.7200     1.5910    -1.0090 H     1 <1>   0.0800 
 39 H       -6.1120    -0.7060    -0.9720 H     1 <1>   0.4000 
 40 H       -3.0290    -3.1510    -2.4560 H     1 <1>   0.0800 
 41 H       -4.7110    -3.4740    -2.2430 H     1 <1>   0.0800 
 42 H        1.7710     4.3710    -0.4140 H     1 <1>   0.0800 
 43 H        1.0710     3.8730    -1.9420 H     1 <1>   0.0800 
 44 H        2.5650     3.1570    -1.3840 H     1 <1>   0.0800 
 45 H       -2.2230     6.2580     0.7460 H     1 <1>   0.0800 
 46 H       -4.0300     4.6620     2.5820 H     1 <1>   0.0800 
 47 H       -3.8290     6.4000     2.5930 H     1 <1>   0.0800 
 48 H       -2.4910     5.3630     3.0220 H     1 <1>   0.0800 
 49 H       -4.7890     4.7730     0.1160 H     1 <1>   0.0800 
 50 H       -3.7470     5.5510    -1.0520 H     1 <1>   0.0800 
 51 H       -4.5860     6.5110     0.1410 H     1 <1>   0.0800 
 52 H       -1.3760    -4.5010    -1.3620 H     1 <1>   0.1500 
 53 H       -6.1490    -4.0080    -0.6120 H     1 <1>   0.1500 
 54 H       -0.8150    -6.3790     0.0350 H     1 <1>   0.1500 
 55 H       -4.5510    -7.7430     2.1380 H     1 <1>   0.1500 
 56 H       -7.7150    -5.2310     0.8030 H     1 <1>   0.1500 
 57 H       -6.9370    -7.0940     2.1870 H     1 <1>   0.1500 
@<TRIPOS>BOND
  1   1   2  2   
  2   2   3  am  
  3   2   4  1   
  4   3   5  1   
  5   3   6  1   
  6   4   7  1   
  7   4   8  2   
  8   5   9  1   
  9   5  30  1   
 10   5  31  1   
 11   6  10  1   
 12   6  32  1   
 13   6  33  1   
 14   7  11  1   
 15   7  12  1   
 16   8  13  1   
 17   8  34  1   
 18   9  10  1   
 19   9  14  1   
 20   9  35  1   
 21  10  15  1   
 22  10  36  1   
 23  11  13  2   
 24  12  16  1   
 25  12  37  1   
 26  12  38  1   
 27  13  17  1   
 28  14  39  1   
 29  15  18  1   
 30  15  40  1   
 31  15  41  1   
 32  16  42  1   
 33  16  43  1   
 34  16  44  1   
 35  17  19  1   
 36  17  20  1   
 37  17  45  1   
 38  18  21  ar  
 39  18  22  ar  
 40  19  46  1   
 41  19  47  1   
 42  19  48  1   
 43  20  49  1   
 44  20  50  1   
 45  20  51  1   
 46  21  23  ar  
 47  21  24  ar  
 48  22  25  ar  
 49  22  52  1   
 50  23  26  ar  
 51  23  27  ar  
 52  24  28  ar  
 53  24  53  1   
 54  25  26  ar  
 55  25  54  1   
 56  27  29  ar  
 57  27  55  1   
 58  28  29  ar  
 59  28  56  1   
 60  29  57  1   
@<TRIPOS>SUBSTRUCTURE
  1 ****   6 GROUP 4 **** **** 0

# MOE 2024.06 (io_trps.svl 2023.06)
