@<TRIPOS>MOLECULE
NONAME
42 43 1 0 0 
SMALL
USER_CHARGES


@<TRIPOS>ATOM
  1 O        2.1360    -1.6630     0.5440 O.co2 1 <1>  -0.9000 
  2 C        3.0610    -0.8600     0.4230 C.2   1 <1>   0.9060 
  3 O        4.2470    -1.1500     0.6560 O.co2 1 <1>  -0.9000 
  4 C        2.8060     0.5960     0.0270 C.3   1 <1>  -0.1060 
  5 C        3.3240     1.3770     1.2400 C.3   1 <1>   0.2090 
  6 C        1.3310     1.0460    -0.1710 C.3   1 <1>  -0.1600 
  7 C        3.5660     0.8510    -1.3120 C.3   1 <1>  -0.2400 
  8 N        3.5420     2.7840     0.8130 N.pl3 1 <1>  -0.8380 
  9 C        1.0690     2.5150     0.2720 C.3   1 <1>  -0.1600 
 10 C        4.7750     3.2660     0.5300 C.ar  1 <1>   0.7710 
 11 C        2.2980     3.4600     0.3130 C.3   1 <1>   0.2090 
 12 N        4.9290     4.5520     0.2610 N.ar  1 <1>  -0.6200 
 13 N        5.8060     2.4020     0.5020 N.ar  1 <1>  -0.1790 
 14 C        6.1460     4.9920     0.0040 C.ar  1 <1>   0.4100 
 15 C        7.0590     2.8030     0.2020 C.ar  1 <1>   0.2110 
 16 N        6.2700     6.3290    -0.2050 N.pl3 1 <1>  -0.8380 
 17 C        7.2640     4.1180    -0.0590 C.ar  1 <1>  -0.1440 
 18 C        7.1520     7.1900     0.6300 C.3   1 <1>   0.1290 
 19 C        5.2440     7.0870    -0.9770 C.3   1 <1>   0.1290 
 20 C        8.6550     4.6140    -0.4520 C.3   1 <1>  -0.0970 
 21 H        4.2160     0.9490     1.6590 H     1 <1>   0.0800 
 22 H        2.5960     1.3410     2.0350 H     1 <1>   0.0800 
 23 H        0.6860     0.4060     0.4080 H     1 <1>   0.0800 
 24 H        1.0440     0.9120    -1.1990 H     1 <1>   0.0800 
 25 H        4.6090     0.6180    -1.2180 H     1 <1>   0.0800 
 26 H        3.4530     1.8590    -1.6650 H     1 <1>   0.0800 
 27 H        3.1670     0.1950    -2.0670 H     1 <1>   0.0800 
 28 H        0.6580     2.4910     1.2670 H     1 <1>   0.0800 
 29 H        0.3110     2.9480    -0.3550 H     1 <1>   0.0800 
 30 H        2.4820     3.8270    -0.6820 H     1 <1>   0.0800 
 31 H        2.0800     4.3090     0.9390 H     1 <1>   0.0800 
 32 H        5.5480     1.4200     0.6380 H     1 <1>   0.4570 
 33 H        7.8420     2.0620     0.1680 H     1 <1>   0.1500 
 34 H        7.6190     6.6090     1.4060 H     1 <1>   0.0800 
 35 H        6.5710     7.9670     1.0960 H     1 <1>   0.0800 
 36 H        7.9110     7.6400     0.0150 H     1 <1>   0.0800 
 37 H        4.6850     6.4200    -1.6110 H     1 <1>   0.0800 
 38 H        5.7210     7.8280    -1.5940 H     1 <1>   0.0800 
 39 H        4.5620     7.5720    -0.2990 H     1 <1>   0.0800 
 40 H        8.5850     5.2780    -1.2960 H     1 <1>   0.0800 
 41 H        9.2990     3.7960    -0.7240 H     1 <1>   0.0800 
 42 H        9.1110     5.1430     0.3660 H     1 <1>   0.0800 
@<TRIPOS>BOND
  1   1   2  ar  
  2   2   3  ar  
  3   2   4  1   
  4   4   5  1   
  5   4   6  1   
  6   4   7  1   
  7   5   8  1   
  8   5  21  1   
  9   5  22  1   
 10   6   9  1   
 11   6  23  1   
 12   6  24  1   
 13   7  25  1   
 14   7  26  1   
 15   7  27  1   
 16   8  10  1   
 17   8  11  1   
 18   9  11  1   
 19   9  28  1   
 20   9  29  1   
 21  10  12  ar  
 22  10  13  ar  
 23  11  30  1   
 24  11  31  1   
 25  12  14  ar  
 26  13  15  ar  
 27  13  32  1   
 28  14  16  1   
 29  14  17  ar  
 30  15  17  ar  
 31  15  33  1   
 32  16  18  1   
 33  16  19  1   
 34  17  20  1   
 35  18  34  1   
 36  18  35  1   
 37  18  36  1   
 38  19  37  1   
 39  19  38  1   
 40  19  39  1   
 41  20  40  1   
 42  20  41  1   
 43  20  42  1   
@<TRIPOS>SUBSTRUCTURE
  1 ****  10 GROUP 4 **** **** 0

# MOE 2024.06 (io_trps.svl 2023.06)
