@<TRIPOS>MOLECULE
NONAME
35 36 1 0 0 
SMALL
USER_CHARGES


@<TRIPOS>ATOM
  1 F       -1.0310    -0.1840    -0.5560 F     1 <1>  -0.1900 
  2 C       -1.8740     0.5750     0.0920 C.ar  1 <1>   0.1900 
  3 C       -2.7930    -0.0320     0.9430 C.ar  1 <1>   0.0860 
  4 C       -1.8090     1.9490    -0.1130 C.ar  1 <1>  -0.1440 
  5 C       -3.6680     0.8330     1.5890 C.ar  1 <1>   0.1900 
  6 C       -2.8390    -1.4570     1.1400 C.2   1 <1>   0.5440 
  7 C       -2.7070     2.7650     0.5600 C.ar  1 <1>  -0.1500 
  8 C       -0.7780     2.5570    -1.0540 C.3   1 <1>  -0.0970 
  9 F       -4.5670     0.3460     2.3990 F     1 <1>  -0.1900 
 10 C       -3.6430     2.2050     1.4150 C.ar  1 <1>  -0.1500 
 11 O       -2.1510    -1.9540     2.0130 O.2   1 <1>  -0.5700 
 12 N       -3.6440    -2.2670     0.3700 N.am  1 <1>  -0.6600 
 13 C       -3.7870    -3.7330     0.6770 C.3   1 <1>   0.1400 
 14 C       -4.4850    -1.7840    -0.7600 C.3   1 <1>   0.1400 
 15 C       -5.1290    -4.3380     0.2100 C.3   1 <1>   0.2000 
 16 C       -5.9740    -2.0060    -0.4540 C.3   1 <1>  -0.1600 
 17 O       -5.0350    -4.7450    -1.1120 O.3   1 <1>  -0.6800 
 18 C       -6.2700    -3.3170     0.3220 C.3   1 <1>  -0.1860 
 19 C       -7.5860    -3.9530    -0.0810 C.2   1 <1>   0.9060 
 20 O       -8.5350    -3.9120     0.7060 O.co2 1 <1>  -0.9000 
 21 O       -7.6580    -4.5090    -1.1860 O.co2 1 <1>  -0.9000 
 22 H       -2.6840     3.8340     0.4250 H     1 <1>   0.1500 
 23 H       -0.8490     3.6300    -1.0690 H     1 <1>   0.0800 
 24 H       -0.9300     2.1900    -2.0530 H     1 <1>   0.0800 
 25 H        0.2130     2.2850    -0.7360 H     1 <1>   0.0800 
 26 H       -4.3460     2.8240     1.9440 H     1 <1>   0.1500 
 27 H       -2.9720    -4.2770     0.2340 H     1 <1>   0.0800 
 28 H       -3.7250    -3.8580     1.7440 H     1 <1>   0.0800 
 29 H       -4.3070    -0.7460    -0.9740 H     1 <1>   0.0800 
 30 H       -4.2180    -2.3470    -1.6390 H     1 <1>   0.0800 
 31 H       -5.3590    -5.2140     0.7910 H     1 <1>   0.0800 
 32 H       -6.3560    -1.1740     0.1100 H     1 <1>   0.0800 
 33 H       -6.5030    -2.0210    -1.3920 H     1 <1>   0.0800 
 34 H       -5.9830    -4.8110    -1.4360 H     1 <1>   0.4000 
 35 H       -6.3580    -3.0640     1.3620 H     1 <1>   0.0800 
@<TRIPOS>BOND
  1   1   2  1   
  2   2   3  ar  
  3   2   4  ar  
  4   3   5  ar  
  5   3   6  1   
  6   4   7  ar  
  7   4   8  1   
  8   5   9  1   
  9   5  10  ar  
 10   6  11  2   
 11   6  12  am  
 12   7  10  ar  
 13   7  22  1   
 14   8  23  1   
 15   8  24  1   
 16   8  25  1   
 17  10  26  1   
 18  12  13  1   
 19  12  14  1   
 20  13  15  1   
 21  13  27  1   
 22  13  28  1   
 23  14  16  1   
 24  14  29  1   
 25  14  30  1   
 26  15  17  1   
 27  15  18  1   
 28  15  31  1   
 29  16  18  1   
 30  16  32  1   
 31  16  33  1   
 32  17  34  1   
 33  18  19  1   
 34  18  35  1   
 35  19  20  ar  
 36  19  21  ar  
@<TRIPOS>SUBSTRUCTURE
  1 ****  12 GROUP 4 **** **** 0

# MOE 2024.06 (io_trps.svl 2023.06)
