@<TRIPOS>MOLECULE
NONAME
55 59 1 0 0 
SMALL
USER_CHARGES


@<TRIPOS>ATOM
  1 O       -2.3810     0.5450    -2.1660 O.2   1 <1>  -0.5700 
  2 C       -2.2360     0.9820    -1.0420 C.2   1 <1>   0.5440 
  3 N       -2.4130     0.1010     0.0040 N.am  1 <1>  -0.6600 
  4 C       -2.0060     2.3950    -0.8280 C.ar  1 <1>   0.0860 
  5 C       -3.2200     0.4730     1.2040 C.3   1 <1>   0.1400 
  6 C       -2.3470    -1.3700    -0.2350 C.3   1 <1>   0.1400 
  7 C       -0.9530     2.8770    -0.0100 C.ar  1 <1>   0.1660 
  8 C       -2.8310     3.3260    -1.4050 C.ar  1 <1>  -0.1500 
  9 C       -4.6520    -0.1090     1.1060 C.3   1 <1>   0.4230 
 10 C       -3.7690    -1.9360    -0.3830 C.3   1 <1>   0.3430 
 11 N       -0.7710     4.1270     0.2790 N.ar  1 <1>  -0.6200 
 12 C        0.0680     1.9200     0.5850 C.3   1 <1>  -0.0970 
 13 C       -2.6480     4.6890    -1.1330 C.ar  1 <1>   0.0000 
 14 N       -4.6460    -1.6020     0.8060 N.4   1 <1>  -0.9590 
 15 C       -5.4810     0.6610     0.0500 C.3   1 <1>   0.1200 
 16 C       -1.6010     5.0610    -0.2620 C.ar  1 <1>   0.3100 
 17 C       -3.4710     5.6890    -1.6860 C.ar  1 <1>  -0.1500 
 18 C       -6.0600    -2.0870     0.6370 C.3   1 <1>   0.5180 
 19 O       -6.7740     0.1340    -0.0270 O.3   1 <1>  -0.5600 
 20 C       -1.4200     6.4300     0.0370 C.ar  1 <1>  -0.1430 
 21 C       -3.2740     7.0070    -1.3830 C.ar  1 <1>  -0.1500 
 22 C       -6.0500    -3.5960     0.3210 C.3   1 <1>  -0.1950 
 23 C       -6.8350    -1.2200    -0.3860 C.3   1 <1>   0.1200 
 24 C       -2.2440     7.3790    -0.5150 C.ar  1 <1>  -0.1500 
 25 C       -0.2990     6.8590     0.9760 C.3   1 <1>  -0.0970 
 26 C       -5.9510    -4.1840    -1.0580 C.3   1 <1>  -0.2000 
 27 C       -7.2270    -4.3100    -0.2740 C.3   1 <1>  -0.2000 
 28 H       -2.7350     0.0920     2.0870 H     1 <1>   0.0800 
 29 H       -3.2730     1.5440     1.3070 H     1 <1>   0.0800 
 30 H       -1.7840    -1.5770    -1.1300 H     1 <1>   0.0800 
 31 H       -1.8390    -1.8490     0.5840 H     1 <1>   0.0800 
 32 H       -3.6220     3.0260    -2.0680 H     1 <1>   0.1500 
 33 H       -5.1340     0.0550     2.0550 H     1 <1>   0.0800 
 34 H       -3.7050    -3.0050    -0.5060 H     1 <1>   0.0800 
 35 H       -4.1980    -1.5270    -1.2830 H     1 <1>   0.0800 
 36 H        0.3520     1.1720    -0.1330 H     1 <1>   0.0800 
 37 H       -0.3330     1.4460     1.4600 H     1 <1>   0.0800 
 38 H        0.9560     2.4580     0.8690 H     1 <1>   0.0800 
 39 H       -4.2600    -2.0890     1.6210 H     1 <1>   0.4500 
 40 H       -5.0290     0.6100    -0.9260 H     1 <1>   0.0800 
 41 H       -5.5710     1.6960     0.3300 H     1 <1>   0.0800 
 42 H       -4.2610     5.4000    -2.3570 H     1 <1>   0.1500 
 43 H       -6.5730    -1.9690     1.5780 H     1 <1>   0.0800 
 44 H       -3.9030     7.7720    -1.8060 H     1 <1>   0.1500 
 45 H       -5.5710    -4.1410     1.1170 H     1 <1>   0.1000 
 46 H       -7.8730    -1.4990    -0.3970 H     1 <1>   0.0800 
 47 H       -6.4420    -1.3310    -1.3810 H     1 <1>   0.0800 
 48 H       -2.1120     8.4240    -0.2940 H     1 <1>   0.1500 
 49 H       -0.2900     7.9240     1.1150 H     1 <1>   0.0800 
 50 H        0.6510     6.5580     0.5700 H     1 <1>   0.0800 
 51 H       -0.4260     6.3890     1.9350 H     1 <1>   0.0800 
 52 H       -5.9810    -3.5690    -1.9420 H     1 <1>   0.1000 
 53 H       -5.3700    -5.0790    -1.2110 H     1 <1>   0.1000 
 54 H       -7.4930    -5.2830     0.1070 H     1 <1>   0.1000 
 55 H       -8.0890    -3.7770    -0.6360 H     1 <1>   0.1000 
@<TRIPOS>BOND
  1   1   2  2   
  2   2   3  am  
  3   2   4  1   
  4   3   5  1   
  5   3   6  1   
  6   4   7  ar  
  7   4   8  ar  
  8   5   9  1   
  9   5  28  1   
 10   5  29  1   
 11   6  10  1   
 12   6  30  1   
 13   6  31  1   
 14   7  11  ar  
 15   7  12  1   
 16   8  13  ar  
 17   8  32  1   
 18   9  14  1   
 19   9  15  1   
 20   9  33  1   
 21  10  14  1   
 22  10  34  1   
 23  10  35  1   
 24  11  16  ar  
 25  12  36  1   
 26  12  37  1   
 27  12  38  1   
 28  13  16  ar  
 29  13  17  ar  
 30  14  18  1   
 31  14  39  1   
 32  15  19  1   
 33  15  40  1   
 34  15  41  1   
 35  16  20  ar  
 36  17  21  ar  
 37  17  42  1   
 38  18  22  1   
 39  18  23  1   
 40  18  43  1   
 41  19  23  1   
 42  20  24  ar  
 43  20  25  1   
 44  21  24  ar  
 45  21  44  1   
 46  22  26  1   
 47  22  27  1   
 48  22  45  1   
 49  23  46  1   
 50  23  47  1   
 51  24  48  1   
 52  25  49  1   
 53  25  50  1   
 54  25  51  1   
 55  26  27  1   
 56  26  52  1   
 57  26  53  1   
 58  27  54  1   
 59  27  55  1   
@<TRIPOS>SUBSTRUCTURE
  1 ****   2 GROUP 4 **** **** 0

# MOE 2024.06 (io_trps.svl 2023.06)
