@<TRIPOS>MOLECULE
NONAME
57 60 1 0 0 
SMALL
USER_CHARGES


@<TRIPOS>ATOM
  1 O        0.2160    -0.0690     0.5150 O.3   1 <1>  -0.5600 
  2 C        0.9310     0.7640    -0.3350 C.3   1 <1>   0.1200 
  3 C       -1.1470     0.0630     0.2340 C.3   1 <1>   0.1200 
  4 C        0.0990     2.0420    -0.3260 C.3   1 <1>   0.4230 
  5 C       -1.2940     1.4260    -0.4640 C.3   1 <1>  -0.0800 
  6 N        0.2530     2.6840     1.0150 N.4   1 <1>  -0.9060 
  7 C       -2.4940     2.2630     0.0260 C.3   1 <1>  -0.0170 
  8 C        1.1810     3.8410     1.1210 C.3   1 <1>   0.4230 
  9 C       -3.7980     1.5530    -0.2920 C.ar  1 <1>  -0.1440 
 10 C        0.6150     5.0330     0.3410 C.3   1 <1>  -0.1600 
 11 C        2.6050     3.4690     0.6890 C.3   1 <1>  -0.1600 
 12 C       -4.3640     1.6030    -1.5510 C.ar  1 <1>  -0.1500 
 13 C       -4.4870     0.8200     0.6560 C.ar  1 <1>  -0.1500 
 14 C        1.5750     6.2170     0.4210 C.3   1 <1>   0.2090 
 15 C        3.5120     4.6930     0.7710 C.3   1 <1>   0.2090 
 16 C       -5.5510     0.9320    -1.7960 C.ar  1 <1>   0.1600 
 17 C       -5.6680     0.1860     0.3060 C.ar  1 <1>   0.1600 
 18 N        2.8930     5.7510    -0.0540 N.pl3 1 <1>  -0.8380 
 19 N       -6.2120     0.2230    -0.8980 N.ar  1 <1>  -0.6200 
 20 C        3.7560     6.7450    -0.5030 C.ar  1 <1>   0.1000 
 21 C        4.3300     7.6590     0.3720 C.ar  1 <1>  -0.1500 
 22 C        4.0570     6.8350    -1.8550 C.ar  1 <1>  -0.1500 
 23 C        5.1860     8.6450    -0.0860 C.ar  1 <1>   0.0820 
 24 C        4.9110     7.8150    -2.3250 C.ar  1 <1>  -0.1500 
 25 O        5.6970     9.4910     0.8450 O.3   1 <1>  -0.3630 
 26 C        5.4790     8.7220    -1.4460 C.ar  1 <1>  -0.1500 
 27 C        6.5790    10.5290     0.4820 C.3   1 <1>   0.0400 
 28 H        1.9330     0.8830     0.0330 H     1 <1>   0.0800 
 29 H        0.9540     0.3130    -1.3140 H     1 <1>   0.0800 
 30 H       -1.4510    -0.7480    -0.4090 H     1 <1>   0.0800 
 31 H       -1.6880     0.0070     1.1630 H     1 <1>   0.0800 
 32 H        0.3440     2.7150    -1.1310 H     1 <1>   0.0800 
 33 H       -1.4510     1.2230    -1.5110 H     1 <1>   0.0800 
 34 H       -0.6670     2.9720     1.3520 H     1 <1>   0.4500 
 35 H        0.5550     1.9200     1.6400 H     1 <1>   0.4500 
 36 H       -2.4960     3.2220    -0.4630 H     1 <1>   0.0800 
 37 H       -2.4460     2.4290     1.0870 H     1 <1>   0.0800 
 38 H        1.2340     4.1380     2.1570 H     1 <1>   0.0800 
 39 H        0.4870     4.7930    -0.6990 H     1 <1>   0.0800 
 40 H       -0.3320     5.3340     0.7480 H     1 <1>   0.0800 
 41 H        3.0050     2.7030     1.3290 H     1 <1>   0.0800 
 42 H        2.6290     3.1290    -0.3290 H     1 <1>   0.0800 
 43 H       -3.9030     2.1560    -2.3480 H     1 <1>   0.1500 
 44 H       -4.1280     0.7300     1.6640 H     1 <1>   0.1500 
 45 H        1.6590     6.5840     1.4310 H     1 <1>   0.0800 
 46 H        1.2290     7.0230    -0.2070 H     1 <1>   0.0800 
 47 H        4.4920     4.4610     0.3850 H     1 <1>   0.0800 
 48 H        3.6170     5.0350     1.7870 H     1 <1>   0.0800 
 49 H       -5.9800     0.9810    -2.7830 H     1 <1>   0.1500 
 50 H       -6.1930    -0.3820     1.0550 H     1 <1>   0.1500 
 51 H        4.1110     7.6090     1.4200 H     1 <1>   0.1500 
 52 H        3.6150     6.1300    -2.5330 H     1 <1>   0.1500 
 53 H        5.1350     7.8730    -3.3760 H     1 <1>   0.1500 
 54 H        6.1390     9.4730    -1.8350 H     1 <1>   0.1500 
 55 H        6.8510    11.0640     1.3740 H     1 <1>   0.0800 
 56 H        6.0780    11.1900    -0.2030 H     1 <1>   0.0800 
 57 H        7.4570    10.0990     0.0320 H     1 <1>   0.0800 
@<TRIPOS>BOND
  1   1   2  1   
  2   1   3  1   
  3   2   4  1   
  4   2  28  1   
  5   2  29  1   
  6   3   5  1   
  7   3  30  1   
  8   3  31  1   
  9   4   5  1   
 10   4   6  1   
 11   4  32  1   
 12   5   7  1   
 13   5  33  1   
 14   6   8  1   
 15   6  34  1   
 16   6  35  1   
 17   7   9  1   
 18   7  36  1   
 19   7  37  1   
 20   8  10  1   
 21   8  11  1   
 22   8  38  1   
 23   9  12  ar  
 24   9  13  ar  
 25  10  14  1   
 26  10  39  1   
 27  10  40  1   
 28  11  15  1   
 29  11  41  1   
 30  11  42  1   
 31  12  16  ar  
 32  12  43  1   
 33  13  17  ar  
 34  13  44  1   
 35  14  18  1   
 36  14  45  1   
 37  14  46  1   
 38  15  18  1   
 39  15  47  1   
 40  15  48  1   
 41  16  19  ar  
 42  16  49  1   
 43  17  19  ar  
 44  17  50  1   
 45  18  20  1   
 46  20  21  ar  
 47  20  22  ar  
 48  21  23  ar  
 49  21  51  1   
 50  22  24  ar  
 51  22  52  1   
 52  23  25  1   
 53  23  26  ar  
 54  24  26  ar  
 55  24  53  1   
 56  25  27  1   
 57  26  54  1   
 58  27  55  1   
 59  27  56  1   
 60  27  57  1   
@<TRIPOS>SUBSTRUCTURE
  1 ****  10 GROUP 4 **** **** 0

# MOE 2024.06 (io_trps.svl 2023.06)
