@<TRIPOS>MOLECULE
NONAME
49 51 1 0 0 
SMALL
USER_CHARGES


@<TRIPOS>ATOM
  1 F       -2.9720    -0.4550     1.9080 F     1 <1>  -0.1900 
  2 C       -2.6510     0.3770     0.9500 C.ar  1 <1>   0.1900 
  3 C       -2.3500     1.6920     1.2620 C.ar  1 <1>   0.1900 
  4 C       -2.6340    -0.0800    -0.3630 C.ar  1 <1>   0.0860 
  5 F       -2.3850     2.0820     2.5120 F     1 <1>  -0.1900 
  6 C       -2.0170     2.6100     0.2770 C.ar  1 <1>  -0.1440 
  7 C       -2.9460    -1.4500    -0.6920 C.2   1 <1>   0.5440 
  8 C       -2.2950     0.8480    -1.3490 C.ar  1 <1>  -0.1500 
  9 C       -1.9940     2.1660    -1.0390 C.ar  1 <1>  -0.1500 
 10 C       -1.6840     4.0560     0.6180 C.3   1 <1>  -0.0960 
 11 O       -2.0510    -2.2710    -0.7470 O.2   1 <1>  -0.5700 
 12 N       -4.2360    -1.8750    -0.9450 N.am  1 <1>  -0.6600 
 13 C       -4.5050    -3.2870    -1.3290 C.3   1 <1>   0.1400 
 14 C       -5.4460    -1.1420    -0.4820 C.3   1 <1>   0.1400 
 15 C       -5.0280    -4.0430    -0.0900 C.3   1 <1>   0.4230 
 16 C       -6.0050    -1.8710     0.7490 C.3   1 <1>  -0.1600 
 17 N       -5.1400    -5.5490    -0.2860 N.4   1 <1>  -0.9590 
 18 C       -6.3090    -3.3800     0.5030 C.3   1 <1>   0.0000 
 19 C       -6.0110    -6.2350     0.7230 C.3   1 <1>   0.3430 
 20 C       -5.5060    -5.9970    -1.6700 C.3   1 <1>   0.2630 
 21 C       -6.6460    -4.0500     1.8690 C.3   1 <1>  -0.1600 
 22 C       -7.4990    -3.5350    -0.4860 C.3   1 <1>   0.1200 
 23 C       -6.0430    -5.4580     2.0380 C.3   1 <1>  -0.1600 
 24 O       -8.5990    -2.7930    -0.0890 O.3   1 <1>  -0.6800 
 25 H       -2.2650     0.5240    -2.3760 H     1 <1>   0.1500 
 26 H       -1.7360     2.8480    -1.8320 H     1 <1>   0.1500 
 27 H       -1.4490     4.6190    -0.2680 H     1 <1>   0.0800 
 28 H       -0.8360     4.0900     1.2790 H     1 <1>   0.0800 
 29 H       -2.5210     4.5200     1.1070 H     1 <1>   0.0800 
 30 H       -5.2200    -3.2930    -2.1300 H     1 <1>   0.0800 
 31 H       -3.6030    -3.7530    -1.6860 H     1 <1>   0.0800 
 32 H       -5.2070    -0.1240    -0.2250 H     1 <1>   0.0800 
 33 H       -6.1780    -1.1150    -1.2710 H     1 <1>   0.0800 
 34 H       -4.2650    -3.8970     0.6590 H     1 <1>   0.0800 
 35 H       -5.2770    -1.7710     1.5360 H     1 <1>   0.0800 
 36 H       -6.8860    -1.3540     1.0850 H     1 <1>   0.0800 
 37 H       -4.1820    -5.8920    -0.1110 H     1 <1>   0.4500 
 38 H       -7.0190    -6.3070     0.3460 H     1 <1>   0.0800 
 39 H       -5.6510    -7.2360     0.8990 H     1 <1>   0.0800 
 40 H       -6.4830    -5.6310    -1.9400 H     1 <1>   0.0800 
 41 H       -5.5170    -7.0740    -1.7230 H     1 <1>   0.0800 
 42 H       -4.7890    -5.6330    -2.3880 H     1 <1>   0.0800 
 43 H       -6.2850    -3.4480     2.6860 H     1 <1>   0.0800 
 44 H       -7.7130    -4.1110     1.9970 H     1 <1>   0.0800 
 45 H       -7.8170    -4.5590    -0.5650 H     1 <1>   0.0800 
 46 H       -7.2420    -3.1840    -1.4690 H     1 <1>   0.0800 
 47 H       -6.6250    -6.0050     2.7600 H     1 <1>   0.0800 
 48 H       -5.0420    -5.3870     2.4300 H     1 <1>   0.0800 
 49 H       -8.9420    -3.0740     0.7830 H     1 <1>   0.4000 
@<TRIPOS>BOND
  1   1   2  1   
  2   2   3  ar  
  3   2   4  ar  
  4   3   5  1   
  5   3   6  ar  
  6   4   7  1   
  7   4   8  ar  
  8   6   9  ar  
  9   6  10  1   
 10   7  11  2   
 11   7  12  am  
 12   8   9  ar  
 13   8  25  1   
 14   9  26  1   
 15  10  27  1   
 16  10  28  1   
 17  10  29  1   
 18  12  13  1   
 19  12  14  1   
 20  13  15  1   
 21  13  30  1   
 22  13  31  1   
 23  14  16  1   
 24  14  32  1   
 25  14  33  1   
 26  15  17  1   
 27  15  18  1   
 28  15  34  1   
 29  16  18  1   
 30  16  35  1   
 31  16  36  1   
 32  17  19  1   
 33  17  20  1   
 34  17  37  1   
 35  18  21  1   
 36  18  22  1   
 37  19  23  1   
 38  19  38  1   
 39  19  39  1   
 40  20  40  1   
 41  20  41  1   
 42  20  42  1   
 43  21  23  1   
 44  21  43  1   
 45  21  44  1   
 46  22  24  1   
 47  22  45  1   
 48  22  46  1   
 49  23  47  1   
 50  23  48  1   
 51  24  49  1   
@<TRIPOS>SUBSTRUCTURE
  1 ****  12 GROUP 4 **** **** 0

# MOE 2024.06 (io_trps.svl 2023.06)
