@<TRIPOS>MOLECULE
NONAME
50 52 1 0 0 
SMALL
USER_CHARGES


@<TRIPOS>ATOM
  1 O        2.0780    -0.2090    -0.4320 O.3   1 <1>  -0.3630 
  2 C        1.1880    -1.1920    -0.1570 C.ar  1 <1>   0.0830 
  3 C        3.4700    -0.4480    -0.4200 C.3   1 <1>   0.1200 
  4 C       -0.1470    -0.8290    -0.1150 C.ar  1 <1>  -0.1500 
  5 C        1.5430    -2.5170     0.0830 C.ar  1 <1>  -0.1500 
  6 C        4.1870     0.8610    -0.7480 C.3   1 <1>   0.1200 
  7 C       -1.1240    -1.7680     0.1570 C.ar  1 <1>  -0.1500 
  8 C        0.5650    -3.4580     0.3540 C.ar  1 <1>  -0.1500 
  9 O        5.5590     0.6660    -0.6600 O.3   1 <1>  -0.6800 
 10 C       -0.7740    -3.0910     0.3860 C.ar  1 <1>  -0.1430 
 11 C       -1.8470    -4.1260     0.6640 C.3   1 <1>   0.4860 
 12 N       -2.5740    -4.4110    -0.6080 N.4   1 <1>  -0.9590 
 13 C       -3.8190    -5.1950    -0.3860 C.3   1 <1>   0.4230 
 14 C       -1.6590    -5.0570    -1.6060 C.3   1 <1>   0.2630 
 15 C       -4.6070    -5.3850    -1.6810 C.3   1 <1>  -0.1600 
 16 C       -4.7970    -4.4630     0.5320 C.3   1 <1>  -0.1600 
 17 C       -6.0580    -5.6080    -1.2420 C.3   1 <1>  -0.0800 
 18 C       -6.1790    -5.0200     0.1730 C.3   1 <1>  -0.0800 
 19 C       -6.4520    -7.0890    -1.1310 C.3   1 <1>  -0.1600 
 20 C       -6.6410    -6.1690     1.0820 C.3   1 <1>  -0.1600 
 21 C       -7.2910    -7.1640     0.1340 C.3   1 <1>   0.2000 
 22 O       -7.2470    -8.4330     0.6660 O.3   1 <1>  -0.6800 
 23 H        3.7410    -0.7930     0.5620 H     1 <1>   0.0800 
 24 H        3.6940    -1.1890    -1.1660 H     1 <1>   0.0800 
 25 H       -0.4100     0.2000    -0.2950 H     1 <1>   0.1500 
 26 H        2.5710    -2.8280     0.0620 H     1 <1>   0.1500 
 27 H        3.9100     1.6390    -0.0570 H     1 <1>   0.0800 
 28 H        3.9610     1.1670    -1.7550 H     1 <1>   0.0800 
 29 H       -2.1520    -1.4470     0.1910 H     1 <1>   0.1500 
 30 H        0.8650    -4.4750     0.5400 H     1 <1>   0.1500 
 31 H        5.8400     0.5770     0.2720 H     1 <1>   0.4000 
 32 H       -2.5230    -3.7330     1.4050 H     1 <1>   0.0800 
 33 H       -1.4020    -5.0280     1.0520 H     1 <1>   0.0800 
 34 H       -2.8450    -3.4960    -0.9890 H     1 <1>   0.4500 
 35 H       -3.5940    -6.1620     0.0340 H     1 <1>   0.0800 
 36 H       -1.3310    -6.0200    -1.2490 H     1 <1>   0.0800 
 37 H       -0.7920    -4.4380    -1.7740 H     1 <1>   0.0800 
 38 H       -2.1630    -5.1910    -2.5490 H     1 <1>   0.0800 
 39 H       -4.5690    -4.4850    -2.2700 H     1 <1>   0.0800 
 40 H       -4.2390    -6.2090    -2.2660 H     1 <1>   0.0800 
 41 H       -4.5720    -4.6110     1.5730 H     1 <1>   0.0800 
 42 H       -4.7930    -3.4100     0.3100 H     1 <1>   0.0800 
 43 H       -6.7410    -5.1070    -1.9100 H     1 <1>   0.0800 
 44 H       -6.9210    -4.2370     0.1840 H     1 <1>   0.0800 
 45 H       -5.5790    -7.7080    -1.0250 H     1 <1>   0.0800 
 46 H       -7.0190    -7.4100    -1.9880 H     1 <1>   0.0800 
 47 H       -7.3440    -5.8270     1.8220 H     1 <1>   0.0800 
 48 H       -5.8000    -6.6300     1.5700 H     1 <1>   0.0800 
 49 H       -8.3180    -6.9010    -0.0620 H     1 <1>   0.0800 
 50 H       -6.3300    -8.7080     0.8440 H     1 <1>   0.4000 
@<TRIPOS>BOND
  1   1   2  1   
  2   1   3  1   
  3   2   4  ar  
  4   2   5  ar  
  5   3   6  1   
  6   3  23  1   
  7   3  24  1   
  8   4   7  ar  
  9   4  25  1   
 10   5   8  ar  
 11   5  26  1   
 12   6   9  1   
 13   6  27  1   
 14   6  28  1   
 15   7  10  ar  
 16   7  29  1   
 17   8  10  ar  
 18   8  30  1   
 19   9  31  1   
 20  10  11  1   
 21  11  12  1   
 22  11  32  1   
 23  11  33  1   
 24  12  13  1   
 25  12  14  1   
 26  12  34  1   
 27  13  15  1   
 28  13  16  1   
 29  13  35  1   
 30  14  36  1   
 31  14  37  1   
 32  14  38  1   
 33  15  17  1   
 34  15  39  1   
 35  15  40  1   
 36  16  18  1   
 37  16  41  1   
 38  16  42  1   
 39  17  18  1   
 40  17  19  1   
 41  17  43  1   
 42  18  20  1   
 43  18  44  1   
 44  19  21  1   
 45  19  45  1   
 46  19  46  1   
 47  20  21  1   
 48  20  47  1   
 49  20  48  1   
 50  21  22  1   
 51  21  49  1   
 52  22  50  1   
@<TRIPOS>SUBSTRUCTURE
  1 ****  11 GROUP 4 **** **** 0

# MOE 2024.06 (io_trps.svl 2023.06)
