@<TRIPOS>MOLECULE
NONAME
48 50 1 0 0 
SMALL
USER_CHARGES


@<TRIPOS>ATOM
  1 CL      -1.8380    -1.4470    -1.5440 Cl    1 <1>  -0.1770 
  2 C       -2.0020     0.1280    -0.8060 C.ar  1 <1>   0.1770 
  3 C       -2.6840     0.2800     0.4060 C.ar  1 <1>   0.0860 
  4 C       -1.4190     1.1970    -1.4680 C.ar  1 <1>  -0.1500 
  5 C       -3.3120    -0.8260     1.0960 C.2   1 <1>   0.5440 
  6 C       -2.7350     1.5630     0.9530 C.ar  1 <1>  -0.1500 
  7 C       -1.4950     2.4670    -0.9220 C.ar  1 <1>  -0.1500 
  8 O       -2.9930    -1.0420     2.2490 O.2   1 <1>  -0.5700 
  9 N       -4.2720    -1.6360     0.5210 N.am  1 <1>  -0.6600 
 10 C       -2.1520     2.6200     0.2840 C.ar  1 <1>   0.1900 
 11 C       -5.1710    -1.2240    -0.6050 C.3   1 <1>   0.2200 
 12 C       -4.2610    -3.0890     0.8780 C.3   1 <1>   0.0600 
 13 F       -2.2250     3.8120     0.8100 F     1 <1>  -0.1900 
 14 C       -5.6480     0.2250    -0.4880 C.3   1 <1>  -0.1600 
 15 C       -6.4870    -2.0050    -0.6100 C.3   1 <1>  -0.1600 
 16 C       -6.9660     0.3040    -1.2710 C.3   1 <1>  -0.0800 
 17 C       -7.4880    -1.1350    -1.3800 C.3   1 <1>  -0.0800 
 18 C       -8.0570     1.1120    -0.5540 C.3   1 <1>  -0.1600 
 19 C       -8.8920    -1.1380    -0.7630 C.3   1 <1>  -0.1600 
 20 C       -8.8840     0.0590     0.1820 C.3   1 <1>   0.4230 
 21 N      -10.2550     0.5010     0.5820 N.4   1 <1>  -0.9590 
 22 C      -11.1210     1.0010    -0.5360 C.3   1 <1>   0.2630 
 23 C      -10.1770     1.5250     1.6700 C.3   1 <1>   0.2630 
 24 H       -0.9070     1.0320    -2.4000 H     1 <1>   0.1500 
 25 H       -3.2250     1.7250     1.8970 H     1 <1>   0.1500 
 26 H       -1.0530     3.3170    -1.4110 H     1 <1>   0.1500 
 27 H       -4.6680    -1.3700    -1.5470 H     1 <1>   0.0800 
 28 H       -4.2780    -3.6910    -0.0140 H     1 <1>   0.0800 
 29 H       -5.1130    -3.3240     1.4910 H     1 <1>   0.0800 
 30 H       -3.3700    -3.3350     1.4300 H     1 <1>   0.0800 
 31 H       -5.8120     0.4560     0.5500 H     1 <1>   0.0800 
 32 H       -4.9350     0.9130    -0.9040 H     1 <1>   0.0800 
 33 H       -6.3720    -2.9660    -1.0790 H     1 <1>   0.0800 
 34 H       -6.8210    -2.1350     0.4040 H     1 <1>   0.0800 
 35 H       -6.7780     0.7050    -2.2550 H     1 <1>   0.0800 
 36 H       -7.5170    -1.4460    -2.4130 H     1 <1>   0.0800 
 37 H       -8.6430     1.6100    -1.3040 H     1 <1>   0.0800 
 38 H       -7.6400     1.8430     0.1160 H     1 <1>   0.0800 
 39 H       -9.1040    -2.0590    -0.2490 H     1 <1>   0.0800 
 40 H       -9.6030    -1.0000    -1.5570 H     1 <1>   0.0800 
 41 H       -8.3330    -0.2320     1.0640 H     1 <1>   0.0800 
 42 H      -10.7150    -0.3330     0.9760 H     1 <1>   0.4500 
 43 H      -10.6980     1.8890    -0.9750 H     1 <1>   0.0800 
 44 H      -12.1050     1.2400    -0.1660 H     1 <1>   0.0800 
 45 H      -11.2220     0.2510    -1.3040 H     1 <1>   0.0800 
 46 H       -9.7030     2.4230     1.3060 H     1 <1>   0.0800 
 47 H       -9.6050     1.1470     2.5010 H     1 <1>   0.0800 
 48 H      -11.1660     1.7760     2.0200 H     1 <1>   0.0800 
@<TRIPOS>BOND
  1   1   2  1   
  2   2   3  ar  
  3   2   4  ar  
  4   3   5  1   
  5   3   6  ar  
  6   4   7  ar  
  7   4  24  1   
  8   5   8  2   
  9   5   9  am  
 10   6  10  ar  
 11   6  25  1   
 12   7  10  ar  
 13   7  26  1   
 14   9  11  1   
 15   9  12  1   
 16  10  13  1   
 17  11  14  1   
 18  11  15  1   
 19  11  27  1   
 20  12  28  1   
 21  12  29  1   
 22  12  30  1   
 23  14  16  1   
 24  14  31  1   
 25  14  32  1   
 26  15  17  1   
 27  15  33  1   
 28  15  34  1   
 29  16  17  1   
 30  16  18  1   
 31  16  35  1   
 32  17  19  1   
 33  17  36  1   
 34  18  20  1   
 35  18  37  1   
 36  18  38  1   
 37  19  20  1   
 38  19  39  1   
 39  19  40  1   
 40  20  21  1   
 41  20  41  1   
 42  21  22  1   
 43  21  23  1   
 44  21  42  1   
 45  22  43  1   
 46  22  44  1   
 47  22  45  1   
 48  23  46  1   
 49  23  47  1   
 50  23  48  1   
@<TRIPOS>SUBSTRUCTURE
  1 ****  14 GROUP 4 **** **** 0

# MOE 2024.06 (io_trps.svl 2023.06)
