@<TRIPOS>MOLECULE
NONAME
51 54 1 0 0 
SMALL
USER_CHARGES


@<TRIPOS>ATOM
  1 O        0.4920     1.4400    -0.6760 O.2   1 <1>  -0.5700 
  2 C        0.1240     2.5900    -0.6130 C.2   1 <1>   0.5690 
  3 N       -0.9360     3.0080     0.1500 N.am  1 <1>  -0.5090 
  4 C        0.8860     3.6350    -1.4180 C.3   1 <1>   0.1810 
  5 C       -1.3260     4.4560     0.1990 C.3   1 <1>   0.3640 
  6 C       -1.5620     2.1260     1.1680 C.3   1 <1>   0.0490 
  7 O        0.9730     4.8410    -0.7060 O.3   1 <1>  -0.5600 
  8 C       -2.6620     4.6630    -0.5140 C.ar  1 <1>  -0.1440 
  9 C       -0.2800     5.4410    -0.4050 C.3   1 <1>   0.2610 
 10 C       -2.1540     0.8240     0.7270 C.3   1 <1>  -0.2000 
 11 C       -3.0470     1.9230     1.2010 C.3   1 <1>  -0.2000 
 12 C       -2.9640     4.0020    -1.6990 C.ar  1 <1>   0.1600 
 13 C       -3.5990     5.5350     0.0080 C.ar  1 <1>  -0.1500 
 14 C       -0.0860     6.6350     0.5380 C.2   1 <1>   0.5690 
 15 N       -4.0840     4.1470    -2.3870 N.ar  1 <1>  -0.6200 
 16 C       -4.7750     5.6910    -0.6920 C.ar  1 <1>  -0.1500 
 17 O       -1.0540     7.2170     0.9670 O.2   1 <1>  -0.5700 
 18 N        1.1700     7.0180     0.8780 N.am  1 <1>  -0.7300 
 19 C       -4.9650     4.9860    -1.8670 C.ar  1 <1>   0.1600 
 20 C        1.5230     8.1930     1.6900 C.3   1 <1>   0.2840 
 21 C        2.8150     8.7740     1.1460 C.ar  1 <1>  -0.1440 
 22 C        2.7940     9.5830     0.0210 C.ar  1 <1>  -0.1500 
 23 C        4.0270     8.5030     1.7620 C.ar  1 <1>  -0.1500 
 24 C        3.9680    10.1200    -0.4770 C.ar  1 <1>  -0.1500 
 25 C        5.2010     9.0400     1.2640 C.ar  1 <1>  -0.1500 
 26 C        5.1790     9.8550     0.1420 C.ar  1 <1>  -0.1440 
 27 C        6.4630    10.4540    -0.4050 C.3   1 <1>   0.2630 
 28 O        6.7480     9.8240    -1.5980 O.3   1 <1>  -0.6800 
 29 H        0.3980     3.8140    -2.3590 H     1 <1>   0.0800 
 30 H        1.8860     3.2870    -1.5990 H     1 <1>   0.0800 
 31 H       -1.4620     4.7080     1.2370 H     1 <1>   0.0800 
 32 H       -1.0240     2.1360     2.1020 H     1 <1>   0.1000 
 33 H       -0.6620     5.8340    -1.3300 H     1 <1>   0.0800 
 34 H       -2.1360     0.5810    -0.3210 H     1 <1>   0.1000 
 35 H       -2.0190    -0.0390     1.3530 H     1 <1>   0.1000 
 36 H       -3.5330     1.7980     2.1530 H     1 <1>   0.1000 
 37 H       -3.6940     2.3720     0.4700 H     1 <1>   0.1000 
 38 H       -2.2500     3.3100    -2.1110 H     1 <1>   0.1500 
 39 H       -3.4270     6.0800     0.9210 H     1 <1>   0.1500 
 40 H       -5.5400     6.3570    -0.3330 H     1 <1>   0.1500 
 41 H        1.9610     6.5140     0.4640 H     1 <1>   0.3700 
 42 H       -5.8870     5.1180    -2.4070 H     1 <1>   0.1500 
 43 H        0.7360     8.9260     1.6410 H     1 <1>   0.0800 
 44 H        1.6470     7.8940     2.7160 H     1 <1>   0.0800 
 45 H        1.8600     9.7960    -0.4720 H     1 <1>   0.1500 
 46 H        4.0630     7.8730     2.6340 H     1 <1>   0.1500 
 47 H        3.9400    10.7460    -1.3530 H     1 <1>   0.1500 
 48 H        6.1330     8.8210     1.7560 H     1 <1>   0.1500 
 49 H        7.2870    10.2920     0.2680 H     1 <1>   0.0800 
 50 H        6.3550    11.5080    -0.5940 H     1 <1>   0.0800 
 51 H        6.4430     8.8980    -1.5380 H     1 <1>   0.4000 
@<TRIPOS>BOND
  1   1   2  2   
  2   2   3  am  
  3   2   4  1   
  4   3   5  1   
  5   3   6  1   
  6   4   7  1   
  7   4  29  1   
  8   4  30  1   
  9   5   8  1   
 10   5   9  1   
 11   5  31  1   
 12   6  10  1   
 13   6  11  1   
 14   6  32  1   
 15   7   9  1   
 16   8  12  ar  
 17   8  13  ar  
 18   9  14  1   
 19   9  33  1   
 20  10  11  1   
 21  10  34  1   
 22  10  35  1   
 23  11  36  1   
 24  11  37  1   
 25  12  15  ar  
 26  12  38  1   
 27  13  16  ar  
 28  13  39  1   
 29  14  17  2   
 30  14  18  am  
 31  15  19  ar  
 32  16  19  ar  
 33  16  40  1   
 34  18  20  1   
 35  18  41  1   
 36  19  42  1   
 37  20  21  1   
 38  20  43  1   
 39  20  44  1   
 40  21  22  ar  
 41  21  23  ar  
 42  22  24  ar  
 43  22  45  1   
 44  23  25  ar  
 45  23  46  1   
 46  24  26  ar  
 47  24  47  1   
 48  25  26  ar  
 49  25  48  1   
 50  26  27  1   
 51  27  28  1   
 52  27  49  1   
 53  27  50  1   
 54  28  51  1   
@<TRIPOS>SUBSTRUCTURE
  1 ****   9 GROUP 4 **** **** 0

# MOE 2024.06 (io_trps.svl 2023.06)
