@<TRIPOS>MOLECULE
NONAME
49 52 1 0 0 
SMALL
USER_CHARGES


@<TRIPOS>ATOM
  1 O       -1.4680    -1.1280     0.5430 O.3   1 <1>  -0.5600 
  2 C       -2.3270    -2.2200     0.7050 C.3   1 <1>   0.1200 
  3 C       -0.3410    -1.4000    -0.2330 C.3   1 <1>   0.1200 
  4 C       -1.5970    -3.3820     1.4020 C.3   1 <1>   0.2090 
  5 C        0.5060    -2.5110     0.4160 C.3   1 <1>   0.2090 
  6 N       -0.3210    -3.7430     0.6760 N.pl3 1 <1>  -0.8380 
  7 C       -0.0420    -5.0250     0.3140 C.ar  1 <1>   0.7710 
  8 N       -0.9660    -5.9630     0.4750 N.ar  1 <1>  -0.6200 
  9 N        1.1690    -5.3150    -0.1950 N.ar  1 <1>  -0.1790 
 10 C       -0.6760    -7.1910     0.1140 C.ar  1 <1>   0.4100 
 11 C        1.5120    -6.5690    -0.5760 C.ar  1 <1>   0.2180 
 12 N       -1.6580    -8.0820     0.2990 N.pl3 1 <1>  -0.8690 
 13 C        0.5760    -7.5370    -0.4230 C.ar  1 <1>  -0.1500 
 14 C        2.9060    -6.8200    -1.1390 C.3   1 <1>  -0.0170 
 15 C       -1.7610    -9.5020    -0.0970 C.3   1 <1>   0.3530 
 16 C        4.0060    -6.5380    -0.1080 C.3   1 <1>  -0.2400 
 17 C       -3.2230    -9.8240    -0.3460 C.ar  1 <1>  -0.1440 
 18 C       -3.8660   -10.7850     0.4180 C.ar  1 <1>  -0.1500 
 19 C       -3.9300    -9.1670    -1.3420 C.ar  1 <1>  -0.1500 
 20 C       -5.2080   -11.1190     0.2180 C.ar  1 <1>   0.0410 
 21 C       -5.2600    -9.4720    -1.5630 C.ar  1 <1>  -0.1500 
 22 C       -5.8640   -12.1350     1.0230 C.2   1 <1>   0.6960 
 23 C       -5.8860   -10.4350    -0.7930 C.ar  1 <1>  -0.1500 
 24 N       -5.2740   -12.8390     1.9420 N.2   1 <1>  -0.6190 
 25 N       -7.1200   -12.4650     0.9210 N.2   1 <1>  -0.6190 
 26 N       -6.1710   -13.6210     2.4240 N.2   1 <1>  -0.2500 
 27 N       -7.2940   -13.3930     1.8030 N.2   1 <1>  -0.2500 
 28 H       -2.6920    -2.5240    -0.2610 H     1 <1>   0.0800 
 29 H       -3.1610    -1.8960     1.3020 H     1 <1>   0.0800 
 30 H        0.2290    -0.4900    -0.3060 H     1 <1>   0.0800 
 31 H       -0.6640    -1.6850    -1.2190 H     1 <1>   0.0800 
 32 H       -2.2760    -4.2140     1.4700 H     1 <1>   0.0800 
 33 H       -1.3590    -3.0830     2.4090 H     1 <1>   0.0800 
 34 H        0.8950    -2.1400     1.3500 H     1 <1>   0.0800 
 35 H        1.3370    -2.7200    -0.2310 H     1 <1>   0.0800 
 36 H        1.8240    -4.5480    -0.2440 H     1 <1>   0.4570 
 37 H       -2.5280    -7.7400     0.7210 H     1 <1>   0.4000 
 38 H        0.7650    -8.5580    -0.6930 H     1 <1>   0.1500 
 39 H        3.0600    -6.2090    -2.0120 H     1 <1>   0.0800 
 40 H        2.9840    -7.8480    -1.4520 H     1 <1>   0.0800 
 41 H       -1.3730   -10.1240     0.6920 H     1 <1>   0.0800 
 42 H       -1.1990    -9.6860    -0.9950 H     1 <1>   0.0800 
 43 H        4.0230    -5.5030     0.1830 H     1 <1>   0.0800 
 44 H        4.9680    -6.7810    -0.5270 H     1 <1>   0.0800 
 45 H        3.8640    -7.1440     0.7710 H     1 <1>   0.0800 
 46 H       -3.3340   -11.3040     1.1980 H     1 <1>   0.1500 
 47 H       -3.4490    -8.4150    -1.9430 H     1 <1>   0.1500 
 48 H       -5.8110    -8.9630    -2.3340 H     1 <1>   0.1500 
 49 H       -6.9220   -10.6720    -0.9670 H     1 <1>   0.1500 
@<TRIPOS>BOND
  1   1   2  1   
  2   1   3  1   
  3   2   4  1   
  4   2  28  1   
  5   2  29  1   
  6   3   5  1   
  7   3  30  1   
  8   3  31  1   
  9   4   6  1   
 10   4  32  1   
 11   4  33  1   
 12   5   6  1   
 13   5  34  1   
 14   5  35  1   
 15   6   7  1   
 16   7   8  ar  
 17   7   9  ar  
 18   8  10  ar  
 19   9  11  ar  
 20   9  36  1   
 21  10  12  1   
 22  10  13  ar  
 23  11  13  ar  
 24  11  14  1   
 25  12  15  1   
 26  12  37  1   
 27  13  38  1   
 28  14  16  1   
 29  14  39  1   
 30  14  40  1   
 31  15  17  1   
 32  15  41  1   
 33  15  42  1   
 34  16  43  1   
 35  16  44  1   
 36  16  45  1   
 37  17  18  ar  
 38  17  19  ar  
 39  18  20  ar  
 40  18  46  1   
 41  19  21  ar  
 42  19  47  1   
 43  20  22  1   
 44  20  23  ar  
 45  21  23  ar  
 46  21  48  1   
 47  22  24  1   
 48  22  25  2   
 49  23  49  1   
 50  24  26  1   
 51  25  27  1   
 52  26  27  2   
@<TRIPOS>SUBSTRUCTURE
  1 ****  12 GROUP 4 **** **** 0

# MOE 2024.06 (io_trps.svl 2023.06)
