@<TRIPOS>MOLECULE
NONAME
54 56 1 0 0 
SMALL
USER_CHARGES


@<TRIPOS>ATOM
  1 O       -0.4060     0.5740    -0.3380 O.2   1 <1>  -0.5700 
  2 C       -0.3860     1.7780    -0.4390 C.2   1 <1>   0.5690 
  3 N       -1.4740     2.5580    -0.1410 N.am  1 <1>  -0.6600 
  4 C        0.9070     2.4340    -0.9360 C.3   1 <1>   0.1810 
  5 C       -1.4030     4.0540    -0.2430 C.3   1 <1>   0.3640 
  6 C       -2.7260     1.9850     0.4390 C.3   1 <1>   0.0600 
  7 O        0.9810     3.8100    -0.6400 O.3   1 <1>  -0.5600 
  8 C       -2.6980     4.6140    -0.8450 C.ar  1 <1>  -0.1430 
  9 C       -0.1690     4.5290    -1.0460 C.3   1 <1>   0.2610 
 10 C       -3.4890     5.5480    -0.1740 C.ar  1 <1>  -0.1430 
 11 C       -3.0920     4.1750    -2.1040 C.ar  1 <1>  -0.1500 
 12 C        0.0370     6.0300    -0.8460 C.2   1 <1>   0.5690 
 13 C       -4.6430     6.0240    -0.7780 C.ar  1 <1>  -0.1500 
 14 C       -3.1410     6.0740     1.2140 C.3   1 <1>  -0.0960 
 15 C       -4.2430     4.6560    -2.6970 C.ar  1 <1>  -0.1500 
 16 O       -0.4150     6.8010    -1.6610 O.2   1 <1>  -0.5700 
 17 N        0.7310     6.4520     0.2460 N.am  1 <1>  -0.7300 
 18 C       -5.0200     5.5840    -2.0330 C.ar  1 <1>  -0.1500 
 19 C        1.0030     7.8490     0.6990 C.3   1 <1>   0.3610 
 20 C       -0.3280     8.6310     0.9750 C.2   1 <1>   0.5690 
 21 C        1.8700     7.7010     1.9730 C.3   1 <1>  -0.1600 
 22 C        1.8590     8.5430    -0.3880 C.3   1 <1>  -0.1600 
 23 O       -0.6700     8.9240     2.0970 O.2   1 <1>  -0.5700 
 24 N       -1.1570     8.9520    -0.0410 N.am  1 <1>  -0.8000 
 25 C        2.4860     9.0270     2.4560 C.3   1 <1>  -0.1600 
 26 C        2.4410     9.8870     0.0800 C.3   1 <1>  -0.1600 
 27 C        3.2900     9.7060     1.3420 C.3   1 <1>  -0.1600 
 28 H        0.9840     2.3100    -2.0010 H     1 <1>   0.0800 
 29 H        1.7480     1.9530    -0.4720 H     1 <1>   0.0800 
 30 H       -1.2850     4.4220     0.7590 H     1 <1>   0.0800 
 31 H       -2.9970     2.5230     1.3310 H     1 <1>   0.0800 
 32 H       -2.5890     0.9480     0.6920 H     1 <1>   0.0800 
 33 H       -3.5280     2.0600    -0.2740 H     1 <1>   0.0800 
 34 H       -0.3200     4.3520    -2.0950 H     1 <1>   0.0800 
 35 H       -2.5030     3.4460    -2.6320 H     1 <1>   0.1500 
 36 H       -5.2620     6.7460    -0.2740 H     1 <1>   0.1500 
 37 H       -3.8270     6.8430     1.5210 H     1 <1>   0.0800 
 38 H       -2.1540     6.4970     1.2210 H     1 <1>   0.0800 
 39 H       -3.1880     5.2770     1.9330 H     1 <1>   0.0800 
 40 H       -4.5340     4.3080    -3.6730 H     1 <1>   0.1500 
 41 H        1.2160     5.7350     0.7900 H     1 <1>   0.3700 
 42 H       -5.9180     5.9630    -2.4910 H     1 <1>   0.1500 
 43 H        1.2740     7.2860     2.7670 H     1 <1>   0.0800 
 44 H        2.6790     7.0200     1.7740 H     1 <1>   0.0800 
 45 H        2.6750     7.8960    -0.6610 H     1 <1>   0.0800 
 46 H        1.2710     8.7150    -1.2710 H     1 <1>   0.0800 
 47 H       -2.0530     9.3980     0.1440 H     1 <1>   0.3700 
 48 H       -1.0530     8.4880    -0.9550 H     1 <1>   0.3700 
 49 H        1.7060     9.6930     2.7870 H     1 <1>   0.0800 
 50 H        3.1280     8.8400     3.2990 H     1 <1>   0.0800 
 51 H        3.0470    10.3080    -0.7030 H     1 <1>   0.0800 
 52 H        1.6400    10.5780     0.2810 H     1 <1>   0.0800 
 53 H        4.1540     9.1070     1.1090 H     1 <1>   0.0800 
 54 H        3.6380    10.6660     1.6840 H     1 <1>   0.0800 
@<TRIPOS>BOND
  1   1   2  2   
  2   2   3  am  
  3   2   4  1   
  4   3   5  1   
  5   3   6  1   
  6   4   7  1   
  7   4  28  1   
  8   4  29  1   
  9   5   8  1   
 10   5   9  1   
 11   5  30  1   
 12   6  31  1   
 13   6  32  1   
 14   6  33  1   
 15   7   9  1   
 16   8  10  ar  
 17   8  11  ar  
 18   9  12  1   
 19   9  34  1   
 20  10  13  ar  
 21  10  14  1   
 22  11  15  ar  
 23  11  35  1   
 24  12  16  2   
 25  12  17  am  
 26  13  18  ar  
 27  13  36  1   
 28  14  37  1   
 29  14  38  1   
 30  14  39  1   
 31  15  18  ar  
 32  15  40  1   
 33  17  19  1   
 34  17  41  1   
 35  18  42  1   
 36  19  20  1   
 37  19  21  1   
 38  19  22  1   
 39  20  23  2   
 40  20  24  am  
 41  21  25  1   
 42  21  43  1   
 43  21  44  1   
 44  22  26  1   
 45  22  45  1   
 46  22  46  1   
 47  24  47  1   
 48  24  48  1   
 49  25  27  1   
 50  25  49  1   
 51  25  50  1   
 52  26  27  1   
 53  26  51  1   
 54  26  52  1   
 55  27  53  1   
 56  27  54  1   
@<TRIPOS>SUBSTRUCTURE
  1 ****  12 GROUP 4 **** **** 0

# MOE 2024.06 (io_trps.svl 2023.06)
