@<TRIPOS>MOLECULE
NONAME
46 48 1 0 0 
SMALL
USER_CHARGES


@<TRIPOS>ATOM
  1 CL       2.4410    -0.5900    -1.2300 Cl    1 <1>  -0.1770 
  2 C        3.0070    -0.3920     0.4130 C.ar  1 <1>   0.1770 
  3 C        4.1920     0.2760     0.6940 C.ar  1 <1>   0.0860 
  4 C        2.2430    -0.9340     1.4300 C.ar  1 <1>   0.1600 
  5 C        5.0430     0.8900    -0.3040 C.2   1 <1>   0.5440 
  6 C        4.5240     0.3110     2.0440 C.ar  1 <1>  -0.1500 
  7 N        2.5570    -0.8770     2.7160 N.ar  1 <1>  -0.6200 
  8 O        6.2540     0.8410    -0.1960 O.2   1 <1>  -0.5700 
  9 N        4.5540     1.6440    -1.3420 N.am  1 <1>  -0.6600 
 10 C        3.6950    -0.2620     2.9910 C.ar  1 <1>   0.1600 
 11 C        5.2380     1.6520    -2.6780 C.3   1 <1>   0.1400 
 12 C        3.6150     2.7660    -1.1000 C.3   1 <1>   0.1400 
 13 C        6.4920     2.5540    -2.7130 C.3   1 <1>   0.3430 
 14 C        4.3800     3.9740    -0.5400 C.3   1 <1>  -0.1600 
 15 N        6.6080     3.3920    -1.4820 N.4   1 <1>  -0.9590 
 16 C        5.5660     4.4540    -1.3890 C.3   1 <1>   0.3430 
 17 C        7.9980     3.8860    -1.2230 C.3   1 <1>   0.3430 
 18 C        8.3130     4.0160     0.2820 C.3   1 <1>   0.2000 
 19 O        7.3160     4.7760     0.9190 O.3   1 <1>  -0.5600 
 20 C        9.6900     4.6720     0.5070 C.3   1 <1>   0.1200 
 21 C        7.5500     4.9680     2.2890 C.3   1 <1>   0.1200 
 22 O        9.9160     4.8400     1.8720 O.3   1 <1>  -0.5600 
 23 C        8.9350     5.6010     2.5150 C.3   1 <1>   0.1200 
 24 H        1.3290    -1.4400     1.1710 H     1 <1>   0.1500 
 25 H        5.4360     0.7870     2.3560 H     1 <1>   0.1500 
 26 H        3.9810    -0.2160     4.0300 H     1 <1>   0.1500 
 27 H        4.5450     1.9700    -3.4370 H     1 <1>   0.0800 
 28 H        5.5310     0.6460    -2.9260 H     1 <1>   0.0800 
 29 H        2.8580     2.4620    -0.3970 H     1 <1>   0.0800 
 30 H        3.1170     3.0300    -2.0180 H     1 <1>   0.0800 
 31 H        6.4780     3.1730    -3.5950 H     1 <1>   0.0800 
 32 H        7.3530     1.9080    -2.7800 H     1 <1>   0.0800 
 33 H        4.7250     3.7560     0.4550 H     1 <1>   0.0800 
 34 H        3.6870     4.7910    -0.4500 H     1 <1>   0.0800 
 35 H        6.3920     2.7120    -0.7240 H     1 <1>   0.4500 
 36 H        5.9850     5.3290    -0.9180 H     1 <1>   0.0800 
 37 H        5.2300     4.7350    -2.3730 H     1 <1>   0.0800 
 38 H        8.1430     4.8400    -1.7020 H     1 <1>   0.0800 
 39 H        8.7070     3.1950    -1.6470 H     1 <1>   0.0800 
 40 H        8.3190     3.0330     0.7210 H     1 <1>   0.0800 
 41 H        9.7460     5.6350     0.0290 H     1 <1>   0.0800 
 42 H       10.4770     4.0460     0.1240 H     1 <1>   0.0800 
 43 H        7.4890     4.0170     2.7900 H     1 <1>   0.0800 
 44 H        6.7790     5.6130     2.6740 H     1 <1>   0.0800 
 45 H        9.1710     5.6260     3.5640 H     1 <1>   0.0800 
 46 H        8.9650     6.6050     2.1290 H     1 <1>   0.0800 
@<TRIPOS>BOND
  1   1   2  1   
  2   2   3  ar  
  3   2   4  ar  
  4   3   5  1   
  5   3   6  ar  
  6   4   7  ar  
  7   4  24  1   
  8   5   8  2   
  9   5   9  am  
 10   6  10  ar  
 11   6  25  1   
 12   7  10  ar  
 13   9  11  1   
 14   9  12  1   
 15  10  26  1   
 16  11  13  1   
 17  11  27  1   
 18  11  28  1   
 19  12  14  1   
 20  12  29  1   
 21  12  30  1   
 22  13  15  1   
 23  13  31  1   
 24  13  32  1   
 25  14  16  1   
 26  14  33  1   
 27  14  34  1   
 28  15  16  1   
 29  15  17  1   
 30  15  35  1   
 31  16  36  1   
 32  16  37  1   
 33  17  18  1   
 34  17  38  1   
 35  17  39  1   
 36  18  19  1   
 37  18  20  1   
 38  18  40  1   
 39  19  21  1   
 40  20  22  1   
 41  20  41  1   
 42  20  42  1   
 43  21  23  1   
 44  21  43  1   
 45  21  44  1   
 46  22  23  1   
 47  23  45  1   
 48  23  46  1   
@<TRIPOS>SUBSTRUCTURE
  1 ****   5 GROUP 4 **** **** 0

# MOE 2024.06 (io_trps.svl 2023.06)
