@<TRIPOS>MOLECULE
NONAME
47 50 1 0 0 
SMALL
USER_CHARGES


@<TRIPOS>ATOM
  1 S       -0.8400     0.3830    -0.4380 S.3   1 <1>  -0.0800 
  2 C       -1.8780    -0.3090     0.8010 C.2   1 <1>  -0.1400 
  3 C       -2.0760     1.5460    -0.8850 C.2   1 <1>  -0.1100 
  4 C       -3.0620     0.3300     0.8320 C.2   1 <1>  -0.1500 
  5 C       -1.3400    -1.4700     1.6160 C.3   1 <1>   0.3200 
  6 C       -3.1750     1.3860    -0.1270 C.2   1 <1>  -0.1500 
  7 N       -1.6890    -2.7400     0.9240 N.am  1 <1>  -0.6600 
  8 C       -2.8570    -3.3860     1.2450 C.2   1 <1>   0.5690 
  9 C       -0.8040    -3.1170    -0.2120 C.3   1 <1>   0.0600 
 10 O       -3.4160    -3.1760     2.3010 O.2   1 <1>  -0.5700 
 11 C       -3.5160    -4.3420     0.2380 C.3   1 <1>   0.2610 
 12 O       -3.0030    -5.6530     0.3490 O.3   1 <1>  -0.5600 
 13 C       -5.0530    -4.3320     0.3970 C.3   1 <1>   0.3640 
 14 C       -3.4570    -6.5250    -0.6590 C.3   1 <1>   0.1810 
 15 N       -5.7120    -5.4660    -0.3250 N.am  1 <1>  -0.5090 
 16 C       -5.5970    -2.9890    -0.0940 C.ar  1 <1>  -0.1430 
 17 C       -4.9730    -6.4830    -0.8750 C.2   1 <1>   0.5690 
 18 C       -7.1950    -5.4420    -0.3690 C.3   1 <1>   0.0490 
 19 C       -5.9910    -2.0290     0.8290 C.ar  1 <1>   0.1600 
 20 C       -5.6940    -2.6900    -1.4410 C.ar  1 <1>  -0.1500 
 21 O       -5.4590    -7.3510    -1.5620 O.2   1 <1>  -0.5700 
 22 C       -7.9540    -5.3850     0.9210 C.3   1 <1>  -0.2000 
 23 C       -7.9680    -6.6340     0.1010 C.3   1 <1>  -0.2000 
 24 N       -6.4600    -0.8290     0.5230 N.ar  1 <1>  -0.6200 
 25 C       -6.1780    -1.4450    -1.7750 C.ar  1 <1>  -0.1500 
 26 C       -6.5420    -0.5660    -0.7700 C.ar  1 <1>   0.1600 
 27 H       -1.8450     2.2340    -1.6780 H     1 <1>   0.1500 
 28 H       -3.8810     0.0990     1.4930 H     1 <1>   0.1500 
 29 H       -1.7820    -1.4470     2.5970 H     1 <1>   0.0800 
 30 H       -0.2740    -1.3880     1.7330 H     1 <1>   0.0800 
 31 H       -4.0780     1.9670    -0.1940 H     1 <1>   0.1500 
 32 H        0.2230    -2.9160     0.0400 H     1 <1>   0.0800 
 33 H       -1.0680    -2.5460    -1.0860 H     1 <1>   0.0800 
 34 H       -0.8960    -4.1670    -0.4300 H     1 <1>   0.0800 
 35 H       -3.2800    -3.9870    -0.7470 H     1 <1>   0.0800 
 36 H       -5.2870    -4.4450     1.4410 H     1 <1>   0.0800 
 37 H       -2.9600    -6.2710    -1.5770 H     1 <1>   0.0800 
 38 H       -3.1700    -7.5220    -0.3770 H     1 <1>   0.0800 
 39 H       -7.5760    -4.8950    -1.2160 H     1 <1>   0.1000 
 40 H       -5.9100    -2.2540     1.8800 H     1 <1>   0.1500 
 41 H       -5.4090    -3.3950    -2.2030 H     1 <1>   0.1500 
 42 H       -7.4300    -5.4110     1.8600 H     1 <1>   0.1000 
 43 H       -8.8530    -4.7950     0.9640 H     1 <1>   0.1000 
 44 H       -8.8690    -6.8980    -0.4230 H     1 <1>   0.1000 
 45 H       -7.4220    -7.4960     0.4420 H     1 <1>   0.1000 
 46 H       -6.2770    -1.1540    -2.8050 H     1 <1>   0.1500 
 47 H       -6.9200     0.4040    -1.0440 H     1 <1>   0.1500 
@<TRIPOS>BOND
  1   1   2  1   
  2   1   3  1   
  3   2   4  2   
  4   2   5  1   
  5   3   6  2   
  6   3  27  1   
  7   4   6  1   
  8   4  28  1   
  9   5   7  1   
 10   5  29  1   
 11   5  30  1   
 12   6  31  1   
 13   7   8  am  
 14   7   9  1   
 15   8  10  2   
 16   8  11  1   
 17   9  32  1   
 18   9  33  1   
 19   9  34  1   
 20  11  12  1   
 21  11  13  1   
 22  11  35  1   
 23  12  14  1   
 24  13  15  1   
 25  13  16  1   
 26  13  36  1   
 27  14  17  1   
 28  14  37  1   
 29  14  38  1   
 30  15  17  am  
 31  15  18  1   
 32  16  19  ar  
 33  16  20  ar  
 34  17  21  2   
 35  18  22  1   
 36  18  23  1   
 37  18  39  1   
 38  19  24  ar  
 39  19  40  1   
 40  20  25  ar  
 41  20  41  1   
 42  22  23  1   
 43  22  42  1   
 44  22  43  1   
 45  23  44  1   
 46  23  45  1   
 47  24  26  ar  
 48  25  26  ar  
 49  25  46  1   
 50  26  47  1   
@<TRIPOS>SUBSTRUCTURE
  1 ****  16 GROUP 4 **** **** 0

# MOE 2024.06 (io_trps.svl 2023.06)
