@<TRIPOS>MOLECULE
NONAME
53 55 1 0 0 
SMALL
USER_CHARGES


@<TRIPOS>ATOM
  1 O       -1.8920    -2.7780    -0.8130 O.2   1 <1>  -0.5700 
  2 C       -0.7810    -3.1200    -0.5040 C.2   1 <1>   0.5690 
  3 N       -0.5550    -4.2670     0.1690 N.am  1 <1>  -0.7300 
  4 C        0.4190    -2.2620    -0.8440 C.3   1 <1>  -0.0990 
  5 C        0.7930    -4.7150     0.5750 C.3   1 <1>   0.1400 
  6 C        1.5850    -3.1320    -1.3560 C.3   1 <1>  -0.0800 
  7 C        1.7960    -4.4490    -0.5650 C.3   1 <1>  -0.0800 
  8 C        2.9330    -2.3970    -1.3520 C.3   1 <1>  -0.1600 
  9 C        3.2520    -4.4280    -0.0830 C.3   1 <1>  -0.1600 
 10 C        3.9600    -3.4890    -1.0530 C.3   1 <1>   0.2200 
 11 N        5.2690    -2.9960    -0.5200 N.am  1 <1>  -0.6600 
 12 C        6.4490    -3.5060    -1.0450 C.2   1 <1>   0.5690 
 13 C        5.2180    -1.9710     0.5690 C.3   1 <1>   0.0600 
 14 O        6.4020    -4.4700    -1.7820 O.2   1 <1>  -0.5700 
 15 C        7.8740    -2.9380    -0.7190 C.3   1 <1>   0.3410 
 16 O        7.7960    -1.5220    -0.5110 O.3   1 <1>  -0.3630 
 17 C        8.8510    -3.1800    -1.8910 C.3   1 <1>  -0.2400 
 18 C        8.4300    -3.6290     0.5410 C.3   1 <1>  -0.2400 
 19 C        8.8700    -0.7720    -0.1680 C.ar  1 <1>   0.0820 
 20 C        9.6000    -0.1270    -1.1540 C.ar  1 <1>  -0.1500 
 21 C        9.2090    -0.6010     1.1650 C.ar  1 <1>  -0.1500 
 22 C       10.6870     0.6580    -0.8090 C.ar  1 <1>  -0.1500 
 23 C       10.2960     0.1840     1.5070 C.ar  1 <1>  -0.1500 
 24 C       11.0430     0.8130     0.5230 C.ar  1 <1>  -0.1440 
 25 C       12.2350     1.6740     0.9000 C.3   1 <1>  -0.0970 
 26 H       -1.3660    -4.8340     0.4260 H     1 <1>   0.3700 
 27 H        0.1430    -1.5370    -1.5880 H     1 <1>   0.0800 
 28 H        0.7030    -1.7380     0.0490 H     1 <1>   0.0800 
 29 H        1.0780    -4.1680     1.4580 H     1 <1>   0.0800 
 30 H        0.7760    -5.7650     0.8130 H     1 <1>   0.0800 
 31 H        1.3580    -3.4110    -2.3730 H     1 <1>   0.0800 
 32 H        1.7000    -5.2600    -1.2680 H     1 <1>   0.0800 
 33 H        2.9280    -1.6480    -0.5840 H     1 <1>   0.0800 
 34 H        3.1300    -1.9320    -2.3010 H     1 <1>   0.0800 
 35 H        3.6930    -5.4090    -0.1080 H     1 <1>   0.0800 
 36 H        3.3060    -4.0360     0.9160 H     1 <1>   0.0800 
 37 H        4.1170    -4.0290    -1.9730 H     1 <1>   0.0800 
 38 H        4.3340    -2.0910     1.1690 H     1 <1>   0.0800 
 39 H        5.2160    -0.9860     0.1350 H     1 <1>   0.0800 
 40 H        6.0680    -2.0600     1.2190 H     1 <1>   0.0800 
 41 H        8.9210    -4.2320    -2.1030 H     1 <1>   0.0800 
 42 H        9.8390    -2.8310    -1.6550 H     1 <1>   0.0800 
 43 H        8.4920    -2.6850    -2.7750 H     1 <1>   0.0800 
 44 H        8.4290    -4.6940     0.3900 H     1 <1>   0.0800 
 45 H        7.8170    -3.4170     1.3960 H     1 <1>   0.0800 
 46 H        9.4420    -3.3260     0.7360 H     1 <1>   0.0800 
 47 H        9.3150    -0.2390    -2.1840 H     1 <1>   0.1500 
 48 H        8.6240    -1.0770     1.9300 H     1 <1>   0.1500 
 49 H       11.2520     1.1500    -1.5800 H     1 <1>   0.1500 
 50 H       10.5570     0.3070     2.5440 H     1 <1>   0.1500 
 51 H       12.9740     1.6570     0.1190 H     1 <1>   0.0800 
 52 H       12.6900     1.3130     1.8040 H     1 <1>   0.0800 
 53 H       11.9150     2.6890     1.0530 H     1 <1>   0.0800 
@<TRIPOS>BOND
  1   1   2  2   
  2   2   3  am  
  3   2   4  1   
  4   3   5  1   
  5   3  26  1   
  6   4   6  1   
  7   4  27  1   
  8   4  28  1   
  9   5   7  1   
 10   5  29  1   
 11   5  30  1   
 12   6   7  1   
 13   6   8  1   
 14   6  31  1   
 15   7   9  1   
 16   7  32  1   
 17   8  10  1   
 18   8  33  1   
 19   8  34  1   
 20   9  10  1   
 21   9  35  1   
 22   9  36  1   
 23  10  11  1   
 24  10  37  1   
 25  11  12  am  
 26  11  13  1   
 27  12  14  2   
 28  12  15  1   
 29  13  38  1   
 30  13  39  1   
 31  13  40  1   
 32  15  16  1   
 33  15  17  1   
 34  15  18  1   
 35  16  19  1   
 36  17  41  1   
 37  17  42  1   
 38  17  43  1   
 39  18  44  1   
 40  18  45  1   
 41  18  46  1   
 42  19  20  ar  
 43  19  21  ar  
 44  20  22  ar  
 45  20  47  1   
 46  21  23  ar  
 47  21  48  1   
 48  22  24  ar  
 49  22  49  1   
 50  23  24  ar  
 51  23  50  1   
 52  24  25  1   
 53  25  51  1   
 54  25  52  1   
 55  25  53  1   
@<TRIPOS>SUBSTRUCTURE
  1 ****  11 GROUP 4 **** **** 0

# MOE 2024.06 (io_trps.svl 2023.06)
