@<TRIPOS>MOLECULE
NONAME
50 52 1 0 0 
SMALL
USER_CHARGES


@<TRIPOS>ATOM
  1 S        0.2930     0.5150     0.0230 S.o2  1 <1>   1.3330 
  2 O       -0.1090     1.9040     0.0370 O.2   1 <1>  -0.6500 
  3 O        0.1710    -0.2760     1.2270 O.2   1 <1>  -0.6500 
  4 N       -0.5550    -0.2790    -1.2140 N.am  1 <1>  -0.8490 
  5 C        1.9870     0.4520    -0.5610 C.3   1 <1>  -0.0550 
  6 C       -1.9220     0.2310    -1.3690 C.3   1 <1>   0.1160 
  7 C       -0.5810    -1.7370    -1.0610 C.3   1 <1>   0.1160 
  8 C        2.9710     1.2230     0.3400 C.3   1 <1>  -0.0800 
  9 C        4.3450     1.3220    -0.3030 C.3   1 <1>   0.2200 
 10 C        3.2560     0.4860     1.6600 C.3   1 <1>   0.1200 
 11 N        5.0020     2.5620     0.1630 N.am  1 <1>  -0.7300 
 12 C        5.0560     0.1160     0.2920 C.3   1 <1>   0.1200 
 13 O        4.5710     0.0190     1.5930 O.3   1 <1>  -0.5600 
 14 C        5.2460     3.6440    -0.6120 C.2   1 <1>   0.5690 
 15 O        4.9490     3.6730    -1.7790 O.2   1 <1>  -0.5700 
 16 C        5.8980     4.8580     0.0060 C.3   1 <1>  -0.0990 
 17 C        5.0840     6.1170    -0.3130 C.3   1 <1>   0.0960 
 18 N        5.7170     7.3010     0.2950 N.pl3 1 <1>   0.0480 
 19 C        6.8050     7.9720    -0.1650 C.ar  1 <1>  -0.1520 
 20 C        5.3780     7.9190     1.4560 C.2   1 <1>   0.0360 
 21 C        7.0510     8.9620     0.7690 C.ar  1 <1>   0.2270 
 22 C        7.6130     7.8310    -1.2970 C.ar  1 <1>  -0.1500 
 23 N        6.1390     8.9050     1.7780 N.2   1 <1>  -0.5650 
 24 C        8.1210     9.8380     0.5910 C.ar  1 <1>  -0.1500 
 25 C        8.6680     8.7000    -1.4650 C.ar  1 <1>  -0.1500 
 26 C        8.9240     9.7040    -0.5220 C.ar  1 <1>  -0.1500 
 27 H        2.3000    -0.5700    -0.6500 H     1 <1>   0.0800 
 28 H        2.0120     0.8880    -1.5410 H     1 <1>   0.0800 
 29 H       -2.4230    -0.2820    -2.1710 H     1 <1>   0.0800 
 30 H       -1.8990     1.2820    -1.6060 H     1 <1>   0.0800 
 31 H       -2.4780     0.0950    -0.4560 H     1 <1>   0.0800 
 32 H       -1.0480    -2.1910    -1.9190 H     1 <1>   0.0800 
 33 H       -1.1290    -2.0140    -0.1760 H     1 <1>   0.0800 
 34 H        0.4220    -2.1200    -0.9790 H     1 <1>   0.0800 
 35 H        2.5640     2.2020     0.5280 H     1 <1>   0.0800 
 36 H        4.3200     1.2900    -1.3800 H     1 <1>   0.0800 
 37 H        2.6080    -0.3600     1.8180 H     1 <1>   0.0800 
 38 H        3.1840     1.1510     2.5030 H     1 <1>   0.0800 
 39 H        5.2810     2.5350     1.1480 H     1 <1>   0.3700 
 40 H        6.1260     0.2280     0.3090 H     1 <1>   0.0800 
 41 H        4.7890    -0.7860    -0.2300 H     1 <1>   0.0800 
 42 H        5.9700     4.7310     1.0700 H     1 <1>   0.0800 
 43 H        6.8880     4.9500    -0.4020 H     1 <1>   0.0800 
 44 H        4.0830     6.0180     0.0690 H     1 <1>   0.0800 
 45 H        5.0270     6.2640    -1.3780 H     1 <1>   0.0800 
 46 H        4.5380     7.5920     2.0450 H     1 <1>   0.1500 
 47 H        7.4100     7.0590    -2.0190 H     1 <1>   0.1500 
 48 H        8.2910    10.5970     1.3300 H     1 <1>   0.1500 
 49 H        9.3080     8.6160    -2.3260 H     1 <1>   0.1500 
 50 H        9.7530    10.3710    -0.6750 H     1 <1>   0.1500 
@<TRIPOS>BOND
  1   1   2  2   
  2   1   3  2   
  3   1   4  am  
  4   1   5  1   
  5   4   6  1   
  6   4   7  1   
  7   5   8  1   
  8   5  27  1   
  9   5  28  1   
 10   6  29  1   
 11   6  30  1   
 12   6  31  1   
 13   7  32  1   
 14   7  33  1   
 15   7  34  1   
 16   8   9  1   
 17   8  10  1   
 18   8  35  1   
 19   9  11  1   
 20   9  12  1   
 21   9  36  1   
 22  10  13  1   
 23  10  37  1   
 24  10  38  1   
 25  11  14  am  
 26  11  39  1   
 27  12  13  1   
 28  12  40  1   
 29  12  41  1   
 30  14  15  2   
 31  14  16  1   
 32  16  17  1   
 33  16  42  1   
 34  16  43  1   
 35  17  18  1   
 36  17  44  1   
 37  17  45  1   
 38  18  19  1   
 39  18  20  1   
 40  19  21  ar  
 41  19  22  ar  
 42  20  23  2   
 43  20  46  1   
 44  21  23  1   
 45  21  24  ar  
 46  22  25  ar  
 47  22  47  1   
 48  24  26  ar  
 49  24  48  1   
 50  25  26  ar  
 51  25  49  1   
 52  26  50  1   
@<TRIPOS>SUBSTRUCTURE
  1 ****  14 GROUP 4 **** **** 0

# MOE 2024.06 (io_trps.svl 2023.06)
