@<TRIPOS>MOLECULE
NONAME
48 50 1 0 0 
SMALL
USER_CHARGES


@<TRIPOS>ATOM
  1 S        0.9350     0.6690    -1.7260 S.o2  1 <1>   1.3330 
  2 O        1.1730    -0.7040    -2.1090 O.2   1 <1>  -0.6500 
  3 O        0.2700     1.5650    -2.6440 O.2   1 <1>  -0.6500 
  4 N        0.0290     0.6590    -0.2880 N.am  1 <1>  -0.8490 
  5 C        2.5050     1.3870    -1.2370 C.3   1 <1>  -0.0550 
  6 C       -0.9950    -0.3890    -0.2900 C.3   1 <1>   0.1160 
  7 C       -0.5900     1.9550     0.0170 C.3   1 <1>   0.1160 
  8 C        3.3560     0.4890    -0.3110 C.3   1 <1>  -0.0800 
  9 C        4.7590     1.0060    -0.0290 C.3   1 <1>   0.2200 
 10 C        2.7840     0.2740     1.0960 C.3   1 <1>   0.1200 
 11 N        4.7360     2.4610     0.2460 N.am  1 <1>  -0.7300 
 12 C        5.0690     0.2710     1.2660 C.3   1 <1>   0.1200 
 13 O        3.8700     0.2860     1.9790 O.3   1 <1>  -0.5600 
 14 C        5.0420     3.4490    -0.6320 C.2   1 <1>   0.7150 
 15 O        5.3410     3.1370    -1.7680 O.2   1 <1>  -0.5700 
 16 C        4.9640     4.8210    -0.1930 C.2   1 <1>  -0.2370 
 17 N        4.9980     5.9220    -1.0300 N.pl3 1 <1>   0.0480 
 18 C        4.8400     5.2790     1.0890 C.2   1 <1>  -0.1500 
 19 C        4.8930     7.0620    -0.2650 C.ar  1 <1>  -0.1520 
 20 C        5.1070     5.9030    -2.5060 C.3   1 <1>   0.0160 
 21 C        4.7920     6.6800     1.0710 C.ar  1 <1>   0.0000 
 22 C        4.8780     8.4190    -0.6240 C.ar  1 <1>  -0.1500 
 23 C        4.6720     7.6490     2.0740 C.ar  1 <1>  -0.1500 
 24 C        4.7600     9.3730     0.3610 C.ar  1 <1>  -0.1500 
 25 C        4.6580     8.9660     1.6940 C.ar  1 <1>   0.1900 
 26 F        4.5470     9.8930     2.6100 F     1 <1>  -0.1900 
 27 H        3.0750     1.5750    -2.1270 H     1 <1>   0.0800 
 28 H        2.3290     2.3330    -0.7670 H     1 <1>   0.0800 
 29 H       -1.5440    -0.3780     0.6360 H     1 <1>   0.0800 
 30 H       -0.5340    -1.3570    -0.3950 H     1 <1>   0.0800 
 31 H       -1.6790    -0.2430    -1.1100 H     1 <1>   0.0800 
 32 H       -1.0750     1.9150     0.9770 H     1 <1>   0.0800 
 33 H       -1.3200     2.2100    -0.7340 H     1 <1>   0.0800 
 34 H        0.1580     2.7280     0.0470 H     1 <1>   0.0800 
 35 H        3.4510    -0.4790    -0.7730 H     1 <1>   0.0800 
 36 H        5.4590     0.7740    -0.8140 H     1 <1>   0.0800 
 37 H        2.2730    -0.6700     1.1800 H     1 <1>   0.0800 
 38 H        2.1230     1.0710     1.3880 H     1 <1>   0.0800 
 39 H        4.4250     2.7100     1.1850 H     1 <1>   0.3700 
 40 H        5.8430     0.7450     1.8430 H     1 <1>   0.0800 
 41 H        5.3280    -0.7550     1.0730 H     1 <1>   0.0800 
 42 H        4.7890     4.7040     1.9960 H     1 <1>   0.1500 
 43 H        4.3340     5.2760    -2.9110 H     1 <1>   0.0800 
 44 H        6.0670     5.5060    -2.7840 H     1 <1>   0.0800 
 45 H        5.0010     6.8930    -2.9050 H     1 <1>   0.0800 
 46 H        4.9600     8.7120    -1.6550 H     1 <1>   0.1500 
 47 H        4.5940     7.3610     3.1050 H     1 <1>   0.1500 
 48 H        4.7440    10.4220     0.1300 H     1 <1>   0.1500 
@<TRIPOS>BOND
  1   1   2  2   
  2   1   3  2   
  3   1   4  am  
  4   1   5  1   
  5   4   6  1   
  6   4   7  1   
  7   5   8  1   
  8   5  27  1   
  9   5  28  1   
 10   6  29  1   
 11   6  30  1   
 12   6  31  1   
 13   7  32  1   
 14   7  33  1   
 15   7  34  1   
 16   8   9  1   
 17   8  10  1   
 18   8  35  1   
 19   9  11  1   
 20   9  12  1   
 21   9  36  1   
 22  10  13  1   
 23  10  37  1   
 24  10  38  1   
 25  11  14  am  
 26  11  39  1   
 27  12  13  1   
 28  12  40  1   
 29  12  41  1   
 30  14  15  2   
 31  14  16  1   
 32  16  17  1   
 33  16  18  2   
 34  17  19  1   
 35  17  20  1   
 36  18  21  1   
 37  18  42  1   
 38  19  21  ar  
 39  19  22  ar  
 40  20  43  1   
 41  20  44  1   
 42  20  45  1   
 43  21  23  ar  
 44  22  24  ar  
 45  22  46  1   
 46  23  25  ar  
 47  23  47  1   
 48  24  25  ar  
 49  24  48  1   
 50  25  26  1   
@<TRIPOS>SUBSTRUCTURE
  1 ****  14 GROUP 4 **** **** 0

# MOE 2024.06 (io_trps.svl 2023.06)
