@<TRIPOS>MOLECULE
NONAME
35 36 1 0 0 
SMALL
USER_CHARGES


@<TRIPOS>ATOM
  1 N        5.5870     1.3180     0.1080 N.ar  1 <1>  -0.6200 
  2 C        5.7060     2.6200    -0.1880 C.ar  1 <1>   0.4100 
  3 C        6.6620     0.6010     0.2620 C.ar  1 <1>   0.5280 
  4 N        4.5520     3.3250    -0.3430 N.pl3 1 <1>  -0.8380 
  5 C        6.9860     3.1790    -0.3250 C.ar  1 <1>  -0.1500 
  6 N        7.9080     1.1030     0.1440 N.ar  1 <1>  -0.1790 
  7 C        6.5100    -0.8790     0.5940 C.3   1 <1>  -0.0160 
  8 C        4.4550     4.8270    -0.3710 C.3   1 <1>   0.2090 
  9 C        3.2160     2.6490    -0.5510 C.3   1 <1>   0.2090 
 10 C        8.0950     2.4030    -0.1540 C.ar  1 <1>   0.2180 
 11 C        7.0670    -1.8020    -0.5030 C.3   1 <1>  -0.2400 
 12 C        3.3600     5.3470     0.5930 C.3   1 <1>   0.3430 
 13 C        2.1540     3.1720     0.4380 C.3   1 <1>   0.3430 
 14 C        9.5130     2.9340    -0.2910 C.3   1 <1>  -0.0960 
 15 N        2.0320     4.6710     0.3930 N.4   1 <1>  -0.9060 
 16 H        7.0960     4.2140    -0.5820 H     1 <1>   0.1500 
 17 H        8.7030     0.4760     0.2730 H     1 <1>   0.4570 
 18 H        5.4640    -1.1000     0.7270 H     1 <1>   0.0800 
 19 H        6.9990    -1.0900     1.5290 H     1 <1>   0.0800 
 20 H        4.2360     5.1500    -1.3750 H     1 <1>   0.0800 
 21 H        5.3840     5.2790    -0.0780 H     1 <1>   0.0800 
 22 H        3.2830     1.5810    -0.4400 H     1 <1>   0.0800 
 23 H        2.8850     2.8330    -1.5590 H     1 <1>   0.0800 
 24 H        6.5810    -1.6030    -1.4430 H     1 <1>   0.0800 
 25 H        6.8770    -2.8300    -0.2430 H     1 <1>   0.0800 
 26 H        8.1280    -1.6800    -0.6270 H     1 <1>   0.0800 
 27 H        3.2520     6.4120     0.4620 H     1 <1>   0.0800 
 28 H        3.6970     5.1760     1.6020 H     1 <1>   0.0800 
 29 H        2.4380     2.8600     1.4300 H     1 <1>   0.0800 
 30 H        1.2040     2.7180     0.2090 H     1 <1>   0.0800 
 31 H        9.5040     3.9830    -0.5310 H     1 <1>   0.0800 
 32 H       10.0340     2.4170    -1.0770 H     1 <1>   0.0800 
 33 H       10.0540     2.8070     0.6310 H     1 <1>   0.0800 
 34 H        1.6400     4.9490    -0.5160 H     1 <1>   0.4500 
 35 H        1.3670     4.9850     1.1130 H     1 <1>   0.4500 
@<TRIPOS>BOND
  1   1   2  ar  
  2   1   3  ar  
  3   2   4  1   
  4   2   5  ar  
  5   3   6  ar  
  6   3   7  1   
  7   4   8  1   
  8   4   9  1   
  9   5  10  ar  
 10   5  16  1   
 11   6  10  ar  
 12   6  17  1   
 13   7  11  1   
 14   7  18  1   
 15   7  19  1   
 16   8  12  1   
 17   8  20  1   
 18   8  21  1   
 19   9  13  1   
 20   9  22  1   
 21   9  23  1   
 22  10  14  1   
 23  11  24  1   
 24  11  25  1   
 25  11  26  1   
 26  12  15  1   
 27  12  27  1   
 28  12  28  1   
 29  13  15  1   
 30  13  29  1   
 31  13  30  1   
 32  14  31  1   
 33  14  32  1   
 34  14  33  1   
 35  15  34  1   
 36  15  35  1   
@<TRIPOS>SUBSTRUCTURE
  1 ****   2 GROUP 4 **** **** 0

# MOE 2024.06 (io_trps.svl 2023.06)
