@<TRIPOS>MOLECULE
Untitled Document
43 45 1 0 0 
SMALL
USER_CHARGES


@<TRIPOS>ATOM
  1 N       -3.8100     2.5690     0.6340 N.ar  1 <1>  -0.6200 
  2 C       -4.9310     1.9110     0.5040 C.ar  1 <1>   0.7710 
  3 C       -3.7840     3.8270     0.1970 C.ar  1 <1>   0.4100 
  4 N       -6.0360     2.4320    -0.0610 N.ar  1 <1>  -0.1790 
  5 N       -4.9530     0.6570     0.9650 N.pl3 1 <1>  -0.9000 
  6 N       -2.6060     4.5010     0.3650 N.pl3 1 <1>  -0.8380 
  7 C       -4.8970     4.4100    -0.3970 C.ar  1 <1>  -0.1500 
  8 C       -6.0540     3.6880    -0.5350 C.ar  1 <1>   0.4610 
  9 C       -1.4860     4.0170     1.2220 C.3   1 <1>   0.2090 
 10 C       -2.3300     5.9060    -0.0360 C.3   1 <1>   0.2090 
 11 N       -7.1820     4.1900    -1.1040 N.pl3 1 <1>  -0.8690 
 12 C       -0.2780     4.8010     0.7040 C.3   1 <1>   0.4230 
 13 C       -0.8980     6.1760     0.4400 C.3   1 <1>  -0.1600 
 14 C       -8.4630     3.5220    -1.4380 C.3   1 <1>   0.3040 
 15 N        0.1650     4.1930    -0.5850 N.4   1 <1>  -0.9060 
 16 C       -9.3690     3.5770    -0.2090 C.3   1 <1>  -0.1950 
 17 C        1.3360     4.8520    -1.2400 C.3   1 <1>   0.2630 
 18 C      -10.8570     3.6080    -0.3600 C.3   1 <1>  -0.2000 
 19 C      -10.1250     4.8200     0.1400 C.3   1 <1>  -0.2000 
 20 H       -6.8770     1.8780    -0.0950 H     1 <1>   0.4570 
 21 H       -5.7280    -0.0080     0.9610 H     1 <1>   0.4000 
 22 H       -4.1030     0.2920     1.4060 H     1 <1>   0.4000 
 23 H       -4.8600     5.4210    -0.7480 H     1 <1>   0.1500 
 24 H       -1.6880     4.2770     2.2480 H     1 <1>   0.0800 
 25 H       -1.3390     2.9530     1.1480 H     1 <1>   0.0800 
 26 H       -2.4030     6.0020    -1.1070 H     1 <1>   0.0800 
 27 H       -3.0260     6.5840     0.4340 H     1 <1>   0.0800 
 28 H       -7.2240     5.1990    -1.3070 H     1 <1>   0.4000 
 29 H        0.5270     4.8320     1.4210 H     1 <1>   0.0800 
 30 H       -0.9550     6.7120     1.3720 H     1 <1>   0.0800 
 31 H       -0.3480     6.7870    -0.2500 H     1 <1>   0.0800 
 32 H       -8.9290     4.0410    -2.2610 H     1 <1>   0.0800 
 33 H       -8.2990     2.5020    -1.7410 H     1 <1>   0.0800 
 34 H        0.3780     3.2000    -0.4270 H     1 <1>   0.4500 
 35 H       -0.6640     4.1980    -1.1980 H     1 <1>   0.4500 
 36 H       -8.9940     2.9900     0.6100 H     1 <1>   0.1000 
 37 H        2.1900     4.8420    -0.5820 H     1 <1>   0.0800 
 38 H        1.1060     5.8750    -1.4920 H     1 <1>   0.0800 
 39 H        1.5970     4.3310    -2.1480 H     1 <1>   0.0800 
 40 H      -11.3020     3.6570    -1.3400 H     1 <1>   0.1000 
 41 H      -11.4700     3.0610     0.3370 H     1 <1>   0.1000 
 42 H      -10.2340     5.0930     1.1770 H     1 <1>   0.1000 
 43 H      -10.0700     5.6810    -0.5040 H     1 <1>   0.1000 
@<TRIPOS>BOND
  1   1   2  ar  
  2   1   3  ar  
  3   2   4  ar  
  4   2   5  1   
  5   3   6  1   
  6   3   7  ar  
  7   4   8  ar  
  8   4  20  1   
  9   5  21  1   
 10   5  22  1   
 11   6   9  1   
 12   6  10  1   
 13   7   8  ar  
 14   7  23  1   
 15   8  11  1   
 16   9  12  1   
 17   9  24  1   
 18   9  25  1   
 19  10  13  1   
 20  10  26  1   
 21  10  27  1   
 22  11  14  1   
 23  11  28  1   
 24  12  13  1   
 25  12  15  1   
 26  12  29  1   
 27  13  30  1   
 28  13  31  1   
 29  14  16  1   
 30  14  32  1   
 31  14  33  1   
 32  15  17  1   
 33  15  34  1   
 34  15  35  1   
 35  16  18  1   
 36  16  19  1   
 37  16  36  1   
 38  17  37  1   
 39  17  38  1   
 40  17  39  1   
 41  18  19  1   
 42  18  40  1   
 43  18  41  1   
 44  19  42  1   
 45  19  43  1   
@<TRIPOS>SUBSTRUCTURE
  1 ****   7 GROUP 4 **** **** 0

# MOE 2024.06 (io_trps.svl 2023.06)
