@<TRIPOS>MOLECULE
NONAME
41 42 1 0 0 
SMALL
USER_CHARGES


@<TRIPOS>ATOM
  1 S       -0.0770    -0.1520     0.8450 S.o2  1 <1>   1.0900 
  2 O       -0.0120     0.2500     2.2300 O.2   1 <1>  -0.6500 
  3 O        0.7010     0.5160    -0.1730 O.2   1 <1>  -0.6500 
  4 C        0.1930    -1.8940     0.6790 C.3   1 <1>  -0.0550 
  5 C       -1.7590    -0.2680     0.2830 C.3   1 <1>  -0.0550 
  6 C       -0.6350    -2.3390    -0.5360 C.3   1 <1>   0.2200 
  7 C       -1.7660    -1.3240    -0.8300 C.3   1 <1>  -0.1600 
  8 N       -1.1700    -3.7260    -0.3670 N.am  1 <1>  -0.6600 
  9 C       -2.0170    -4.1030     0.6760 C.2   1 <1>   0.7150 
 10 C       -0.8190    -4.6530    -1.4880 C.3   1 <1>   0.1400 
 11 O       -2.4530    -3.2070     1.3830 O.2   1 <1>  -0.5700 
 12 C       -2.3890    -5.4860     0.9660 C.2   1 <1>   0.2930 
 13 C        0.5370    -5.3190    -1.2320 C.3   1 <1>   0.1200 
 14 S       -3.7670    -5.7420     2.0340 S.3   1 <1>  -0.0800 
 15 N       -1.8720    -6.6090     0.5760 N.2   1 <1>  -0.5650 
 16 O        0.7800    -6.2490    -2.2280 O.3   1 <1>  -0.6800 
 17 C       -3.5730    -7.4570     1.8940 C.2   1 <1>  -0.1100 
 18 C       -2.5300    -7.7110     1.0890 C.2   1 <1>   0.0460 
 19 C       -1.9970    -9.0870     0.6880 C.3   1 <1>   0.1010 
 20 C       -2.2820    -9.3590    -0.7950 C.3   1 <1>  -0.2400 
 21 C       -2.5830   -10.2180     1.5440 C.3   1 <1>  -0.2400 
 22 H       -0.1450    -2.3840     1.5710 H     1 <1>   0.0800 
 23 H        1.2340    -2.1090     0.5360 H     1 <1>   0.0800 
 24 H       -2.1280     0.6780    -0.0650 H     1 <1>   0.0800 
 25 H       -2.3800    -0.6070     1.0920 H     1 <1>   0.0800 
 26 H        0.0290    -2.3200    -1.3850 H     1 <1>   0.0800 
 27 H       -1.5460    -0.8340    -1.7620 H     1 <1>   0.0800 
 28 H       -2.7320    -1.7920    -0.9110 H     1 <1>   0.0800 
 29 H       -0.7750    -4.1030    -2.4120 H     1 <1>   0.0800 
 30 H       -1.5820    -5.4030    -1.5990 H     1 <1>   0.0800 
 31 H        0.5500    -5.8310    -0.2850 H     1 <1>   0.0800 
 32 H        1.3280    -4.5900    -1.2630 H     1 <1>   0.0800 
 33 H        0.2130    -7.0370    -2.1010 H     1 <1>   0.4000 
 34 H       -4.2590    -8.0870     2.4290 H     1 <1>   0.1500 
 35 H       -0.9310    -9.0790     0.8360 H     1 <1>   0.0800 
 36 H       -3.3420    -9.3560    -0.9780 H     1 <1>   0.0800 
 37 H       -1.8800   -10.3130    -1.0860 H     1 <1>   0.0800 
 38 H       -1.8290    -8.5980    -1.4040 H     1 <1>   0.0800 
 39 H       -3.6470   -10.2900     1.4030 H     1 <1>   0.0800 
 40 H       -2.3800   -10.0360     2.5850 H     1 <1>   0.0800 
 41 H       -2.1380   -11.1580     1.2720 H     1 <1>   0.0800 
@<TRIPOS>BOND
  1   1   2  2   
  2   1   3  2   
  3   1   4  1   
  4   1   5  1   
  5   4   6  1   
  6   4  22  1   
  7   4  23  1   
  8   5   7  1   
  9   5  24  1   
 10   5  25  1   
 11   6   7  1   
 12   6   8  1   
 13   6  26  1   
 14   7  27  1   
 15   7  28  1   
 16   8   9  am  
 17   8  10  1   
 18   9  11  2   
 19   9  12  1   
 20  10  13  1   
 21  10  29  1   
 22  10  30  1   
 23  12  14  1   
 24  12  15  2   
 25  13  16  1   
 26  13  31  1   
 27  13  32  1   
 28  14  17  1   
 29  15  18  1   
 30  16  33  1   
 31  17  18  2   
 32  17  34  1   
 33  18  19  1   
 34  19  20  1   
 35  19  21  1   
 36  19  35  1   
 37  20  36  1   
 38  20  37  1   
 39  20  38  1   
 40  21  39  1   
 41  21  40  1   
 42  21  41  1   
@<TRIPOS>SUBSTRUCTURE
  1 ****   9 GROUP 4 **** **** 0

# MOE 2024.06 (io_trps.svl 2023.06)
