@<TRIPOS>MOLECULE
NONAME
53 56 1 0 0 
SMALL
USER_CHARGES


@<TRIPOS>ATOM
  1 O       -0.7460     0.2500    -1.0720 O.2   1 <1>  -0.5700 
  2 C       -1.7870     0.7960    -0.7860 C.2   1 <1>   0.5690 
  3 N       -2.9920     0.1550    -0.9540 N.am  1 <1>  -0.6600 
  4 C       -1.7230     2.2270    -0.2280 C.3   1 <1>  -0.0190 
  5 C       -4.3540     0.7280    -0.7190 C.3   1 <1>   0.1400 
  6 C       -3.0550    -1.2880    -1.3420 C.3   1 <1>   0.1400 
  7 C       -1.9770     3.2660    -1.3390 C.3   1 <1>  -0.1600 
  8 C       -0.3890     2.5360     0.4870 C.3   1 <1>  -0.1600 
  9 C       -5.1100    -0.1030     0.3340 C.3   1 <1>   0.1900 
 10 C       -3.8630    -2.0940    -0.3090 C.3   1 <1>   0.1100 
 11 C       -1.9650     4.6990    -0.7850 C.3   1 <1>  -0.1600 
 12 C       -0.3700     3.9640     1.0530 C.3   1 <1>  -0.1600 
 13 N       -5.2120    -1.5190    -0.0970 N.3   1 <1>  -0.8100 
 14 C       -6.5110     0.4870     0.5840 C.3   1 <1>   0.1200 
 15 C       -0.6550     4.9900    -0.0470 C.3   1 <1>   0.2000 
 16 C       -5.9940    -2.2920     0.8990 C.3   1 <1>   0.3330 
 17 O       -7.1900    -0.2670     1.5450 O.3   1 <1>  -0.5600 
 18 O       -0.7590     6.2320     0.5380 O.3   1 <1>  -0.6800 
 19 C       -6.2340    -3.7230     0.4200 C.ar  1 <1>  -0.1440 
 20 C       -7.3520    -1.6120     1.1770 C.3   1 <1>   0.1200 
 21 C       -6.6830    -3.9770    -0.8690 C.ar  1 <1>  -0.1500 
 22 C       -6.0090    -4.7910     1.2770 C.ar  1 <1>  -0.1500 
 23 C       -6.9060    -5.2750    -1.2950 C.ar  1 <1>  -0.1500 
 24 C       -6.2300    -6.0900     0.8530 C.ar  1 <1>  -0.1500 
 25 C       -6.6790    -6.3330    -0.4330 C.ar  1 <1>  -0.1500 
 26 H       -2.4890     2.3210     0.5190 H     1 <1>   0.0800 
 27 H       -4.3030     1.7500    -0.3990 H     1 <1>   0.0800 
 28 H       -4.9040     0.7040    -1.6440 H     1 <1>   0.0800 
 29 H       -3.5250    -1.3760    -2.3050 H     1 <1>   0.0800 
 30 H       -2.0670    -1.7080    -1.4190 H     1 <1>   0.0800 
 31 H       -1.2110     3.1680    -2.0910 H     1 <1>   0.0800 
 32 H       -2.9220     3.0760    -1.8160 H     1 <1>   0.0800 
 33 H       -0.2360     1.8290     1.2840 H     1 <1>   0.0800 
 34 H        0.4250     2.4210    -0.2090 H     1 <1>   0.0800 
 35 H       -4.5600    -0.0470     1.2580 H     1 <1>   0.0800 
 36 H       -3.3200    -2.1150     0.6200 H     1 <1>   0.0800 
 37 H       -3.9510    -3.1060    -0.6650 H     1 <1>   0.0800 
 38 H       -2.7960     4.8220    -0.1130 H     1 <1>   0.0800 
 39 H       -2.0750     5.3960    -1.5980 H     1 <1>   0.0800 
 40 H        0.5970     4.1630     1.4820 H     1 <1>   0.0800 
 41 H       -1.1120     4.0430     1.8280 H     1 <1>   0.0800 
 42 H       -7.0910     0.4920    -0.3230 H     1 <1>   0.0800 
 43 H       -6.4340     1.4930     0.9560 H     1 <1>   0.0800 
 44 H        0.1650     5.0220    -0.7450 H     1 <1>   0.0800 
 45 H       -5.4450    -2.3220     1.8250 H     1 <1>   0.0800 
 46 H       -1.4770     6.2290     1.1960 H     1 <1>   0.4000 
 47 H       -7.8560    -2.1150     1.9820 H     1 <1>   0.0800 
 48 H       -7.9760    -1.6540     0.3020 H     1 <1>   0.0800 
 49 H       -6.8550    -3.1560    -1.5450 H     1 <1>   0.1500 
 50 H       -5.6600    -4.6180     2.2800 H     1 <1>   0.1500 
 51 H       -7.2540    -5.4600    -2.2960 H     1 <1>   0.1500 
 52 H       -6.0540    -6.9120     1.5240 H     1 <1>   0.1500 
 53 H       -6.8520    -7.3420    -0.7620 H     1 <1>   0.1500 
@<TRIPOS>BOND
  1   1   2  2   
  2   2   3  am  
  3   2   4  1   
  4   3   5  1   
  5   3   6  1   
  6   4   7  1   
  7   4   8  1   
  8   4  26  1   
  9   5   9  1   
 10   5  27  1   
 11   5  28  1   
 12   6  10  1   
 13   6  29  1   
 14   6  30  1   
 15   7  11  1   
 16   7  31  1   
 17   7  32  1   
 18   8  12  1   
 19   8  33  1   
 20   8  34  1   
 21   9  13  1   
 22   9  14  1   
 23   9  35  1   
 24  10  13  1   
 25  10  36  1   
 26  10  37  1   
 27  11  15  1   
 28  11  38  1   
 29  11  39  1   
 30  12  15  1   
 31  12  40  1   
 32  12  41  1   
 33  13  16  1   
 34  14  17  1   
 35  14  42  1   
 36  14  43  1   
 37  15  18  1   
 38  15  44  1   
 39  16  19  1   
 40  16  20  1   
 41  16  45  1   
 42  17  20  1   
 43  18  46  1   
 44  19  21  ar  
 45  19  22  ar  
 46  20  47  1   
 47  20  48  1   
 48  21  23  ar  
 49  21  49  1   
 50  22  24  ar  
 51  22  50  1   
 52  23  25  ar  
 53  23  51  1   
 54  24  25  ar  
 55  24  52  1   
 56  25  53  1   
@<TRIPOS>SUBSTRUCTURE
  1 ****   9 GROUP 4 **** **** 0

# MOE 2024.06 (io_trps.svl 2023.06)
