@<TRIPOS>MOLECULE
NONAME
42 43 1 0 0 
SMALL
USER_CHARGES


@<TRIPOS>ATOM
  1 S        0.2830    -0.0650     0.3930 S.o2  1 <1>   1.3330 
  2 O       -0.6490    -0.1120     1.4970 O.2   1 <1>  -0.6500 
  3 O        1.7020     0.0200     0.6560 O.2   1 <1>  -0.6500 
  4 N        0.0150    -1.4200    -0.5940 N.am  1 <1>  -0.8490 
  5 C       -0.2000     1.2990    -0.6630 C.3   1 <1>  -0.0550 
  6 C       -0.3250    -2.6140     0.1850 C.3   1 <1>   0.1160 
  7 C        1.1340    -1.7140    -1.4950 C.3   1 <1>   0.1160 
  8 C       -0.1320     2.6630     0.0440 C.3   1 <1>  -0.0800 
  9 C       -0.6710     3.7950    -0.8250 C.3   1 <1>   0.2000 
 10 C        1.2850     3.1160     0.4030 C.3   1 <1>   0.1400 
 11 O       -2.0520     3.8430    -0.7440 O.3   1 <1>  -0.6800 
 12 C       -0.0230     5.0630    -0.2760 C.3   1 <1>   0.1400 
 13 N        1.2480     4.5980     0.3330 N.am  1 <1>  -0.6600 
 14 C        2.3880     5.3630     0.4310 C.2   1 <1>   0.5440 
 15 O        3.4590     4.8010     0.5470 O.2   1 <1>  -0.5700 
 16 C        2.3330     6.8110     0.3850 C.ar  1 <1>   0.0860 
 17 C        3.1530     7.5250    -0.4910 C.ar  1 <1>  -0.1500 
 18 C        1.4650     7.5320     1.2140 C.ar  1 <1>  -0.1500 
 19 C        3.0970     8.9050    -0.5550 C.ar  1 <1>   0.0820 
 20 C        1.3980     8.9150     1.1650 C.ar  1 <1>  -0.1500 
 21 O        3.8910     9.5660    -1.4170 O.3   1 <1>  -0.5330 
 22 C        2.2160     9.5840     0.2770 C.ar  1 <1>   0.1900 
 23 F        2.1570    10.8900     0.2210 F     1 <1>  -0.1900 
 24 H        0.4240     1.3170    -1.5350 H     1 <1>   0.0800 
 25 H       -1.2100     1.1340    -0.9870 H     1 <1>   0.0800 
 26 H       -0.5040    -3.4490    -0.4710 H     1 <1>   0.0800 
 27 H       -1.2220    -2.4390     0.7560 H     1 <1>   0.0800 
 28 H        0.4750    -2.8600     0.8640 H     1 <1>   0.0800 
 29 H        0.8730    -2.5230    -2.1560 H     1 <1>   0.0800 
 30 H        2.0100    -1.9910    -0.9310 H     1 <1>   0.0800 
 31 H        1.3680    -0.8500    -2.0930 H     1 <1>   0.0800 
 32 H       -0.6960     2.6190     0.9610 H     1 <1>   0.0800 
 33 H       -0.3940     3.6640    -1.8580 H     1 <1>   0.0800 
 34 H        2.0060     2.7480    -0.3090 H     1 <1>   0.0800 
 35 H        1.5710     2.7900     1.3900 H     1 <1>   0.0800 
 36 H       -2.3420     3.8790     0.1890 H     1 <1>   0.4000 
 37 H       -0.6390     5.5060     0.4870 H     1 <1>   0.0800 
 38 H        0.1640     5.7700    -1.0660 H     1 <1>   0.0800 
 39 H        3.8410     6.9930    -1.1250 H     1 <1>   0.1500 
 40 H        0.8430     6.9930     1.9080 H     1 <1>   0.1500 
 41 H        0.7290     9.4660     1.8030 H     1 <1>   0.1500 
 42 H        3.7710    10.5340    -1.3580 H     1 <1>   0.4500 
@<TRIPOS>BOND
  1   1   2  2   
  2   1   3  2   
  3   1   4  am  
  4   1   5  1   
  5   4   6  1   
  6   4   7  1   
  7   5   8  1   
  8   5  24  1   
  9   5  25  1   
 10   6  26  1   
 11   6  27  1   
 12   6  28  1   
 13   7  29  1   
 14   7  30  1   
 15   7  31  1   
 16   8   9  1   
 17   8  10  1   
 18   8  32  1   
 19   9  11  1   
 20   9  12  1   
 21   9  33  1   
 22  10  13  1   
 23  10  34  1   
 24  10  35  1   
 25  11  36  1   
 26  12  13  1   
 27  12  37  1   
 28  12  38  1   
 29  13  14  am  
 30  14  15  2   
 31  14  16  1   
 32  16  17  ar  
 33  16  18  ar  
 34  17  19  ar  
 35  17  39  1   
 36  18  20  ar  
 37  18  40  1   
 38  19  21  1   
 39  19  22  ar  
 40  20  22  ar  
 41  20  41  1   
 42  21  42  1   
 43  22  23  1   
@<TRIPOS>SUBSTRUCTURE
  1 ****  13 GROUP 4 **** **** 0

# MOE 2024.06 (io_trps.svl 2023.06)
