@<TRIPOS>MOLECULE
NONAME
57 59 1 0 0 
SMALL
USER_CHARGES


@<TRIPOS>ATOM
  1 O        0.0890    -0.2120    -0.7590 O.3   1 <1>  -0.5600 
  2 C        1.3720    -0.7730    -0.8980 C.3   1 <1>   0.2000 
  3 C        0.0260     1.1790    -0.8620 C.3   1 <1>   0.1200 
  4 C        2.3640    -0.1590     0.1280 C.3   1 <1>   0.5660 
  5 C        1.2650    -2.2930    -0.6970 C.3   1 <1>   0.1200 
  6 C        0.8710     1.8260     0.2500 C.3   1 <1>   0.3430 
  7 N        2.2900     1.3360     0.2210 N.4   1 <1>  -0.9590 
  8 C        3.8070    -0.5090    -0.2100 C.ar  1 <1>  -0.1430 
  9 O        1.1080    -2.5880     0.6550 O.3   1 <1>  -0.6800 
 10 C        3.0940     1.8400     1.3680 C.3   1 <1>   0.4870 
 11 C        4.5480    -1.2480     0.7010 C.ar  1 <1>  -0.1500 
 12 C        4.4060    -0.0920    -1.3940 C.ar  1 <1>  -0.1500 
 13 C        3.5070     3.2540     1.0550 C.ar  1 <1>  -0.1430 
 14 C        5.8740    -1.5550     0.4520 C.ar  1 <1>   0.0820 
 15 C        5.7350    -0.3890    -1.6450 C.ar  1 <1>  -0.1500 
 16 C        2.8230     4.3430     1.5430 C.ar  1 <1>   0.1600 
 17 C        4.5930     3.5100     0.2520 C.ar  1 <1>   0.1600 
 18 O        6.5180    -2.2900     1.3890 O.3   1 <1>  -0.3620 
 19 C        6.4810    -1.1020    -0.7230 C.ar  1 <1>   0.0820 
 20 N        3.1570     5.5670     1.2340 N.ar  1 <1>  -0.6200 
 21 N        4.9460     4.7260    -0.0700 N.ar  1 <1>  -0.6200 
 22 C        6.9800    -3.5650     0.9930 C.3   1 <1>   0.0400 
 23 O        7.7840    -1.3250    -1.0190 O.3   1 <1>  -0.3630 
 24 C        4.2130     5.7180     0.4350 C.ar  1 <1>   0.7200 
 25 C        8.7430    -0.7090    -0.1870 C.3   1 <1>   0.0400 
 26 N        4.5750     7.0050     0.0990 N.pl3 1 <1>  -0.8380 
 27 C        5.8980     7.3290    -0.5090 C.3   1 <1>   0.1290 
 28 C        3.7160     8.1830     0.4090 C.3   1 <1>   0.1290 
 29 H        1.6990    -0.5800    -1.9040 H     1 <1>   0.0800 
 30 H        0.3650     1.4770    -1.8390 H     1 <1>   0.0800 
 31 H       -1.0060     1.4670    -0.7560 H     1 <1>   0.0800 
 32 H        2.1250    -0.5770     1.0920 H     1 <1>   0.0800 
 33 H        2.1600    -2.7860    -1.0390 H     1 <1>   0.0800 
 34 H        0.4190    -2.6810    -1.2400 H     1 <1>   0.0800 
 35 H        0.4180     1.5840     1.1980 H     1 <1>   0.0800 
 36 H        0.8480     2.8980     0.1340 H     1 <1>   0.0800 
 37 H        2.7360     1.6920    -0.6310 H     1 <1>   0.4500 
 38 H        0.8020    -3.5130     0.7730 H     1 <1>   0.4000 
 39 H        2.5220     1.8010     2.2810 H     1 <1>   0.0800 
 40 H        3.9830     1.2440     1.5000 H     1 <1>   0.0800 
 41 H        4.1100    -1.6060     1.6180 H     1 <1>   0.1500 
 42 H        3.8630     0.4660    -2.1390 H     1 <1>   0.1500 
 43 H        6.2070    -0.0690    -2.5580 H     1 <1>   0.1500 
 44 H        1.9780     4.2190     2.2000 H     1 <1>   0.1500 
 45 H        5.1900     2.7050    -0.1450 H     1 <1>   0.1500 
 46 H        7.3500    -4.0740     1.8650 H     1 <1>   0.0800 
 47 H        7.7710    -3.4550     0.2740 H     1 <1>   0.0800 
 48 H        6.1610    -4.1160     0.5660 H     1 <1>   0.0800 
 49 H        9.7190    -0.9230    -0.5850 H     1 <1>   0.0800 
 50 H        8.6620    -1.1050     0.8090 H     1 <1>   0.0800 
 51 H        8.5720     0.3520    -0.1840 H     1 <1>   0.0800 
 52 H        6.2540     8.2740    -0.1380 H     1 <1>   0.0800 
 53 H        5.7980     7.3840    -1.5790 H     1 <1>   0.0800 
 54 H        6.6270     6.5770    -0.2640 H     1 <1>   0.0800 
 55 H        3.8530     8.9470    -0.3360 H     1 <1>   0.0800 
 56 H        3.9810     8.5780     1.3750 H     1 <1>   0.0800 
 57 H        2.6770     7.9040     0.4190 H     1 <1>   0.0800 
@<TRIPOS>BOND
  1   1   2  1   
  2   1   3  1   
  3   2   4  1   
  4   2   5  1   
  5   2  29  1   
  6   3   6  1   
  7   3  30  1   
  8   3  31  1   
  9   4   7  1   
 10   4   8  1   
 11   4  32  1   
 12   5   9  1   
 13   5  33  1   
 14   5  34  1   
 15   6   7  1   
 16   6  35  1   
 17   6  36  1   
 18   7  10  1   
 19   7  37  1   
 20   8  11  ar  
 21   8  12  ar  
 22   9  38  1   
 23  10  13  1   
 24  10  39  1   
 25  10  40  1   
 26  11  14  ar  
 27  11  41  1   
 28  12  15  ar  
 29  12  42  1   
 30  13  16  ar  
 31  13  17  ar  
 32  14  18  1   
 33  14  19  ar  
 34  15  19  ar  
 35  15  43  1   
 36  16  20  ar  
 37  16  44  1   
 38  17  21  ar  
 39  17  45  1   
 40  18  22  1   
 41  19  23  1   
 42  20  24  ar  
 43  21  24  ar  
 44  22  46  1   
 45  22  47  1   
 46  22  48  1   
 47  23  25  1   
 48  24  26  1   
 49  25  49  1   
 50  25  50  1   
 51  25  51  1   
 52  26  27  1   
 53  26  28  1   
 54  27  52  1   
 55  27  53  1   
 56  27  54  1   
 57  28  55  1   
 58  28  56  1   
 59  28  57  1   
@<TRIPOS>SUBSTRUCTURE
  1 ****  10 GROUP 4 **** **** 0

# MOE 2024.06 (io_trps.svl 2023.06)
