@<TRIPOS>MOLECULE
NONAME
48 49 1 0 0 
SMALL
USER_CHARGES


@<TRIPOS>ATOM
  1 S       -0.2930     0.0950     1.7080 S.o2  1 <1>   1.4470 
  2 O       -0.8220     1.1000     2.5980 O.2   1 <1>  -0.6500 
  3 O       -0.0860    -1.2460     2.2020 O.2   1 <1>  -0.6500 
  4 N       -1.4500     0.0190     0.4890 N.am  1 <1>  -0.9140 
  5 C        1.1860     0.7200     0.8650 C.ar  1 <1>  -0.0090 
  6 C       -1.5830    -1.1850    -0.3370 C.3   1 <1>   0.2760 
  7 C        2.4090     0.0700     0.9840 C.ar  1 <1>  -0.1500 
  8 C        1.1280     1.8610     0.0750 C.ar  1 <1>  -0.1500 
  9 C       -2.2310    -2.3670     0.3910 C.3   1 <1>  -0.0800 
 10 C       -0.2950    -1.7640    -0.9350 C.3   1 <1>   0.1200 
 11 C        3.5380     0.5330     0.3290 C.ar  1 <1>  -0.1430 
 12 C        2.2460     2.3400    -0.5860 C.ar  1 <1>  -0.1430 
 13 C       -1.2050    -3.4880     0.1960 C.3   1 <1>   0.1200 
 14 C       -3.5890    -2.7250    -0.2430 C.3   1 <1>  -0.0550 
 15 O       -0.5070    -3.1380    -0.9540 O.3   1 <1>  -0.5600 
 16 C        3.4500     1.6710    -0.4540 C.ar  1 <1>  -0.1500 
 17 C        4.8600    -0.1980     0.4740 C.3   1 <1>  -0.0970 
 18 C        2.1550     3.5900    -1.4410 C.3   1 <1>  -0.0970 
 19 S       -4.5700    -3.8550     0.7430 S.o2  1 <1>   1.3330 
 20 O       -3.9200    -5.1440     0.8140 O.2   1 <1>  -0.6500 
 21 O       -4.9270    -3.1600     1.9580 O.2   1 <1>  -0.6500 
 22 N       -5.9730    -4.0330    -0.1960 N.am  1 <1>  -0.8490 
 23 C       -5.8410    -5.0430    -1.2520 C.3   1 <1>   0.1160 
 24 C       -7.1540    -4.3240     0.6230 C.3   1 <1>   0.1160 
 25 H       -2.3240     0.1780     0.9870 H     1 <1>   0.4200 
 26 H       -2.2050    -0.9150    -1.1740 H     1 <1>   0.0800 
 27 H        2.4750    -0.8120     1.5980 H     1 <1>   0.1500 
 28 H        0.1880     2.3790    -0.0190 H     1 <1>   0.1500 
 29 H       -2.3660    -2.1750     1.4410 H     1 <1>   0.0800 
 30 H        0.5730    -1.5860    -0.3310 H     1 <1>   0.0800 
 31 H       -0.1250    -1.4250    -1.9420 H     1 <1>   0.0800 
 32 H       -1.6380    -4.4630     0.0600 H     1 <1>   0.0800 
 33 H       -0.5040    -3.5180     1.0150 H     1 <1>   0.0800 
 34 H       -3.4250    -3.1420    -1.2180 H     1 <1>   0.0800 
 35 H       -4.1600    -1.8250    -0.3670 H     1 <1>   0.0800 
 36 H        4.3240     2.0390    -0.9620 H     1 <1>   0.1500 
 37 H        5.4550    -0.0790    -0.4140 H     1 <1>   0.0800 
 38 H        4.6950    -1.2480     0.6330 H     1 <1>   0.0800 
 39 H        5.4050     0.1990     1.3120 H     1 <1>   0.0800 
 40 H        2.8460     3.5350    -2.2630 H     1 <1>   0.0800 
 41 H        2.3910     4.4550    -0.8470 H     1 <1>   0.0800 
 42 H        1.1630     3.7040    -1.8400 H     1 <1>   0.0800 
 43 H       -6.7220    -5.0470    -1.8720 H     1 <1>   0.0800 
 44 H       -5.7110    -6.0230    -0.8230 H     1 <1>   0.0800 
 45 H       -4.9900    -4.8230    -1.8740 H     1 <1>   0.0800 
 46 H       -8.0280    -4.4150     0.0000 H     1 <1>   0.0800 
 47 H       -7.3250    -3.5240     1.3240 H     1 <1>   0.0800 
 48 H       -7.0130    -5.2400     1.1730 H     1 <1>   0.0800 
@<TRIPOS>BOND
  1   1   2  2   
  2   1   3  2   
  3   1   4  am  
  4   1   5  1   
  5   4   6  1   
  6   4  25  1   
  7   5   7  ar  
  8   5   8  ar  
  9   6   9  1   
 10   6  10  1   
 11   6  26  1   
 12   7  11  ar  
 13   7  27  1   
 14   8  12  ar  
 15   8  28  1   
 16   9  13  1   
 17   9  14  1   
 18   9  29  1   
 19  10  15  1   
 20  10  30  1   
 21  10  31  1   
 22  11  16  ar  
 23  11  17  1   
 24  12  16  ar  
 25  12  18  1   
 26  13  15  1   
 27  13  32  1   
 28  13  33  1   
 29  14  19  1   
 30  14  34  1   
 31  14  35  1   
 32  16  36  1   
 33  17  37  1   
 34  17  38  1   
 35  17  39  1   
 36  18  40  1   
 37  18  41  1   
 38  18  42  1   
 39  19  20  2   
 40  19  21  2   
 41  19  22  am  
 42  22  23  1   
 43  22  24  1   
 44  23  43  1   
 45  23  44  1   
 46  23  45  1   
 47  24  46  1   
 48  24  47  1   
 49  24  48  1   
@<TRIPOS>SUBSTRUCTURE
  1 ****   6 GROUP 4 **** **** 0

# MOE 2024.06 (io_trps.svl 2023.06)
