@<TRIPOS>MOLECULE
NONAME
52 55 1 0 0 
SMALL
USER_CHARGES


@<TRIPOS>ATOM
  1 O       -1.3000     0.6530     1.7120 O.2   1 <1>  -0.5700 
  2 C       -1.9160     0.9640     0.7090 C.2   1 <1>   0.7160 
  3 N       -2.8110     0.0580     0.1780 N.am  1 <1>  -0.6600 
  4 C       -1.6780     2.2420     0.1180 C.2   1 <1>  -0.0860 
  5 C       -3.6370     0.3210    -1.0400 C.3   1 <1>   0.1400 
  6 C       -3.1320    -1.2390     0.8480 C.3   1 <1>   0.1400 
  7 C       -2.6250     3.2590    -0.0470 C.2   1 <1>   0.3720 
  8 C       -0.5400     2.7790    -0.3980 C.2   1 <1>   0.0870 
  9 C       -3.7140    -0.9250    -1.9450 C.3   1 <1>   0.2000 
 10 C       -3.2310    -2.3860    -0.1770 C.3   1 <1>   0.2000 
 11 N       -2.1050     4.2840    -0.6250 N.2   1 <1>  -0.4100 
 12 N       -3.9690     3.1860     0.3480 N.pl3 1 <1>  -0.8210 
 13 O       -0.8520     3.9780    -0.8210 O.3   1 <1>  -0.0190 
 14 C        0.8110     2.2880    -0.5510 C.ar  1 <1>   0.0530 
 15 O       -4.1090    -2.0400    -1.2060 O.3   1 <1>  -0.5600 
 16 C       -4.7320    -0.7520    -3.0690 C.3   1 <1>  -0.2400 
 17 C       -3.7660    -3.6710     0.4510 C.3   1 <1>  -0.2400 
 18 C       -4.8800     4.2150    -0.2440 C.3   1 <1>   0.2090 
 19 C       -4.1800     3.1010     1.8260 C.3   1 <1>   0.2090 
 20 C        1.1200     0.9260    -0.5280 C.ar  1 <1>  -0.1500 
 21 C        1.8730     3.1760    -0.7370 C.ar  1 <1>  -0.1500 
 22 C       -6.3400     3.9610     0.1760 C.3   1 <1>   0.1200 
 23 C       -5.6690     2.8930     2.1550 C.3   1 <1>   0.1200 
 24 C        2.4180     0.4750    -0.6800 C.ar  1 <1>  -0.1500 
 25 C        3.1730     2.7320    -0.8910 C.ar  1 <1>  -0.1500 
 26 O       -6.4570     3.8940     1.5700 O.3   1 <1>  -0.5600 
 27 C        3.4500     1.3780    -0.8630 C.ar  1 <1>  -0.1500 
 28 H       -4.6300     0.6010    -0.7340 H     1 <1>   0.0800 
 29 H       -3.2270     1.1340    -1.6110 H     1 <1>   0.0800 
 30 H       -2.3810    -1.4860     1.5770 H     1 <1>   0.0800 
 31 H       -4.0720    -1.1420     1.3620 H     1 <1>   0.0800 
 32 H       -2.7440    -1.1280    -2.3690 H     1 <1>   0.0800 
 33 H       -2.2620    -2.5750    -0.6070 H     1 <1>   0.0800 
 34 H       -5.7130    -0.5850    -2.6610 H     1 <1>   0.0800 
 35 H       -4.7490    -1.6350    -3.6830 H     1 <1>   0.0800 
 36 H       -4.4640     0.0860    -3.6850 H     1 <1>   0.0800 
 37 H       -4.7500    -3.5080     0.8530 H     1 <1>   0.0800 
 38 H       -3.1160    -3.9930     1.2440 H     1 <1>   0.0800 
 39 H       -3.8110    -4.4470    -0.2910 H     1 <1>   0.0800 
 40 H       -4.5830     5.1970     0.0840 H     1 <1>   0.0800 
 41 H       -4.8060     4.1840    -1.3170 H     1 <1>   0.0800 
 42 H       -3.6160     2.2830     2.2360 H     1 <1>   0.0800 
 43 H       -3.8360     4.0090     2.2920 H     1 <1>   0.0800 
 44 H        0.3410     0.2000    -0.3910 H     1 <1>   0.1500 
 45 H        1.6790     4.2340    -0.7600 H     1 <1>   0.1500 
 46 H       -6.6940     3.0360    -0.2440 H     1 <1>   0.0800 
 47 H       -6.9690     4.7620    -0.1680 H     1 <1>   0.0800 
 48 H       -5.8230     2.9340     3.2180 H     1 <1>   0.0800 
 49 H       -6.0010     1.9360     1.7910 H     1 <1>   0.0800 
 50 H        2.6280    -0.5800    -0.6550 H     1 <1>   0.1500 
 51 H        3.9720     3.4400    -1.0320 H     1 <1>   0.1500 
 52 H        4.4610     1.0290    -0.9800 H     1 <1>   0.1500 
@<TRIPOS>BOND
  1   1   2  2   
  2   2   3  am  
  3   2   4  1   
  4   3   5  1   
  5   3   6  1   
  6   4   7  1   
  7   4   8  2   
  8   5   9  1   
  9   5  28  1   
 10   5  29  1   
 11   6  10  1   
 12   6  30  1   
 13   6  31  1   
 14   7  11  2   
 15   7  12  1   
 16   8  13  1   
 17   8  14  1   
 18   9  15  1   
 19   9  16  1   
 20   9  32  1   
 21  10  15  1   
 22  10  17  1   
 23  10  33  1   
 24  11  13  1   
 25  12  18  1   
 26  12  19  1   
 27  14  20  ar  
 28  14  21  ar  
 29  16  34  1   
 30  16  35  1   
 31  16  36  1   
 32  17  37  1   
 33  17  38  1   
 34  17  39  1   
 35  18  22  1   
 36  18  40  1   
 37  18  41  1   
 38  19  23  1   
 39  19  42  1   
 40  19  43  1   
 41  20  24  ar  
 42  20  44  1   
 43  21  25  ar  
 44  21  45  1   
 45  22  26  1   
 46  22  46  1   
 47  22  47  1   
 48  23  26  1   
 49  23  48  1   
 50  23  49  1   
 51  24  27  ar  
 52  24  50  1   
 53  25  27  ar  
 54  25  51  1   
 55  27  52  1   
@<TRIPOS>SUBSTRUCTURE
  1 ****   4 GROUP 4 **** **** 0

# MOE 2024.06 (io_trps.svl 2023.06)
