@<TRIPOS>MOLECULE
F1900-9642
24 24 1 0 0 
SMALL
USER_CHARGES


@<TRIPOS>ATOM
  1 O       -0.1070     0.6190     0.5690 O.2   1 <1>  -0.5700 
  2 C       -1.2380     1.0420     0.6060 C.2   1 <1>   0.5690 
  3 N       -2.3130     0.2030     0.7230 N.am  1 <1>  -0.6600 
  4 C       -1.4290     2.5380     0.5010 C.3   1 <1>  -0.0990 
  5 C       -3.7310     0.6640     0.6490 C.3   1 <1>   0.1400 
  6 C       -2.1080    -1.2620     0.9100 C.3   1 <1>   0.1400 
  7 C       -2.1870     2.9250    -0.7660 C.3   1 <1>   0.1200 
  8 C       -4.0310     1.4310    -0.6470 C.3   1 <1>   0.1200 
  9 C       -1.9990    -1.9560    -0.4500 C.3   1 <1>   0.1200 
 10 O       -3.5560     2.7430    -0.5850 O.3   1 <1>  -0.5600 
 11 O       -1.8270    -3.3200    -0.2590 O.3   1 <1>  -0.6800 
 12 H       -0.4560     2.9930     0.4670 H     1 <1>   0.0800 
 13 H       -1.9340     2.9130     1.3720 H     1 <1>   0.0800 
 14 H       -3.9610     1.2840     1.4980 H     1 <1>   0.0800 
 15 H       -4.3810    -0.1930     0.6850 H     1 <1>   0.0800 
 16 H       -2.9270    -1.6780     1.4700 H     1 <1>   0.0800 
 17 H       -1.2000    -1.4240     1.4660 H     1 <1>   0.0800 
 18 H       -1.8540     2.3610    -1.6210 H     1 <1>   0.0800 
 19 H       -2.0380     3.9720    -0.9660 H     1 <1>   0.0800 
 20 H       -5.0960     1.4990    -0.7740 H     1 <1>   0.0800 
 21 H       -3.6170     0.9320    -1.5070 H     1 <1>   0.0800 
 22 H       -1.1550    -1.5820    -1.0030 H     1 <1>   0.0800 
 23 H       -2.9010    -1.8160    -1.0180 H     1 <1>   0.0800 
 24 H       -0.9380    -3.5030     0.1050 H     1 <1>   0.4000 
@<TRIPOS>BOND
  1   1   2  2   
  2   2   3  am  
  3   2   4  1   
  4   3   5  1   
  5   3   6  1   
  6   4   7  1   
  7   4  12  1   
  8   4  13  1   
  9   5   8  1   
 10   5  14  1   
 11   5  15  1   
 12   6   9  1   
 13   6  16  1   
 14   6  17  1   
 15   7  10  1   
 16   7  18  1   
 17   7  19  1   
 18   8  10  1   
 19   8  20  1   
 20   8  21  1   
 21   9  11  1   
 22   9  22  1   
 23   9  23  1   
 24  11  24  1   
@<TRIPOS>SUBSTRUCTURE
  1 ****   3 GROUP 4 **** **** 0

# MOE 2024.06 (io_trps.svl 2023.06)
