@<TRIPOS>MOLECULE
NONAME
38 40 1 0 0 
SMALL
USER_CHARGES


@<TRIPOS>ATOM
  1 O       -0.4270     0.1800     0.1910 O.2   1 <1>  -0.5700 
  2 C       -1.5090     0.7310     0.2600 C.2   1 <1>   0.7800 
  3 O       -1.5830     2.0610     0.1690 O.3   1 <1>  -0.4300 
  4 N       -2.6770     0.0380     0.4200 N.am  1 <1>  -0.6600 
  5 C       -0.4180     2.8460     0.0100 C.3   1 <1>   0.0400 
  6 C       -2.7140    -1.4530     0.5160 C.3   1 <1>   0.1400 
  7 C       -4.0330     0.6640     0.3860 C.3   1 <1>   0.1400 
  8 C       -3.6910    -2.0470    -0.5160 C.3   1 <1>   0.3440 
  9 C       -4.9400    -0.0460    -0.6460 C.3   1 <1>   0.2950 
 10 O       -4.9470    -1.4250    -0.4100 O.3   1 <1>  -0.5600 
 11 C       -3.8450    -3.5500    -0.3050 C.ar  1 <1>  -0.1440 
 12 C       -6.4090     0.4130    -0.6360 C.3   1 <1>  -0.1950 
 13 C       -3.0090    -4.4270    -0.9830 C.ar  1 <1>  -0.1500 
 14 C       -4.7990    -4.0670     0.5620 C.ar  1 <1>  -0.1500 
 15 C       -6.8440     1.8030    -0.2810 C.3   1 <1>  -0.2000 
 16 C       -7.2010     0.6480     0.6130 C.3   1 <1>  -0.2000 
 17 C       -3.1220    -5.7940    -0.7960 C.ar  1 <1>  -0.1500 
 18 C       -4.9130    -5.4330     0.7500 C.ar  1 <1>  -0.1500 
 19 C       -4.0740    -6.2980     0.0710 C.ar  1 <1>  -0.1500 
 20 H       -0.7080     3.8800    -0.0370 H     1 <1>   0.0800 
 21 H        0.0750     2.5560    -0.9020 H     1 <1>   0.0800 
 22 H        0.2310     2.6800     0.8530 H     1 <1>   0.0800 
 23 H       -1.7350    -1.8680     0.3520 H     1 <1>   0.0800 
 24 H       -3.0300    -1.7370     1.5030 H     1 <1>   0.0800 
 25 H       -4.4720     0.5900     1.3640 H     1 <1>   0.0800 
 26 H       -3.9610     1.7060     0.1320 H     1 <1>   0.0800 
 27 H       -3.3180    -1.8670    -1.5090 H     1 <1>   0.0800 
 28 H       -4.5400     0.1220    -1.6310 H     1 <1>   0.0800 
 29 H       -6.9410    -0.0490    -1.4500 H     1 <1>   0.1000 
 30 H       -2.2620    -4.0500    -1.6610 H     1 <1>   0.1500 
 31 H       -5.4590    -3.4020     1.0930 H     1 <1>   0.1500 
 32 H       -6.1410     2.5270     0.0910 H     1 <1>   0.1000 
 33 H       -7.6260     2.2610    -0.8630 H     1 <1>   0.1000 
 34 H       -8.2200     0.3020     0.6380 H     1 <1>   0.1000 
 35 H       -6.7210     0.5590     1.5720 H     1 <1>   0.1000 
 36 H       -2.4690    -6.4650    -1.3260 H     1 <1>   0.1500 
 37 H       -5.6570    -5.8210     1.4240 H     1 <1>   0.1500 
 38 H       -4.1630    -7.3610     0.2160 H     1 <1>   0.1500 
@<TRIPOS>BOND
  1   1   2  2   
  2   2   3  1   
  3   2   4  am  
  4   3   5  1   
  5   4   6  1   
  6   4   7  1   
  7   5  20  1   
  8   5  21  1   
  9   5  22  1   
 10   6   8  1   
 11   6  23  1   
 12   6  24  1   
 13   7   9  1   
 14   7  25  1   
 15   7  26  1   
 16   8  10  1   
 17   8  11  1   
 18   8  27  1   
 19   9  10  1   
 20   9  12  1   
 21   9  28  1   
 22  11  13  ar  
 23  11  14  ar  
 24  12  15  1   
 25  12  16  1   
 26  12  29  1   
 27  13  17  ar  
 28  13  30  1   
 29  14  18  ar  
 30  14  31  1   
 31  15  16  1   
 32  15  32  1   
 33  15  33  1   
 34  16  34  1   
 35  16  35  1   
 36  17  19  ar  
 37  17  36  1   
 38  18  19  ar  
 39  18  37  1   
 40  19  38  1   
@<TRIPOS>SUBSTRUCTURE
  1 ****   8 GROUP 4 **** **** 0

# MOE 2024.06 (io_trps.svl 2023.06)
