@<TRIPOS>MOLECULE
NONAME
54 57 1 0 0 
SMALL
USER_CHARGES


@<TRIPOS>ATOM
  1 O       -0.0020     1.3370     2.0390 O.co2 1 <1>  -0.9000 
  2 C       -0.7300     0.5810     1.3700 C.2   1 <1>   0.9790 
  3 O       -0.2660    -0.5090     0.9860 O.co2 1 <1>  -0.9000 
  4 C       -2.0960     0.9140     1.1040 C.ar  1 <1>  -0.1790 
  5 C       -2.5150     1.7320     0.0620 C.ar  1 <1>   0.1000 
  6 C       -3.0510     0.3670     1.9730 C.ar  1 <1>   0.1600 
  7 N       -1.6500     2.3330    -0.8400 N.pl3 1 <1>  -0.8380 
  8 C       -3.9040     1.9390    -0.0280 C.ar  1 <1>   0.0000 
  9 N       -4.3480     0.5530     1.9180 N.ar  1 <1>  -0.5670 
 10 C       -1.2590     3.7520    -0.6060 C.3   1 <1>   0.2090 
 11 C       -0.7780     1.4900    -1.7120 C.3   1 <1>   0.2090 
 12 C       -4.7320     1.3490     0.9000 C.ar  1 <1>   0.1050 
 13 C       -4.7960     2.6320    -0.8740 C.2   1 <1>   0.1080 
 14 C        0.2380     3.9160    -0.3120 C.3   1 <1>   0.1000 
 15 C        0.7180     1.7260    -1.4560 C.3   1 <1>  -0.1600 
 16 N       -5.9990     1.7220     0.5750 N.pl3 1 <1>   0.3140 
 17 N       -6.0330     2.5140    -0.5230 N.2   1 <1>  -0.7070 
 18 C       -4.3840     3.4340    -2.0880 C.3   1 <1>  -0.0590 
 19 C        0.5760     5.3980    -0.2440 C.2   1 <1>   0.2980 
 20 C        1.0880     3.2110    -1.3830 C.3   1 <1>  -0.1600 
 21 C       -7.2160     1.3220     1.2880 C.3   1 <1>   0.0160 
 22 O        0.3960     6.1340    -1.3150 O.3   1 <1>  -0.0190 
 23 N        1.0280     6.0210     0.7700 N.2   1 <1>  -0.5650 
 24 N        0.7680     7.3220    -0.9510 N.2   1 <1>  -0.4100 
 25 C        1.1380     7.2400     0.2650 C.2   1 <1>   0.3350 
 26 C        1.6580     8.3980     1.0970 C.3   1 <1>   0.0210 
 27 C        3.1650     8.6550     0.8950 C.3   1 <1>  -0.0800 
 28 C        4.0190     7.4660     1.3610 C.3   1 <1>  -0.2400 
 29 C        3.5960     9.9220     1.6450 C.3   1 <1>  -0.2400 
 30 H       -2.6730    -0.2650     2.7600 H     1 <1>   0.1500 
 31 H       -1.8220     4.1430     0.2250 H     1 <1>   0.0800 
 32 H       -1.5160     4.3200    -1.4810 H     1 <1>   0.0800 
 33 H       -1.0040     1.7190    -2.7380 H     1 <1>   0.0800 
 34 H       -1.0040     0.4490    -1.5460 H     1 <1>   0.0800 
 35 H        0.4420     3.4760     0.6490 H     1 <1>   0.0800 
 36 H        1.2840     1.2440    -2.2320 H     1 <1>   0.0800 
 37 H        0.9930     1.2500    -0.5310 H     1 <1>   0.0800 
 38 H       -3.6540     2.8860    -2.6540 H     1 <1>   0.0800 
 39 H       -3.9650     4.3700    -1.7730 H     1 <1>   0.0800 
 40 H       -5.2390     3.6220    -2.7090 H     1 <1>   0.0800 
 41 H        2.1300     3.3080    -1.1310 H     1 <1>   0.0800 
 42 H        0.9240     3.6680    -2.3430 H     1 <1>   0.0800 
 43 H       -7.1160     1.5880     2.3230 H     1 <1>   0.0800 
 44 H       -7.3370     0.2590     1.1970 H     1 <1>   0.0800 
 45 H       -8.0600     1.8260     0.8580 H     1 <1>   0.0800 
 46 H        1.4530     8.2010     2.1340 H     1 <1>   0.0800 
 47 H        1.1070     9.2770     0.8160 H     1 <1>   0.0800 
 48 H        3.3420     8.8080    -0.1580 H     1 <1>   0.0800 
 49 H        3.8370     7.2520     2.4000 H     1 <1>   0.0800 
 50 H        5.0640     7.6820     1.2310 H     1 <1>   0.0800 
 51 H        3.7880     6.5860     0.7880 H     1 <1>   0.0800 
 52 H        3.4380     9.8100     2.7030 H     1 <1>   0.0800 
 53 H        3.0340    10.7720     1.3000 H     1 <1>   0.0800 
 54 H        4.6400    10.1190     1.4740 H     1 <1>   0.0800 
@<TRIPOS>BOND
  1   1   2  ar  
  2   2   3  ar  
  3   2   4  1   
  4   4   5  ar  
  5   4   6  ar  
  6   5   7  1   
  7   5   8  ar  
  8   6   9  ar  
  9   6  30  1   
 10   7  10  1   
 11   7  11  1   
 12   8  12  ar  
 13   8  13  1   
 14   9  12  ar  
 15  10  14  1   
 16  10  31  1   
 17  10  32  1   
 18  11  15  1   
 19  11  33  1   
 20  11  34  1   
 21  12  16  1   
 22  13  17  2   
 23  13  18  1   
 24  14  19  1   
 25  14  20  1   
 26  14  35  1   
 27  15  20  1   
 28  15  36  1   
 29  15  37  1   
 30  16  17  1   
 31  16  21  1   
 32  18  38  1   
 33  18  39  1   
 34  18  40  1   
 35  19  22  1   
 36  19  23  2   
 37  20  41  1   
 38  20  42  1   
 39  21  43  1   
 40  21  44  1   
 41  21  45  1   
 42  22  24  1   
 43  23  25  1   
 44  24  25  2   
 45  25  26  1   
 46  26  27  1   
 47  26  46  1   
 48  26  47  1   
 49  27  28  1   
 50  27  29  1   
 51  27  48  1   
 52  28  49  1   
 53  28  50  1   
 54  28  51  1   
 55  29  52  1   
 56  29  53  1   
 57  29  54  1   
@<TRIPOS>SUBSTRUCTURE
  1 ****  10 GROUP 4 **** **** 0

# MOE 2024.06 (io_trps.svl 2023.06)
