@<TRIPOS>MOLECULE
NONAME
52 55 1 0 0 
SMALL
USER_CHARGES


@<TRIPOS>ATOM
  1 O        0.2430    -0.6560     1.4720 O.2   1 <1>  -0.5700 
  2 C        0.9200    -0.9610     0.5090 C.2   1 <1>   0.5440 
  3 N        1.9670    -0.1450     0.1290 N.am  1 <1>  -0.6600 
  4 C        0.6020    -2.1780    -0.2090 C.ar  1 <1>   0.0860 
  5 C        3.0570    -0.5720    -0.7930 C.3   1 <1>   0.1400 
  6 C        2.1960     1.1830     0.7680 C.3   1 <1>   0.1400 
  7 C        0.6100    -3.4190     0.3980 C.ar  1 <1>  -0.1500 
  8 C        0.2640    -2.1840    -1.5550 C.ar  1 <1>  -0.1500 
  9 C        4.3900    -0.6010    -0.0370 C.3   1 <1>  -0.1600 
 10 C        3.5190     1.1640     1.5400 C.3   1 <1>  -0.1600 
 11 C        0.3160    -4.5690    -0.3200 C.ar  1 <1>   0.4100 
 12 C       -0.0160    -3.3750    -2.1910 C.ar  1 <1>   0.1600 
 13 C        4.6910     0.7420     0.6420 C.3   1 <1>  -0.1600 
 14 N        0.0070    -4.5620    -1.6100 N.ar  1 <1>  -0.6200 
 15 N        0.3530    -5.7780     0.3230 N.pl3 1 <1>  -0.8690 
 16 C       -0.5310    -6.8900    -0.1020 C.3   1 <1>   0.5280 
 17 C       -1.8820    -6.7640     0.6370 C.ar  1 <1>   0.1670 
 18 C        0.1310    -8.2530     0.2030 C.3   1 <1>  -0.1950 
 19 N       -1.8120    -6.6150     1.9630 N.ar  1 <1>  -0.6200 
 20 C       -3.0900    -6.8010    -0.0670 C.ar  1 <1>  -0.1430 
 21 C        0.9950    -8.5210     1.3990 C.3   1 <1>  -0.2000 
 22 C        1.5980    -8.5070     0.0220 C.3   1 <1>  -0.2000 
 23 C       -2.9620    -6.5040     2.6030 C.ar  1 <1>   0.1600 
 24 C       -4.2760    -6.6850     0.6300 C.ar  1 <1>  -0.1500 
 25 C       -3.1600    -6.9550    -1.5830 C.3   1 <1>  -0.0970 
 26 C       -4.2020    -6.5340     1.9960 C.ar  1 <1>  -0.1500 
 27 H        3.1170     0.1270    -1.6100 H     1 <1>   0.0800 
 28 H        2.8640    -1.5480    -1.1990 H     1 <1>   0.0800 
 29 H        1.3900     1.4300     1.4390 H     1 <1>   0.0800 
 30 H        2.2300     1.9380     0.0020 H     1 <1>   0.0800 
 31 H        0.8480    -3.4950     1.4420 H     1 <1>   0.1500 
 32 H        0.2210    -1.2550    -2.0940 H     1 <1>   0.1500 
 33 H        5.1830    -0.8450    -0.7220 H     1 <1>   0.0800 
 34 H        4.3490    -1.3800     0.7050 H     1 <1>   0.0800 
 35 H        3.4250     0.4780     2.3640 H     1 <1>   0.0800 
 36 H        3.7070     2.1410     1.9470 H     1 <1>   0.0800 
 37 H       -0.2740    -3.3550    -3.2360 H     1 <1>   0.1500 
 38 H        4.8520     1.4950    -0.1110 H     1 <1>   0.0800 
 39 H        5.5890     0.6610     1.2300 H     1 <1>   0.0800 
 40 H        0.2230    -5.7080     1.3360 H     1 <1>   0.4000 
 41 H       -0.6730    -6.8460    -1.1640 H     1 <1>   0.0800 
 42 H       -0.5280    -9.0530    -0.0840 H     1 <1>   0.1000 
 43 H        0.8790    -9.4600     1.9120 H     1 <1>   0.1000 
 44 H        1.2240    -7.7130     2.0720 H     1 <1>   0.1000 
 45 H        2.2400    -7.6850    -0.2470 H     1 <1>   0.1000 
 46 H        1.9130    -9.4380    -0.4180 H     1 <1>   0.1000 
 47 H       -2.9130    -6.3810     3.6710 H     1 <1>   0.1500 
 48 H       -5.2310    -6.7080     0.1350 H     1 <1>   0.1500 
 49 H       -2.6810    -7.8680    -1.8880 H     1 <1>   0.0800 
 50 H       -2.6730    -6.1220    -2.0590 H     1 <1>   0.0800 
 51 H       -4.1800    -6.9830    -1.9220 H     1 <1>   0.0800 
 52 H       -5.0950    -6.4380     2.5860 H     1 <1>   0.1500 
@<TRIPOS>BOND
  1   1   2  2   
  2   2   3  am  
  3   2   4  1   
  4   3   5  1   
  5   3   6  1   
  6   4   7  ar  
  7   4   8  ar  
  8   5   9  1   
  9   5  27  1   
 10   5  28  1   
 11   6  10  1   
 12   6  29  1   
 13   6  30  1   
 14   7  11  ar  
 15   7  31  1   
 16   8  12  ar  
 17   8  32  1   
 18   9  13  1   
 19   9  33  1   
 20   9  34  1   
 21  10  13  1   
 22  10  35  1   
 23  10  36  1   
 24  11  14  ar  
 25  11  15  1   
 26  12  14  ar  
 27  12  37  1   
 28  13  38  1   
 29  13  39  1   
 30  15  16  1   
 31  15  40  1   
 32  16  17  1   
 33  16  18  1   
 34  16  41  1   
 35  17  19  ar  
 36  17  20  ar  
 37  18  21  1   
 38  18  22  1   
 39  18  42  1   
 40  19  23  ar  
 41  20  24  ar  
 42  20  25  1   
 43  21  22  1   
 44  21  43  1   
 45  21  44  1   
 46  22  45  1   
 47  22  46  1   
 48  23  26  ar  
 49  23  47  1   
 50  24  26  ar  
 51  24  48  1   
 52  25  49  1   
 53  25  50  1   
 54  25  51  1   
 55  26  52  1   
@<TRIPOS>SUBSTRUCTURE
  1 ****   7 GROUP 4 **** **** 0

# MOE 2024.06 (io_trps.svl 2023.06)
