@<TRIPOS>MOLECULE
NONAME
50 53 1 0 0 
SMALL
USER_CHARGES


@<TRIPOS>ATOM
  1 O        0.8380    -0.1360    -2.0880 O.2   1 <1>  -0.5700 
  2 C        1.2700    -0.7220    -1.1220 C.2   1 <1>   0.5690 
  3 N        1.8940    -0.0830    -0.0550 N.am  1 <1>  -0.4770 
  4 C        1.1120    -2.2540    -1.1590 C.3   1 <1>   0.1710 
  5 C        2.1560     1.3200     0.0380 C.ar  1 <1>   0.1170 
  6 C        2.5450    -0.9440     0.9880 C.3   1 <1>   0.1400 
  7 N        0.2530    -2.8390    -0.0910 N.3   1 <1>  -0.8100 
  8 C        3.2320     1.7810     0.8120 C.ar  1 <1>   0.0820 
  9 C        1.3880     2.2870    -0.6100 C.ar  1 <1>  -0.1500 
 10 C        3.2180    -0.1460     2.1110 C.3   1 <1>   0.1200 
 11 C       -1.1090    -2.2760    -0.1150 C.3   1 <1>   0.1100 
 12 C        0.0980    -4.3010    -0.2340 C.3   1 <1>   0.1100 
 13 O        3.9560     0.9240     1.5710 O.3   1 <1>  -0.3630 
 14 C        3.5710     3.1220     0.8630 C.ar  1 <1>  -0.1500 
 15 C        1.7130     3.6320    -0.5480 C.ar  1 <1>  -0.1500 
 16 C       -1.9620    -3.3260     0.5850 C.3   1 <1>   0.2000 
 17 C       -1.3830    -4.6190     0.0170 C.3   1 <1>  -0.0800 
 18 C        2.8120     4.0530     0.1780 C.ar  1 <1>  -0.1500 
 19 O       -1.6800    -3.2450     1.9370 O.3   1 <1>  -0.6800 
 20 C       -1.6150    -5.8860     0.8610 C.3   1 <1>   0.0210 
 21 C       -0.9650    -7.1010     0.2240 C.2   1 <1>   0.1080 
 22 N       -1.1810    -7.4630    -1.0040 N.2   1 <1>  -0.7070 
 23 C       -0.0720    -7.9490     0.8710 C.2   1 <1>  -0.1500 
 24 N       -0.4290    -8.5670    -1.1710 N.pl3 1 <1>   0.3000 
 25 C        0.2550    -8.8800    -0.0500 C.2   1 <1>  -0.3320 
 26 C        1.1890   -10.0690     0.0750 C.3   1 <1>  -0.0600 
 27 H        2.0890    -2.6970    -1.1070 H     1 <1>   0.0800 
 28 H        0.6990    -2.5140    -2.1190 H     1 <1>   0.0800 
 29 H        1.8110    -1.5880     1.4360 H     1 <1>   0.0800 
 30 H        3.2910    -1.5580     0.5180 H     1 <1>   0.0800 
 31 H        0.5220     2.0050    -1.1760 H     1 <1>   0.1500 
 32 H        3.8900    -0.7690     2.6730 H     1 <1>   0.0800 
 33 H        2.4780     0.2630     2.7760 H     1 <1>   0.0800 
 34 H       -1.1560    -1.3220     0.3820 H     1 <1>   0.0800 
 35 H       -1.4480    -2.1630    -1.1320 H     1 <1>   0.0800 
 36 H        0.3770    -4.6400    -1.2190 H     1 <1>   0.0800 
 37 H        0.7260    -4.7920     0.4900 H     1 <1>   0.0800 
 38 H        4.4180     3.4310     1.4470 H     1 <1>   0.1500 
 39 H        1.1080     4.3520    -1.0720 H     1 <1>   0.1500 
 40 H       -3.0210    -3.2110     0.4320 H     1 <1>   0.0800 
 41 H       -1.8370    -4.7810    -0.9450 H     1 <1>   0.0800 
 42 H        3.0700     5.0960     0.2170 H     1 <1>   0.1500 
 43 H       -0.7090    -3.1260     2.0000 H     1 <1>   0.4000 
 44 H       -2.6710    -6.0680     0.9500 H     1 <1>   0.0800 
 45 H       -1.2170    -5.7580     1.8510 H     1 <1>   0.0800 
 46 H        0.2640    -7.8590     1.8880 H     1 <1>   0.1500 
 47 H       -0.4080    -9.0860    -2.0570 H     1 <1>   0.2700 
 48 H        1.6130   -10.1040     1.0630 H     1 <1>   0.0800 
 49 H        1.9910    -9.9910    -0.6380 H     1 <1>   0.0800 
 50 H        0.6520   -10.9840    -0.1000 H     1 <1>   0.0800 
@<TRIPOS>BOND
  1   1   2  2   
  2   2   3  am  
  3   2   4  1   
  4   3   5  1   
  5   3   6  1   
  6   4   7  1   
  7   4  27  1   
  8   4  28  1   
  9   5   8  ar  
 10   5   9  ar  
 11   6  10  1   
 12   6  29  1   
 13   6  30  1   
 14   7  11  1   
 15   7  12  1   
 16   8  13  1   
 17   8  14  ar  
 18   9  15  ar  
 19   9  31  1   
 20  10  13  1   
 21  10  32  1   
 22  10  33  1   
 23  11  16  1   
 24  11  34  1   
 25  11  35  1   
 26  12  17  1   
 27  12  36  1   
 28  12  37  1   
 29  14  18  ar  
 30  14  38  1   
 31  15  18  ar  
 32  15  39  1   
 33  16  17  1   
 34  16  19  1   
 35  16  40  1   
 36  17  20  1   
 37  17  41  1   
 38  18  42  1   
 39  19  43  1   
 40  20  21  1   
 41  20  44  1   
 42  20  45  1   
 43  21  22  2   
 44  21  23  1   
 45  22  24  1   
 46  23  25  2   
 47  23  46  1   
 48  24  25  1   
 49  24  47  1   
 50  25  26  1   
 51  26  48  1   
 52  26  49  1   
 53  26  50  1   
@<TRIPOS>SUBSTRUCTURE
  1 ****   7 GROUP 4 **** **** 0

# MOE 2024.06 (io_trps.svl 2023.06)
