@<TRIPOS>MOLECULE
NONAME
44 46 1 0 0 
SMALL
USER_CHARGES


@<TRIPOS>ATOM
  1 F       -2.1480    -1.6440    -1.1620 F     1 <1>  -0.3400 
  2 C       -2.7420    -0.6670    -0.4980 C.3   1 <1>   0.8800 
  3 F       -2.7130    -1.0300     0.7790 F     1 <1>  -0.3400 
  4 O       -4.0940    -0.6500    -0.8980 O.3   1 <1>  -0.3630 
  5 C       -4.8200     0.4030    -0.4700 C.ar  1 <1>   0.0830 
  6 C       -5.7490     0.2310     0.5500 C.ar  1 <1>  -0.1440 
  7 C       -4.6490     1.6420    -1.0700 C.ar  1 <1>  -0.1500 
  8 C       -6.4950     1.3190     0.9750 C.ar  1 <1>  -0.1500 
  9 C       -5.9470    -1.1290     1.1960 C.3   1 <1>   0.4870 
 10 C       -5.3990     2.7210    -0.6370 C.ar  1 <1>  -0.1500 
 11 C       -6.3180     2.5590     0.3850 C.ar  1 <1>  -0.1500 
 12 N       -6.4110    -2.0900     0.1630 N.4   1 <1>  -0.9590 
 13 C       -7.7780    -1.7330    -0.3220 C.3   1 <1>   0.3430 
 14 C       -6.4810    -3.4780     0.7140 C.3   1 <1>   0.3430 
 15 C       -8.7300    -2.6820     0.4100 C.3   1 <1>   0.2000 
 16 C       -7.9230    -3.9750     0.5100 C.3   1 <1>  -0.0800 
 17 O       -8.9320    -2.1970     1.6990 O.3   1 <1>  -0.6800 
 18 C       -8.0780    -4.8370    -0.7640 C.3   1 <1>  -0.0170 
 19 C       -7.3630    -6.1750    -0.6450 C.ar  1 <1>   0.1670 
 20 N       -6.0430    -6.1420    -0.7360 N.ar  1 <1>  -0.6200 
 21 C       -8.0920    -7.3490    -0.4590 C.ar  1 <1>   0.1600 
 22 C       -5.5070    -7.3490    -0.6380 C.ar  1 <1>   0.1600 
 23 N       -7.5560    -8.5520    -0.3490 N.ar  1 <1>  -0.6200 
 24 C       -6.2390    -8.5150    -0.4490 C.ar  1 <1>   0.1600 
 25 H       -2.2250     0.2650    -0.6470 H     1 <1>   0.0800 
 26 H       -3.9450     1.7700    -1.8740 H     1 <1>   0.1500 
 27 H       -7.2180     1.2180     1.7690 H     1 <1>   0.1500 
 28 H       -6.6740    -1.0610     1.9900 H     1 <1>   0.0800 
 29 H       -5.0110    -1.4610     1.6150 H     1 <1>   0.0800 
 30 H       -5.2700     3.6880    -1.0950 H     1 <1>   0.1500 
 31 H       -6.8980     3.4040     0.7200 H     1 <1>   0.1500 
 32 H       -5.7280    -2.0300    -0.6100 H     1 <1>   0.4500 
 33 H       -8.0280    -0.7020    -0.1300 H     1 <1>   0.0800 
 34 H       -7.8400    -1.9180    -1.3820 H     1 <1>   0.0800 
 35 H       -5.7600    -4.1150     0.2320 H     1 <1>   0.0800 
 36 H       -6.2660    -3.4600     1.7700 H     1 <1>   0.0800 
 37 H       -9.6840    -2.7810    -0.0800 H     1 <1>   0.0800 
 38 H       -8.2370    -4.5640     1.3540 H     1 <1>   0.0800 
 39 H       -9.6590    -2.6770     2.1510 H     1 <1>   0.4000 
 40 H       -7.6880    -4.3200    -1.6240 H     1 <1>   0.0800 
 41 H       -9.1230    -5.0180    -0.9460 H     1 <1>   0.0800 
 42 H       -9.1640    -7.2980    -0.3970 H     1 <1>   0.1500 
 43 H       -4.4350    -7.4230    -0.7100 H     1 <1>   0.1500 
 44 H       -5.7140    -9.4510    -0.3800 H     1 <1>   0.1500 
@<TRIPOS>BOND
  1   1   2  1   
  2   2   3  1   
  3   2   4  1   
  4   2  25  1   
  5   4   5  1   
  6   5   6  ar  
  7   5   7  ar  
  8   6   8  ar  
  9   6   9  1   
 10   7  10  ar  
 11   7  26  1   
 12   8  11  ar  
 13   8  27  1   
 14   9  12  1   
 15   9  28  1   
 16   9  29  1   
 17  10  11  ar  
 18  10  30  1   
 19  11  31  1   
 20  12  13  1   
 21  12  14  1   
 22  12  32  1   
 23  13  15  1   
 24  13  33  1   
 25  13  34  1   
 26  14  16  1   
 27  14  35  1   
 28  14  36  1   
 29  15  16  1   
 30  15  17  1   
 31  15  37  1   
 32  16  18  1   
 33  16  38  1   
 34  17  39  1   
 35  18  19  1   
 36  18  40  1   
 37  18  41  1   
 38  19  20  ar  
 39  19  21  ar  
 40  20  22  ar  
 41  21  23  ar  
 42  21  42  1   
 43  22  24  ar  
 44  22  43  1   
 45  23  24  ar  
 46  24  44  1   
@<TRIPOS>SUBSTRUCTURE
  1 ****  12 GROUP 4 **** **** 0

# MOE 2024.06 (io_trps.svl 2023.06)
