@<TRIPOS>MOLECULE
NONAME
48 50 1 0 0 
SMALL
USER_CHARGES


@<TRIPOS>ATOM
  1 F       -1.6550    -0.4760     0.8490 F     1 <1>  -0.1900 
  2 C       -2.1820     0.4360     0.0710 C.ar  1 <1>   0.1900 
  3 C       -2.9400     0.0130    -1.0090 C.ar  1 <1>  -0.1440 
  4 C       -1.9730     1.7750     0.3660 C.ar  1 <1>  -0.1440 
  5 C       -3.5140     0.9760    -1.8260 C.ar  1 <1>  -0.1500 
  6 C       -3.1340    -1.4650    -1.2760 C.3   1 <1>   0.4870 
  7 C       -2.5570     2.7180    -0.4640 C.ar  1 <1>  -0.1500 
  8 C       -1.1320     2.2070     1.5590 C.3   1 <1>  -0.0970 
  9 C       -3.3210     2.3200    -1.5510 C.ar  1 <1>  -0.1500 
 10 N       -3.9870    -2.0340    -0.2030 N.4   1 <1>  -0.9590 
 11 C       -5.3480    -1.4440    -0.1730 C.3   1 <1>   0.3430 
 12 C       -4.1590    -3.5070    -0.2850 C.3   1 <1>   0.3430 
 13 C       -6.1830    -2.4440     0.6160 C.3   1 <1>  -0.0800 
 14 C       -5.5520    -3.8120     0.2780 C.3   1 <1>  -0.0800 
 15 C       -7.7070    -2.3240     0.3570 C.3   1 <1>   0.2800 
 16 C       -6.3800    -4.6160    -0.7380 C.3   1 <1>  -0.1600 
 17 O       -7.9050    -1.9820    -0.9670 O.3   1 <1>  -0.6800 
 18 C       -8.3840    -3.6860     0.5930 C.3   1 <1>  -0.1600 
 19 C       -8.3930    -1.2400     1.2180 C.3   1 <1>  -0.1600 
 20 C       -7.8260    -4.8380    -0.2670 C.3   1 <1>  -0.1600 
 21 C       -7.8780     0.2000     1.0470 C.3   1 <1>  -0.2400 
 22 H       -4.1100     0.6990    -2.6800 H     1 <1>   0.1500 
 23 H       -2.1730    -1.9530    -1.2830 H     1 <1>   0.0800 
 24 H       -3.6010    -1.6080    -2.2370 H     1 <1>   0.0800 
 25 H       -2.4200     3.7690    -0.2730 H     1 <1>   0.1500 
 26 H       -1.0690     3.2790     1.6190 H     1 <1>   0.0800 
 27 H       -0.1350     1.8140     1.4680 H     1 <1>   0.0800 
 28 H       -1.5670     1.8400     2.4710 H     1 <1>   0.0800 
 29 H       -3.7660     3.0680    -2.1870 H     1 <1>   0.1500 
 30 H       -3.5300    -1.8020     0.6910 H     1 <1>   0.4500 
 31 H       -5.3480    -0.4660     0.2790 H     1 <1>   0.0800 
 32 H       -5.7300    -1.3680    -1.1780 H     1 <1>   0.0800 
 33 H       -4.1140    -3.8270    -1.3130 H     1 <1>   0.0800 
 34 H       -3.3930    -4.0180     0.2770 H     1 <1>   0.0800 
 35 H       -6.0090    -2.2630     1.6620 H     1 <1>   0.0800 
 36 H       -5.4550    -4.3980     1.1760 H     1 <1>   0.0800 
 37 H       -6.4070    -4.0810    -1.6740 H     1 <1>   0.0800 
 38 H       -5.9190    -5.5710    -0.9290 H     1 <1>   0.0800 
 39 H       -8.8630    -1.9870    -1.1600 H     1 <1>   0.4000 
 40 H       -8.2390    -3.9460     1.6280 H     1 <1>   0.0800 
 41 H       -9.4470    -3.6090     0.4440 H     1 <1>   0.0800 
 42 H       -9.4470    -1.2470     1.0020 H     1 <1>   0.0800 
 43 H       -8.2950    -1.5100     2.2560 H     1 <1>   0.0800 
 44 H       -7.8850    -5.7510     0.3010 H     1 <1>   0.0800 
 45 H       -8.4490    -4.9660    -1.1370 H     1 <1>   0.0800 
 46 H       -7.8840     0.4920     0.0120 H     1 <1>   0.0800 
 47 H       -6.8850     0.3090     1.4440 H     1 <1>   0.0800 
 48 H       -8.5190     0.8760     1.5870 H     1 <1>   0.0800 
@<TRIPOS>BOND
  1   1   2  1   
  2   2   3  ar  
  3   2   4  ar  
  4   3   5  ar  
  5   3   6  1   
  6   4   7  ar  
  7   4   8  1   
  8   5   9  ar  
  9   5  22  1   
 10   6  10  1   
 11   6  23  1   
 12   6  24  1   
 13   7   9  ar  
 14   7  25  1   
 15   8  26  1   
 16   8  27  1   
 17   8  28  1   
 18   9  29  1   
 19  10  11  1   
 20  10  12  1   
 21  10  30  1   
 22  11  13  1   
 23  11  31  1   
 24  11  32  1   
 25  12  14  1   
 26  12  33  1   
 27  12  34  1   
 28  13  14  1   
 29  13  15  1   
 30  13  35  1   
 31  14  16  1   
 32  14  36  1   
 33  15  17  1   
 34  15  18  1   
 35  15  19  1   
 36  16  20  1   
 37  16  37  1   
 38  16  38  1   
 39  17  39  1   
 40  18  20  1   
 41  18  40  1   
 42  18  41  1   
 43  19  21  1   
 44  19  42  1   
 45  19  43  1   
 46  20  44  1   
 47  20  45  1   
 48  21  46  1   
 49  21  47  1   
 50  21  48  1   
@<TRIPOS>SUBSTRUCTURE
  1 ****  11 GROUP 4 **** **** 0

# MOE 2024.06 (io_trps.svl 2023.06)
