@<TRIPOS>MOLECULE
NONAME
57 60 1 0 0 
SMALL
USER_CHARGES


@<TRIPOS>ATOM
  1 O       -0.4640     0.5230    -0.4360 O.2   1 <1>  -0.5700 
  2 C       -1.5180     1.1240    -0.3300 C.2   1 <1>   0.5440 
  3 N       -2.6760     0.3920    -0.1820 N.am  1 <1>  -0.6600 
  4 C       -1.5300     2.5710    -0.3790 C.ar  1 <1>   0.0860 
  5 C       -4.0220     0.8690    -0.5880 C.3   1 <1>   0.1400 
  6 C       -2.6550    -1.0890    -0.0880 C.3   1 <1>   0.1400 
  7 C       -0.7900     3.2630    -1.3370 C.ar  1 <1>  -0.1500 
  8 C       -2.2690     3.3360     0.5270 C.ar  1 <1>  -0.1500 
  9 C       -4.7730    -0.3950    -1.0020 C.3   1 <1>   0.2000 
 10 C       -4.1140    -1.5280    -0.2200 C.3   1 <1>  -0.0800 
 11 C       -0.7990     4.6420    -1.3990 C.ar  1 <1>  -0.1500 
 12 C       -2.2780     4.7160     0.4690 C.ar  1 <1>  -0.1500 
 13 O       -6.1210    -0.3190    -0.6910 O.3   1 <1>  -0.6800 
 14 C       -4.2840    -2.9000    -0.8910 C.3   1 <1>   0.0200 
 15 C       -1.5420     5.3960    -0.4970 C.ar  1 <1>   0.1000 
 16 C       -3.5520    -3.9760    -0.1130 C.2   1 <1>  -0.0400 
 17 N       -1.5220     6.7830    -0.5650 N.pl3 1 <1>  -0.8380 
 18 O       -3.9130    -4.2590     1.1100 O.3   1 <1>  -0.0190 
 19 C       -2.5180    -4.7680    -0.4320 C.2   1 <1>  -0.1500 
 20 C       -2.7620     7.6000    -0.4000 C.3   1 <1>   0.2090 
 21 C       -0.2210     7.5090    -0.4600 C.3   1 <1>   0.2090 
 22 N       -3.1730    -5.1950     1.6290 N.2   1 <1>  -0.4100 
 23 C       -2.3240    -5.5220     0.7220 C.2   1 <1>   0.1080 
 24 C       -2.6710     8.5080     0.8470 C.3   1 <1>   0.3430 
 25 C       -0.1910     8.4120     0.7920 C.3   1 <1>   0.3430 
 26 C       -1.2600    -6.5830     0.8960 C.3   1 <1>  -0.0590 
 27 N       -1.3970     9.3180     0.8900 N.4   1 <1>  -0.9590 
 28 C       -1.3360    10.1680     2.1170 C.3   1 <1>   0.2630 
 29 H       -4.5000     1.3360     0.2560 H     1 <1>   0.0800 
 30 H       -3.9540     1.5610    -1.4100 H     1 <1>   0.0800 
 31 H       -2.0580    -1.4830    -0.8930 H     1 <1>   0.0800 
 32 H       -2.2310    -1.4030     0.8510 H     1 <1>   0.0800 
 33 H       -0.2020     2.6970    -2.0400 H     1 <1>   0.1500 
 34 H       -2.8320     2.8300     1.2900 H     1 <1>   0.1500 
 35 H       -4.6770    -0.5410    -2.0650 H     1 <1>   0.0800 
 36 H       -4.5250    -1.5640     0.7740 H     1 <1>   0.0800 
 37 H       -0.2280     5.1450    -2.1580 H     1 <1>   0.1500 
 38 H       -2.8520     5.2670     1.1870 H     1 <1>   0.1500 
 39 H       -6.2460    -0.2630     0.2760 H     1 <1>   0.4000 
 40 H       -3.9010    -2.8680    -1.8950 H     1 <1>   0.0800 
 41 H       -5.3290    -3.1510    -0.9390 H     1 <1>   0.0800 
 42 H       -1.9500    -4.8330    -1.3410 H     1 <1>   0.1500 
 43 H       -2.9000     8.2060    -1.2790 H     1 <1>   0.0800 
 44 H       -3.6190     6.9550    -0.3180 H     1 <1>   0.0800 
 45 H        0.5880     6.8000    -0.4000 H     1 <1>   0.0800 
 46 H       -0.0740     8.1020    -1.3450 H     1 <1>   0.0800 
 47 H       -2.7240     7.8790     1.7200 H     1 <1>   0.0800 
 48 H       -3.5250     9.1650     0.8630 H     1 <1>   0.0800 
 49 H        0.7110     9.0010     0.7750 H     1 <1>   0.0800 
 50 H       -0.1500     7.7740     1.6590 H     1 <1>   0.0800 
 51 H       -1.3920    -7.3560     0.1630 H     1 <1>   0.0800 
 52 H       -1.3310    -7.0170     1.8770 H     1 <1>   0.0800 
 53 H       -0.2860    -6.1440     0.7800 H     1 <1>   0.0800 
 54 H       -1.3910     9.9270     0.0590 H     1 <1>   0.4500 
 55 H       -1.3390     9.5510     3.0010 H     1 <1>   0.0800 
 56 H       -2.1850    10.8310     2.1570 H     1 <1>   0.0800 
 57 H       -0.4370    10.7640     2.1160 H     1 <1>   0.0800 
@<TRIPOS>BOND
  1   1   2  2   
  2   2   3  am  
  3   2   4  1   
  4   3   5  1   
  5   3   6  1   
  6   4   7  ar  
  7   4   8  ar  
  8   5   9  1   
  9   5  29  1   
 10   5  30  1   
 11   6  10  1   
 12   6  31  1   
 13   6  32  1   
 14   7  11  ar  
 15   7  33  1   
 16   8  12  ar  
 17   8  34  1   
 18   9  10  1   
 19   9  13  1   
 20   9  35  1   
 21  10  14  1   
 22  10  36  1   
 23  11  15  ar  
 24  11  37  1   
 25  12  15  ar  
 26  12  38  1   
 27  13  39  1   
 28  14  16  1   
 29  14  40  1   
 30  14  41  1   
 31  15  17  1   
 32  16  18  1   
 33  16  19  2   
 34  17  20  1   
 35  17  21  1   
 36  18  22  1   
 37  19  23  1   
 38  19  42  1   
 39  20  24  1   
 40  20  43  1   
 41  20  44  1   
 42  21  25  1   
 43  21  45  1   
 44  21  46  1   
 45  22  23  2   
 46  23  26  1   
 47  24  27  1   
 48  24  47  1   
 49  24  48  1   
 50  25  27  1   
 51  25  49  1   
 52  25  50  1   
 53  26  51  1   
 54  26  52  1   
 55  26  53  1   
 56  27  28  1   
 57  27  54  1   
 58  28  55  1   
 59  28  56  1   
 60  28  57  1   
@<TRIPOS>SUBSTRUCTURE
  1 ****   2 GROUP 4 **** **** 0

# MOE 2024.06 (io_trps.svl 2023.06)
