@<TRIPOS>MOLECULE
NONAME
51 54 1 0 0 
SMALL
USER_CHARGES


@<TRIPOS>ATOM
  1 O        3.4390    -1.2700    -2.0370 O.2   1 <1>  -0.5700 
  2 C        2.6320    -1.3290    -1.1260 C.2   1 <1>   0.5440 
  3 N        2.5100    -0.1920    -0.3670 N.am  1 <1>  -0.6600 
  4 C        1.9980    -2.5850    -0.7660 C.ar  1 <1>   0.0860 
  5 C        3.0560    -0.2510     1.0340 C.3   1 <1>   0.2200 
  6 C        2.4230     1.1390    -1.0520 C.3   1 <1>   0.1400 
  7 C        0.7000    -2.6850    -0.1930 C.ar  1 <1>   0.0000 
  8 C        2.6840    -3.7610    -0.9340 C.ar  1 <1>  -0.1500 
  9 C        2.4860     0.8400     1.9560 C.3   1 <1>   0.1200 
 10 C        4.6070    -0.2000     1.0070 C.3   1 <1>   0.3430 
 11 C        3.4160     2.2010    -0.5420 C.3   1 <1>  -0.0800 
 12 C        0.2780    -3.9480     0.2880 C.ar  1 <1>   0.3100 
 13 C       -0.2050    -1.6040    -0.0890 C.ar  1 <1>  -0.1500 
 14 C        2.1660    -4.9710    -0.4740 C.ar  1 <1>   0.1660 
 15 O        3.2450     2.0080     1.8620 O.3   1 <1>  -0.5600 
 16 N        5.1510     0.3230    -0.2990 N.4   1 <1>  -0.9590 
 17 C        2.9580     2.8320     0.7830 C.3   1 <1>   0.1200 
 18 C        4.9030     1.7830    -0.5130 C.3   1 <1>   0.3430 
 19 N        1.0320    -5.0670     0.1350 N.ar  1 <1>  -0.6200 
 20 C       -0.9750    -4.0580     0.9350 C.ar  1 <1>  -0.1430 
 21 C       -1.4180    -1.7380     0.5250 C.ar  1 <1>  -0.1500 
 22 C        2.9510    -6.2510    -0.6680 C.3   1 <1>  -0.0970 
 23 C        6.5870    -0.0240    -0.4830 C.3   1 <1>   0.2630 
 24 C       -1.8010    -2.9710     1.0520 C.ar  1 <1>  -0.1500 
 25 C       -1.4260    -5.4010     1.5010 C.3   1 <1>  -0.0970 
 26 H        2.7610    -1.1910     1.4670 H     1 <1>   0.0800 
 27 H        2.5790     1.0050    -2.1110 H     1 <1>   0.0800 
 28 H        1.4190     1.5130    -0.9380 H     1 <1>   0.0800 
 29 H        3.6450    -3.7630    -1.4150 H     1 <1>   0.1500 
 30 H        2.5610     0.5110     2.9780 H     1 <1>   0.0800 
 31 H        1.4500     1.0460     1.7450 H     1 <1>   0.0800 
 32 H        4.9690    -1.2020     1.1600 H     1 <1>   0.0800 
 33 H        4.9650     0.4010     1.8270 H     1 <1>   0.0800 
 34 H        3.3570     3.0080    -1.2500 H     1 <1>   0.0800 
 35 H        0.0490    -0.6500    -0.5090 H     1 <1>   0.1500 
 36 H        4.5920    -0.1710    -1.0340 H     1 <1>   0.4500 
 37 H        1.9030     3.0510     0.7790 H     1 <1>   0.0800 
 38 H        3.4870     3.7550     0.9490 H     1 <1>   0.0800 
 39 H        5.4090     2.3500     0.2530 H     1 <1>   0.0800 
 40 H        5.3380     2.0600    -1.4590 H     1 <1>   0.0800 
 41 H       -2.0960    -0.9050     0.6050 H     1 <1>   0.1500 
 42 H        3.8440    -6.0830    -1.2400 H     1 <1>   0.0800 
 43 H        2.3400    -6.9700    -1.1840 H     1 <1>   0.0800 
 44 H        3.2190    -6.6570     0.2910 H     1 <1>   0.0800 
 45 H        7.1890     0.4620     0.2670 H     1 <1>   0.0800 
 46 H        6.9240     0.2910    -1.4580 H     1 <1>   0.0800 
 47 H        6.7250    -1.0900    -0.4040 H     1 <1>   0.0800 
 48 H       -2.7570    -3.0480     1.5390 H     1 <1>   0.1500 
 49 H       -2.3860    -5.3240     1.9780 H     1 <1>   0.0800 
 50 H       -0.7110    -5.7500     2.2240 H     1 <1>   0.0800 
 51 H       -1.4940    -6.1260     0.7100 H     1 <1>   0.0800 
@<TRIPOS>BOND
  1   1   2  2   
  2   2   3  am  
  3   2   4  1   
  4   3   5  1   
  5   3   6  1   
  6   4   7  ar  
  7   4   8  ar  
  8   5   9  1   
  9   5  10  1   
 10   5  26  1   
 11   6  11  1   
 12   6  27  1   
 13   6  28  1   
 14   7  12  ar  
 15   7  13  ar  
 16   8  14  ar  
 17   8  29  1   
 18   9  15  1   
 19   9  30  1   
 20   9  31  1   
 21  10  16  1   
 22  10  32  1   
 23  10  33  1   
 24  11  17  1   
 25  11  18  1   
 26  11  34  1   
 27  12  19  ar  
 28  12  20  ar  
 29  13  21  ar  
 30  13  35  1   
 31  14  19  ar  
 32  14  22  1   
 33  15  17  1   
 34  16  18  1   
 35  16  23  1   
 36  16  36  1   
 37  17  37  1   
 38  17  38  1   
 39  18  39  1   
 40  18  40  1   
 41  20  24  ar  
 42  20  25  1   
 43  21  24  ar  
 44  21  41  1   
 45  22  42  1   
 46  22  43  1   
 47  22  44  1   
 48  23  45  1   
 49  23  46  1   
 50  23  47  1   
 51  24  48  1   
 52  25  49  1   
 53  25  50  1   
 54  25  51  1   
@<TRIPOS>SUBSTRUCTURE
  1 ****   2 GROUP 4 **** **** 0

# MOE 2024.06 (io_trps.svl 2023.06)
