@<TRIPOS>MOLECULE
NONAME
47 49 1 0 0 
SMALL
USER_CHARGES


@<TRIPOS>ATOM
  1 F        1.6620     1.3410    -1.9020 F     1 <1>  -0.3400 
  2 C        2.2220     1.3280    -0.6990 C.3   1 <1>   1.1640 
  3 F        2.3030     0.0510    -0.3400 F     1 <1>  -0.3400 
  4 F        1.3430     1.8860     0.1260 F     1 <1>  -0.3400 
  5 C        3.5820     2.0420    -0.6890 C.ar  1 <1>  -0.1440 
  6 C        3.6530     3.4210    -0.5120 C.ar  1 <1>  -0.1500 
  7 C        4.7650     1.3320    -0.8640 C.ar  1 <1>  -0.1500 
  8 C        4.8730     4.0780    -0.5040 C.ar  1 <1>  -0.1440 
  9 C        5.9860     1.9830    -0.8580 C.ar  1 <1>  -0.1500 
 10 C        6.0390     3.3520    -0.6780 C.ar  1 <1>  -0.1500 
 11 C        4.9440     5.5840    -0.3030 C.3   1 <1>  -0.0160 
 12 C        5.2510     5.9110     1.1580 C.3   1 <1>   0.2090 
 13 N        5.3330     7.3830     1.3390 N.pl3 1 <1>  -0.8690 
 14 C        6.4930     8.1030     1.2100 C.ar  1 <1>   0.4100 
 15 N        7.5420     7.4900     0.6750 N.ar  1 <1>  -0.6200 
 16 C        6.5310     9.4290     1.6320 C.ar  1 <1>  -0.1500 
 17 C        8.6450     8.2110     0.5620 C.ar  1 <1>   0.1600 
 18 C        7.6840    10.1640     1.5000 C.ar  1 <1>  -0.1500 
 19 C        8.7920     9.5450     0.9310 C.ar  1 <1>   0.0860 
 20 C       10.0520    10.2190     0.7330 C.2   1 <1>   0.5440 
 21 O       11.0730     9.6880     1.1270 O.2   1 <1>  -0.5700 
 22 N       10.1440    11.4430     0.1030 N.am  1 <1>  -0.6600 
 23 C       11.4100    12.2360     0.1130 C.3   1 <1>   0.1400 
 24 C        9.1120    12.0130    -0.8140 C.3   1 <1>   0.1400 
 25 C       11.1100    13.7310     0.3100 C.3   1 <1>   0.1200 
 26 C        8.9340    13.5180    -0.5530 C.3   1 <1>   0.1200 
 27 O       10.1660    14.1800    -0.6240 O.3   1 <1>  -0.5600 
 28 H        2.7490     3.9920    -0.3790 H     1 <1>   0.1500 
 29 H        4.7480     0.2640    -1.0090 H     1 <1>   0.1500 
 30 H        6.8960     1.4250    -0.9940 H     1 <1>   0.1500 
 31 H        6.9930     3.8540    -0.6730 H     1 <1>   0.1500 
 32 H        4.0120     6.0390    -0.5850 H     1 <1>   0.0800 
 33 H        5.7190     5.9910    -0.9270 H     1 <1>   0.0800 
 34 H        6.1840     5.4540     1.4430 H     1 <1>   0.0800 
 35 H        4.4780     5.5130     1.7920 H     1 <1>   0.0800 
 36 H        4.5680     7.7990     1.8710 H     1 <1>   0.4000 
 37 H        5.6490     9.8640     2.0620 H     1 <1>   0.1500 
 38 H        9.5050     7.7160     0.1440 H     1 <1>   0.1500 
 39 H        7.7410    11.1870     1.8270 H     1 <1>   0.1500 
 40 H       11.9250    12.0940    -0.8210 H     1 <1>   0.0800 
 41 H       12.0570    11.8990     0.9040 H     1 <1>   0.0800 
 42 H        8.1680    11.5130    -0.6980 H     1 <1>   0.0800 
 43 H        9.4340    11.8740    -1.8310 H     1 <1>   0.0800 
 44 H       12.0060    14.3100     0.1740 H     1 <1>   0.0800 
 45 H       10.7290    13.9110     1.3000 H     1 <1>   0.0800 
 46 H        8.5070    13.6890     0.4190 H     1 <1>   0.0800 
 47 H        8.2880    13.9500    -1.2970 H     1 <1>   0.0800 
@<TRIPOS>BOND
  1   1   2  1   
  2   2   3  1   
  3   2   4  1   
  4   2   5  1   
  5   5   6  ar  
  6   5   7  ar  
  7   6   8  ar  
  8   6  28  1   
  9   7   9  ar  
 10   7  29  1   
 11   8  10  ar  
 12   8  11  1   
 13   9  10  ar  
 14   9  30  1   
 15  10  31  1   
 16  11  12  1   
 17  11  32  1   
 18  11  33  1   
 19  12  13  1   
 20  12  34  1   
 21  12  35  1   
 22  13  14  1   
 23  13  36  1   
 24  14  15  ar  
 25  14  16  ar  
 26  15  17  ar  
 27  16  18  ar  
 28  16  37  1   
 29  17  19  ar  
 30  17  38  1   
 31  18  19  ar  
 32  18  39  1   
 33  19  20  1   
 34  20  21  2   
 35  20  22  am  
 36  22  23  1   
 37  22  24  1   
 38  23  25  1   
 39  23  40  1   
 40  23  41  1   
 41  24  26  1   
 42  24  42  1   
 43  24  43  1   
 44  25  27  1   
 45  25  44  1   
 46  25  45  1   
 47  26  27  1   
 48  26  46  1   
 49  26  47  1   
@<TRIPOS>SUBSTRUCTURE
  1 ****  15 GROUP 4 **** **** 0

# MOE 2024.06 (io_trps.svl 2023.06)
