@<TRIPOS>MOLECULE
NONAME
40 42 1 0 0 
SMALL
USER_CHARGES


@<TRIPOS>ATOM
  1 O       -0.3430    -0.1080    -0.0780 O.2   1 <1>  -0.5700 
  2 C       -1.3900     0.5220    -0.0920 C.2   1 <1>   0.7160 
  3 N       -2.5110    -0.0670     0.4620 N.am  1 <1>  -0.6600 
  4 C       -1.4300     1.8380    -0.6470 C.2   1 <1>  -0.0860 
  5 C       -2.5590    -1.5460     0.6450 C.3   1 <1>   0.3200 
  6 C       -3.4360     0.7260     1.3330 C.3   1 <1>   0.1400 
  7 C       -0.4560     2.8050    -0.6960 C.2   1 <1>  -0.0680 
  8 C       -2.5080     2.4610    -1.2950 C.2   1 <1>   0.1390 
  9 C       -3.6420    -2.1460    -0.2300 C.2   1 <1>  -0.3320 
 10 C       -4.8970     0.6460     0.8710 C.3   1 <1>   0.1200 
 11 N       -0.9800     3.8730    -1.3140 N.pl3 1 <1>   0.6010 
 12 N        0.8510     3.0730    -0.3400 N.pl3 1 <1>  -0.5530 
 13 N       -2.2650     3.6740    -1.6940 N.2   1 <1>  -0.7070 
 14 N       -4.2140    -3.3420     0.0100 N.pl3 1 <1>   0.0330 
 15 C       -4.2240    -1.6750    -1.3560 C.2   1 <1>   0.0770 
 16 O       -5.6740     1.4550     1.6870 O.3   1 <1>  -0.6800 
 17 C       -0.0050     4.8510    -1.3670 C.2   1 <1>  -0.1810 
 18 C        1.1070     4.3630    -0.7780 C.2   1 <1>  -0.0500 
 19 C        1.8060     2.1190     0.2630 C.3   1 <1>   0.1290 
 20 C       -5.1180    -3.5120    -0.9780 C.2   1 <1>   0.0070 
 21 N       -5.1560    -2.5300    -1.8150 N.2   1 <1>  -0.5650 
 22 C       -5.9970    -4.7390    -1.0870 C.3   1 <1>  -0.0600 
 23 H       -2.7570    -1.7660     1.6790 H     1 <1>   0.0800 
 24 H       -1.6190    -2.0050     0.3900 H     1 <1>   0.0800 
 25 H       -3.1350     1.7600     1.3380 H     1 <1>   0.0800 
 26 H       -3.3630     0.3600     2.3420 H     1 <1>   0.0800 
 27 H       -3.4580     1.9810    -1.4560 H     1 <1>   0.1500 
 28 H       -5.2810    -0.3580     0.9320 H     1 <1>   0.0800 
 29 H       -4.9990     1.0080    -0.1360 H     1 <1>   0.0800 
 30 H       -4.0150    -4.0010     0.7680 H     1 <1>   0.2700 
 31 H       -4.0170    -0.7510    -1.8700 H     1 <1>   0.1500 
 32 H       -5.8270     1.0400     2.5580 H     1 <1>   0.4000 
 33 H       -0.2120     5.7970    -1.8270 H     1 <1>   0.1500 
 34 H        2.0670     4.8330    -0.6370 H     1 <1>   0.1500 
 35 H        1.3810     1.7040     1.1600 H     1 <1>   0.0800 
 36 H        2.7270     2.6190     0.5030 H     1 <1>   0.0800 
 37 H        2.0010     1.3210    -0.4320 H     1 <1>   0.0800 
 38 H       -6.6120    -4.8340    -0.2120 H     1 <1>   0.0800 
 39 H       -5.3900    -5.6200    -1.1970 H     1 <1>   0.0800 
 40 H       -6.6340    -4.6530    -1.9490 H     1 <1>   0.0800 
@<TRIPOS>BOND
  1   1   2  2   
  2   2   3  am  
  3   2   4  1   
  4   3   5  1   
  5   3   6  1   
  6   4   7  2   
  7   4   8  1   
  8   5   9  1   
  9   5  23  1   
 10   5  24  1   
 11   6  10  1   
 12   6  25  1   
 13   6  26  1   
 14   7  11  1   
 15   7  12  1   
 16   8  13  2   
 17   8  27  1   
 18   9  14  1   
 19   9  15  2   
 20  10  16  1   
 21  10  28  1   
 22  10  29  1   
 23  11  13  1   
 24  11  17  1   
 25  12  18  1   
 26  12  19  1   
 27  14  20  1   
 28  14  30  1   
 29  15  21  1   
 30  15  31  1   
 31  16  32  1   
 32  17  18  2   
 33  17  33  1   
 34  18  34  1   
 35  19  35  1   
 36  19  36  1   
 37  19  37  1   
 38  20  21  2   
 39  20  22  1   
 40  22  38  1   
 41  22  39  1   
 42  22  40  1   
@<TRIPOS>SUBSTRUCTURE
  1 ****   2 GROUP 4 **** **** 0

# MOE 2024.06 (io_trps.svl 2023.06)
