@<TRIPOS>MOLECULE
NONAME
14 14 1 0 0 
SMALL
USER_CHARGES


@<TRIPOS>ATOM
  1 F        3.4010     2.0360    -0.1720 F     1 <1>  -0.3400 
  2 C        4.4290     1.2930     0.2260 C.3   1 <1>   0.6000 
  3 F        5.5070     1.9610    -0.1740 F     1 <1>  -0.3400 
  4 C        4.3850    -0.0950    -0.4510 C.3   1 <1>   0.2100 
  5 N        3.4050    -1.0740     0.1210 N.3   1 <1>  -0.7790 
  6 C        5.4890    -1.0710     0.0020 C.3   1 <1>   0.0000 
  7 C        4.3950    -2.1500    -0.1260 C.3   1 <1>   0.2100 
  8 H        4.4330     1.2560     1.3000 H     1 <1>   0.0800 
  9 H        4.2960    -0.0480    -1.5230 H     1 <1>   0.0000 
 10 H        2.6300    -1.1840    -0.5450 H     1 <1>   0.3600 
 11 H        5.8180    -0.9190     1.0170 H     1 <1>   0.0000 
 12 H        6.2970    -1.1790    -0.6990 H     1 <1>   0.0000 
 13 H        4.2990    -2.5540    -1.1190 H     1 <1>   0.0000 
 14 H        4.4010    -2.8860     0.6580 H     1 <1>   0.0000 
@<TRIPOS>BOND
  1   1   2  1   
  2   2   3  1   
  3   2   4  1   
  4   2   8  1   
  5   4   5  1   
  6   4   6  1   
  7   4   9  1   
  8   5   7  1   
  9   5  10  1   
 10   6   7  1   
 11   6  11  1   
 12   6  12  1   
 13   7  13  1   
 14   7  14  1   
@<TRIPOS>SUBSTRUCTURE
  1 ****   4 GROUP 4 **** **** 0

# MOE 2024.06 (io_trps.svl 2023.06)
