@<TRIPOS>MOLECULE
NONAME
46 48 1 0 0 
SMALL
USER_CHARGES


@<TRIPOS>ATOM
  1 O        0.4220     0.1360    -0.5470 O.2   1 <1>  -0.5700 
  2 C        0.3250     1.2980    -0.2330 C.2   1 <1>   0.5690 
  3 N       -0.8880     1.9280    -0.0890 N.am  1 <1>  -0.6600 
  4 C        1.6300     2.0550    -0.0310 C.3   1 <1>  -0.0990 
  5 C       -2.1560     1.1540    -0.2950 C.3   1 <1>   0.2200 
  6 C       -1.0070     3.3340     0.4150 C.3   1 <1>   0.1400 
  7 C        1.4820     3.3890     0.7130 C.3   1 <1>  -0.1600 
  8 C       -3.0730     1.8230    -1.3240 C.3   1 <1>  -0.1600 
  9 C       -2.9850     1.0630     0.9860 C.3   1 <1>  -0.1600 
 10 C        0.2680     4.1530     0.1690 C.3   1 <1>  -0.0190 
 11 C       -4.2300     2.4840    -0.5590 C.3   1 <1>  -0.1600 
 12 C       -4.0070     2.2000     0.9280 C.3   1 <1>  -0.1600 
 13 C        0.1550     5.5370     0.7990 C.2   1 <1>   0.5690 
 14 O       -0.4680     5.6670     1.8260 O.2   1 <1>  -0.5700 
 15 N        0.7800     6.5710     0.1690 N.am  1 <1>  -0.4930 
 16 C        0.8470     7.9360     0.5470 C.2   1 <1>   0.0630 
 17 C        1.4840     8.9240    -0.1220 C.2   1 <1>  -0.3320 
 18 C        0.2910     8.5650     1.6620 C.2   1 <1>   0.1390 
 19 N        1.2900    10.0600     0.5950 N.pl3 1 <1>   0.3140 
 20 C        2.2800     8.8700    -1.4180 C.3   1 <1>  -0.0600 
 21 N        0.5550     9.8370     1.6940 N.2   1 <1>  -0.7070 
 22 C        1.7860    11.4070     0.2820 C.3   1 <1>   0.0160 
 23 H        2.0470     2.2330    -1.0050 H     1 <1>   0.0800 
 24 H        2.3140     1.4210     0.5040 H     1 <1>   0.0800 
 25 H       -1.9220     0.1570    -0.6310 H     1 <1>   0.0800 
 26 H       -1.2130     3.2970     1.4710 H     1 <1>   0.0800 
 27 H       -1.8290     3.8320    -0.0660 H     1 <1>   0.0800 
 28 H        2.3810     3.9700     0.5980 H     1 <1>   0.0800 
 29 H        1.3390     3.2000     1.7640 H     1 <1>   0.0800 
 30 H       -3.4760     1.0620    -1.9670 H     1 <1>   0.0800 
 31 H       -2.5360     2.5270    -1.9350 H     1 <1>   0.0800 
 32 H       -2.3750     1.0940     1.8710 H     1 <1>   0.0800 
 33 H       -3.5170     0.1280     0.9720 H     1 <1>   0.0800 
 34 H        0.3730     4.2800    -0.8930 H     1 <1>   0.0800 
 35 H       -5.1640     2.0520    -0.8770 H     1 <1>   0.0800 
 36 H       -4.2620     3.5440    -0.7430 H     1 <1>   0.0800 
 37 H       -3.6080     3.0750     1.4090 H     1 <1>   0.0800 
 38 H       -4.9250     1.9290     1.4230 H     1 <1>   0.0800 
 39 H        1.2880     6.3550    -0.6840 H     1 <1>   0.3700 
 40 H       -0.2900     8.0610     2.4150 H     1 <1>   0.1500 
 41 H        2.3000     7.8720    -1.8150 H     1 <1>   0.0800 
 42 H        3.2930     9.1860    -1.2430 H     1 <1>   0.0800 
 43 H        1.8350     9.5180    -2.1520 H     1 <1>   0.0800 
 44 H        1.3900    11.7170    -0.6660 H     1 <1>   0.0800 
 45 H        2.8580    11.3900     0.2480 H     1 <1>   0.0800 
 46 H        1.4610    12.0870     1.0470 H     1 <1>   0.0800 
@<TRIPOS>BOND
  1   1   2  2   
  2   2   3  am  
  3   2   4  1   
  4   3   5  1   
  5   3   6  1   
  6   4   7  1   
  7   4  23  1   
  8   4  24  1   
  9   5   8  1   
 10   5   9  1   
 11   5  25  1   
 12   6  10  1   
 13   6  26  1   
 14   6  27  1   
 15   7  10  1   
 16   7  28  1   
 17   7  29  1   
 18   8  11  1   
 19   8  30  1   
 20   8  31  1   
 21   9  12  1   
 22   9  32  1   
 23   9  33  1   
 24  10  13  1   
 25  10  34  1   
 26  11  12  1   
 27  11  35  1   
 28  11  36  1   
 29  12  37  1   
 30  12  38  1   
 31  13  14  2   
 32  13  15  am  
 33  15  16  1   
 34  15  39  1   
 35  16  17  2   
 36  16  18  1   
 37  17  19  1   
 38  17  20  1   
 39  18  21  2   
 40  18  40  1   
 41  19  21  1   
 42  19  22  1   
 43  20  41  1   
 44  20  42  1   
 45  20  43  1   
 46  22  44  1   
 47  22  45  1   
 48  22  46  1   
@<TRIPOS>SUBSTRUCTURE
  1 ****  13 GROUP 4 **** **** 0

# MOE 2024.06 (io_trps.svl 2023.06)
