@<TRIPOS>MOLECULE
NONAME
53 55 1 0 0 
SMALL
USER_CHARGES


@<TRIPOS>ATOM
  1 O        0.9790     1.9900     2.0060 O.2   1 <1>  -0.5700 
  2 C        0.7800     3.0770     1.5270 C.2   1 <1>   0.5690 
  3 N       -0.4420     3.6480     1.5970 N.am  1 <1>  -0.7300 
  4 C        1.9080     3.8110     0.7960 C.3   1 <1>   0.1810 
  5 C       -0.7580     4.9830     1.0330 C.3   1 <1>   0.3640 
  6 O        1.6510     5.1860     0.6170 O.3   1 <1>  -0.5600 
  7 C       -2.0880     4.8960     0.2850 C.ar  1 <1>  -0.1440 
  8 C        0.3660     5.4910     0.0930 C.3   1 <1>   0.2610 
  9 C       -2.3770     3.8300    -0.5590 C.ar  1 <1>  -0.1500 
 10 C       -3.0290     5.9050     0.4380 C.ar  1 <1>  -0.1500 
 11 C        0.2370     6.9990    -0.1850 C.2   1 <1>   0.5690 
 12 C       -3.5850     3.7740    -1.2330 C.ar  1 <1>  -0.1500 
 13 C       -4.2360     5.8500    -0.2350 C.ar  1 <1>  -0.1500 
 14 O       -0.3350     7.6950     0.6270 O.2   1 <1>  -0.5700 
 15 N        0.7520     7.5450    -1.3370 N.am  1 <1>  -0.6600 
 16 C       -4.5160     4.7840    -1.0710 C.ar  1 <1>  -0.1500 
 17 C        0.6400     9.0140    -1.5930 C.3   1 <1>   0.3210 
 18 C        1.6310     6.8210    -2.3010 C.3   1 <1>   0.0600 
 19 C        1.9410     9.7220    -1.2400 C.2   1 <1>   0.1080 
 20 N        2.7310    10.2700    -2.1160 N.2   1 <1>  -0.7070 
 21 C        2.4300     9.8470     0.0550 C.2   1 <1>  -0.1500 
 22 N        3.7500    10.7630    -1.3850 N.pl3 1 <1>   0.3000 
 23 C        3.5970    10.5210    -0.0660 C.2   1 <1>  -0.3320 
 24 C        4.6050    10.9570     0.9900 C.3   1 <1>   0.1800 
 25 C        5.9400    10.2510     0.7330 C.3   1 <1>  -0.2400 
 26 C        4.7960    12.4760     0.9190 C.3   1 <1>  -0.2400 
 27 C        4.1050    10.5840     2.3900 C.3   1 <1>  -0.2400 
 28 H       -1.1940     3.1570     2.0830 H     1 <1>   0.3700 
 29 H        2.0570     3.3650    -0.1700 H     1 <1>   0.0800 
 30 H        2.8170     3.7200     1.3630 H     1 <1>   0.0800 
 31 H       -0.8610     5.6660     1.8590 H     1 <1>   0.0800 
 32 H        0.2720     4.9760    -0.8440 H     1 <1>   0.0800 
 33 H       -1.6660     3.0330    -0.6970 H     1 <1>   0.1500 
 34 H       -2.8250     6.7450     1.0810 H     1 <1>   0.1500 
 35 H       -3.8020     2.9430    -1.8820 H     1 <1>   0.1500 
 36 H       -4.9580     6.6380    -0.1090 H     1 <1>   0.1500 
 37 H       -5.4550     4.7410    -1.5940 H     1 <1>   0.1500 
 38 H        0.4180     9.1790    -2.6320 H     1 <1>   0.0800 
 39 H       -0.1590     9.4410    -1.0140 H     1 <1>   0.0800 
 40 H        2.3960     7.4830    -2.6740 H     1 <1>   0.0800 
 41 H        1.0460     6.4660    -3.1300 H     1 <1>   0.0800 
 42 H        2.1220     5.9900    -1.8270 H     1 <1>   0.0800 
 43 H        1.9440     9.4640     0.9360 H     1 <1>   0.1500 
 44 H        4.5400    11.2600    -1.8120 H     1 <1>   0.2700 
 45 H        6.6580    10.5150     1.4890 H     1 <1>   0.0800 
 46 H        6.3400    10.5230    -0.2260 H     1 <1>   0.0800 
 47 H        5.7990     9.1840     0.7520 H     1 <1>   0.0800 
 48 H        5.4730    12.8070     1.6860 H     1 <1>   0.0800 
 49 H        3.8520    12.9720     1.0600 H     1 <1>   0.0800 
 50 H        5.1950    12.7700    -0.0350 H     1 <1>   0.0800 
 51 H        4.8100    10.8930     3.1410 H     1 <1>   0.0800 
 52 H        3.9700     9.5200     2.4680 H     1 <1>   0.0800 
 53 H        3.1630    11.0630     2.5890 H     1 <1>   0.0800 
@<TRIPOS>BOND
  1   1   2  2   
  2   2   3  am  
  3   2   4  1   
  4   3   5  1   
  5   3  28  1   
  6   4   6  1   
  7   4  29  1   
  8   4  30  1   
  9   5   7  1   
 10   5   8  1   
 11   5  31  1   
 12   6   8  1   
 13   7   9  ar  
 14   7  10  ar  
 15   8  11  1   
 16   8  32  1   
 17   9  12  ar  
 18   9  33  1   
 19  10  13  ar  
 20  10  34  1   
 21  11  14  2   
 22  11  15  am  
 23  12  16  ar  
 24  12  35  1   
 25  13  16  ar  
 26  13  36  1   
 27  15  17  1   
 28  15  18  1   
 29  16  37  1   
 30  17  19  1   
 31  17  38  1   
 32  17  39  1   
 33  18  40  1   
 34  18  41  1   
 35  18  42  1   
 36  19  20  2   
 37  19  21  1   
 38  20  22  1   
 39  21  23  2   
 40  21  43  1   
 41  22  23  1   
 42  22  44  1   
 43  23  24  1   
 44  24  25  1   
 45  24  26  1   
 46  24  27  1   
 47  25  45  1   
 48  25  46  1   
 49  25  47  1   
 50  26  48  1   
 51  26  49  1   
 52  26  50  1   
 53  27  51  1   
 54  27  52  1   
 55  27  53  1   
@<TRIPOS>SUBSTRUCTURE
  1 ****  11 GROUP 4 **** **** 0

# MOE 2024.06 (io_trps.svl 2023.06)
