@<TRIPOS>MOLECULE
NONAME
43 45 1 0 0 
SMALL
USER_CHARGES


@<TRIPOS>ATOM
  1 O       -0.8930     1.2990    -1.4360 O.2   1 <1>  -0.5700 
  2 C       -0.7380     2.4390    -1.0810 C.2   1 <1>   0.5690 
  3 N       -1.4780     2.9620    -0.0810 N.am  1 <1>  -0.7300 
  4 C        0.2830     3.3340    -1.7820 C.3   1 <1>   0.1810 
  5 C       -1.4050     4.3790     0.3540 C.3   1 <1>   0.3640 
  6 O        0.7010     4.4040    -0.9630 O.3   1 <1>  -0.5600 
  7 C       -2.8040     4.9780     0.2130 C.ar  1 <1>  -0.1440 
  8 C       -0.3540     5.2100    -0.4410 C.3   1 <1>   0.2610 
  9 C       -3.5440     4.8110    -0.9520 C.ar  1 <1>  -0.1500 
 10 C       -3.3550     5.7110     1.2560 C.ar  1 <1>  -0.1500 
 11 C        0.2290     6.3160     0.4470 C.2   1 <1>   0.5690 
 12 C       -4.8070     5.3620    -1.0800 C.ar  1 <1>   0.0830 
 13 C       -4.6250     6.2500     1.1460 C.ar  1 <1>  -0.1500 
 14 O       -0.5080     6.9840     1.1350 O.2   1 <1>  -0.5700 
 15 N        1.5770     6.5050     0.4380 N.am  1 <1>  -0.5790 
 16 O       -5.4430     5.1870    -2.2650 O.3   1 <1>  -0.3630 
 17 C       -5.3670     6.0660    -0.0080 C.ar  1 <1>   0.0830 
 18 C        2.3380     7.5030     1.2060 C.3   1 <1>   0.0490 
 19 C       -5.7300     6.3540    -3.0050 C.3   1 <1>   0.0400 
 20 O       -6.6200     6.5810    -0.0370 O.3   1 <1>  -0.3630 
 21 C        2.0510     8.9520     0.9790 C.3   1 <1>  -0.2000 
 22 C        3.3160     8.3480     0.4560 C.3   1 <1>  -0.2000 
 23 C       -7.6760     5.6470    -0.0810 C.3   1 <1>   0.0400 
 24 H       -2.2090     2.3840     0.3370 H     1 <1>   0.3700 
 25 H       -0.1440     3.7350    -2.6820 H     1 <1>   0.0800 
 26 H        1.1510     2.7530    -2.0340 H     1 <1>   0.0800 
 27 H       -1.1270     4.3860     1.3940 H     1 <1>   0.0800 
 28 H       -0.8370     5.6840    -1.2760 H     1 <1>   0.0800 
 29 H       -3.1490     4.2520    -1.7810 H     1 <1>   0.1500 
 30 H       -2.7960     5.8750     2.1630 H     1 <1>   0.1500 
 31 H       -5.0480     6.8140     1.9570 H     1 <1>   0.1500 
 32 H        2.1290     5.8460    -0.1190 H     1 <1>   0.3700 
 33 H        2.5800     7.1760     2.2040 H     1 <1>   0.1000 
 34 H       -6.0880     6.0570    -3.9740 H     1 <1>   0.0800 
 35 H       -4.8300     6.9330    -3.1060 H     1 <1>   0.0800 
 36 H       -6.4860     6.9240    -2.4960 H     1 <1>   0.0800 
 37 H        1.2590     9.2100     0.2980 H     1 <1>   0.1000 
 38 H        2.1100     9.6230     1.8170 H     1 <1>   0.1000 
 39 H        4.2400     8.6240     0.9330 H     1 <1>   0.1000 
 40 H        3.4180     8.2200    -0.6070 H     1 <1>   0.1000 
 41 H       -8.6040     6.1850    -0.0140 H     1 <1>   0.0800 
 42 H       -7.5780     4.9730     0.7510 H     1 <1>   0.0800 
 43 H       -7.6330     5.1040    -1.0080 H     1 <1>   0.0800 
@<TRIPOS>BOND
  1   1   2  2   
  2   2   3  am  
  3   2   4  1   
  4   3   5  1   
  5   3  24  1   
  6   4   6  1   
  7   4  25  1   
  8   4  26  1   
  9   5   7  1   
 10   5   8  1   
 11   5  27  1   
 12   6   8  1   
 13   7   9  ar  
 14   7  10  ar  
 15   8  11  1   
 16   8  28  1   
 17   9  12  ar  
 18   9  29  1   
 19  10  13  ar  
 20  10  30  1   
 21  11  14  2   
 22  11  15  am  
 23  12  16  1   
 24  12  17  ar  
 25  13  17  ar  
 26  13  31  1   
 27  15  18  1   
 28  15  32  1   
 29  16  19  1   
 30  17  20  1   
 31  18  21  1   
 32  18  22  1   
 33  18  33  1   
 34  19  34  1   
 35  19  35  1   
 36  19  36  1   
 37  20  23  1   
 38  21  22  1   
 39  21  37  1   
 40  21  38  1   
 41  22  39  1   
 42  22  40  1   
 43  23  41  1   
 44  23  42  1   
 45  23  43  1   
@<TRIPOS>SUBSTRUCTURE
  1 ****   7 GROUP 4 **** **** 0

# MOE 2024.06 (io_trps.svl 2023.06)
