@<TRIPOS>MOLECULE
NONAME
45 47 1 0 0 
SMALL
USER_CHARGES


@<TRIPOS>ATOM
  1 O       -0.4560    -1.3000    -0.4880 O.3   1 <1>  -0.5600 
  2 C        0.5050    -1.9060     0.3290 C.3   1 <1>   0.2000 
  3 C       -1.7160    -1.1580     0.0870 C.3   1 <1>   0.0400 
  4 C        1.9200    -1.4950    -0.1310 C.3   1 <1>   0.0000 
  5 C        0.4390    -3.4240     0.1130 C.3   1 <1>  -0.1600 
  6 C        2.9140    -1.7740     1.0230 C.3   1 <1>   0.2090 
  7 C        2.0270    -0.0060    -0.5390 C.3   1 <1>  -0.1600 
  8 C        2.1800    -2.4450    -1.3130 C.3   1 <1>  -0.1600 
  9 C        1.4850    -3.7630    -0.9580 C.3   1 <1>  -0.1600 
 10 N        4.3060    -1.3590     0.6670 N.pl3 1 <1>  -0.8380 
 11 C        3.4760     0.3970    -0.8570 C.3   1 <1>  -0.1600 
 12 C        5.3720    -2.2380     0.6490 C.ar  1 <1>   0.7200 
 13 C        4.4330     0.0770     0.2950 C.3   1 <1>   0.2090 
 14 N        5.0910    -3.5400     0.6970 N.ar  1 <1>  -0.6200 
 15 N        6.5940    -1.7110     0.5890 N.ar  1 <1>  -0.6200 
 16 C        6.1130    -4.3600     0.6750 C.ar  1 <1>   0.1600 
 17 C        7.5950    -2.5560     0.5710 C.ar  1 <1>   0.1600 
 18 C        7.4140    -3.9190     0.6130 C.ar  1 <1>  -0.1440 
 19 C        8.5880    -4.8850     0.5910 C.3   1 <1>  -0.0170 
 20 C        8.9470    -5.2630    -0.8470 C.3   1 <1>  -0.2400 
 21 H        0.3250    -1.6240     1.3530 H     1 <1>   0.0800 
 22 H       -2.3680    -0.7140    -0.6450 H     1 <1>   0.0800 
 23 H       -1.6430    -0.5120     0.9440 H     1 <1>   0.0800 
 24 H       -2.0950    -2.1240     0.3700 H     1 <1>   0.0800 
 25 H        0.7040    -3.9240     1.0280 H     1 <1>   0.0800 
 26 H       -0.5430    -3.7470    -0.1820 H     1 <1>   0.0800 
 27 H        2.8790    -2.8130     1.2960 H     1 <1>   0.0800 
 28 H        2.6130    -1.2130     1.8890 H     1 <1>   0.0800 
 29 H        1.4090     0.1880    -1.3980 H     1 <1>   0.0800 
 30 H        1.6610     0.6050     0.2670 H     1 <1>   0.0800 
 31 H        1.7190    -2.0430    -2.1990 H     1 <1>   0.0800 
 32 H        3.2290    -2.5880    -1.5070 H     1 <1>   0.0800 
 33 H        2.2050    -4.4590    -0.5620 H     1 <1>   0.0800 
 34 H        1.0250    -4.1930    -1.8310 H     1 <1>   0.0800 
 35 H        3.5180     1.4510    -1.0670 H     1 <1>   0.0800 
 36 H        3.8150    -0.1220    -1.7360 H     1 <1>   0.0800 
 37 H        4.1900     0.6810     1.1520 H     1 <1>   0.0800 
 38 H        5.4360     0.3210    -0.0080 H     1 <1>   0.0800 
 39 H        5.9050    -5.4150     0.7080 H     1 <1>   0.1500 
 40 H        8.5900    -2.1490     0.5190 H     1 <1>   0.1500 
 41 H        9.4400    -4.4310     1.0690 H     1 <1>   0.0800 
 42 H        8.3380    -5.7730     1.1460 H     1 <1>   0.0800 
 43 H        9.2160    -4.3850    -1.4080 H     1 <1>   0.0800 
 44 H        8.1090    -5.7350    -1.3300 H     1 <1>   0.0800 
 45 H        9.7780    -5.9450    -0.8550 H     1 <1>   0.0800 
@<TRIPOS>BOND
  1   1   2  1   
  2   1   3  1   
  3   2   4  1   
  4   2   5  1   
  5   2  21  1   
  6   3  22  1   
  7   3  23  1   
  8   3  24  1   
  9   4   6  1   
 10   4   7  1   
 11   4   8  1   
 12   5   9  1   
 13   5  25  1   
 14   5  26  1   
 15   6  10  1   
 16   6  27  1   
 17   6  28  1   
 18   7  11  1   
 19   7  29  1   
 20   7  30  1   
 21   8   9  1   
 22   8  31  1   
 23   8  32  1   
 24   9  33  1   
 25   9  34  1   
 26  10  12  1   
 27  10  13  1   
 28  11  13  1   
 29  11  35  1   
 30  11  36  1   
 31  12  14  ar  
 32  12  15  ar  
 33  13  37  1   
 34  13  38  1   
 35  14  16  ar  
 36  15  17  ar  
 37  16  18  ar  
 38  16  39  1   
 39  17  18  ar  
 40  17  40  1   
 41  18  19  1   
 42  19  20  1   
 43  19  41  1   
 44  19  42  1   
 45  20  43  1   
 46  20  44  1   
 47  20  45  1   
@<TRIPOS>SUBSTRUCTURE
  1 ****  10 GROUP 4 **** **** 0

# MOE 2024.06 (io_trps.svl 2023.06)
