@<TRIPOS>MOLECULE
NONAME
41 42 1 0 0 
SMALL
USER_CHARGES


@<TRIPOS>ATOM
  1 CL      -1.6490    -1.6770     1.6630 Cl    1 <1>  -0.1770 
  2 C       -1.8620    -0.0690     1.0150 C.ar  1 <1>   0.1770 
  3 C       -2.5030     0.1190    -0.2070 C.ar  1 <1>   0.0860 
  4 C       -1.3720     0.9900     1.7560 C.ar  1 <1>  -0.1500 
  5 C       -3.0350    -0.9830    -0.9750 C.2   1 <1>   0.5440 
  6 C       -2.6190     1.4290    -0.6720 C.ar  1 <1>  -0.1500 
  7 C       -1.5070     2.2820     1.2770 C.ar  1 <1>  -0.1500 
  8 O       -2.4910    -1.2880    -2.0200 O.2   1 <1>  -0.5700 
  9 N       -4.1620    -1.6650    -0.5780 N.am  1 <1>  -0.6600 
 10 C       -2.1300     2.4980     0.0590 C.ar  1 <1>  -0.1500 
 11 C       -4.6220    -2.8860    -1.3270 C.3   1 <1>   0.1400 
 12 C       -5.0090    -1.2510     0.5870 C.3   1 <1>   0.1400 
 13 C       -5.5780    -3.7190    -0.4650 C.3   1 <1>   0.2000 
 14 C       -6.4820    -1.4480     0.2290 C.3   1 <1>  -0.1600 
 15 O       -5.9210    -4.9000    -1.1030 O.3   1 <1>  -0.6800 
 16 C       -6.8530    -2.9450    -0.0320 C.3   1 <1>  -0.1060 
 17 C       -7.3020    -3.6860     1.2370 C.2   1 <1>   0.9060 
 18 C       -7.9810    -2.9830    -1.1130 C.3   1 <1>  -0.1600 
 19 O       -7.3030    -3.1100     2.3320 O.co2 1 <1>  -0.9000 
 20 O       -7.6020    -4.8860     1.1320 O.co2 1 <1>  -0.9000 
 21 C       -9.2680    -2.2430    -0.7050 C.3   1 <1>  -0.1600 
 22 C      -10.3400    -2.3670    -1.7920 C.3   1 <1>  -0.2400 
 23 H       -0.8870     0.8020     2.6970 H     1 <1>   0.1500 
 24 H       -3.0980     1.5980    -1.6210 H     1 <1>   0.1500 
 25 H       -1.1280     3.1140     1.8470 H     1 <1>   0.1500 
 26 H       -2.2330     3.5010    -0.3200 H     1 <1>   0.1500 
 27 H       -5.1220    -2.5780    -2.2270 H     1 <1>   0.0800 
 28 H       -3.7680    -3.4850    -1.5890 H     1 <1>   0.0800 
 29 H       -4.7610    -1.8480     1.4510 H     1 <1>   0.0800 
 30 H       -4.8410    -0.2170     0.8300 H     1 <1>   0.0800 
 31 H       -5.0300    -4.0120     0.4160 H     1 <1>   0.0800 
 32 H       -7.0970    -1.0470     1.0160 H     1 <1>   0.0800 
 33 H       -6.6740    -0.8570    -0.6480 H     1 <1>   0.0800 
 34 H       -6.5880    -5.3280    -0.5020 H     1 <1>   0.4000 
 35 H       -7.6070    -2.5710    -2.0330 H     1 <1>   0.0800 
 36 H       -8.2490    -4.0070    -1.3080 H     1 <1>   0.0800 
 37 H       -9.6460    -2.6640     0.2120 H     1 <1>   0.0800 
 38 H       -9.0670    -1.2010    -0.5320 H     1 <1>   0.0800 
 39 H      -10.5810    -3.4020    -1.9560 H     1 <1>   0.0800 
 40 H       -9.9890    -1.9400    -2.7150 H     1 <1>   0.0800 
 41 H      -11.2320    -1.8510    -1.4880 H     1 <1>   0.0800 
@<TRIPOS>BOND
  1   1   2  1   
  2   2   3  ar  
  3   2   4  ar  
  4   3   5  1   
  5   3   6  ar  
  6   4   7  ar  
  7   4  23  1   
  8   5   8  2   
  9   5   9  am  
 10   6  10  ar  
 11   6  24  1   
 12   7  10  ar  
 13   7  25  1   
 14   9  11  1   
 15   9  12  1   
 16  10  26  1   
 17  11  13  1   
 18  11  27  1   
 19  11  28  1   
 20  12  14  1   
 21  12  29  1   
 22  12  30  1   
 23  13  15  1   
 24  13  16  1   
 25  13  31  1   
 26  14  16  1   
 27  14  32  1   
 28  14  33  1   
 29  15  34  1   
 30  16  17  1   
 31  16  18  1   
 32  17  19  ar  
 33  17  20  ar  
 34  18  21  1   
 35  18  35  1   
 36  18  36  1   
 37  21  22  1   
 38  21  37  1   
 39  21  38  1   
 40  22  39  1   
 41  22  40  1   
 42  22  41  1   
@<TRIPOS>SUBSTRUCTURE
  1 ****  12 GROUP 4 **** **** 0

# MOE 2024.06 (io_trps.svl 2023.06)
