@<TRIPOS>MOLECULE
NONAME
60 64 1 0 0 
SMALL
USER_CHARGES


@<TRIPOS>ATOM
  1 O        0.3860    -0.1200     0.7860 O.2   1 <1>  -0.5700 
  2 C       -0.3050     0.7520     0.3160 C.2   1 <1>   0.5690 
  3 N       -1.6310     0.8830     0.6440 N.am  1 <1>  -0.6600 
  4 C        0.3620     1.7240    -0.6370 C.3   1 <1>  -0.0990 
  5 C       -2.5120     2.0060     0.1610 C.3   1 <1>   0.1400 
  6 C       -2.2490    -0.0790     1.6050 C.3   1 <1>   0.1400 
  7 C        0.8410     2.9750     0.1130 C.3   1 <1>   0.0210 
  8 C       -3.4730     2.4950     1.2610 C.3   1 <1>   0.1440 
  9 C       -3.7790    -0.0640     1.5090 C.3   1 <1>  -0.1600 
 10 C        0.7110     4.2030    -0.7650 C.2   1 <1>   0.1080 
 11 C       -4.2440     3.6820     0.7040 C.ar  1 <1>   0.1660 
 12 C       -4.3900     1.3340     1.7340 C.3   1 <1>  -0.1600 
 13 C       -2.6850     3.1480     2.4330 C.3   1 <1>  -0.1600 
 14 N       -0.3860     4.8940    -0.7970 N.2   1 <1>  -0.7070 
 15 C        1.6850     4.7140    -1.6200 C.2   1 <1>  -0.1810 
 16 N       -5.2320     3.6190    -0.1570 N.ar  1 <1>  -0.6200 
 17 C       -3.7640     4.8610     1.1860 C.ar  1 <1>  -0.1440 
 18 C       -2.6120     4.6550     2.1360 C.3   1 <1>  -0.0170 
 19 N       -0.1410     5.8740    -1.6850 N.pl3 1 <1>   0.3000 
 20 C        1.1050     5.7900    -2.1970 C.2   1 <1>  -0.3320 
 21 C        3.0770     4.1430    -1.8250 C.3   1 <1>  -0.0590 
 22 C       -5.7590     4.7930    -0.5330 C.ar  1 <1>   0.6200 
 23 C       -4.3540     6.0190     0.7520 C.ar  1 <1>   0.1600 
 24 C        1.6360     6.7780    -3.2220 C.3   1 <1>  -0.0600 
 25 N       -5.3520     5.9960    -0.1020 N.ar  1 <1>  -0.6200 
 26 C       -6.8590     4.7580    -1.4870 C.ar  1 <1>   0.0000 
 27 C       -7.8450     5.7490    -1.5070 C.ar  1 <1>  -0.1500 
 28 C       -6.9810     3.7310    -2.4280 C.ar  1 <1>  -0.1500 
 29 C       -8.8910     5.7190    -2.4120 C.ar  1 <1>  -0.1500 
 30 C       -8.0230     3.6940    -3.3360 C.ar  1 <1>  -0.1500 
 31 C       -8.9830     4.6890    -3.3300 C.ar  1 <1>  -0.1500 
 32 H       -0.3250     1.9860    -1.4190 H     1 <1>   0.0800 
 33 H        1.2020     1.2430    -1.1040 H     1 <1>   0.0800 
 34 H       -3.0880     1.6600    -0.6790 H     1 <1>   0.0800 
 35 H       -1.9250     2.8420    -0.1690 H     1 <1>   0.0800 
 36 H       -1.9430     0.1840     2.6030 H     1 <1>   0.0800 
 37 H       -1.8850    -1.0720     1.3990 H     1 <1>   0.0800 
 38 H        1.8580     2.8460     0.4360 H     1 <1>   0.0800 
 39 H        0.2420     3.1350     0.9910 H     1 <1>   0.0800 
 40 H       -4.1900    -0.7560     2.2230 H     1 <1>   0.0800 
 41 H       -4.0510    -0.4180     0.5300 H     1 <1>   0.0800 
 42 H       -5.3210     1.3680     1.1940 H     1 <1>   0.0800 
 43 H       -4.6380     1.4570     2.7720 H     1 <1>   0.0800 
 44 H       -1.7040     2.7280     2.5660 H     1 <1>   0.0800 
 45 H       -3.2270     3.0260     3.3530 H     1 <1>   0.0800 
 46 H       -1.6880     4.9030     1.6420 H     1 <1>   0.0800 
 47 H       -2.7180     5.2430     3.0300 H     1 <1>   0.0800 
 48 H       -0.8460     6.5810    -1.9250 H     1 <1>   0.2700 
 49 H        3.0090     3.1130    -2.1240 H     1 <1>   0.0800 
 50 H        3.6350     4.2050    -0.9080 H     1 <1>   0.0800 
 51 H        3.6080     4.6840    -2.5850 H     1 <1>   0.0800 
 52 H       -4.0030     6.9730     1.1070 H     1 <1>   0.1500 
 53 H        2.6490     6.5450    -3.4910 H     1 <1>   0.0800 
 54 H        1.6140     7.7750    -2.8200 H     1 <1>   0.0800 
 55 H        1.0330     6.7460    -4.1120 H     1 <1>   0.0800 
 56 H       -7.7900     6.5570    -0.7980 H     1 <1>   0.1500 
 57 H       -6.2430     2.9480    -2.4480 H     1 <1>   0.1500 
 58 H       -9.6340     6.4970    -2.4010 H     1 <1>   0.1500 
 59 H       -8.0880     2.8890    -4.0470 H     1 <1>   0.1500 
 60 H       -9.7950     4.6640    -4.0350 H     1 <1>   0.1500 
@<TRIPOS>BOND
  1   1   2  2   
  2   2   3  am  
  3   2   4  1   
  4   3   5  1   
  5   3   6  1   
  6   4   7  1   
  7   4  32  1   
  8   4  33  1   
  9   5   8  1   
 10   5  34  1   
 11   5  35  1   
 12   6   9  1   
 13   6  36  1   
 14   6  37  1   
 15   7  10  1   
 16   7  38  1   
 17   7  39  1   
 18   8  11  1   
 19   8  12  1   
 20   8  13  1   
 21   9  12  1   
 22   9  40  1   
 23   9  41  1   
 24  10  14  2   
 25  10  15  1   
 26  11  16  ar  
 27  11  17  ar  
 28  12  42  1   
 29  12  43  1   
 30  13  18  1   
 31  13  44  1   
 32  13  45  1   
 33  14  19  1   
 34  15  20  2   
 35  15  21  1   
 36  16  22  ar  
 37  17  18  1   
 38  17  23  ar  
 39  18  46  1   
 40  18  47  1   
 41  19  20  1   
 42  19  48  1   
 43  20  24  1   
 44  21  49  1   
 45  21  50  1   
 46  21  51  1   
 47  22  25  ar  
 48  22  26  1   
 49  23  25  ar  
 50  23  52  1   
 51  24  53  1   
 52  24  54  1   
 53  24  55  1   
 54  26  27  ar  
 55  26  28  ar  
 56  27  29  ar  
 57  27  56  1   
 58  28  30  ar  
 59  28  57  1   
 60  29  31  ar  
 61  29  58  1   
 62  30  31  ar  
 63  30  59  1   
 64  31  60  1   
@<TRIPOS>SUBSTRUCTURE
  1 ****  11 GROUP 4 **** **** 0

# MOE 2024.06 (io_trps.svl 2023.06)
