@<TRIPOS>MOLECULE
NONAME
43 45 1 0 0 
SMALL
USER_CHARGES


@<TRIPOS>ATOM
  1 CL       0.2380     0.6610     1.5150 Cl    1 <1>  -0.1770 
  2 C        1.1240    -0.6130     0.6920 C.ar  1 <1>   0.1770 
  3 C        0.5960    -1.9100     0.5790 C.ar  1 <1>   0.4100 
  4 C        2.3550    -0.3080     0.1730 C.ar  1 <1>  -0.1500 
  5 N        1.2690    -2.8960    -0.0180 N.ar  1 <1>  -0.6200 
  6 N       -0.6590    -2.2560     1.0730 N.pl3 1 <1>  -0.8380 
  7 C        3.0620    -1.3260    -0.4610 C.ar  1 <1>  -0.1790 
  8 C        2.4590    -2.5780    -0.5120 C.ar  1 <1>   0.1600 
  9 C       -0.8900    -3.6490     1.5570 C.3   1 <1>   0.2090 
 10 C       -1.8670    -1.6560     0.4400 C.3   1 <1>   0.2090 
 11 C        4.3680    -1.1240    -1.0460 C.2   1 <1>   0.9790 
 12 C       -1.3010    -4.5550     0.3670 C.3   1 <1>   0.4230 
 13 C       -2.3290    -2.5460    -0.7230 C.3   1 <1>  -0.1600 
 14 O        4.9080    -0.0060    -1.0200 O.co2 1 <1>  -0.9000 
 15 O        4.9600    -2.0750    -1.5850 O.co2 1 <1>  -0.9000 
 16 N       -1.4560    -6.0140     0.7070 N.4   1 <1>  -0.9590 
 17 C       -2.5920    -4.0150    -0.2840 C.3   1 <1>  -0.1060 
 18 C       -1.7150    -6.8350    -0.5010 C.3   1 <1>   0.3430 
 19 C       -0.3610    -6.5680     1.5460 C.3   1 <1>   0.2630 
 20 C       -3.7330    -4.0870     0.7470 C.2   1 <1>   0.9060 
 21 C       -2.9310    -4.8550    -1.5390 C.3   1 <1>  -0.1600 
 22 C       -2.9820    -6.3550    -1.2130 C.3   1 <1>  -0.1600 
 23 O       -3.7170    -4.9920     1.5990 O.co2 1 <1>  -0.9000 
 24 O       -4.6390    -3.2560     0.7070 O.co2 1 <1>  -0.9000 
 25 H        2.7760     0.6800     0.2480 H     1 <1>   0.1500 
 26 H        3.0090    -3.3670    -1.0010 H     1 <1>   0.1500 
 27 H        0.0220    -4.0040     2.0020 H     1 <1>   0.0800 
 28 H       -1.6550    -3.6370     2.3140 H     1 <1>   0.0800 
 29 H       -2.6510    -1.5640     1.1750 H     1 <1>   0.0800 
 30 H       -1.6450    -0.6700     0.0690 H     1 <1>   0.0800 
 31 H       -0.5110    -4.4730    -0.3600 H     1 <1>   0.0800 
 32 H       -3.2290    -2.1260    -1.1370 H     1 <1>   0.0800 
 33 H       -1.5740    -2.5130    -1.4900 H     1 <1>   0.0800 
 34 H       -2.3570    -5.9910     1.2580 H     1 <1>   0.4500 
 35 H       -0.8750    -6.7590    -1.1730 H     1 <1>   0.0800 
 36 H       -1.8390    -7.8680    -0.2200 H     1 <1>   0.0800 
 37 H        0.5830    -6.4680     1.0360 H     1 <1>   0.0800 
 38 H       -0.5440    -7.6100     1.7520 H     1 <1>   0.0800 
 39 H       -0.3090    -6.0410     2.4840 H     1 <1>   0.0800 
 40 H       -3.8850    -4.5400    -1.9300 H     1 <1>   0.0800 
 41 H       -2.1890    -4.6860    -2.3000 H     1 <1>   0.0800 
 42 H       -3.1090    -6.9130    -2.1230 H     1 <1>   0.0800 
 43 H       -3.8350    -6.5640    -0.5900 H     1 <1>   0.0800 
@<TRIPOS>BOND
  1   1   2  1   
  2   2   3  ar  
  3   2   4  ar  
  4   3   5  ar  
  5   3   6  1   
  6   4   7  ar  
  7   4  25  1   
  8   5   8  ar  
  9   6   9  1   
 10   6  10  1   
 11   7   8  ar  
 12   7  11  1   
 13   8  26  1   
 14   9  12  1   
 15   9  27  1   
 16   9  28  1   
 17  10  13  1   
 18  10  29  1   
 19  10  30  1   
 20  11  14  ar  
 21  11  15  ar  
 22  12  16  1   
 23  12  17  1   
 24  12  31  1   
 25  13  17  1   
 26  13  32  1   
 27  13  33  1   
 28  16  18  1   
 29  16  19  1   
 30  16  34  1   
 31  17  20  1   
 32  17  21  1   
 33  18  22  1   
 34  18  35  1   
 35  18  36  1   
 36  19  37  1   
 37  19  38  1   
 38  19  39  1   
 39  20  23  ar  
 40  20  24  ar  
 41  21  22  1   
 42  21  40  1   
 43  21  41  1   
 44  22  42  1   
 45  22  43  1   
@<TRIPOS>SUBSTRUCTURE
  1 ****   6 GROUP 4 **** **** 0

# MOE 2024.06 (io_trps.svl 2023.06)
