@<TRIPOS>MOLECULE
NONAME
45 46 1 0 0 
SMALL
USER_CHARGES


@<TRIPOS>ATOM
  1 O        8.0440     0.6250     1.1530 O.co2 1 <1>  -0.9000 
  2 C        7.1930     0.5090     0.2720 C.2   1 <1>   0.9060 
  3 O        6.9470    -0.5480    -0.3210 O.co2 1 <1>  -0.9000 
  4 C        6.3910     1.7320    -0.0970 C.3   1 <1>  -0.1860 
  5 C        6.3020     1.8960    -1.6200 C.3   1 <1>   0.2000 
  6 C        4.9830     1.7250     0.5520 C.3   1 <1>  -0.1600 
  7 O        5.5830     0.8210    -2.1140 O.3   1 <1>  -0.6800 
  8 C        5.5560     3.1960    -1.9910 C.3   1 <1>   0.3430 
  9 C        3.9500     2.5380    -0.2370 C.3   1 <1>   0.3430 
 10 N        4.6410     3.6810    -0.8870 N.4   1 <1>  -0.9590 
 11 C        3.7420     4.7890    -1.3100 C.3   1 <1>   0.3430 
 12 C        4.3450     6.1840    -1.0410 C.3   1 <1>   0.1200 
 13 O        5.6250     6.3280    -1.6300 O.3   1 <1>  -0.3630 
 14 C        6.8360     6.0150    -1.0740 C.ar  1 <1>   0.0820 
 15 C        7.0790     5.4450     0.1910 C.ar  1 <1>   0.0820 
 16 C        7.9080     6.2760    -1.9140 C.ar  1 <1>  -0.1500 
 17 O        6.0460     5.1890     1.0450 O.3   1 <1>  -0.3630 
 18 C        8.3890     5.1240     0.5450 C.ar  1 <1>  -0.1500 
 19 C        9.2030     5.9650    -1.5430 C.ar  1 <1>  -0.1500 
 20 C        6.2680     4.8480     2.3990 C.3   1 <1>   0.1200 
 21 C        9.4410     5.3820    -0.3150 C.ar  1 <1>  -0.1500 
 22 C        4.9190     4.8530     3.1110 C.3   1 <1>  -0.2400 
 23 H        6.9420     2.5700     0.2830 H     1 <1>   0.0800 
 24 H        7.2790     1.8690    -2.0740 H     1 <1>   0.0800 
 25 H        5.0550     2.0850     1.5620 H     1 <1>   0.0800 
 26 H        4.6240     0.7110     0.6090 H     1 <1>   0.0800 
 27 H        5.9700     0.0120    -1.6580 H     1 <1>   0.4000 
 28 H        4.9950     3.0160    -2.8920 H     1 <1>   0.0800 
 29 H        6.2860     3.9570    -2.2010 H     1 <1>   0.0800 
 30 H        3.1730     2.8810     0.4260 H     1 <1>   0.0800 
 31 H        3.5090     1.9110    -0.9960 H     1 <1>   0.0800 
 32 H        5.2710     4.0750    -0.1640 H     1 <1>   0.4500 
 33 H        3.5140     4.6940    -2.3580 H     1 <1>   0.0800 
 34 H        2.8140     4.7210    -0.7690 H     1 <1>   0.0800 
 35 H        4.3910     6.4230     0.0040 H     1 <1>   0.0800 
 36 H        3.7120     6.9220    -1.5020 H     1 <1>   0.0800 
 37 H        7.7260     6.7260    -2.8730 H     1 <1>   0.1500 
 38 H        8.6260     4.6590     1.4840 H     1 <1>   0.1500 
 39 H       10.0220     6.1730    -2.2100 H     1 <1>   0.1500 
 40 H        6.7210     3.8710     2.4420 H     1 <1>   0.0800 
 41 H        6.9260     5.5810     2.8350 H     1 <1>   0.0800 
 42 H       10.4460     5.1270    -0.0250 H     1 <1>   0.1500 
 43 H        4.2540     4.1360     2.6680 H     1 <1>   0.0800 
 44 H        4.4800     5.8340     3.0680 H     1 <1>   0.0800 
 45 H        5.0600     4.5910     4.1450 H     1 <1>   0.0800 
@<TRIPOS>BOND
  1   1   2  ar  
  2   2   3  ar  
  3   2   4  1   
  4   4   5  1   
  5   4   6  1   
  6   4  23  1   
  7   5   7  1   
  8   5   8  1   
  9   5  24  1   
 10   6   9  1   
 11   6  25  1   
 12   6  26  1   
 13   7  27  1   
 14   8  10  1   
 15   8  28  1   
 16   8  29  1   
 17   9  10  1   
 18   9  30  1   
 19   9  31  1   
 20  10  11  1   
 21  10  32  1   
 22  11  12  1   
 23  11  33  1   
 24  11  34  1   
 25  12  13  1   
 26  12  35  1   
 27  12  36  1   
 28  13  14  1   
 29  14  15  ar  
 30  14  16  ar  
 31  15  17  1   
 32  15  18  ar  
 33  16  19  ar  
 34  16  37  1   
 35  17  20  1   
 36  18  21  ar  
 37  18  38  1   
 38  19  21  ar  
 39  19  39  1   
 40  20  22  1   
 41  20  40  1   
 42  20  41  1   
 43  21  42  1   
 44  22  43  1   
 45  22  44  1   
 46  22  45  1   
@<TRIPOS>SUBSTRUCTURE
  1 ****  10 GROUP 4 **** **** 0

# MOE 2024.06 (io_trps.svl 2023.06)
