@<TRIPOS>MOLECULE
NONAME
53 56 1 0 0 
SMALL
USER_CHARGES


@<TRIPOS>ATOM
  1 N        0.1040     0.1700     0.3570 N.ar  1 <1>  -0.6200 
  2 C       -0.8090     1.0480     0.7780 C.ar  1 <1>   0.7200 
  3 C        1.1800     0.6940    -0.1770 C.ar  1 <1>   0.1660 
  4 N       -0.7170     2.3800     0.7070 N.ar  1 <1>  -0.6200 
  5 N       -1.9590     0.5290     1.3430 N.pl3 1 <1>  -0.8380 
  6 C        1.3720     2.0380    -0.2880 C.ar  1 <1>  -0.1430 
  7 C        2.3630    -0.0800    -0.7270 C.3   1 <1>   0.1430 
  8 C        0.3800     2.8650     0.1750 C.ar  1 <1>   0.1600 
  9 C       -3.1740     1.3590     1.5670 C.3   1 <1>   0.1290 
 10 C       -2.0570    -0.8950     1.7650 C.3   1 <1>   0.1290 
 11 C        2.7000     2.3640    -0.9240 C.3   1 <1>  -0.0160 
 12 C        3.1990    -0.5960     0.4600 C.3   1 <1>   0.2090 
 13 C        1.9470    -1.2640    -1.6250 C.3   1 <1>  -0.1600 
 14 C        3.1220     1.0130    -1.5240 C.3   1 <1>  -0.1600 
 15 N        4.3800    -1.3910    -0.0020 N.pl3 1 <1>  -0.8380 
 16 C        3.1720    -2.0930    -2.0530 C.3   1 <1>  -0.1600 
 17 C        5.4010    -1.5460     0.9530 C.ar  1 <1>   0.4100 
 18 C        3.9950    -2.5580    -0.8450 C.3   1 <1>   0.2090 
 19 N        5.5940    -2.7900     1.3670 N.ar  1 <1>  -0.6200 
 20 C        6.1660    -0.4320     1.4630 C.ar  1 <1>   0.4100 
 21 C        6.5300    -2.8870     2.2990 C.ar  1 <1>   0.1600 
 22 N        7.0890    -0.5650     2.4030 N.ar  1 <1>  -0.6200 
 23 N        6.0190     0.8780     0.9740 N.pl3 1 <1>  -0.8380 
 24 C        7.2450    -1.8190     2.7990 C.ar  1 <1>   0.1600 
 25 C        6.6900     1.1190    -0.3260 C.3   1 <1>   0.1290 
 26 C        6.1580     2.0050     1.9360 C.3   1 <1>   0.1290 
 27 H        0.4870     3.9330     0.1080 H     1 <1>   0.1500 
 28 H       -3.2260     2.1550     0.8450 H     1 <1>   0.0800 
 29 H       -3.1410     1.7850     2.5540 H     1 <1>   0.0800 
 30 H       -4.0590     0.7550     1.4680 H     1 <1>   0.0800 
 31 H       -1.0900    -1.2680     2.0590 H     1 <1>   0.0800 
 32 H       -2.4250    -1.4880     0.9460 H     1 <1>   0.0800 
 33 H       -2.7240    -0.9890     2.6030 H     1 <1>   0.0800 
 34 H        3.4000     2.6720    -0.1650 H     1 <1>   0.0800 
 35 H        2.6120     3.1250    -1.6790 H     1 <1>   0.0800 
 36 H        2.5810    -1.2220     1.0810 H     1 <1>   0.0800 
 37 H        3.5220     0.2370     1.0590 H     1 <1>   0.0800 
 38 H        1.4150    -0.9070    -2.4890 H     1 <1>   0.0800 
 39 H        1.2760    -1.8980    -1.0720 H     1 <1>   0.0800 
 40 H        2.8060     0.9900    -2.5510 H     1 <1>   0.0800 
 41 H        4.1850     0.8720    -1.4940 H     1 <1>   0.0800 
 42 H        3.8070    -1.5110    -2.6970 H     1 <1>   0.0800 
 43 H        2.8470    -2.9550    -2.6070 H     1 <1>   0.0800 
 44 H        3.4200    -3.2480    -0.2500 H     1 <1>   0.0800 
 45 H        4.8840    -3.0640    -1.1830 H     1 <1>   0.0800 
 46 H        6.7310    -3.8720     2.6810 H     1 <1>   0.1500 
 47 H        7.9820    -1.9960     3.5610 H     1 <1>   0.1500 
 48 H        6.5190     0.2850    -0.9860 H     1 <1>   0.0800 
 49 H        7.7500     1.2300    -0.1740 H     1 <1>   0.0800 
 50 H        6.2980     2.0090    -0.7830 H     1 <1>   0.0800 
 51 H        5.6840     1.7470     2.8670 H     1 <1>   0.0800 
 52 H        5.6870     2.8860     1.5390 H     1 <1>   0.0800 
 53 H        7.1990     2.2050     2.1200 H     1 <1>   0.0800 
@<TRIPOS>BOND
  1   1   2  ar  
  2   1   3  ar  
  3   2   4  ar  
  4   2   5  1   
  5   3   6  ar  
  6   3   7  1   
  7   4   8  ar  
  8   5   9  1   
  9   5  10  1   
 10   6   8  ar  
 11   6  11  1   
 12   7  12  1   
 13   7  13  1   
 14   7  14  1   
 15   8  27  1   
 16   9  28  1   
 17   9  29  1   
 18   9  30  1   
 19  10  31  1   
 20  10  32  1   
 21  10  33  1   
 22  11  14  1   
 23  11  34  1   
 24  11  35  1   
 25  12  15  1   
 26  12  36  1   
 27  12  37  1   
 28  13  16  1   
 29  13  38  1   
 30  13  39  1   
 31  14  40  1   
 32  14  41  1   
 33  15  17  1   
 34  15  18  1   
 35  16  18  1   
 36  16  42  1   
 37  16  43  1   
 38  17  19  ar  
 39  17  20  ar  
 40  18  44  1   
 41  18  45  1   
 42  19  21  ar  
 43  20  22  ar  
 44  20  23  1   
 45  21  24  ar  
 46  21  46  1   
 47  22  24  ar  
 48  23  25  1   
 49  23  26  1   
 50  24  47  1   
 51  25  48  1   
 52  25  49  1   
 53  25  50  1   
 54  26  51  1   
 55  26  52  1   
 56  26  53  1   
@<TRIPOS>SUBSTRUCTURE
  1 ****  12 GROUP 4 **** **** 0

# MOE 2024.06 (io_trps.svl 2023.06)
