@<TRIPOS>MOLECULE
NONAME
47 49 1 0 0 
SMALL
USER_CHARGES


@<TRIPOS>ATOM
  1 S        0.5420    -0.3060    -0.9370 S.o2  1 <1>   1.3330 
  2 O       -0.2380    -0.3580    -2.1530 O.2   1 <1>  -0.6500 
  3 O        0.5330    -1.4370    -0.0370 O.2   1 <1>  -0.6500 
  4 N        0.0250     1.0530    -0.0610 N.am  1 <1>  -0.8490 
  5 C        2.2480     0.0590    -1.3520 C.3   1 <1>  -0.0550 
  6 C       -0.0910     2.2670    -0.8790 C.3   1 <1>   0.1160 
  7 C       -1.2390     0.7960     0.6330 C.3   1 <1>   0.1160 
  8 C        3.1290     0.4150    -0.1420 C.3   1 <1>  -0.0800 
  9 C        4.5040     0.9100    -0.5810 C.3   1 <1>   0.2200 
 10 C        3.4350    -0.7680     0.7810 C.3   1 <1>   0.1200 
 11 N        4.7220     2.2740    -0.0530 N.am  1 <1>  -0.7300 
 12 C        5.4650    -0.0910     0.0540 C.3   1 <1>   0.1200 
 13 O        4.7750    -0.6300     1.1320 O.3   1 <1>  -0.5600 
 14 C        4.2270     3.4100    -0.6300 C.2   1 <1>   0.5440 
 15 O        3.5720     3.2940    -1.6490 O.2   1 <1>  -0.5700 
 16 C        4.4720     4.7120    -0.0390 C.ar  1 <1>   0.0860 
 17 C        4.5850     5.8490    -0.8430 C.ar  1 <1>  -0.1500 
 18 C        4.6050     4.8830     1.3430 C.ar  1 <1>  -0.1500 
 19 C        4.8370     7.0930    -0.2980 C.ar  1 <1>   0.0820 
 20 C        4.8620     6.1250     1.8980 C.ar  1 <1>  -0.1500 
 21 O        4.9290     8.1670    -1.1240 O.3   1 <1>  -0.3620 
 22 C        4.9880     7.2340     1.0820 C.ar  1 <1>   0.0820 
 23 C        4.8510     9.4460    -0.5230 C.3   1 <1>   0.1200 
 24 O        5.2610     8.4360     1.6400 O.3   1 <1>  -0.3630 
 25 C        5.6720     9.4770     0.7730 C.3   1 <1>   0.1200 
 26 H        2.6710    -0.7800    -1.8700 H     1 <1>   0.0800 
 27 H        2.2600     0.8900    -2.0310 H     1 <1>   0.0800 
 28 H       -0.3950     3.0980    -0.2650 H     1 <1>   0.0800 
 29 H       -0.8170     2.1270    -1.6630 H     1 <1>   0.0800 
 30 H        0.8590     2.5130    -1.3220 H     1 <1>   0.0800 
 31 H       -1.5290     1.6560     1.2110 H     1 <1>   0.0800 
 32 H       -1.1260    -0.0390     1.3050 H     1 <1>   0.0800 
 33 H       -2.0160     0.5650    -0.0770 H     1 <1>   0.0800 
 34 H        2.6340     1.1740     0.4390 H     1 <1>   0.0800 
 35 H        4.6240     0.9180    -1.6520 H     1 <1>   0.0800 
 36 H        3.3190    -1.7130     0.2770 H     1 <1>   0.0800 
 37 H        2.8320    -0.7580     1.6740 H     1 <1>   0.0800 
 38 H        5.1830     2.3160     0.8570 H     1 <1>   0.3700 
 39 H        6.3790     0.3610     0.3980 H     1 <1>   0.0800 
 40 H        5.6840    -0.8930    -0.6280 H     1 <1>   0.0800 
 41 H        4.4740     5.7570    -1.9090 H     1 <1>   0.1500 
 42 H        4.5010     4.0350     1.9960 H     1 <1>   0.1500 
 43 H        4.9670     6.2440     2.9620 H     1 <1>   0.1500 
 44 H        5.2220    10.1670    -1.2290 H     1 <1>   0.0800 
 45 H        3.8160     9.6550    -0.3160 H     1 <1>   0.0800 
 46 H        5.5380    10.4100     1.2890 H     1 <1>   0.0800 
 47 H        6.7160     9.3380     0.5570 H     1 <1>   0.0800 
@<TRIPOS>BOND
  1   1   2  2   
  2   1   3  2   
  3   1   4  am  
  4   1   5  1   
  5   4   6  1   
  6   4   7  1   
  7   5   8  1   
  8   5  26  1   
  9   5  27  1   
 10   6  28  1   
 11   6  29  1   
 12   6  30  1   
 13   7  31  1   
 14   7  32  1   
 15   7  33  1   
 16   8   9  1   
 17   8  10  1   
 18   8  34  1   
 19   9  11  1   
 20   9  12  1   
 21   9  35  1   
 22  10  13  1   
 23  10  36  1   
 24  10  37  1   
 25  11  14  am  
 26  11  38  1   
 27  12  13  1   
 28  12  39  1   
 29  12  40  1   
 30  14  15  2   
 31  14  16  1   
 32  16  17  ar  
 33  16  18  ar  
 34  17  19  ar  
 35  17  41  1   
 36  18  20  ar  
 37  18  42  1   
 38  19  21  1   
 39  19  22  ar  
 40  20  22  ar  
 41  20  43  1   
 42  21  23  1   
 43  22  24  1   
 44  23  25  1   
 45  23  44  1   
 46  23  45  1   
 47  24  25  1   
 48  25  46  1   
 49  25  47  1   
@<TRIPOS>SUBSTRUCTURE
  1 ****  14 GROUP 4 **** **** 0

# MOE 2024.06 (io_trps.svl 2023.06)
