@<TRIPOS>MOLECULE
NONAME
54 57 1 0 0 
SMALL
USER_CHARGES


@<TRIPOS>ATOM
  1 O       -1.1010     0.9500     1.6140 O.2   1 <1>  -0.5700 
  2 C       -2.0250     1.2870     0.8980 C.2   1 <1>   0.7160 
  3 N       -3.2700     0.7270     1.0940 N.am  1 <1>  -0.6600 
  4 C       -1.7910     2.2440    -0.1530 C.2   1 <1>  -0.0860 
  5 C       -3.5760    -0.1210     2.2800 C.3   1 <1>   0.1400 
  6 C       -4.3430     0.7200     0.0620 C.3   1 <1>   0.1400 
  7 C       -2.3860     3.4170    -0.4540 C.2   1 <1>  -0.0400 
  8 C       -0.8400     2.1600    -1.1560 C.2   1 <1>   0.1080 
  9 C       -3.7930    -1.5650     1.8230 C.3   1 <1>  -0.1600 
 10 C       -4.5620    -0.7150    -0.4190 C.3   1 <1>  -0.1600 
 11 O       -1.8760     3.9720    -1.5270 O.3   1 <1>  -0.0190 
 12 C       -3.5050     4.1450     0.2640 C.3   1 <1>  -0.0600 
 13 N       -0.9200     3.1690    -1.9390 N.2   1 <1>  -0.4100 
 14 C        0.1620     1.0360    -1.3220 C.3   1 <1>  -0.0590 
 15 C       -4.8830    -1.6690     0.7450 C.3   1 <1>   0.4240 
 16 O       -6.0630    -1.2140     1.3660 O.3   1 <1>  -0.5600 
 17 C       -5.0160    -3.1250     0.2530 C.ar  1 <1>  -0.1430 
 18 C       -7.2790    -1.6150     0.8140 C.3   1 <1>   0.1200 
 19 C       -6.2150    -3.8170     0.3590 C.ar  1 <1>  -0.1430 
 20 C       -3.9310    -3.7780    -0.3170 C.ar  1 <1>  -0.1500 
 21 C       -7.4180    -3.1260     0.9700 C.3   1 <1>  -0.0170 
 22 C       -6.3190    -5.1240    -0.0900 C.ar  1 <1>  -0.1500 
 23 C       -4.0140    -5.0840    -0.7660 C.ar  1 <1>   0.0820 
 24 C       -5.2310    -5.7750    -0.6640 C.ar  1 <1>   0.0820 
 25 O       -2.8560    -5.5830    -1.2870 O.3   1 <1>  -0.3630 
 26 O       -5.3350    -7.0510    -1.1410 O.3   1 <1>  -0.3630 
 27 C       -2.5270    -6.9480    -1.1580 C.3   1 <1>   0.0400 
 28 C       -6.5720    -7.7260    -1.2170 C.3   1 <1>   0.0400 
 29 H       -4.4650     0.2500     2.7600 H     1 <1>   0.0800 
 30 H       -2.7730    -0.0830     2.9970 H     1 <1>   0.0800 
 31 H       -4.0810     1.3380    -0.7790 H     1 <1>   0.0800 
 32 H       -5.2510     1.1070     0.4930 H     1 <1>   0.0800 
 33 H       -4.0710    -2.1760     2.6630 H     1 <1>   0.0800 
 34 H       -2.8600    -1.9390     1.4480 H     1 <1>   0.0800 
 35 H       -3.6670    -1.0430    -0.9150 H     1 <1>   0.0800 
 36 H       -5.3510    -0.7450    -1.1470 H     1 <1>   0.0800 
 37 H       -3.8080     3.6060     1.1430 H     1 <1>   0.0800 
 38 H       -4.3500     4.2520    -0.3910 H     1 <1>   0.0800 
 39 H       -3.1680     5.1230     0.5590 H     1 <1>   0.0800 
 40 H       -0.3510     0.0960    -1.4070 H     1 <1>   0.0800 
 41 H        0.8150     1.0050    -0.4690 H     1 <1>   0.0800 
 42 H        0.7510     1.1950    -2.2070 H     1 <1>   0.0800 
 43 H       -7.3100    -1.3280    -0.2230 H     1 <1>   0.0800 
 44 H       -8.0650    -1.1070     1.3440 H     1 <1>   0.0800 
 45 H       -2.9860    -3.2770    -0.4230 H     1 <1>   0.1500 
 46 H       -8.3210    -3.4490     0.4850 H     1 <1>   0.0800 
 47 H       -7.4880    -3.3730     2.0150 H     1 <1>   0.0800 
 48 H       -7.2640    -5.6200     0.0170 H     1 <1>   0.1500 
 49 H       -1.4660    -7.0510    -1.2910 H     1 <1>   0.0800 
 50 H       -3.0440    -7.5030    -1.9200 H     1 <1>   0.0800 
 51 H       -2.8130    -7.2880    -0.1780 H     1 <1>   0.0800 
 52 H       -6.4030    -8.6770    -1.6890 H     1 <1>   0.0800 
 53 H       -7.2530    -7.1410    -1.8100 H     1 <1>   0.0800 
 54 H       -6.9510    -7.8750    -0.2220 H     1 <1>   0.0800 
@<TRIPOS>BOND
  1   1   2  2   
  2   2   3  am  
  3   2   4  1   
  4   3   5  1   
  5   3   6  1   
  6   4   7  2   
  7   4   8  1   
  8   5   9  1   
  9   5  29  1   
 10   5  30  1   
 11   6  10  1   
 12   6  31  1   
 13   6  32  1   
 14   7  11  1   
 15   7  12  1   
 16   8  13  2   
 17   8  14  1   
 18   9  15  1   
 19   9  33  1   
 20   9  34  1   
 21  10  15  1   
 22  10  35  1   
 23  10  36  1   
 24  11  13  1   
 25  12  37  1   
 26  12  38  1   
 27  12  39  1   
 28  14  40  1   
 29  14  41  1   
 30  14  42  1   
 31  15  16  1   
 32  15  17  1   
 33  16  18  1   
 34  17  19  ar  
 35  17  20  ar  
 36  18  21  1   
 37  18  43  1   
 38  18  44  1   
 39  19  21  1   
 40  19  22  ar  
 41  20  23  ar  
 42  20  45  1   
 43  21  46  1   
 44  21  47  1   
 45  22  24  ar  
 46  22  48  1   
 47  23  24  ar  
 48  23  25  1   
 49  24  26  1   
 50  25  27  1   
 51  26  28  1   
 52  27  49  1   
 53  27  50  1   
 54  27  51  1   
 55  28  52  1   
 56  28  53  1   
 57  28  54  1   
@<TRIPOS>SUBSTRUCTURE
  1 ****  10 GROUP 4 **** **** 0

# MOE 2024.06 (io_trps.svl 2023.06)
