@<TRIPOS>MOLECULE
NONAME
41 43 1 0 0 
SMALL
USER_CHARGES


@<TRIPOS>ATOM
  1 O        0.1650    -0.9020     0.6760 O.3   1 <1>  -0.5600 
  2 C       -0.1540    -2.2170     0.3380 C.3   1 <1>   0.2000 
  3 C        0.7450    -0.1460    -0.3390 C.3   1 <1>   0.1200 
  4 C       -1.2510    -2.6920     1.3040 C.3   1 <1>   0.2090 
  5 C        1.1020    -3.0980     0.4440 C.3   1 <1>  -0.1600 
  6 C        0.9760     1.2630     0.2050 C.3   1 <1>  -0.1600 
  7 N       -1.5550    -4.1460     1.0900 N.pl3 1 <1>  -0.8380 
  8 C        0.7380    -4.5830     0.2690 C.3   1 <1>  -0.1600 
  9 C        1.6150     2.1720    -0.8510 C.3   1 <1>  -0.2400 
 10 C       -2.7410    -4.5970     0.5820 C.2   1 <1>   0.2710 
 11 C       -0.3570    -5.0250     1.2460 C.3   1 <1>   0.2090 
 12 N       -2.6830    -5.6170    -0.2860 N.2   1 <1>  -0.6210 
 13 C       -3.9420    -4.0370     0.9430 C.2   1 <1>  -0.1410 
 14 C       -3.7820    -6.0620    -0.8000 C.2   1 <1>   0.9190 
 15 C       -5.0770    -4.5550     0.3710 C.cat 1 <1>   0.7910 
 16 N       -4.9980    -5.5580    -0.5000 N.pl3 1 <1>  -0.6690 
 17 N       -3.7000    -7.0670    -1.6680 N.pl3 1 <1>  -0.8500 
 18 N       -6.3830    -4.2650     0.4950 N.pl3 1 <1>  -0.3930 
 19 C       -6.2900    -5.8360    -0.8680 C.2   1 <1>   0.5030 
 20 N       -7.1430    -5.0770    -0.2890 N.2   1 <1>  -0.2600 
 21 H       -0.5490    -2.2360    -0.6640 H     1 <1>   0.0800 
 22 H        0.0750    -0.1200    -1.1810 H     1 <1>   0.0800 
 23 H        1.6800    -0.5950    -0.6250 H     1 <1>   0.0800 
 24 H       -2.1260    -2.0910     1.1430 H     1 <1>   0.0800 
 25 H       -0.9140    -2.5510     2.3170 H     1 <1>   0.0800 
 26 H        1.5510    -2.9550     1.4110 H     1 <1>   0.0800 
 27 H        1.8150    -2.8230    -0.3120 H     1 <1>   0.0800 
 28 H        1.6220     1.2070     1.0630 H     1 <1>   0.0800 
 29 H        0.0340     1.6820     0.5110 H     1 <1>   0.0800 
 30 H        1.6140    -5.1880     0.4240 H     1 <1>   0.0800 
 31 H        0.3920    -4.7580    -0.7340 H     1 <1>   0.0800 
 32 H        2.5680     1.7800    -1.1590 H     1 <1>   0.0800 
 33 H        1.7660     3.1560    -0.4440 H     1 <1>   0.0800 
 34 H        0.9770     2.2540    -1.7140 H     1 <1>   0.0800 
 35 H       -0.6130    -6.0550     1.0690 H     1 <1>   0.0800 
 36 H        0.0050    -4.9460     2.2570 H     1 <1>   0.0800 
 37 H       -3.9960    -3.2360     1.6520 H     1 <1>   0.1500 
 38 H       -2.7670    -7.4240    -1.8820 H     1 <1>   0.4000 
 39 H       -4.4660    -7.4920    -2.1790 H     1 <1>   0.4000 
 40 H       -6.7800    -3.5360     1.0990 H     1 <1>   0.4500 
 41 H       -6.5390    -6.6160    -1.5710 H     1 <1>   0.1500 
@<TRIPOS>BOND
  1   1   2  1   
  2   1   3  1   
  3   2   4  1   
  4   2   5  1   
  5   2  21  1   
  6   3   6  1   
  7   3  22  1   
  8   3  23  1   
  9   4   7  1   
 10   4  24  1   
 11   4  25  1   
 12   5   8  1   
 13   5  26  1   
 14   5  27  1   
 15   6   9  1   
 16   6  28  1   
 17   6  29  1   
 18   7  10  1   
 19   7  11  1   
 20   8  11  1   
 21   8  30  1   
 22   8  31  1   
 23   9  32  1   
 24   9  33  1   
 25   9  34  1   
 26  10  12  1   
 27  10  13  2   
 28  11  35  1   
 29  11  36  1   
 30  12  14  2   
 31  13  15  1   
 32  13  37  1   
 33  14  16  1   
 34  14  17  1   
 35  15  16  ar  
 36  15  18  ar  
 37  16  19  1   
 38  17  38  1   
 39  17  39  1   
 40  18  20  1   
 41  18  40  1   
 42  19  20  2   
 43  19  41  1   
@<TRIPOS>SUBSTRUCTURE
  1 ****  10 GROUP 4 **** **** 0

# MOE 2024.06 (io_trps.svl 2023.06)
