@<TRIPOS>MOLECULE
NONAME
44 46 1 0 0 
SMALL
USER_CHARGES


@<TRIPOS>ATOM
  1 S       -0.0470    -0.2820    -0.3340 S.3   1 <1>  -0.0800 
  2 C       -1.5110     0.6950    -0.2810 C.2   1 <1>   0.4620 
  3 C        0.8750     1.0900     0.1880 C.2   1 <1>  -0.1100 
  4 N       -1.2950     1.9030     0.0920 N.2   1 <1>  -0.5650 
  5 N       -2.7310     0.1350    -0.6150 N.pl3 1 <1>  -0.8220 
  6 C        0.0600     2.1510     0.3620 C.2   1 <1>   0.1410 
  7 C       -2.9430    -1.3030    -0.9390 C.3   1 <1>   0.2090 
  8 C       -3.9650     0.9700    -0.6250 C.3   1 <1>   0.2090 
  9 C        0.5010     3.4700     0.7950 C.2   1 <1>   0.7160 
 10 C       -3.9820    -1.9220     0.0310 C.3   1 <1>   0.4230 
 11 C       -4.9670     0.3700     0.3660 C.3   1 <1>  -0.1600 
 12 O        1.6630     3.7050     1.0570 O.2   1 <1>  -0.5700 
 13 N       -0.3710     4.4950     0.9210 N.am  1 <1>  -0.8000 
 14 N       -4.1760    -3.4280    -0.1400 N.4   1 <1>  -0.9590 
 15 C       -5.3160    -1.1170     0.0720 C.3   1 <1>   0.0000 
 16 C       -5.4340    -3.9580     0.4840 C.3   1 <1>   0.3430 
 17 C       -4.0600    -3.9410    -1.5460 C.3   1 <1>   0.2630 
 18 C       -6.2060    -1.6520     1.2320 C.3   1 <1>  -0.1600 
 19 C       -6.0600    -1.2400    -1.2880 C.3   1 <1>   0.1200 
 20 C       -5.8670    -3.0910     1.6640 C.3   1 <1>  -0.1600 
 21 O       -7.1350    -0.3710    -1.3660 O.3   1 <1>  -0.6800 
 22 H        1.9370     0.9800     0.3160 H     1 <1>   0.1500 
 23 H       -3.2800    -1.3680    -1.9570 H     1 <1>   0.0800 
 24 H       -2.0250    -1.8520    -0.8550 H     1 <1>   0.0800 
 25 H       -3.7450     1.9850    -0.3390 H     1 <1>   0.0800 
 26 H       -4.3800     0.9970    -1.6190 H     1 <1>   0.0800 
 27 H       -3.5510    -1.7860     1.0090 H     1 <1>   0.0800 
 28 H       -4.5340     0.4620     1.3480 H     1 <1>   0.0800 
 29 H       -5.8550     0.9770     0.3650 H     1 <1>   0.0800 
 30 H       -0.0480     5.4150     1.2160 H     1 <1>   0.3700 
 31 H       -1.3590     4.3620     0.7080 H     1 <1>   0.3700 
 32 H       -3.4040    -3.8530     0.3950 H     1 <1>   0.4500 
 33 H       -6.2290    -3.9620    -0.2440 H     1 <1>   0.0800 
 34 H       -5.2800    -4.9730     0.8130 H     1 <1>   0.0800 
 35 H       -4.8220    -3.5060    -2.1720 H     1 <1>   0.0800 
 36 H       -4.1750    -5.0130    -1.5630 H     1 <1>   0.0800 
 37 H       -3.0940    -3.7010    -1.9600 H     1 <1>   0.0800 
 38 H       -6.1100    -1.0260     2.1040 H     1 <1>   0.0800 
 39 H       -7.2440    -1.6080     0.9510 H     1 <1>   0.0800 
 40 H       -6.4410    -2.2330    -1.4420 H     1 <1>   0.0800 
 41 H       -5.4140    -0.9940    -2.1120 H     1 <1>   0.0800 
 42 H       -6.7330    -3.5320     2.1290 H     1 <1>   0.0800 
 43 H       -5.0850    -3.0840     2.4040 H     1 <1>   0.0800 
 44 H       -7.8110    -0.5530    -0.6840 H     1 <1>   0.4000 
@<TRIPOS>BOND
  1   1   2  1   
  2   1   3  1   
  3   2   4  2   
  4   2   5  1   
  5   3   6  2   
  6   3  22  1   
  7   4   6  1   
  8   5   7  1   
  9   5   8  1   
 10   6   9  1   
 11   7  10  1   
 12   7  23  1   
 13   7  24  1   
 14   8  11  1   
 15   8  25  1   
 16   8  26  1   
 17   9  12  2   
 18   9  13  am  
 19  10  14  1   
 20  10  15  1   
 21  10  27  1   
 22  11  15  1   
 23  11  28  1   
 24  11  29  1   
 25  13  30  1   
 26  13  31  1   
 27  14  16  1   
 28  14  17  1   
 29  14  32  1   
 30  15  18  1   
 31  15  19  1   
 32  16  20  1   
 33  16  33  1   
 34  16  34  1   
 35  17  35  1   
 36  17  36  1   
 37  17  37  1   
 38  18  20  1   
 39  18  38  1   
 40  18  39  1   
 41  19  21  1   
 42  19  40  1   
 43  19  41  1   
 44  20  42  1   
 45  20  43  1   
 46  21  44  1   
@<TRIPOS>SUBSTRUCTURE
  1 ****   5 GROUP 4 **** **** 0

# MOE 2024.06 (io_trps.svl 2023.06)
