@<TRIPOS>MOLECULE
NONAME
47 50 1 0 0 
SMALL
USER_CHARGES


@<TRIPOS>ATOM
  1 O        2.0290    -1.0580     2.3300 O.2   1 <1>  -0.5700 
  2 C        2.5500    -1.3970     1.2870 C.2   1 <1>   0.7030 
  3 N        3.5630    -0.5970     0.7670 N.am  1 <1>  -0.6600 
  4 C        2.0350    -2.6050     0.6540 C.2   1 <1>   0.2770 
  5 C        4.0310     0.5830     1.6140 C.3   1 <1>   0.2200 
  6 C        3.8030    -0.5690    -0.7170 C.3   1 <1>   0.1400 
  7 N        2.6840    -3.5190    -0.1720 N.pl3 1 <1>  -0.7000 
  8 C        0.7730    -3.0780     0.8000 C.2   1 <1>   0.2000 
  9 C        3.2360     1.8610     1.2990 C.3   1 <1>   0.1200 
 10 C        5.5540     0.8640     1.5870 C.3   1 <1>   0.3430 
 11 C        4.3920     0.7370    -1.2840 C.3   1 <1>  -0.0800 
 12 C        1.8220    -4.4960    -0.5000 C.cat 1 <1>   0.7910 
 13 N        0.6270    -4.2400     0.0780 N.pl3 1 <1>  -0.6290 
 14 O        3.7720     2.5200     0.1940 O.3   1 <1>  -0.5600 
 15 N        6.2860     0.3480     0.3780 N.4   1 <1>  -0.9590 
 16 C        3.4910     1.9570    -1.0420 C.3   1 <1>   0.1200 
 17 C        5.8540     1.0220    -0.8890 C.3   1 <1>   0.3430 
 18 C        2.0100    -5.6420    -1.2900 C.2   1 <1>  -0.1410 
 19 C       -0.4360    -5.1010    -0.1020 C.2   1 <1>   0.2410 
 20 C        7.7610     0.5100     0.5680 C.3   1 <1>   0.2630 
 21 C        0.9660    -6.5050    -1.4800 C.2   1 <1>  -0.1500 
 22 C       -0.2720    -6.2190    -0.8710 C.2   1 <1>  -0.1500 
 23 C       -1.7530    -4.7650     0.5720 C.3   1 <1>  -0.1020 
 24 H        3.8140     0.3690     2.6470 H     1 <1>   0.0800 
 25 H        4.4580    -1.3810    -0.9790 H     1 <1>   0.0800 
 26 H        2.8650    -0.7440    -1.2180 H     1 <1>   0.0800 
 27 H        3.6730    -3.5390    -0.4170 H     1 <1>   0.4500 
 28 H       -0.0230    -2.6450     1.3870 H     1 <1>   0.1500 
 29 H        3.3150     2.5420     2.1300 H     1 <1>   0.0800 
 30 H        2.1910     1.6550     1.1380 H     1 <1>   0.0800 
 31 H        5.9810     0.4130     2.4680 H     1 <1>   0.0800 
 32 H        5.7060     1.9270     1.6750 H     1 <1>   0.0800 
 33 H        4.3990     0.6120    -2.3520 H     1 <1>   0.0800 
 34 H        6.0640    -0.6520     0.3100 H     1 <1>   0.4500 
 35 H        2.4420     1.7150    -1.1010 H     1 <1>   0.0800 
 36 H        3.7000     2.7160    -1.7780 H     1 <1>   0.0800 
 37 H        5.9920     2.0890    -0.7980 H     1 <1>   0.0800 
 38 H        6.4890     0.6840    -1.6920 H     1 <1>   0.0800 
 39 H        2.9710    -5.8210    -1.7330 H     1 <1>   0.1500 
 40 H        8.0140     1.5540     0.6600 H     1 <1>   0.0800 
 41 H        8.2960     0.1000    -0.2730 H     1 <1>   0.0800 
 42 H        8.0840    -0.0010     1.4610 H     1 <1>   0.0800 
 43 H        1.0650    -7.3970    -2.0800 H     1 <1>   0.1500 
 44 H       -1.0860    -6.9070    -1.0280 H     1 <1>   0.1500 
 45 H       -2.1150    -3.8140     0.2260 H     1 <1>   0.0800 
 46 H       -1.6250    -4.7270     1.6390 H     1 <1>   0.0800 
 47 H       -2.4950    -5.5110     0.3480 H     1 <1>   0.0800 
@<TRIPOS>BOND
  1   1   2  2   
  2   2   3  am  
  3   2   4  1   
  4   3   5  1   
  5   3   6  1   
  6   4   7  1   
  7   4   8  2   
  8   5   9  1   
  9   5  10  1   
 10   5  24  1   
 11   6  11  1   
 12   6  25  1   
 13   6  26  1   
 14   7  12  ar  
 15   7  27  1   
 16   8  13  1   
 17   8  28  1   
 18   9  14  1   
 19   9  29  1   
 20   9  30  1   
 21  10  15  1   
 22  10  31  1   
 23  10  32  1   
 24  11  16  1   
 25  11  17  1   
 26  11  33  1   
 27  12  13  ar  
 28  12  18  1   
 29  13  19  1   
 30  14  16  1   
 31  15  17  1   
 32  15  20  1   
 33  15  34  1   
 34  16  35  1   
 35  16  36  1   
 36  17  37  1   
 37  17  38  1   
 38  18  21  2   
 39  18  39  1   
 40  19  22  2   
 41  19  23  1   
 42  20  40  1   
 43  20  41  1   
 44  20  42  1   
 45  21  22  1   
 46  21  43  1   
 47  22  44  1   
 48  23  45  1   
 49  23  46  1   
 50  23  47  1   
@<TRIPOS>SUBSTRUCTURE
  1 ****   2 GROUP 4 **** **** 0

# MOE 2024.06 (io_trps.svl 2023.06)
