@<TRIPOS>MOLECULE
NONAME
52 55 1 0 0 
SMALL
USER_CHARGES


@<TRIPOS>ATOM
  1 O        3.2390     1.9010     2.2630 O.co2 1 <1>  -0.9000 
  2 C        2.7800     0.8110     1.9200 C.2   1 <1>   0.9060 
  3 O        3.0710    -0.2180     2.5360 O.co2 1 <1>  -0.9000 
  4 C        2.1850     0.6720     0.5040 C.3   1 <1>  -0.1060 
  5 C        3.1660    -0.2620    -0.2300 C.3   1 <1>   0.4230 
  6 C        2.1680     2.0340    -0.2650 C.3   1 <1>  -0.1600 
  7 C        0.7430     0.0990     0.5160 C.3   1 <1>  -0.1600 
  8 N        3.0610    -1.6620     0.3260 N.4   1 <1>  -0.9590 
  9 C        4.6080     0.3540    -0.1520 C.3   1 <1>   0.3430 
 10 C        3.5360     2.5470    -0.7580 C.3   1 <1>   0.3430 
 11 C        0.6920    -1.3740     0.9470 C.3   1 <1>  -0.1600 
 12 C        1.6960    -2.2360     0.1820 C.3   1 <1>   0.3430 
 13 C        4.1100    -2.6370    -0.0910 C.3   1 <1>   0.2630 
 14 N        4.6360     1.8600    -0.0270 N.4   1 <1>  -0.9590 
 15 C        5.9930     2.4540    -0.1890 C.3   1 <1>   0.4860 
 16 C        5.9230     3.9710    -0.2290 C.ar  1 <1>  -0.1430 
 17 C        5.6850     4.7460     0.9150 C.ar  1 <1>  -0.1430 
 18 C        6.0920     4.5860    -1.4680 C.ar  1 <1>  -0.1500 
 19 C        5.6050     6.1310     0.8100 C.ar  1 <1>  -0.1500 
 20 C        5.4920     4.1550     2.3070 C.3   1 <1>  -0.0970 
 21 C        6.0060     5.9590    -1.5380 C.ar  1 <1>   0.0820 
 22 C        5.7680     6.7130    -0.4290 C.ar  1 <1>   0.0820 
 23 O        6.1250     6.7420    -2.6130 O.3   1 <1>  -0.3630 
 24 O        5.7270     8.0080    -0.7540 O.3   1 <1>  -0.3620 
 25 C        5.9660     8.0860    -2.1580 C.3   1 <1>   0.4000 
 26 H        2.8780    -0.2930    -1.2670 H     1 <1>   0.0800 
 27 H        1.7390     2.7880     0.3760 H     1 <1>   0.0800 
 28 H        1.5250     1.9780    -1.1250 H     1 <1>   0.0800 
 29 H        0.1290     0.6850     1.1810 H     1 <1>   0.0800 
 30 H        0.3100     0.1700    -0.4680 H     1 <1>   0.0800 
 31 H        3.1520    -1.4880     1.3670 H     1 <1>   0.4500 
 32 H        5.1570     0.0560    -1.0290 H     1 <1>   0.0800 
 33 H        5.0980    -0.0570     0.7160 H     1 <1>   0.0800 
 34 H        3.5840     3.6120    -0.5910 H     1 <1>   0.0800 
 35 H        3.6380     2.3700    -1.8160 H     1 <1>   0.0800 
 36 H       -0.3000    -1.7590     0.7830 H     1 <1>   0.0800 
 37 H        0.8870    -1.4560     2.0030 H     1 <1>   0.0800 
 38 H        1.4220    -2.2810    -0.8590 H     1 <1>   0.0800 
 39 H        1.6740    -3.2370     0.5850 H     1 <1>   0.0800 
 40 H        4.0630    -2.8110    -1.1530 H     1 <1>   0.0800 
 41 H        3.9600    -3.5760     0.4190 H     1 <1>   0.0800 
 42 H        5.0900    -2.2720     0.1660 H     1 <1>   0.0800 
 43 H        4.3720     2.0690     0.9760 H     1 <1>   0.4500 
 44 H        6.6270     2.1470     0.6270 H     1 <1>   0.0800 
 45 H        6.4360     2.1030    -1.1070 H     1 <1>   0.0800 
 46 H        6.2860     4.0330    -2.3700 H     1 <1>   0.1500 
 47 H        5.4180     6.7530     1.6670 H     1 <1>   0.1500 
 48 H        6.0270     4.7410     3.0330 H     1 <1>   0.0800 
 49 H        5.8400     3.1430     2.3870 H     1 <1>   0.0800 
 50 H        4.4480     4.1750     2.5690 H     1 <1>   0.0800 
 51 H        6.8710     8.6390    -2.3400 H     1 <1>   0.0800 
 52 H        5.1190     8.5360    -2.6450 H     1 <1>   0.0800 
@<TRIPOS>BOND
  1   1   2  ar  
  2   2   3  ar  
  3   2   4  1   
  4   4   5  1   
  5   4   6  1   
  6   4   7  1   
  7   5   8  1   
  8   5   9  1   
  9   5  26  1   
 10   6  10  1   
 11   6  27  1   
 12   6  28  1   
 13   7  11  1   
 14   7  29  1   
 15   7  30  1   
 16   8  12  1   
 17   8  13  1   
 18   8  31  1   
 19   9  14  1   
 20   9  32  1   
 21   9  33  1   
 22  10  14  1   
 23  10  34  1   
 24  10  35  1   
 25  11  12  1   
 26  11  36  1   
 27  11  37  1   
 28  12  38  1   
 29  12  39  1   
 30  13  40  1   
 31  13  41  1   
 32  13  42  1   
 33  14  15  1   
 34  14  43  1   
 35  15  16  1   
 36  15  44  1   
 37  15  45  1   
 38  16  17  ar  
 39  16  18  ar  
 40  17  19  ar  
 41  17  20  1   
 42  18  21  ar  
 43  18  46  1   
 44  19  22  ar  
 45  19  47  1   
 46  20  48  1   
 47  20  49  1   
 48  20  50  1   
 49  21  22  ar  
 50  21  23  1   
 51  22  24  1   
 52  23  25  1   
 53  24  25  1   
 54  25  51  1   
 55  25  52  1   
@<TRIPOS>SUBSTRUCTURE
  1 ****  14 GROUP 4 **** **** 0

# MOE 2024.06 (io_trps.svl 2023.06)
