@<TRIPOS>MOLECULE
NONAME
52 54 1 0 0 
SMALL
USER_CHARGES


@<TRIPOS>ATOM
  1 S       -1.5080    -0.1390     1.5980 S.3   1 <1>  -0.0800 
  2 C       -1.5250    -1.0170     0.0750 C.2   1 <1>  -0.1400 
  3 C       -1.4580     1.4030     0.7640 C.2   1 <1>  -0.1100 
  4 C       -1.4940    -0.1540    -0.9610 C.2   1 <1>  -0.1500 
  5 C       -1.5750    -2.5330     0.1650 C.3   1 <1>   0.3800 
  6 C       -1.4550     1.2210    -0.5690 C.2   1 <1>  -0.1500 
  7 O       -1.3070    -3.0480    -1.0890 O.3   1 <1>  -0.6800 
  8 C       -2.9520    -3.0530     0.6410 C.3   1 <1>  -0.0800 
  9 C       -2.9710    -4.5890     0.7740 C.3   1 <1>  -0.1600 
 10 C       -4.1090    -2.5880    -0.2710 C.3   1 <1>  -0.1600 
 11 C       -4.3400    -5.1140     1.1990 C.3   1 <1>   0.3430 
 12 C       -5.4560    -3.1520     0.1710 C.3   1 <1>   0.3430 
 13 N       -5.3740    -4.6360     0.2380 N.4   1 <1>  -0.9590 
 14 C       -6.7160    -5.2880     0.4840 C.3   1 <1>   0.4040 
 15 C       -6.7200    -6.8030     0.2070 C.2   1 <1>   0.5690 
 16 O       -5.8710    -7.2330    -0.5370 O.2   1 <1>  -0.5700 
 17 N       -7.6410    -7.6180     0.7950 N.am  1 <1>  -0.7300 
 18 C       -7.6840    -9.0940     0.6110 C.3   1 <1>   0.1400 
 19 C       -8.7670    -9.4710    -0.3990 C.3   1 <1>  -0.0170 
 20 C       -8.8460   -10.9820    -0.5320 C.ar  1 <1>  -0.1430 
 21 C       -7.9990   -11.6500    -1.4030 C.ar  1 <1>  -0.1500 
 22 C       -9.7590   -11.7070     0.2200 C.ar  1 <1>  -0.1500 
 23 C       -8.0620   -13.0280    -1.5210 C.ar  1 <1>  -0.1500 
 24 C       -9.8220   -13.0850     0.1020 C.ar  1 <1>  -0.1500 
 25 C       -8.9740   -13.7460    -0.7680 C.ar  1 <1>  -0.1500 
 26 H       -1.4330     2.2940     1.3670 H     1 <1>   0.1500 
 27 H       -1.5000    -0.4230    -2.0030 H     1 <1>   0.1500 
 28 H       -0.7980    -2.8770     0.8280 H     1 <1>   0.0800 
 29 H       -1.4270     2.0060    -1.3060 H     1 <1>   0.1500 
 30 H       -0.4950    -2.6280    -1.4310 H     1 <1>   0.4000 
 31 H       -3.1210    -2.6390     1.6210 H     1 <1>   0.0800 
 32 H       -2.2400    -4.8960     1.5020 H     1 <1>   0.0800 
 33 H       -2.7010    -5.0500    -0.1610 H     1 <1>   0.0800 
 34 H       -3.9220    -2.8840    -1.2890 H     1 <1>   0.0800 
 35 H       -4.1710    -1.5130    -0.2590 H     1 <1>   0.0800 
 36 H       -4.5710    -4.7640     2.1930 H     1 <1>   0.0800 
 37 H       -4.3160    -6.1930     1.2110 H     1 <1>   0.0800 
 38 H       -6.2150    -2.8530    -0.5340 H     1 <1>   0.0800 
 39 H       -5.7120    -2.7550     1.1400 H     1 <1>   0.0800 
 40 H       -5.0640    -4.9880    -0.6840 H     1 <1>   0.4500 
 41 H       -7.4510    -4.8410    -0.1630 H     1 <1>   0.0800 
 42 H       -7.0190    -5.1200     1.5030 H     1 <1>   0.0800 
 43 H       -8.3870    -7.2530     1.3940 H     1 <1>   0.3700 
 44 H       -7.8870    -9.5680     1.5560 H     1 <1>   0.0800 
 45 H       -6.7300    -9.4520     0.2590 H     1 <1>   0.0800 
 46 H       -8.5330    -9.0410    -1.3570 H     1 <1>   0.0800 
 47 H       -9.7200    -9.0890    -0.0780 H     1 <1>   0.0800 
 48 H       -7.2860   -11.1030    -1.9940 H     1 <1>   0.1500 
 49 H      -10.4250   -11.2070     0.9000 H     1 <1>   0.1500 
 50 H       -7.4030   -13.5400    -2.1990 H     1 <1>   0.1500 
 51 H      -10.5320   -13.6430     0.6880 H     1 <1>   0.1500 
 52 H       -9.0230   -14.8170    -0.8590 H     1 <1>   0.1500 
@<TRIPOS>BOND
  1   1   2  1   
  2   1   3  1   
  3   2   4  2   
  4   2   5  1   
  5   3   6  2   
  6   3  26  1   
  7   4   6  1   
  8   4  27  1   
  9   5   7  1   
 10   5   8  1   
 11   5  28  1   
 12   6  29  1   
 13   7  30  1   
 14   8   9  1   
 15   8  10  1   
 16   8  31  1   
 17   9  11  1   
 18   9  32  1   
 19   9  33  1   
 20  10  12  1   
 21  10  34  1   
 22  10  35  1   
 23  11  13  1   
 24  11  36  1   
 25  11  37  1   
 26  12  13  1   
 27  12  38  1   
 28  12  39  1   
 29  13  14  1   
 30  13  40  1   
 31  14  15  1   
 32  14  41  1   
 33  14  42  1   
 34  15  16  2   
 35  15  17  am  
 36  17  18  1   
 37  17  43  1   
 38  18  19  1   
 39  18  44  1   
 40  18  45  1   
 41  19  20  1   
 42  19  46  1   
 43  19  47  1   
 44  20  21  ar  
 45  20  22  ar  
 46  21  23  ar  
 47  21  48  1   
 48  22  24  ar  
 49  22  49  1   
 50  23  25  ar  
 51  23  50  1   
 52  24  25  ar  
 53  24  51  1   
 54  25  52  1   
@<TRIPOS>SUBSTRUCTURE
  1 ****  13 GROUP 4 **** **** 0

# MOE 2024.06 (io_trps.svl 2023.06)
