@<TRIPOS>MOLECULE
NONAME
54 56 1 0 0 
SMALL
USER_CHARGES


@<TRIPOS>ATOM
  1 O        0.7230     0.5130     1.3980 O.2   1 <1>  -0.5700 
  2 C        1.3120    -0.5040     1.0960 C.2   1 <1>   0.5690 
  3 N        2.7010    -0.4780     1.0740 N.am  1 <1>  -0.6600 
  4 C        0.4600    -1.7490     0.6760 C.3   1 <1>   0.3410 
  5 C        3.4390     0.7750     1.4360 C.3   1 <1>   0.1400 
  6 C        3.5750    -1.5150     0.4540 C.3   1 <1>   0.1400 
  7 O        0.9100    -2.1530    -0.6250 O.3   1 <1>  -0.3630 
  8 C        0.6070    -2.8960     1.6970 C.3   1 <1>  -0.2400 
  9 C       -1.0410    -1.3980     0.5720 C.3   1 <1>  -0.2400 
 10 C        4.1800     1.4320     0.2430 C.3   1 <1>   0.4230 
 11 C        3.9120    -1.1760    -1.0170 C.3   1 <1>  -0.0800 
 12 C        0.4410    -3.2640    -1.2550 C.ar  1 <1>   0.0820 
 13 N        3.4500     1.3610    -1.0870 N.4   1 <1>  -0.9590 
 14 C        5.6330     0.9070     0.1040 C.3   1 <1>   0.1200 
 15 C        5.4220    -1.0120    -1.2800 C.3   1 <1>   0.1200 
 16 C        3.0730    -0.0140    -1.5850 C.3   1 <1>   0.3430 
 17 C        1.1270    -4.4800    -1.1780 C.ar  1 <1>   0.0820 
 18 C       -0.7030    -3.1600    -2.0340 C.ar  1 <1>  -0.1500 
 19 C        2.2530     2.2530    -1.1040 C.3   1 <1>   0.2630 
 20 O        5.8500     0.3110    -1.1440 O.3   1 <1>  -0.5600 
 21 O        2.2810    -4.5320    -0.4520 O.3   1 <1>  -0.3620 
 22 C        0.6180    -5.5880    -1.8520 C.ar  1 <1>  -0.1500 
 23 C       -1.1970    -4.2670    -2.7000 C.ar  1 <1>  -0.1500 
 24 C        2.9140    -5.7630    -0.1740 C.3   1 <1>   0.0400 
 25 C       -0.5400    -5.4800    -2.6040 C.ar  1 <1>  -0.1500 
 26 H        2.7630     1.5040     1.8450 H     1 <1>   0.0800 
 27 H        4.1370     0.5530     2.2240 H     1 <1>   0.0800 
 28 H        4.4730    -1.6180     1.0380 H     1 <1>   0.0800 
 29 H        3.0930    -2.4700     0.4880 H     1 <1>   0.0800 
 30 H        0.2630    -2.5620     2.6590 H     1 <1>   0.0800 
 31 H        1.6260    -3.2060     1.8080 H     1 <1>   0.0800 
 32 H        0.0120    -3.7440     1.4100 H     1 <1>   0.0800 
 33 H       -1.3900    -1.0060     1.5120 H     1 <1>   0.0800 
 34 H       -1.6320    -2.2660     0.3480 H     1 <1>   0.0800 
 35 H       -1.1980    -0.6460    -0.1790 H     1 <1>   0.0800 
 36 H        4.2820     2.4710     0.5070 H     1 <1>   0.0800 
 37 H        3.6200    -2.0530    -1.5680 H     1 <1>   0.0800 
 38 H        4.1590     1.6870    -1.7620 H     1 <1>   0.4500 
 39 H        5.8970     0.2120     0.8830 H     1 <1>   0.0800 
 40 H        6.3090     1.7410     0.1740 H     1 <1>   0.0800 
 41 H        5.6420    -1.2980    -2.2950 H     1 <1>   0.0800 
 42 H        6.0110    -1.6370    -0.6290 H     1 <1>   0.0800 
 43 H        2.0400    -0.2050    -1.3460 H     1 <1>   0.0800 
 44 H        3.1540    -0.0270    -2.6590 H     1 <1>   0.0800 
 45 H       -1.2080    -2.2160    -2.1220 H     1 <1>   0.1500 
 46 H        1.5220     1.9060    -0.3900 H     1 <1>   0.0800 
 47 H        1.8020     2.2550    -2.0830 H     1 <1>   0.0800 
 48 H        2.5310     3.2620    -0.8500 H     1 <1>   0.0800 
 49 H        1.1060    -6.5420    -1.8130 H     1 <1>   0.1500 
 50 H       -2.0910    -4.1840    -3.2950 H     1 <1>   0.1500 
 51 H        3.7490    -5.5720     0.4770 H     1 <1>   0.0800 
 52 H        3.2630    -6.1940    -1.0960 H     1 <1>   0.0800 
 53 H        2.2130    -6.4150     0.3150 H     1 <1>   0.0800 
 54 H       -0.9270    -6.3410    -3.1210 H     1 <1>   0.1500 
@<TRIPOS>BOND
  1   1   2  2   
  2   2   3  am  
  3   2   4  1   
  4   3   5  1   
  5   3   6  1   
  6   4   7  1   
  7   4   8  1   
  8   4   9  1   
  9   5  10  1   
 10   5  26  1   
 11   5  27  1   
 12   6  11  1   
 13   6  28  1   
 14   6  29  1   
 15   7  12  1   
 16   8  30  1   
 17   8  31  1   
 18   8  32  1   
 19   9  33  1   
 20   9  34  1   
 21   9  35  1   
 22  10  13  1   
 23  10  14  1   
 24  10  36  1   
 25  11  15  1   
 26  11  16  1   
 27  11  37  1   
 28  12  17  ar  
 29  12  18  ar  
 30  13  16  1   
 31  13  19  1   
 32  13  38  1   
 33  14  20  1   
 34  14  39  1   
 35  14  40  1   
 36  15  20  1   
 37  15  41  1   
 38  15  42  1   
 39  16  43  1   
 40  16  44  1   
 41  17  21  1   
 42  17  22  ar  
 43  18  23  ar  
 44  18  45  1   
 45  19  46  1   
 46  19  47  1   
 47  19  48  1   
 48  21  24  1   
 49  22  25  ar  
 50  22  49  1   
 51  23  25  ar  
 52  23  50  1   
 53  24  51  1   
 54  24  52  1   
 55  24  53  1   
 56  25  54  1   
@<TRIPOS>SUBSTRUCTURE
  1 ****   7 GROUP 4 **** **** 0

# MOE 2024.06 (io_trps.svl 2023.06)
