@<TRIPOS>MOLECULE
NONAME
40 42 1 0 0 
SMALL
USER_CHARGES


@<TRIPOS>ATOM
  1 F        0.2820     2.4870     1.6760 F     1 <1>  -0.1900 
  2 C        1.3150     2.1330     0.9560 C.ar  1 <1>   0.1900 
  3 C        1.4860     0.8120     0.5810 C.ar  1 <1>   0.1900 
  4 C        2.2240     3.1030     0.5840 C.ar  1 <1>  -0.1500 
  5 F        0.6220    -0.1000     0.9390 F     1 <1>  -0.1900 
  6 C        2.5780     0.4410    -0.1790 C.ar  1 <1>  -0.1500 
  7 C        3.3450     2.7600    -0.1820 C.ar  1 <1>   0.0860 
  8 C        3.4920     1.4150    -0.5520 C.ar  1 <1>  -0.1500 
  9 C        4.3240     3.7580    -0.5850 C.2   1 <1>   0.5440 
 10 O        5.2500     3.4900    -1.3280 O.2   1 <1>  -0.5700 
 11 N        4.2800     5.0490    -0.1280 N.am  1 <1>  -0.6600 
 12 C        5.0750     5.3720     1.1110 C.3   1 <1>   0.2200 
 13 C        4.0140     6.1290    -1.1270 C.3   1 <1>   0.1400 
 14 C        4.5720     6.6350     1.8290 C.3   1 <1>   0.1200 
 15 C        6.5930     5.4810     0.8090 C.3   1 <1>   0.3430 
 16 C        4.9670     7.3370    -1.0600 C.3   1 <1>  -0.0800 
 17 O        5.1880     7.7740     1.3070 O.3   1 <1>  -0.5600 
 18 N        6.8900     5.6830    -0.6510 N.4   1 <1>  -0.9590 
 19 C        4.6510     8.2640     0.1250 C.3   1 <1>   0.1200 
 20 C        6.4730     7.0200    -1.1780 C.3   1 <1>   0.3430 
 21 C        8.3130     5.3820    -0.9690 C.3   1 <1>   0.2630 
 22 H        2.0520     4.1190     0.8900 H     1 <1>   0.1500 
 23 H        2.7060    -0.5870    -0.4710 H     1 <1>   0.1500 
 24 H        4.3430     1.1270    -1.1480 H     1 <1>   0.1500 
 25 H        4.9390     4.5590     1.8030 H     1 <1>   0.0800 
 26 H        4.0680     5.7050    -2.1180 H     1 <1>   0.0800 
 27 H        3.0010     6.4710    -0.9930 H     1 <1>   0.0800 
 28 H        4.8550     6.5870     2.8660 H     1 <1>   0.0800 
 29 H        3.5010     6.7310     1.7760 H     1 <1>   0.0800 
 30 H        7.0560     4.5640     1.1330 H     1 <1>   0.0800 
 31 H        7.0220     6.2810     1.3900 H     1 <1>   0.0800 
 32 H        4.7300     7.9310    -1.9250 H     1 <1>   0.0800 
 33 H        6.2920     4.9660    -1.1240 H     1 <1>   0.4500 
 34 H        3.5910     8.4070     0.2510 H     1 <1>   0.0800 
 35 H        5.0980     9.2300    -0.0400 H     1 <1>   0.0800 
 36 H        7.0310     7.7940    -0.6760 H     1 <1>   0.0800 
 37 H        6.7350     7.0620    -2.2230 H     1 <1>   0.0800 
 38 H        8.9650     6.0800    -0.4690 H     1 <1>   0.0800 
 39 H        8.4790     5.4500    -2.0320 H     1 <1>   0.0800 
 40 H        8.5610     4.3830    -0.6500 H     1 <1>   0.0800 
@<TRIPOS>BOND
  1   1   2  1   
  2   2   3  ar  
  3   2   4  ar  
  4   3   5  1   
  5   3   6  ar  
  6   4   7  ar  
  7   4  22  1   
  8   6   8  ar  
  9   6  23  1   
 10   7   8  ar  
 11   7   9  1   
 12   8  24  1   
 13   9  10  2   
 14   9  11  am  
 15  11  12  1   
 16  11  13  1   
 17  12  14  1   
 18  12  15  1   
 19  12  25  1   
 20  13  16  1   
 21  13  26  1   
 22  13  27  1   
 23  14  17  1   
 24  14  28  1   
 25  14  29  1   
 26  15  18  1   
 27  15  30  1   
 28  15  31  1   
 29  16  19  1   
 30  16  20  1   
 31  16  32  1   
 32  17  19  1   
 33  18  20  1   
 34  18  21  1   
 35  18  33  1   
 36  19  34  1   
 37  19  35  1   
 38  20  36  1   
 39  20  37  1   
 40  21  38  1   
 41  21  39  1   
 42  21  40  1   
@<TRIPOS>SUBSTRUCTURE
  1 ****  11 GROUP 4 **** **** 0

# MOE 2024.06 (io_trps.svl 2023.06)
