@<TRIPOS>MOLECULE
NONAME
45 47 1 0 0 
SMALL
USER_CHARGES


@<TRIPOS>ATOM
  1 O       -0.1180    -1.7680    -1.1050 O.2   1 <1>  -0.5700 
  2 C        0.7170    -2.3190    -0.4300 C.2   1 <1>   0.5690 
  3 N        0.4830    -2.9930     0.7130 N.am  1 <1>  -0.6600 
  4 C        2.1750    -2.3770    -0.7920 C.3   1 <1>  -0.0990 
  5 C        1.6810    -3.6630     1.2490 C.3   1 <1>   0.1400 
  6 C       -0.8560    -3.2080     1.3460 C.3   1 <1>   0.2010 
  7 C        2.7460    -3.4370     0.1660 C.3   1 <1>  -0.1600 
  8 C       -1.2510    -4.6860     1.3900 C.2   1 <1>   0.5690 
  9 O       -1.1870    -5.2450     2.4610 O.2   1 <1>  -0.5700 
 10 N       -1.6250    -5.3500     0.2500 N.am  1 <1>  -0.6600 
 11 C       -1.6340    -6.8510     0.2540 C.3   1 <1>   0.3640 
 12 C       -1.9730    -4.6410    -1.0220 C.3   1 <1>   0.1400 
 13 C       -0.1980    -7.3720     0.1160 C.ar  1 <1>  -0.1440 
 14 C       -2.5510    -7.5080    -0.8230 C.3   1 <1>   0.2000 
 15 C       -2.4200    -5.5820    -2.1470 C.3   1 <1>   0.1200 
 16 C        0.7120    -6.8270    -0.7830 C.ar  1 <1>  -0.1500 
 17 C        0.2110    -8.4290     0.9160 C.ar  1 <1>  -0.1500 
 18 O       -3.2350    -6.5830    -1.6300 O.3   1 <1>  -0.5600 
 19 C       -3.6130    -8.4220    -0.1960 C.3   1 <1>   0.1200 
 20 C        1.9960    -7.3330    -0.8850 C.ar  1 <1>  -0.1500 
 21 C        1.4950    -8.9360     0.8190 C.ar  1 <1>  -0.1500 
 22 O       -3.0140    -9.4860     0.4730 O.3   1 <1>  -0.6800 
 23 C        2.3890    -8.3890    -0.0840 C.ar  1 <1>  -0.1500 
 24 H        2.2990    -2.6570    -1.8220 H     1 <1>   0.0800 
 25 H        2.6160    -1.4130    -0.6150 H     1 <1>   0.0800 
 26 H        1.9670    -3.2010     2.1790 H     1 <1>   0.0800 
 27 H        1.5000    -4.7150     1.4030 H     1 <1>   0.0800 
 28 H       -0.8250    -2.8330     2.3530 H     1 <1>   0.0800 
 29 H       -1.6040    -2.6520     0.8130 H     1 <1>   0.0800 
 30 H        3.6820    -3.1280     0.5980 H     1 <1>   0.0800 
 31 H        2.9010    -4.3620    -0.3620 H     1 <1>   0.0800 
 32 H       -1.9940    -7.1690     1.2170 H     1 <1>   0.0800 
 33 H       -2.7700    -3.9460    -0.8250 H     1 <1>   0.0800 
 34 H       -1.1260    -4.0770    -1.3680 H     1 <1>   0.0800 
 35 H       -1.9470    -8.1040    -1.4850 H     1 <1>   0.0800 
 36 H       -1.5760    -6.0360    -2.6360 H     1 <1>   0.0800 
 37 H       -2.9870    -5.0370    -2.8810 H     1 <1>   0.0800 
 38 H        0.4320    -6.0000    -1.4080 H     1 <1>   0.1500 
 39 H       -0.4730    -8.8640     1.6270 H     1 <1>   0.1500 
 40 H       -4.2590    -8.8250    -0.9550 H     1 <1>   0.0800 
 41 H       -4.1990    -7.8700     0.5190 H     1 <1>   0.0800 
 42 H        2.6900    -6.9050    -1.5860 H     1 <1>   0.1500 
 43 H        1.7970    -9.7560     1.4480 H     1 <1>   0.1500 
 44 H       -2.5910   -10.1020    -0.1580 H     1 <1>   0.4000 
 45 H        3.3870    -8.7840    -0.1600 H     1 <1>   0.1500 
@<TRIPOS>BOND
  1   1   2  2   
  2   2   3  am  
  3   2   4  1   
  4   3   5  1   
  5   3   6  1   
  6   4   7  1   
  7   4  24  1   
  8   4  25  1   
  9   5   7  1   
 10   5  26  1   
 11   5  27  1   
 12   6   8  1   
 13   6  28  1   
 14   6  29  1   
 15   7  30  1   
 16   7  31  1   
 17   8   9  2   
 18   8  10  am  
 19  10  11  1   
 20  10  12  1   
 21  11  13  1   
 22  11  14  1   
 23  11  32  1   
 24  12  15  1   
 25  12  33  1   
 26  12  34  1   
 27  13  16  ar  
 28  13  17  ar  
 29  14  18  1   
 30  14  19  1   
 31  14  35  1   
 32  15  18  1   
 33  15  36  1   
 34  15  37  1   
 35  16  20  ar  
 36  16  38  1   
 37  17  21  ar  
 38  17  39  1   
 39  19  22  1   
 40  19  40  1   
 41  19  41  1   
 42  20  23  ar  
 43  20  42  1   
 44  21  23  ar  
 45  21  43  1   
 46  22  44  1   
 47  23  45  1   
@<TRIPOS>SUBSTRUCTURE
  1 ****  10 GROUP 4 **** **** 0

# MOE 2024.06 (io_trps.svl 2023.06)
