@<TRIPOS>MOLECULE
NONAME
44 46 1 0 0 
SMALL
USER_CHARGES


@<TRIPOS>ATOM
  1 O       -1.2750    -2.0630    -2.6790 O.co2 1 <1>  -0.9000 
  2 C       -1.6870    -3.1050    -2.1450 C.2   1 <1>   0.9790 
  3 O       -1.5590    -4.1940    -2.7380 O.co2 1 <1>  -0.9000 
  4 C       -2.3570    -3.0790    -0.8540 C.ar  1 <1>  -0.1790 
  5 C       -2.5670    -4.2640    -0.1570 C.ar  1 <1>  -0.1500 
  6 C       -2.8450    -1.9060    -0.2810 C.ar  1 <1>  -0.1500 
  7 C       -3.3060    -4.3110     1.0120 C.ar  1 <1>  -0.1440 
  8 C       -3.5470    -1.9280     0.9110 C.ar  1 <1>  -0.1500 
  9 C       -3.7890    -3.1290     1.5540 C.ar  1 <1>  -0.1500 
 10 C       -3.6140    -5.6490     1.6570 C.3   1 <1>   0.4870 
 11 N       -4.0440    -6.6220     0.6090 N.4   1 <1>  -0.9590 
 12 C       -5.0430    -6.0840    -0.3810 C.3   1 <1>   0.3430 
 13 C       -4.5770    -7.9060     1.1250 C.3   1 <1>   0.3430 
 14 C       -6.0830    -7.1950    -0.5920 C.3   1 <1>   0.2000 
 15 C       -5.4440    -8.4550    -0.0100 C.3   1 <1>  -0.0800 
 16 O       -7.2320    -6.9060     0.1350 O.3   1 <1>  -0.6800 
 17 C       -4.6110    -9.1950    -1.0760 C.3   1 <1>   0.0210 
 18 C       -3.8450   -10.3570    -0.4770 C.2   1 <1>   0.1080 
 19 N       -2.7640   -10.1970     0.2220 N.2   1 <1>  -0.7070 
 20 C       -4.1970   -11.6950    -0.6070 C.2   1 <1>  -0.1500 
 21 N       -2.3820   -11.4520     0.5450 N.pl3 1 <1>   0.3000 
 22 C       -3.2410   -12.3720     0.0610 C.2   1 <1>  -0.3320 
 23 C       -3.0880   -13.8700     0.2610 C.3   1 <1>  -0.0600 
 24 H       -2.1440    -5.1580    -0.5850 H     1 <1>   0.1500 
 25 H       -2.6670    -0.9740    -0.7940 H     1 <1>   0.1500 
 26 H       -3.9090    -1.0040     1.3280 H     1 <1>   0.1500 
 27 H       -4.3550    -3.1250     2.4700 H     1 <1>   0.1500 
 28 H       -4.4010    -5.5180     2.3810 H     1 <1>   0.0800 
 29 H       -2.7370    -6.0150     2.1650 H     1 <1>   0.0800 
 30 H       -3.1960    -6.8420     0.0640 H     1 <1>   0.4500 
 31 H       -5.5200    -5.1870    -0.0220 H     1 <1>   0.0800 
 32 H       -4.5410    -5.8600    -1.3100 H     1 <1>   0.0800 
 33 H       -3.7870    -8.5790     1.4120 H     1 <1>   0.0800 
 34 H       -5.2000    -7.7220     1.9830 H     1 <1>   0.0800 
 35 H       -6.3670    -7.2940    -1.6270 H     1 <1>   0.0800 
 36 H       -6.1850    -9.1370     0.3710 H     1 <1>   0.0800 
 37 H       -7.0640    -6.7950     1.0890 H     1 <1>   0.4000 
 38 H       -3.9030    -8.5330    -1.5440 H     1 <1>   0.0800 
 39 H       -5.2620    -9.5690    -1.8470 H     1 <1>   0.0800 
 40 H       -5.0500   -12.0840    -1.1360 H     1 <1>   0.1500 
 41 H       -1.5320   -11.6500     1.0880 H     1 <1>   0.2700 
 42 H       -3.8940   -14.3930    -0.2220 H     1 <1>   0.0800 
 43 H       -3.1050   -14.1110     1.3090 H     1 <1>   0.0800 
 44 H       -2.1590   -14.2100    -0.1620 H     1 <1>   0.0800 
@<TRIPOS>BOND
  1   1   2  ar  
  2   2   3  ar  
  3   2   4  1   
  4   4   5  ar  
  5   4   6  ar  
  6   5   7  ar  
  7   5  24  1   
  8   6   8  ar  
  9   6  25  1   
 10   7   9  ar  
 11   7  10  1   
 12   8   9  ar  
 13   8  26  1   
 14   9  27  1   
 15  10  11  1   
 16  10  28  1   
 17  10  29  1   
 18  11  12  1   
 19  11  13  1   
 20  11  30  1   
 21  12  14  1   
 22  12  31  1   
 23  12  32  1   
 24  13  15  1   
 25  13  33  1   
 26  13  34  1   
 27  14  15  1   
 28  14  16  1   
 29  14  35  1   
 30  15  17  1   
 31  15  36  1   
 32  16  37  1   
 33  17  18  1   
 34  17  38  1   
 35  17  39  1   
 36  18  19  2   
 37  18  20  1   
 38  19  21  1   
 39  20  22  2   
 40  20  40  1   
 41  21  22  1   
 42  21  41  1   
 43  22  23  1   
 44  23  42  1   
 45  23  43  1   
 46  23  44  1   
@<TRIPOS>SUBSTRUCTURE
  1 ****  11 GROUP 4 **** **** 0

# MOE 2024.06 (io_trps.svl 2023.06)
