@<TRIPOS>MOLECULE
NONAME
48 50 1 0 0 
SMALL
USER_CHARGES


@<TRIPOS>ATOM
  1 S       -0.7890    -3.6240     0.8100 S.o2  1 <1>   1.2040 
  2 O       -0.9100    -4.4900     1.9610 O.2   1 <1>  -0.6500 
  3 O       -0.1420    -4.1020    -0.3920 O.2   1 <1>  -0.6500 
  4 C       -2.4120    -2.9400     0.3930 C.ar  1 <1>  -0.0090 
  5 C        0.0970    -2.1720     1.3390 C.3   1 <1>  -0.1350 
  6 C       -2.6830    -2.4580    -0.8810 C.ar  1 <1>  -0.1500 
  7 C       -3.4180    -2.8490     1.3470 C.ar  1 <1>  -0.1500 
  8 C       -3.9120    -1.9020    -1.1940 C.ar  1 <1>  -0.1500 
  9 C       -4.6490    -2.2950     1.0420 C.ar  1 <1>  -0.1500 
 10 C       -4.9040    -1.8160    -0.2310 C.ar  1 <1>  -0.1430 
 11 C       -6.2680    -1.2180    -0.5690 C.3   1 <1>   0.0440 
 12 C       -7.3050    -2.2720    -0.9250 C.2   1 <1>   0.5690 
 13 O       -8.4750    -1.9870    -0.8530 O.2   1 <1>  -0.5700 
 14 N       -6.8930    -3.5030    -1.3170 N.am  1 <1>  -0.7300 
 15 C       -7.7740    -4.6330    -1.6810 C.3   1 <1>   0.2200 
 16 C       -7.5750    -5.7600    -0.6820 C.3   1 <1>  -0.0800 
 17 C       -7.2880    -5.2690    -2.9810 C.3   1 <1>   0.1200 
 18 C       -6.3380    -6.4640    -1.2480 C.3   1 <1>   0.1200 
 19 C       -8.8020    -6.6900    -0.6290 C.3   1 <1>  -0.0170 
 20 O       -6.3380    -6.2330    -2.6270 O.3   1 <1>  -0.5600 
 21 C       -8.6050    -7.8190     0.3710 C.ar  1 <1>  -0.1430 
 22 C       -8.6750    -7.6040     1.7330 C.ar  1 <1>  -0.1500 
 23 C       -8.3480    -9.1150    -0.0280 C.ar  1 <1>  -0.1500 
 24 C       -8.4840    -8.6640     2.6040 C.ar  1 <1>   0.1600 
 25 C       -8.1740   -10.1040     0.9260 C.ar  1 <1>   0.1600 
 26 N       -8.2350    -9.9090     2.2330 N.ar  1 <1>  -0.6200 
 27 H       -0.3890    -1.7230     2.1830 H     1 <1>   0.0800 
 28 H        0.1470    -1.4530     0.5440 H     1 <1>   0.0800 
 29 H        1.0980    -2.4370     1.6220 H     1 <1>   0.0800 
 30 H       -1.9240    -2.5230    -1.6440 H     1 <1>   0.1500 
 31 H       -3.2390    -3.2220     2.3420 H     1 <1>   0.1500 
 32 H       -4.0890    -1.5390    -2.1930 H     1 <1>   0.1500 
 33 H       -5.4100    -2.2430     1.8040 H     1 <1>   0.1500 
 34 H       -6.1810    -0.5410    -1.3980 H     1 <1>   0.0800 
 35 H       -6.6320    -0.6550     0.2700 H     1 <1>   0.0800 
 36 H       -5.8890    -3.7090    -1.3400 H     1 <1>   0.3700 
 37 H       -8.7970    -4.3020    -1.7500 H     1 <1>   0.0800 
 38 H       -7.3840    -5.3790     0.3050 H     1 <1>   0.0800 
 39 H       -6.8440    -4.5530    -3.6500 H     1 <1>   0.0800 
 40 H       -8.0950    -5.7780    -3.4780 H     1 <1>   0.0800 
 41 H       -6.3290    -7.5240    -1.0680 H     1 <1>   0.0800 
 42 H       -5.4390    -6.0280    -0.8480 H     1 <1>   0.0800 
 43 H       -9.0000    -7.1030    -1.6030 H     1 <1>   0.0800 
 44 H       -9.6680    -6.1210    -0.3380 H     1 <1>   0.0800 
 45 H       -8.8760    -6.6240     2.1250 H     1 <1>   0.1500 
 46 H       -8.2790    -9.3660    -1.0710 H     1 <1>   0.1500 
 47 H       -8.5400    -8.4760     3.6630 H     1 <1>   0.1500 
 48 H       -7.9740   -11.1090     0.5950 H     1 <1>   0.1500 
@<TRIPOS>BOND
  1   1   2  2   
  2   1   3  2   
  3   1   4  1   
  4   1   5  1   
  5   4   6  ar  
  6   4   7  ar  
  7   5  27  1   
  8   5  28  1   
  9   5  29  1   
 10   6   8  ar  
 11   6  30  1   
 12   7   9  ar  
 13   7  31  1   
 14   8  10  ar  
 15   8  32  1   
 16   9  10  ar  
 17   9  33  1   
 18  10  11  1   
 19  11  12  1   
 20  11  34  1   
 21  11  35  1   
 22  12  13  2   
 23  12  14  am  
 24  14  15  1   
 25  14  36  1   
 26  15  16  1   
 27  15  17  1   
 28  15  37  1   
 29  16  18  1   
 30  16  19  1   
 31  16  38  1   
 32  17  20  1   
 33  17  39  1   
 34  17  40  1   
 35  18  20  1   
 36  18  41  1   
 37  18  42  1   
 38  19  21  1   
 39  19  43  1   
 40  19  44  1   
 41  21  22  ar  
 42  21  23  ar  
 43  22  24  ar  
 44  22  45  1   
 45  23  25  ar  
 46  23  46  1   
 47  24  26  ar  
 48  24  47  1   
 49  25  26  ar  
 50  25  48  1   
@<TRIPOS>SUBSTRUCTURE
  1 ****  18 GROUP 4 **** **** 0

# MOE 2024.06 (io_trps.svl 2023.06)
