@<TRIPOS>MOLECULE
Untitled Document
49 53 1 0 0 
SMALL
USER_CHARGES


@<TRIPOS>ATOM
  1 CL      -0.6690    -0.1430     0.9920 Cl    1 <1>  -0.1770 
  2 C       -0.3150    -1.6110     0.0710 C.ar  1 <1>   0.1770 
  3 C        0.9780    -2.1750     0.0330 C.ar  1 <1>   0.1000 
  4 C       -1.4150    -2.1760    -0.5700 C.ar  1 <1>   0.1000 
  5 N        2.1400    -1.5910     0.5900 N.pl3 1 <1>  -0.3690 
  6 C        1.1340    -3.4300    -0.6010 C.ar  1 <1>   0.0860 
  7 N       -2.6760    -1.5570    -0.5160 N.pl3 1 <1>  -0.8380 
  8 C       -1.1820    -3.3780    -1.2460 C.ar  1 <1>   0.1900 
  9 C        3.2650    -2.3480     0.7870 C.2   1 <1>  -0.0500 
 10 C        2.2810    -0.1370     0.8410 C.3   1 <1>   0.0690 
 11 C        2.3980    -4.1190    -0.5640 C.2   1 <1>   0.4690 
 12 C        0.0360    -3.9990    -1.2590 C.ar  1 <1>  -0.1500 
 13 C       -3.2410    -0.9310    -1.7260 C.3   1 <1>   0.2090 
 14 C       -3.8050    -2.2220     0.1830 C.3   1 <1>   0.2090 
 15 F       -2.1720    -3.9470    -1.8950 F     1 <1>  -0.1900 
 16 C        3.4170    -3.6000     0.2710 C.2   1 <1>  -0.2360 
 17 C        2.1450     0.8080    -0.3150 C.3   1 <1>  -0.2000 
 18 C        3.4830     0.5880     0.3120 C.3   1 <1>  -0.2000 
 19 O        2.5690    -5.0950    -1.2850 O.2   1 <1>  -0.5700 
 20 C       -4.5100    -0.2960    -1.1630 C.3   1 <1>   0.4230 
 21 C       -5.0440    -1.3940    -0.2150 C.3   1 <1>  -0.0800 
 22 C        4.5830    -4.3800     0.5420 C.2   1 <1>   1.0500 
 23 N       -4.1150     0.8790    -0.3350 N.4   1 <1>  -0.9060 
 24 C       -5.8210    -0.8570     1.0110 C.3   1 <1>  -0.1600 
 25 O        4.5030    -5.4800     1.1150 O.co2 1 <1>  -0.9000 
 26 O        5.7090    -3.8910     0.3300 O.co2 1 <1>  -0.9000 
 27 C       -5.2250     1.5420     0.4100 C.3   1 <1>   0.3430 
 28 C       -6.3540     0.5560     0.7400 C.3   1 <1>  -0.1600 
 29 H        4.0680    -1.9170     1.3640 H     1 <1>   0.1500 
 30 H        1.9220     0.1500     1.8150 H     1 <1>   0.1000 
 31 H        0.1550    -4.9380    -1.7740 H     1 <1>   0.1500 
 32 H       -2.5680    -0.2080    -2.1540 H     1 <1>   0.0800 
 33 H       -3.4810    -1.6860    -2.4570 H     1 <1>   0.0800 
 34 H       -3.9060    -3.2430    -0.1480 H     1 <1>   0.0800 
 35 H       -3.6250    -2.2180     1.2450 H     1 <1>   0.0800 
 36 H        1.9700     0.4040    -1.2960 H     1 <1>   0.1000 
 37 H        1.6620     1.7550    -0.1570 H     1 <1>   0.1000 
 38 H        3.9090     1.3800     0.9010 H     1 <1>   0.1000 
 39 H        4.2250     0.0380    -0.2420 H     1 <1>   0.1000 
 40 H       -5.2150    -0.0200    -1.9300 H     1 <1>   0.0800 
 41 H       -5.6970    -2.0330    -0.7840 H     1 <1>   0.0800 
 42 H       -3.4340     0.4660     0.3280 H     1 <1>   0.4500 
 43 H       -3.5790     1.5560    -0.8860 H     1 <1>   0.4500 
 44 H       -6.6360    -1.5220     1.2470 H     1 <1>   0.0800 
 45 H       -5.1820    -0.8130     1.8780 H     1 <1>   0.0800 
 46 H       -4.8330     1.9560     1.3260 H     1 <1>   0.0800 
 47 H       -5.6290     2.3540    -0.1730 H     1 <1>   0.0800 
 48 H       -6.8940     0.9160     1.6000 H     1 <1>   0.0800 
 49 H       -7.0530     0.5280    -0.0790 H     1 <1>   0.0800 
@<TRIPOS>BOND
  1   1   2  1   
  2   2   3  ar  
  3   2   4  ar  
  4   3   5  1   
  5   3   6  ar  
  6   4   7  1   
  7   4   8  ar  
  8   5   9  1   
  9   5  10  1   
 10   6  11  1   
 11   6  12  ar  
 12   7  13  1   
 13   7  14  1   
 14   8  12  ar  
 15   8  15  1   
 16   9  16  2   
 17   9  29  1   
 18  10  17  1   
 19  10  18  1   
 20  10  30  1   
 21  11  16  1   
 22  11  19  2   
 23  12  31  1   
 24  13  20  1   
 25  13  32  1   
 26  13  33  1   
 27  14  21  1   
 28  14  34  1   
 29  14  35  1   
 30  16  22  1   
 31  17  18  1   
 32  17  36  1   
 33  17  37  1   
 34  18  38  1   
 35  18  39  1   
 36  20  21  1   
 37  20  23  1   
 38  20  40  1   
 39  21  24  1   
 40  21  41  1   
 41  22  25  ar  
 42  22  26  ar  
 43  23  27  1   
 44  23  42  1   
 45  23  43  1   
 46  24  28  1   
 47  24  44  1   
 48  24  45  1   
 49  27  28  1   
 50  27  46  1   
 51  27  47  1   
 52  28  48  1   
 53  28  49  1   
@<TRIPOS>SUBSTRUCTURE
  1 ****   2 GROUP 4 **** **** 0

# MOE 2024.06 (io_trps.svl 2023.06)
