@<TRIPOS>MOLECULE
NONAME
37 40 1 0 0 
SMALL
USER_CHARGES


@<TRIPOS>ATOM
  1 S       -0.5750     0.0470     2.0380 S.3   1 <1>  -0.0800 
  2 C       -1.1700     1.1800     0.8160 C.2   1 <1>  -0.0450 
  3 C       -1.5770    -1.2490     1.4350 C.2   1 <1>  -0.1100 
  4 C       -2.0770     0.5340     0.0300 C.2   1 <1>  -0.1810 
  5 C       -0.6350     2.5210     0.8160 C.2   1 <1>   0.7150 
  6 C       -2.3090    -0.8320     0.3870 C.2   1 <1>  -0.1810 
  7 C       -2.7820     1.1620    -1.1680 C.3   1 <1>   0.0210 
  8 O       -0.9440     3.3260    -0.0420 O.2   1 <1>  -0.5700 
  9 N        0.2310     2.9050     1.8010 N.am  1 <1>  -0.4940 
 10 C       -3.3140    -1.7030    -0.3520 C.3   1 <1>   0.0210 
 11 C       -3.9880     0.3450    -1.6490 C.3   1 <1>  -0.1600 
 12 C        0.8120     4.1460     2.0760 C.2   1 <1>   0.2510 
 13 C       -3.6380    -1.1460    -1.7420 C.3   1 <1>  -0.1600 
 14 N        1.0360     4.5080     3.3000 N.2   1 <1>  -0.3380 
 15 N        1.2240     5.0830     1.1920 N.pl3 1 <1>   0.3340 
 16 N        1.5880     5.7190     3.2670 N.2   1 <1>  -0.3380 
 17 C        1.7010     6.0600     2.0170 C.2   1 <1>   0.3120 
 18 C        1.3660     5.2300    -0.1840 C.2   1 <1>  -0.1810 
 19 N        2.2430     7.2380     1.5510 N.2   1 <1>  -0.5760 
 20 C        1.9140     6.3800    -0.6470 C.2   1 <1>  -0.1360 
 21 C        2.3360     7.3810     0.2740 C.2   1 <1>   0.3750 
 22 C        2.9230     8.6600    -0.2780 C.3   1 <1>  -0.1790 
 23 H       -1.5200    -2.1980     1.9390 H     1 <1>   0.1500 
 24 H       -2.0710     1.2370    -1.9720 H     1 <1>   0.0800 
 25 H       -3.1060     2.1590    -0.9250 H     1 <1>   0.0800 
 26 H        0.2910     2.2500     2.5800 H     1 <1>   0.3700 
 27 H       -4.2190    -1.7380     0.2290 H     1 <1>   0.0800 
 28 H       -2.9360    -2.7060    -0.4380 H     1 <1>   0.0800 
 29 H       -4.3040     0.7080    -2.6110 H     1 <1>   0.0800 
 30 H       -4.8040     0.4780    -0.9590 H     1 <1>   0.0800 
 31 H       -4.4650    -1.6910    -2.1620 H     1 <1>   0.0800 
 32 H       -2.7870    -1.2770    -2.3880 H     1 <1>   0.0800 
 33 H        1.0350     4.4250    -0.8120 H     1 <1>   0.1500 
 34 H        2.0460     6.5670    -1.6980 H     1 <1>   0.1500 
 35 H        2.2030     9.1540    -0.9030 H     1 <1>   0.0800 
 36 H        3.8040     8.4410    -0.8520 H     1 <1>   0.0800 
 37 H        3.1920     9.3230     0.5260 H     1 <1>   0.0800 
@<TRIPOS>BOND
  1   1   2  1   
  2   1   3  1   
  3   2   4  2   
  4   2   5  1   
  5   3   6  2   
  6   3  23  1   
  7   4   6  1   
  8   4   7  1   
  9   5   8  2   
 10   5   9  am  
 11   6  10  1   
 12   7  11  1   
 13   7  24  1   
 14   7  25  1   
 15   9  12  1   
 16   9  26  1   
 17  10  13  1   
 18  10  27  1   
 19  10  28  1   
 20  11  13  1   
 21  11  29  1   
 22  11  30  1   
 23  12  14  2   
 24  12  15  1   
 25  13  31  1   
 26  13  32  1   
 27  14  16  1   
 28  15  17  1   
 29  15  18  1   
 30  16  17  2   
 31  17  19  1   
 32  18  20  2   
 33  18  33  1   
 34  19  21  2   
 35  20  21  1   
 36  20  34  1   
 37  21  22  1   
 38  22  35  1   
 39  22  36  1   
 40  22  37  1   
@<TRIPOS>SUBSTRUCTURE
  1 ****   5 GROUP 4 **** **** 0

# MOE 2024.06 (io_trps.svl 2023.06)
