@<TRIPOS>MOLECULE
NONAME
37 38 1 0 0 
SMALL
USER_CHARGES


@<TRIPOS>ATOM
  1 O        0.1730     1.7400    -0.7220 O.2   1 <1>  -0.5700 
  2 C        1.2720     1.2440    -0.5330 C.2   1 <1>   0.7160 
  3 N        1.4840    -0.0330    -1.0020 N.am  1 <1>  -0.7300 
  4 C        2.3470     1.9560     0.1650 C.2   1 <1>   0.4300 
  5 C        0.5080    -0.8820    -1.7310 C.3   1 <1>   0.0600 
  6 N        3.5160     1.4580     0.4130 N.2   1 <1>  -0.4100 
  7 N        2.2530     3.2130     0.6320 N.2   1 <1>  -0.5650 
  8 O        4.2140     2.3570     1.0260 O.3   1 <1>  -0.0190 
  9 C        3.4120     3.3850     1.1210 C.2   1 <1>   0.2980 
 10 C        3.9080     4.6530     1.8130 C.3   1 <1>   0.2900 
 11 N        4.8270     5.4660     0.9800 N.3   1 <1>  -0.8100 
 12 C        4.8870     6.8640     1.4770 C.3   1 <1>   0.2530 
 13 C        6.1750     4.8780     0.8930 C.3   1 <1>   0.0300 
 14 C        5.7210     7.8040     0.5990 C.ar  1 <1>   0.1670 
 15 N        6.8210     8.2790     1.1730 N.ar  1 <1>  -0.6200 
 16 C        5.3200     8.1230    -0.7000 C.ar  1 <1>  -0.1430 
 17 C        7.5530     9.0960     0.4350 C.ar  1 <1>   0.1600 
 18 C        6.1030     8.9800    -1.4480 C.ar  1 <1>  -0.1500 
 19 C        4.0510     7.5550    -1.3260 C.3   1 <1>  -0.0970 
 20 C        7.2450     9.4730    -0.8580 C.ar  1 <1>  -0.1500 
 21 H        2.4100    -0.4370    -0.8360 H     1 <1>   0.3700 
 22 H       -0.4290    -0.3640    -1.8520 H     1 <1>   0.0800 
 23 H        0.3320    -1.7900    -1.1790 H     1 <1>   0.0800 
 24 H        0.8960    -1.1280    -2.7040 H     1 <1>   0.0800 
 25 H        4.3840     4.3910     2.7420 H     1 <1>   0.0800 
 26 H        3.0360     5.2390     2.0440 H     1 <1>   0.0800 
 27 H        5.2940     6.8710     2.4740 H     1 <1>   0.0800 
 28 H        3.8910     7.2650     1.5330 H     1 <1>   0.0800 
 29 H        6.1290     3.8880     0.4760 H     1 <1>   0.0800 
 30 H        6.6340     4.8330     1.8670 H     1 <1>   0.0800 
 31 H        6.7980     5.4730     0.2470 H     1 <1>   0.0800 
 32 H        8.4480     9.4870     0.8870 H     1 <1>   0.1500 
 33 H        5.8400     9.2550    -2.4540 H     1 <1>   0.1500 
 34 H        3.2030     7.7440    -0.6950 H     1 <1>   0.0800 
 35 H        4.1540     6.4920    -1.4580 H     1 <1>   0.0800 
 36 H        3.8610     7.9970    -2.2870 H     1 <1>   0.0800 
 37 H        7.8920    10.1430    -1.3940 H     1 <1>   0.1500 
@<TRIPOS>BOND
  1   1   2  2   
  2   2   3  am  
  3   2   4  1   
  4   3   5  1   
  5   3  21  1   
  6   4   6  2   
  7   4   7  1   
  8   5  22  1   
  9   5  23  1   
 10   5  24  1   
 11   6   8  1   
 12   7   9  2   
 13   8   9  1   
 14   9  10  1   
 15  10  11  1   
 16  10  25  1   
 17  10  26  1   
 18  11  12  1   
 19  11  13  1   
 20  12  14  1   
 21  12  27  1   
 22  12  28  1   
 23  13  29  1   
 24  13  30  1   
 25  13  31  1   
 26  14  15  ar  
 27  14  16  ar  
 28  15  17  ar  
 29  16  18  ar  
 30  16  19  1   
 31  17  20  ar  
 32  17  32  1   
 33  18  20  ar  
 34  18  33  1   
 35  19  34  1   
 36  19  35  1   
 37  19  36  1   
 38  20  37  1   
@<TRIPOS>SUBSTRUCTURE
  1 ****  11 GROUP 4 **** **** 0

# MOE 2024.06 (io_trps.svl 2023.06)
