@<TRIPOS>MOLECULE
NONAME
60 62 1 0 0 
SMALL
USER_CHARGES


@<TRIPOS>ATOM
  1 F       -0.4020     1.0910    -2.4360 F     1 <1>  -0.1900 
  2 C       -0.1960     2.2820    -1.9420 C.ar  1 <1>   0.1900 
  3 C       -1.2780     3.0140    -1.4930 C.ar  1 <1>  -0.1500 
  4 C        1.0970     2.7660    -1.8880 C.ar  1 <1>  -0.1500 
  5 C       -1.0520     4.2770    -0.9710 C.ar  1 <1>  -0.1500 
  6 C        1.3100     4.0300    -1.3640 C.ar  1 <1>  -0.1500 
  7 C        0.2390     4.7870    -0.9060 C.ar  1 <1>  -0.1430 
  8 C        0.4750     6.1770    -0.3390 C.3   1 <1>  -0.0160 
  9 C        0.4360     7.2160    -1.4640 C.3   1 <1>   0.1400 
 10 N        0.4090     8.6030    -0.9080 N.am  1 <1>  -0.6600 
 11 C        1.5740     9.1800    -0.4610 C.2   1 <1>   0.5690 
 12 C       -0.9310     9.2580    -0.9630 C.3   1 <1>   0.2840 
 13 O        2.6330     8.6160    -0.6080 O.2   1 <1>  -0.5700 
 14 C        1.5810    10.5560     0.2270 C.3   1 <1>  -0.0190 
 15 C       -1.9000     8.5530    -0.0270 C.ar  1 <1>  -0.1430 
 16 C        1.7530    11.6920    -0.8000 C.3   1 <1>  -0.1600 
 17 C        2.6500    10.6800     1.3440 C.3   1 <1>  -0.1600 
 18 C       -2.8530     7.6840    -0.5380 C.ar  1 <1>  -0.1500 
 19 C       -1.8350     8.7530     1.3440 C.ar  1 <1>  -0.1500 
 20 C        1.5680    13.0880    -0.1650 C.3   1 <1>   0.2000 
 21 C        2.9650    12.1350     1.7480 C.3   1 <1>  -0.1600 
 22 C       -3.7250     7.0120     0.3010 C.ar  1 <1>   0.0830 
 23 C       -2.7090     8.0920     2.1900 C.ar  1 <1>  -0.1500 
 24 O        2.4520    13.9810    -0.7940 O.3   1 <1>  -0.5600 
 25 C        1.8380    13.0970     1.3630 C.3   1 <1>   0.2000 
 26 O       -4.6070     6.1680    -0.2900 O.3   1 <1>  -0.3630 
 27 C       -3.6530     7.2220     1.6750 C.ar  1 <1>  -0.1500 
 28 C        2.0420    14.4500    -2.0410 C.3   1 <1>   0.0400 
 29 O        2.2050    14.3680     1.7510 O.3   1 <1>  -0.6800 
 30 C       -5.5390     5.4320     0.4710 C.3   1 <1>   0.0400 
 31 H       -2.2700     2.6050    -1.5510 H     1 <1>   0.1500 
 32 H        1.9140     2.1670    -2.2470 H     1 <1>   0.1500 
 33 H       -1.8860     4.8600    -0.6160 H     1 <1>   0.1500 
 34 H        2.3110     4.4250    -1.3140 H     1 <1>   0.1500 
 35 H        1.4310     6.2160     0.1520 H     1 <1>   0.0800 
 36 H       -0.2830     6.3920     0.3910 H     1 <1>   0.0800 
 37 H       -0.4330     7.0480    -2.0760 H     1 <1>   0.0800 
 38 H        1.3030     7.0920    -2.0910 H     1 <1>   0.0800 
 39 H       -0.8750    10.2990    -0.7070 H     1 <1>   0.0800 
 40 H       -1.3000     9.2050    -1.9730 H     1 <1>   0.0800 
 41 H        0.6330    10.6830     0.7130 H     1 <1>   0.0800 
 42 H        1.0470    11.5710    -1.6010 H     1 <1>   0.0800 
 43 H        2.7440    11.6130    -1.2140 H     1 <1>   0.0800 
 44 H        2.3080    10.1310     2.2060 H     1 <1>   0.0800 
 45 H        3.5730    10.2240     1.0290 H     1 <1>   0.0800 
 46 H       -2.9270     7.5080    -1.5960 H     1 <1>   0.1500 
 47 H       -1.1010     9.4180     1.7630 H     1 <1>   0.1500 
 48 H        0.5600    13.4350    -0.3190 H     1 <1>   0.0800 
 49 H        3.8620    12.4460     1.2400 H     1 <1>   0.0800 
 50 H        3.1440    12.1860     2.8080 H     1 <1>   0.0800 
 51 H       -2.6510     8.2530     3.2520 H     1 <1>   0.1500 
 52 H        0.9450    12.8340     1.9030 H     1 <1>   0.0800 
 53 H       -4.3160     6.7190     2.3530 H     1 <1>   0.1500 
 54 H        2.7900    15.1320    -2.4030 H     1 <1>   0.0800 
 55 H        1.1040    14.9670    -1.9360 H     1 <1>   0.0800 
 56 H        1.9480    13.6240    -2.7240 H     1 <1>   0.0800 
 57 H        2.7060    14.7460     0.9930 H     1 <1>   0.4000 
 58 H       -6.1290     4.8390    -0.2050 H     1 <1>   0.0800 
 59 H       -6.1750     6.1180     1.0030 H     1 <1>   0.0800 
 60 H       -5.0070     4.7910     1.1520 H     1 <1>   0.0800 
@<TRIPOS>BOND
  1   1   2  1   
  2   2   3  ar  
  3   2   4  ar  
  4   3   5  ar  
  5   3  31  1   
  6   4   6  ar  
  7   4  32  1   
  8   5   7  ar  
  9   5  33  1   
 10   6   7  ar  
 11   6  34  1   
 12   7   8  1   
 13   8   9  1   
 14   8  35  1   
 15   8  36  1   
 16   9  10  1   
 17   9  37  1   
 18   9  38  1   
 19  10  11  am  
 20  10  12  1   
 21  11  13  2   
 22  11  14  1   
 23  12  15  1   
 24  12  39  1   
 25  12  40  1   
 26  14  16  1   
 27  14  17  1   
 28  14  41  1   
 29  15  18  ar  
 30  15  19  ar  
 31  16  20  1   
 32  16  42  1   
 33  16  43  1   
 34  17  21  1   
 35  17  44  1   
 36  17  45  1   
 37  18  22  ar  
 38  18  46  1   
 39  19  23  ar  
 40  19  47  1   
 41  20  24  1   
 42  20  25  1   
 43  20  48  1   
 44  21  25  1   
 45  21  49  1   
 46  21  50  1   
 47  22  26  1   
 48  22  27  ar  
 49  23  27  ar  
 50  23  51  1   
 51  24  28  1   
 52  25  29  1   
 53  25  52  1   
 54  26  30  1   
 55  27  53  1   
 56  28  54  1   
 57  28  55  1   
 58  28  56  1   
 59  29  57  1   
 60  30  58  1   
 61  30  59  1   
 62  30  60  1   
@<TRIPOS>SUBSTRUCTURE
  1 ****  10 GROUP 4 **** **** 0

# MOE 2024.06 (io_trps.svl 2023.06)
