@<TRIPOS>MOLECULE
NONAME
53 56 1 0 0 
SMALL
USER_CHARGES


@<TRIPOS>ATOM
  1 O       -0.3750    -4.1670    -2.2570 O.2   1 <1>  -0.5700 
  2 C        0.7880    -4.1660    -1.9470 C.2   1 <1>   0.5690 
  3 N        1.6690    -5.0200    -2.5080 N.am  1 <1>  -0.7300 
  4 C        1.3120    -3.2100    -0.8970 C.3   1 <1>  -0.0990 
  5 C        3.0960    -5.0740    -2.1310 C.3   1 <1>   0.1400 
  6 C        2.6640    -2.6130    -1.3340 C.3   1 <1>  -0.0800 
  7 C        3.6460    -3.6460    -1.9450 C.3   1 <1>  -0.0800 
  8 C        3.4130    -1.9160    -0.1890 C.3   1 <1>  -0.1600 
  9 C        4.8980    -3.6050    -1.0610 C.3   1 <1>  -0.1600 
 10 C        4.8850    -2.2020    -0.4620 C.3   1 <1>   0.2200 
 11 N        5.7480    -2.0510     0.7460 N.am  1 <1>  -0.6600 
 12 C        6.7060    -1.0580     0.7810 C.2   1 <1>   0.5440 
 13 C        5.6410    -3.0670     1.8360 C.3   1 <1>   0.0600 
 14 O        6.5810    -0.0830     0.0610 O.2   1 <1>  -0.5700 
 15 C        7.8590    -1.1420     1.6540 C.ar  1 <1>   0.0860 
 16 C        8.8490    -2.1260     1.4860 C.ar  1 <1>   0.0000 
 17 C        7.9980    -0.2220     2.6920 C.ar  1 <1>  -0.1500 
 18 C        8.7900    -3.1000     0.4160 C.ar  1 <1>   0.0000 
 19 C        9.9210    -2.1590     2.3740 C.ar  1 <1>  -0.1500 
 20 C        9.0680    -0.2700     3.5630 C.ar  1 <1>  -0.1500 
 21 C        8.7240    -2.7060    -0.9190 C.ar  1 <1>  -0.1500 
 22 C        8.7990    -4.4660     0.6890 C.ar  1 <1>  -0.1500 
 23 C       10.0330    -1.2460     3.4040 C.ar  1 <1>  -0.1500 
 24 C        8.6550    -3.6310    -1.9460 C.ar  1 <1>  -0.1440 
 25 C        8.7370    -5.3990    -0.3290 C.ar  1 <1>  -0.1500 
 26 C        8.6640    -4.9830    -1.6460 C.ar  1 <1>  -0.1500 
 27 C        8.5730    -3.1640    -3.3870 C.3   1 <1>  -0.0970 
 28 H        1.3100    -5.6890    -3.1920 H     1 <1>   0.3700 
 29 H        0.5960    -2.4260    -0.7350 H     1 <1>   0.0800 
 30 H        1.4220    -3.7620     0.0180 H     1 <1>   0.0800 
 31 H        3.1800    -5.6300    -1.2130 H     1 <1>   0.0800 
 32 H        3.6580    -5.5880    -2.8930 H     1 <1>   0.0800 
 33 H        2.4610    -1.8810    -2.0990 H     1 <1>   0.0800 
 34 H        3.9260    -3.2800    -2.9190 H     1 <1>   0.0800 
 35 H        3.1220    -2.3350     0.7550 H     1 <1>   0.0800 
 36 H        3.2250    -0.8570    -0.1800 H     1 <1>   0.0800 
 37 H        5.7940    -3.7780    -1.6290 H     1 <1>   0.0800 
 38 H        4.8130    -4.3460    -0.2890 H     1 <1>   0.0800 
 39 H        5.2150    -1.5230    -1.2320 H     1 <1>   0.0800 
 40 H        4.6130    -3.3240     2.0130 H     1 <1>   0.0800 
 41 H        6.0530    -2.6820     2.7520 H     1 <1>   0.0800 
 42 H        6.1820    -3.9550     1.5580 H     1 <1>   0.0800 
 43 H        7.2480     0.5430     2.8070 H     1 <1>   0.1500 
 44 H       10.6830    -2.9090     2.2470 H     1 <1>   0.1500 
 45 H        9.1530     0.4500     4.3590 H     1 <1>   0.1500 
 46 H        8.7230    -1.6540    -1.1480 H     1 <1>   0.1500 
 47 H        8.8540    -4.7970     1.7100 H     1 <1>   0.1500 
 48 H       10.8720    -1.2900     4.0780 H     1 <1>   0.1500 
 49 H        8.7470    -6.4500    -0.0990 H     1 <1>   0.1500 
 50 H        8.6180    -5.7130    -2.4350 H     1 <1>   0.1500 
 51 H        7.9960    -3.8550    -3.9750 H     1 <1>   0.0800 
 52 H        9.5620    -3.0930    -3.8030 H     1 <1>   0.0800 
 53 H        8.1040    -2.1980    -3.4430 H     1 <1>   0.0800 
@<TRIPOS>BOND
  1   1   2  2   
  2   2   3  am  
  3   2   4  1   
  4   3   5  1   
  5   3  28  1   
  6   4   6  1   
  7   4  29  1   
  8   4  30  1   
  9   5   7  1   
 10   5  31  1   
 11   5  32  1   
 12   6   7  1   
 13   6   8  1   
 14   6  33  1   
 15   7   9  1   
 16   7  34  1   
 17   8  10  1   
 18   8  35  1   
 19   8  36  1   
 20   9  10  1   
 21   9  37  1   
 22   9  38  1   
 23  10  11  1   
 24  10  39  1   
 25  11  12  am  
 26  11  13  1   
 27  12  14  2   
 28  12  15  1   
 29  13  40  1   
 30  13  41  1   
 31  13  42  1   
 32  15  16  ar  
 33  15  17  ar  
 34  16  18  1   
 35  16  19  ar  
 36  17  20  ar  
 37  17  43  1   
 38  18  21  ar  
 39  18  22  ar  
 40  19  23  ar  
 41  19  44  1   
 42  20  23  ar  
 43  20  45  1   
 44  21  24  ar  
 45  21  46  1   
 46  22  25  ar  
 47  22  47  1   
 48  23  48  1   
 49  24  26  ar  
 50  24  27  1   
 51  25  26  ar  
 52  25  49  1   
 53  26  50  1   
 54  27  51  1   
 55  27  52  1   
 56  27  53  1   
@<TRIPOS>SUBSTRUCTURE
  1 ****  11 GROUP 4 **** **** 0

# MOE 2024.06 (io_trps.svl 2023.06)
