@<TRIPOS>MOLECULE
NONAME
46 48 1 0 0 
SMALL
USER_CHARGES


@<TRIPOS>ATOM
  1 CL       0.3970    -1.7220     2.5580 Cl    1 <1>  -0.1770 
  2 C        1.3130    -1.6270     1.0640 C.ar  1 <1>   0.1770 
  3 C        0.8920    -2.3190    -0.0780 C.ar  1 <1>   0.1000 
  4 C        2.4550    -0.8490     1.0630 C.ar  1 <1>  -0.1500 
  5 N       -0.2530    -3.1230    -0.1430 N.pl3 1 <1>  -0.8380 
  6 C        1.6690    -2.1970    -1.2240 C.ar  1 <1>  -0.1500 
  7 C        3.2110    -0.7440    -0.0920 C.ar  1 <1>  -0.1500 
  8 C       -1.5500    -2.4230    -0.0690 C.3   1 <1>   0.2090 
  9 C       -0.2080    -4.3890     0.6160 C.3   1 <1>   0.2090 
 10 C        2.8140    -1.4190    -1.2340 C.ar  1 <1>  -0.1500 
 11 C       -2.6060    -3.3260    -0.6970 C.3   1 <1>  -0.1600 
 12 C       -1.2310    -5.3370     0.0010 C.3   1 <1>  -0.1600 
 13 C       -2.6350    -4.7050    -0.0120 C.3   1 <1>   0.4230 
 14 N       -3.5900    -5.6350    -0.6990 N.4   1 <1>  -0.9590 
 15 C       -3.7790    -6.9040     0.1050 C.3   1 <1>   0.3430 
 16 C       -4.9050    -4.9840    -1.0590 C.3   1 <1>   0.3430 
 17 C       -5.0350    -6.8300     0.9480 C.3   1 <1>  -0.1860 
 18 C       -5.9980    -6.0250    -1.2680 C.3   1 <1>  -0.1600 
 19 C       -5.1200    -8.0510     1.8040 C.2   1 <1>   0.9060 
 20 C       -6.2720    -6.7460     0.0540 C.3   1 <1>   0.2000 
 21 O       -4.1870    -8.8550     1.7630 O.co2 1 <1>  -0.9000 
 22 O       -6.1250    -8.1880     2.5000 O.co2 1 <1>  -0.9000 
 23 O       -7.2040    -6.0210     0.7550 O.3   1 <1>  -0.6800 
 24 H        2.7490    -0.3310     1.9580 H     1 <1>   0.1500 
 25 H        1.3650    -2.7190    -2.1120 H     1 <1>   0.1500 
 26 H        4.1030    -0.1400    -0.1030 H     1 <1>   0.1500 
 27 H       -1.7960    -2.2100     0.9590 H     1 <1>   0.0800 
 28 H       -1.4890    -1.4900    -0.6060 H     1 <1>   0.0800 
 29 H        0.7800    -4.8150     0.5510 H     1 <1>   0.0800 
 30 H       -0.4350    -4.2070     1.6530 H     1 <1>   0.0800 
 31 H        3.3990    -1.3400    -2.1350 H     1 <1>   0.1500 
 32 H       -2.3790    -3.4310    -1.7430 H     1 <1>   0.0800 
 33 H       -3.5490    -2.8230    -0.5900 H     1 <1>   0.0800 
 34 H       -1.2100    -6.2400     0.5810 H     1 <1>   0.0800 
 35 H       -0.9150    -5.5640    -1.0010 H     1 <1>   0.0800 
 36 H       -2.9560    -4.5650     1.0090 H     1 <1>   0.0800 
 37 H       -3.1360    -5.9160    -1.5740 H     1 <1>   0.4500 
 38 H       -3.8700    -7.7510    -0.5560 H     1 <1>   0.0800 
 39 H       -2.9400    -7.0950     0.7520 H     1 <1>   0.0800 
 40 H       -5.2190    -4.3370    -0.2550 H     1 <1>   0.0800 
 41 H       -4.7910    -4.3870    -1.9490 H     1 <1>   0.0800 
 42 H       -4.9620    -5.9860     1.6070 H     1 <1>   0.0800 
 43 H       -5.6810    -6.7310    -2.0130 H     1 <1>   0.0800 
 44 H       -6.9010    -5.5590    -1.6230 H     1 <1>   0.0800 
 45 H       -6.6910    -7.7230    -0.1340 H     1 <1>   0.0800 
 46 H       -7.3720    -6.5170     1.5960 H     1 <1>   0.4000 
@<TRIPOS>BOND
  1   1   2  1   
  2   2   3  ar  
  3   2   4  ar  
  4   3   5  1   
  5   3   6  ar  
  6   4   7  ar  
  7   4  24  1   
  8   5   8  1   
  9   5   9  1   
 10   6  10  ar  
 11   6  25  1   
 12   7  10  ar  
 13   7  26  1   
 14   8  11  1   
 15   8  27  1   
 16   8  28  1   
 17   9  12  1   
 18   9  29  1   
 19   9  30  1   
 20  10  31  1   
 21  11  13  1   
 22  11  32  1   
 23  11  33  1   
 24  12  13  1   
 25  12  34  1   
 26  12  35  1   
 27  13  14  1   
 28  13  36  1   
 29  14  15  1   
 30  14  16  1   
 31  14  37  1   
 32  15  17  1   
 33  15  38  1   
 34  15  39  1   
 35  16  18  1   
 36  16  40  1   
 37  16  41  1   
 38  17  19  1   
 39  17  20  1   
 40  17  42  1   
 41  18  20  1   
 42  18  43  1   
 43  18  44  1   
 44  19  21  ar  
 45  19  22  ar  
 46  20  23  1   
 47  20  45  1   
 48  23  46  1   
@<TRIPOS>SUBSTRUCTURE
  1 ****  13 GROUP 4 **** **** 0

# MOE 2024.06 (io_trps.svl 2023.06)
