@<TRIPOS>MOLECULE
NONAME
51 54 1 0 0 
SMALL
USER_CHARGES


@<TRIPOS>ATOM
  1 S       -0.6540    -1.1530     2.2470 S.o2  1 <1>   1.5000 
  2 O       -1.6680    -2.0960     1.8240 O.2   1 <1>  -0.6500 
  3 O       -0.5220    -0.8740     3.6610 O.2   1 <1>  -0.6500 
  4 N       -1.0100     0.3160     1.4690 N.am  1 <1>  -0.8490 
  5 C        0.9730    -1.6500     1.5800 C.2   1 <1>   0.0780 
  6 C       -1.3530     0.1230     0.0580 C.3   1 <1>   0.1960 
  7 C       -2.0500     1.0680     2.1720 C.3   1 <1>   0.1960 
  8 O        1.6920    -0.8110     0.8460 O.3   1 <1>  -0.2800 
  9 C        1.6580    -2.8110     1.7030 C.2   1 <1>  -0.1500 
 10 C       -1.4770     1.4770    -0.6390 C.3   1 <1>  -0.1600 
 11 C       -2.1970     2.4600     1.5540 C.3   1 <1>  -0.1600 
 12 C        2.8250    -1.3890     0.4800 C.2   1 <1>   0.1400 
 13 C        2.8500    -2.6460     0.9940 C.2   1 <1>  -0.1500 
 14 C       -2.4930     2.3850     0.0540 C.3   1 <1>   0.4180 
 15 C        3.7750    -0.6820    -0.3360 C.2   1 <1>   0.1400 
 16 O       -2.2990     3.6560    -0.5090 O.3   1 <1>  -0.5600 
 17 C       -3.9220     1.9050    -0.2140 C.2   1 <1>  -0.2880 
 18 O        4.8590    -1.2970    -0.7530 O.3   1 <1>  -0.0190 
 19 C        3.8360     0.5770    -0.8340 C.2   1 <1>  -0.1810 
 20 C       -3.3240     4.5950    -0.3480 C.3   1 <1>   0.1200 
 21 C       -4.8830     2.6740    -0.7320 C.2   1 <1>  -0.2760 
 22 N        5.6200    -0.5410    -1.4880 N.2   1 <1>  -0.4100 
 23 C        5.0260     0.5960    -1.5530 C.2   1 <1>   0.1080 
 24 C        2.8710     1.7450    -0.6840 C.3   1 <1>  -0.0590 
 25 C       -4.5970     4.1270    -1.0660 C.3   1 <1>  -0.0220 
 26 C       -6.2930     2.2010    -1.0360 C.3   1 <1>  -0.1020 
 27 C        5.5780     1.7780    -2.3200 C.3   1 <1>  -0.0590 
 28 H       -2.2740    -0.4310    -0.0300 H     1 <1>   0.0800 
 29 H       -0.5800    -0.4450    -0.4330 H     1 <1>   0.0800 
 30 H       -1.7780     1.1870     3.2090 H     1 <1>   0.0800 
 31 H       -2.9850     0.5330     2.1320 H     1 <1>   0.0800 
 32 H        1.3640    -3.6990     2.2350 H     1 <1>   0.1500 
 33 H       -1.7730     1.3280    -1.6610 H     1 <1>   0.0800 
 34 H       -0.5130     1.9500    -0.6310 H     1 <1>   0.0800 
 35 H       -1.2810     3.0000     1.7120 H     1 <1>   0.0800 
 36 H       -2.9920     2.9770     2.0580 H     1 <1>   0.0800 
 37 H        3.6280    -3.3820     0.8850 H     1 <1>   0.1500 
 38 H       -4.0880     0.8780     0.0500 H     1 <1>   0.1500 
 39 H       -2.9850     5.5280    -0.7610 H     1 <1>   0.0800 
 40 H       -3.5090     4.7270     0.7030 H     1 <1>   0.0800 
 41 H        2.1010     1.5260     0.0320 H     1 <1>   0.0800 
 42 H        2.4070     1.9600    -1.6300 H     1 <1>   0.0800 
 43 H        3.4010     2.6180    -0.3500 H     1 <1>   0.0800 
 44 H       -4.4760     4.2390    -2.1290 H     1 <1>   0.0800 
 45 H       -5.4150     4.7500    -0.7530 H     1 <1>   0.0800 
 46 H       -6.5060     2.3240    -2.0830 H     1 <1>   0.0800 
 47 H       -7.0070     2.7670    -0.4660 H     1 <1>   0.0800 
 48 H       -6.4050     1.1610    -0.7860 H     1 <1>   0.0800 
 49 H        4.8490     2.1290    -3.0280 H     1 <1>   0.0800 
 50 H        6.4660     1.4890    -2.8520 H     1 <1>   0.0800 
 51 H        5.8240     2.5720    -1.6400 H     1 <1>   0.0800 
@<TRIPOS>BOND
  1   1   2  2   
  2   1   3  2   
  3   1   4  am  
  4   1   5  1   
  5   4   6  1   
  6   4   7  1   
  7   5   8  1   
  8   5   9  2   
  9   6  10  1   
 10   6  28  1   
 11   6  29  1   
 12   7  11  1   
 13   7  30  1   
 14   7  31  1   
 15   8  12  1   
 16   9  13  1   
 17   9  32  1   
 18  10  14  1   
 19  10  33  1   
 20  10  34  1   
 21  11  14  1   
 22  11  35  1   
 23  11  36  1   
 24  12  13  2   
 25  12  15  1   
 26  13  37  1   
 27  14  16  1   
 28  14  17  1   
 29  15  18  1   
 30  15  19  2   
 31  16  20  1   
 32  17  21  2   
 33  17  38  1   
 34  18  22  1   
 35  19  23  1   
 36  19  24  1   
 37  20  25  1   
 38  20  39  1   
 39  20  40  1   
 40  21  25  1   
 41  21  26  1   
 42  22  23  2   
 43  23  27  1   
 44  24  41  1   
 45  24  42  1   
 46  24  43  1   
 47  25  44  1   
 48  25  45  1   
 49  26  46  1   
 50  26  47  1   
 51  26  48  1   
 52  27  49  1   
 53  27  50  1   
 54  27  51  1   
@<TRIPOS>SUBSTRUCTURE
  1 ****   6 GROUP 4 **** **** 0

# MOE 2024.06 (io_trps.svl 2023.06)
