@<TRIPOS>MOLECULE
NONAME
54 56 1 0 0 
SMALL
USER_CHARGES


@<TRIPOS>ATOM
  1 F       -0.2640    -1.3030     0.8030 F     1 <1>  -0.1900 
  2 C       -1.4110    -1.9170     0.6800 C.ar  1 <1>   0.1900 
  3 C       -2.5610    -1.1620     0.5490 C.ar  1 <1>  -0.1500 
  4 C       -1.4300    -3.2990     0.6860 C.ar  1 <1>  -0.1500 
  5 C       -3.7710    -1.8210     0.4190 C.ar  1 <1>  -0.1500 
  6 C       -2.6460    -3.9500     0.5550 C.ar  1 <1>  -0.1500 
  7 C       -3.8220    -3.2100     0.4210 C.ar  1 <1>   0.0820 
  8 O       -5.0510    -3.7690     0.2860 O.3   1 <1>  -0.3630 
  9 C       -5.2250    -5.1640     0.2630 C.3   1 <1>   0.1200 
 10 C       -6.7160    -5.4450     0.0880 C.3   1 <1>  -0.1600 
 11 C       -6.9610    -6.9430    -0.0780 C.3   1 <1>   0.3430 
 12 N       -8.4070    -7.2380    -0.0660 N.4   1 <1>  -0.9590 
 13 C       -8.7060    -8.7030     0.1520 C.3   1 <1>   0.3430 
 14 C       -9.2140    -6.6650    -1.1750 C.3   1 <1>   0.3430 
 15 C      -10.1890    -9.0720    -0.1250 C.3   1 <1>   0.2000 
 16 C      -10.7090    -6.7050    -0.8120 C.3   1 <1>  -0.1600 
 17 O      -10.3080    -9.4570    -1.4640 O.3   1 <1>  -0.6800 
 18 C      -11.1050    -7.8620     0.1630 C.3   1 <1>  -0.1060 
 19 C      -10.7900    -7.5230     1.6270 C.2   1 <1>   0.9060 
 20 C      -12.6070    -8.2230     0.0190 C.3   1 <1>  -0.0170 
 21 O      -10.0970    -6.5290     1.8890 O.co2 1 <1>  -0.9000 
 22 O      -11.0260    -8.3790     2.4790 O.co2 1 <1>  -0.9000 
 23 C      -13.5310    -7.0170     0.1410 C.ar  1 <1>  -0.1430 
 24 C      -14.1140    -6.4570    -0.9860 C.ar  1 <1>  -0.1500 
 25 C      -13.8020    -6.4680     1.3850 C.ar  1 <1>  -0.1500 
 26 C      -14.9510    -5.3600    -0.8720 C.ar  1 <1>  -0.1500 
 27 C      -14.6370    -5.3700     1.5010 C.ar  1 <1>  -0.1500 
 28 C      -15.2120    -4.8150     0.3720 C.ar  1 <1>  -0.1500 
 29 H       -2.5060    -0.0890     0.5500 H     1 <1>   0.1500 
 30 H       -0.5110    -3.8470     0.7910 H     1 <1>   0.1500 
 31 H       -4.6840    -1.2630     0.3160 H     1 <1>   0.1500 
 32 H       -2.6530    -5.0230     0.5620 H     1 <1>   0.1500 
 33 H       -4.6570    -5.5570    -0.5640 H     1 <1>   0.0800 
 34 H       -4.8630    -5.5670     1.1940 H     1 <1>   0.0800 
 35 H       -7.2410    -5.0890     0.9590 H     1 <1>   0.0800 
 36 H       -7.0620    -4.9170    -0.7820 H     1 <1>   0.0800 
 37 H       -6.4930    -7.4630     0.7430 H     1 <1>   0.0800 
 38 H       -6.5220    -7.2930    -0.9980 H     1 <1>   0.0800 
 39 H       -8.8220    -6.7750     0.7890 H     1 <1>   0.4500 
 40 H       -8.0780    -9.3160    -0.4700 H     1 <1>   0.0800 
 41 H       -8.4970    -8.9370     1.1830 H     1 <1>   0.0800 
 42 H       -8.9270    -5.6460    -1.3710 H     1 <1>   0.0800 
 43 H       -9.0490    -7.2490    -2.0670 H     1 <1>   0.0800 
 44 H      -10.4640    -9.9180     0.4840 H     1 <1>   0.0800 
 45 H      -10.9950    -5.7600    -0.3800 H     1 <1>   0.0800 
 46 H      -11.2560    -6.7980    -1.7320 H     1 <1>   0.0800 
 47 H      -11.2100    -9.7980    -1.6290 H     1 <1>   0.4000 
 48 H      -12.7830    -8.6880    -0.9330 H     1 <1>   0.0800 
 49 H      -12.8790    -8.9430     0.7730 H     1 <1>   0.0800 
 50 H      -13.9210    -6.8720    -1.9590 H     1 <1>   0.1500 
 51 H      -13.3600    -6.8910     2.2730 H     1 <1>   0.1500 
 52 H      -15.3990    -4.9310    -1.7510 H     1 <1>   0.1500 
 53 H      -14.8330    -4.9520     2.4720 H     1 <1>   0.1500 
 54 H      -15.8600    -3.9610     0.4630 H     1 <1>   0.1500 
@<TRIPOS>BOND
  1   1   2  1   
  2   2   3  ar  
  3   2   4  ar  
  4   3   5  ar  
  5   3  29  1   
  6   4   6  ar  
  7   4  30  1   
  8   5   7  ar  
  9   5  31  1   
 10   6   7  ar  
 11   6  32  1   
 12   7   8  1   
 13   8   9  1   
 14   9  10  1   
 15   9  33  1   
 16   9  34  1   
 17  10  11  1   
 18  10  35  1   
 19  10  36  1   
 20  11  12  1   
 21  11  37  1   
 22  11  38  1   
 23  12  13  1   
 24  12  14  1   
 25  12  39  1   
 26  13  15  1   
 27  13  40  1   
 28  13  41  1   
 29  14  16  1   
 30  14  42  1   
 31  14  43  1   
 32  15  17  1   
 33  15  18  1   
 34  15  44  1   
 35  16  18  1   
 36  16  45  1   
 37  16  46  1   
 38  17  47  1   
 39  18  19  1   
 40  18  20  1   
 41  19  21  ar  
 42  19  22  ar  
 43  20  23  1   
 44  20  48  1   
 45  20  49  1   
 46  23  24  ar  
 47  23  25  ar  
 48  24  26  ar  
 49  24  50  1   
 50  25  27  ar  
 51  25  51  1   
 52  26  28  ar  
 53  26  52  1   
 54  27  28  ar  
 55  27  53  1   
 56  28  54  1   
@<TRIPOS>SUBSTRUCTURE
  1 ****  12 GROUP 4 **** **** 0

# MOE 2024.06 (io_trps.svl 2023.06)
