@<TRIPOS>MOLECULE
NONAME
53 56 1 0 0 
SMALL
USER_CHARGES


@<TRIPOS>ATOM
  1 N        1.0230     0.6930     0.0260 N.4   1 <1>  -0.9280 
  2 C       -0.1320     0.3350    -0.8570 C.3   1 <1>   0.4230 
  3 C        0.6970     1.7910     1.0280 C.3   1 <1>   0.4720 
  4 C        2.2800     0.9000    -0.7580 C.3   1 <1>   0.3430 
  5 C        0.2970    -0.6690    -1.9490 C.3   1 <1>  -0.1600 
  6 C       -0.7720     1.5690    -1.5020 C.3   1 <1>  -0.2400 
  7 C        1.1510     3.2370     0.6740 C.3   1 <1>   0.2100 
  8 C        1.6910     1.9590     2.2200 C.3   1 <1>   0.2100 
  9 C        2.7330    -0.4400    -1.3550 C.3   1 <1>  -0.1600 
 10 C        1.5820    -1.4330    -1.6030 C.3   1 <1>  -0.1600 
 11 N        2.4360     2.9260     1.3720 N.3   1 <1>  -0.6890 
 12 C        2.9560     4.1030     2.0870 C.3   1 <1>   0.2530 
 13 C        3.3600     5.1540     1.0640 C.ar  1 <1>  -0.1440 
 14 C        4.3440     4.8690     0.1100 C.ar  1 <1>  -0.1520 
 15 C        2.7620     6.3960     1.0300 C.ar  1 <1>  -0.1500 
 16 N        5.1020     3.7430    -0.0780 N.pl3 1 <1>   0.0330 
 17 C        4.6980     5.7910    -0.8670 C.ar  1 <1>   0.0000 
 18 C        3.1220     7.3390     0.0600 C.ar  1 <1>  -0.1500 
 19 C        5.9130     3.9330    -1.1610 C.2   1 <1>  -0.3320 
 20 C        5.6890     5.1730    -1.6650 C.2   1 <1>  -0.1810 
 21 C        4.0770     7.0440    -0.8840 C.ar  1 <1>  -0.1500 
 22 C        6.8760     2.8500    -1.6140 C.3   1 <1>  -0.0600 
 23 C        6.3330     5.8640    -2.8510 C.3   1 <1>  -0.0590 
 24 H        1.2070    -0.1450     0.5840 H     1 <1>   0.4500 
 25 H       -0.8810    -0.1450    -0.2460 H     1 <1>   0.0800 
 26 H       -0.3250     1.7280     1.3540 H     1 <1>   0.0000 
 27 H        3.0680     1.2880    -0.1340 H     1 <1>   0.0800 
 28 H        2.0980     1.6120    -1.5470 H     1 <1>   0.0800 
 29 H        0.4530    -0.1520    -2.8810 H     1 <1>   0.0800 
 30 H       -0.5070    -1.3650    -2.1160 H     1 <1>   0.0800 
 31 H       -0.0500     2.1370    -2.0600 H     1 <1>   0.0800 
 32 H       -1.2400     2.1990    -0.7690 H     1 <1>   0.0800 
 33 H       -1.5430     1.2550    -2.1830 H     1 <1>   0.0800 
 34 H        0.5780     3.9900     1.1890 H     1 <1>   0.0000 
 35 H        1.2860     3.4330    -0.3740 H     1 <1>   0.0000 
 36 H        2.2680     1.0810     2.4470 H     1 <1>   0.0000 
 37 H        1.2450     2.4320     3.0790 H     1 <1>   0.0000 
 38 H        3.4620    -0.8930    -0.7070 H     1 <1>   0.0800 
 39 H        3.2320    -0.2300    -2.2860 H     1 <1>   0.0800 
 40 H        1.8450    -2.1040    -2.4050 H     1 <1>   0.0800 
 41 H        1.4180    -2.0310    -0.7230 H     1 <1>   0.0800 
 42 H        3.8170     3.8200     2.6680 H     1 <1>   0.0800 
 43 H        2.2130     4.5040     2.7550 H     1 <1>   0.0800 
 44 H        2.0050     6.6640     1.7460 H     1 <1>   0.1500 
 45 H        5.0620     2.9180     0.5250 H     1 <1>   0.2700 
 46 H        2.6400     8.3010     0.0590 H     1 <1>   0.1500 
 47 H        4.3600     7.7580    -1.6350 H     1 <1>   0.1500 
 48 H        7.5660     2.6170    -0.8220 H     1 <1>   0.0800 
 49 H        7.4430     3.1720    -2.4680 H     1 <1>   0.0800 
 50 H        6.3360     1.9610    -1.8810 H     1 <1>   0.0800 
 51 H        5.5780     6.1330    -3.5670 H     1 <1>   0.0800 
 52 H        7.0500     5.2260    -3.3310 H     1 <1>   0.0800 
 53 H        6.8330     6.7560    -2.5210 H     1 <1>   0.0800 
@<TRIPOS>BOND
  1   1   2  1   
  2   1   3  1   
  3   1   4  1   
  4   1  24  1   
  5   2   5  1   
  6   2   6  1   
  7   2  25  1   
  8   3   7  1   
  9   3   8  1   
 10   3  26  1   
 11   4   9  1   
 12   4  27  1   
 13   4  28  1   
 14   5  10  1   
 15   5  29  1   
 16   5  30  1   
 17   6  31  1   
 18   6  32  1   
 19   6  33  1   
 20   7  11  1   
 21   7  34  1   
 22   7  35  1   
 23   8  11  1   
 24   8  36  1   
 25   8  37  1   
 26   9  10  1   
 27   9  38  1   
 28   9  39  1   
 29  10  40  1   
 30  10  41  1   
 31  11  12  1   
 32  12  13  1   
 33  12  42  1   
 34  12  43  1   
 35  13  14  ar  
 36  13  15  ar  
 37  14  16  1   
 38  14  17  ar  
 39  15  18  ar  
 40  15  44  1   
 41  16  19  1   
 42  16  45  1   
 43  17  20  1   
 44  17  21  ar  
 45  18  21  ar  
 46  18  46  1   
 47  19  20  2   
 48  19  22  1   
 49  20  23  1   
 50  21  47  1   
 51  22  48  1   
 52  22  49  1   
 53  22  50  1   
 54  23  51  1   
 55  23  52  1   
 56  23  53  1   
@<TRIPOS>SUBSTRUCTURE
  1 ****  11 GROUP 4 **** **** 0

# MOE 2024.06 (io_trps.svl 2023.06)
