@<TRIPOS>MOLECULE
NONAME
50 53 1 0 0 
SMALL
USER_CHARGES


@<TRIPOS>ATOM
  1 O        1.5520    -1.6110     2.0110 O.2   1 <1>  -0.5700 
  2 C        0.9830    -2.5270     1.4390 C.2   1 <1>   0.5440 
  3 N       -0.2490    -2.2500     0.8710 N.am  1 <1>  -0.6600 
  4 C        1.6060    -3.8520     1.4200 C.ar  1 <1>   0.3960 
  5 C       -1.1640    -3.2350     0.2460 C.3   1 <1>   0.1400 
  6 C       -0.8480    -0.8990     0.8740 C.3   1 <1>   0.1400 
  7 N        1.3970    -4.6950     0.3960 N.ar  1 <1>  -0.6200 
  8 C        2.4140    -4.2150     2.5040 C.ar  1 <1>   0.1600 
  9 C       -2.4850    -2.4930     0.0930 C.3   1 <1>  -0.1600 
 10 C       -2.0930    -1.0210     0.0040 C.3   1 <1>  -0.1600 
 11 C        1.9590    -5.8690     0.5540 C.ar  1 <1>   0.4100 
 12 N        3.0180    -5.3880     2.6630 N.ar  1 <1>  -0.6200 
 13 N        1.6670    -6.7470    -0.4480 N.pl3 1 <1>  -0.8690 
 14 C        2.7610    -6.1990     1.6560 C.ar  1 <1>   0.1600 
 15 C        0.5320    -7.6850    -0.1840 C.3   1 <1>   0.3530 
 16 C       -0.8390    -7.0660    -0.4920 C.ar  1 <1>   0.4770 
 17 N       -1.7340    -7.0960     0.4820 N.ar  1 <1>  -0.6200 
 18 N       -0.9990    -6.5630    -1.7080 N.ar  1 <1>  -0.6200 
 19 C       -2.9070    -6.5750     0.2050 C.ar  1 <1>   0.1670 
 20 C       -2.1770    -6.0470    -1.9710 C.ar  1 <1>   0.1670 
 21 C       -3.1910    -6.0230    -1.0310 C.ar  1 <1>  -0.1430 
 22 C       -3.9250    -6.6030     1.3370 C.3   1 <1>  -0.0170 
 23 C       -2.3430    -5.4810    -3.3690 C.3   1 <1>  -0.0970 
 24 C       -4.5680    -5.4330    -1.3430 C.3   1 <1>  -0.0170 
 25 C       -5.3610    -6.3370     0.8670 C.3   1 <1>  -0.1600 
 26 C       -5.3950    -5.1400    -0.0860 C.3   1 <1>  -0.1600 
 27 H       -1.2710    -4.1150     0.8570 H     1 <1>   0.0800 
 28 H       -0.7760    -3.5140    -0.7200 H     1 <1>   0.0800 
 29 H       -0.1550    -0.1730     0.4820 H     1 <1>   0.0800 
 30 H       -1.1120    -0.6360     1.8840 H     1 <1>   0.0800 
 31 H        2.5620    -3.4890     3.2840 H     1 <1>   0.1500 
 32 H       -3.0810    -2.6620     0.9730 H     1 <1>   0.0800 
 33 H       -3.0280    -2.8250    -0.7720 H     1 <1>   0.0800 
 34 H       -1.8330    -0.7730    -1.0100 H     1 <1>   0.0800 
 35 H       -2.8780    -0.3640     0.3360 H     1 <1>   0.0800 
 36 H        1.3870    -6.2050    -1.2770 H     1 <1>   0.4000 
 37 H        3.1930    -7.1820     1.6770 H     1 <1>   0.1500 
 38 H        0.5530    -8.0000     0.8450 H     1 <1>   0.0800 
 39 H        0.6520    -8.5580    -0.8000 H     1 <1>   0.0800 
 40 H       -3.6400    -5.8570     2.0560 H     1 <1>   0.0800 
 41 H       -3.8850    -7.5610     1.8260 H     1 <1>   0.0800 
 42 H       -1.6010    -5.8970    -4.0280 H     1 <1>   0.0800 
 43 H       -2.2170    -4.4140    -3.3440 H     1 <1>   0.0800 
 44 H       -3.3110    -5.7190    -3.7680 H     1 <1>   0.0800 
 45 H       -5.1040    -6.1380    -1.9540 H     1 <1>   0.0800 
 46 H       -4.4650    -4.5220    -1.9040 H     1 <1>   0.0800 
 47 H       -5.9900    -6.1490     1.7200 H     1 <1>   0.0800 
 48 H       -5.7380    -7.2090     0.3610 H     1 <1>   0.0800 
 49 H       -6.4120    -4.9240    -0.3660 H     1 <1>   0.0800 
 50 H       -4.9980    -4.2740     0.4150 H     1 <1>   0.0800 
@<TRIPOS>BOND
  1   1   2  2   
  2   2   3  am  
  3   2   4  1   
  4   3   5  1   
  5   3   6  1   
  6   4   7  ar  
  7   4   8  ar  
  8   5   9  1   
  9   5  27  1   
 10   5  28  1   
 11   6  10  1   
 12   6  29  1   
 13   6  30  1   
 14   7  11  ar  
 15   8  12  ar  
 16   8  31  1   
 17   9  10  1   
 18   9  32  1   
 19   9  33  1   
 20  10  34  1   
 21  10  35  1   
 22  11  13  1   
 23  11  14  ar  
 24  12  14  ar  
 25  13  15  1   
 26  13  36  1   
 27  14  37  1   
 28  15  16  1   
 29  15  38  1   
 30  15  39  1   
 31  16  17  ar  
 32  16  18  ar  
 33  17  19  ar  
 34  18  20  ar  
 35  19  21  ar  
 36  19  22  1   
 37  20  21  ar  
 38  20  23  1   
 39  21  24  1   
 40  22  25  1   
 41  22  40  1   
 42  22  41  1   
 43  23  42  1   
 44  23  43  1   
 45  23  44  1   
 46  24  26  1   
 47  24  45  1   
 48  24  46  1   
 49  25  26  1   
 50  25  47  1   
 51  25  48  1   
 52  26  49  1   
 53  26  50  1   
@<TRIPOS>SUBSTRUCTURE
  1 ****   5 GROUP 4 **** **** 0

# MOE 2024.06 (io_trps.svl 2023.06)
