@<TRIPOS>MOLECULE
NONAME
47 49 1 0 0 
SMALL
USER_CHARGES


@<TRIPOS>ATOM
  1 O       -0.2040     0.4870     0.3120 O.2   1 <1>  -0.5700 
  2 C       -0.2880     1.7000     0.2840 C.2   1 <1>   0.5440 
  3 N       -1.5330     2.2860     0.3850 N.am  1 <1>  -0.6600 
  4 C        0.9180     2.4830     0.1270 C.ar  1 <1>   0.0860 
  5 C       -1.7990     3.6960    -0.0290 C.3   1 <1>   0.1400 
  6 C       -2.7190     1.4700     0.7860 C.3   1 <1>   0.1400 
  7 C        1.8430     2.1540    -0.8600 C.ar  1 <1>   0.1600 
  8 C        1.2210     3.5730     0.9330 C.ar  1 <1>  -0.1500 
  9 C       -3.2180     3.8190    -0.5820 C.3   1 <1>  -0.1600 
 10 C       -3.7840     2.3590     1.4350 C.3   1 <1>  -0.1600 
 11 N        2.9680     2.8040    -1.1180 N.ar  1 <1>  -0.6200 
 12 C        2.3910     4.2580     0.6860 C.ar  1 <1>  -0.1500 
 13 C       -4.2720     3.4970     0.5030 C.3   1 <1>   0.2800 
 14 C        3.2230     3.8420    -0.3410 C.ar  1 <1>   0.1670 
 15 O       -4.3160     4.6520     1.3140 O.3   1 <1>  -0.5600 
 16 C       -5.6750     3.1530    -0.0990 C.3   1 <1>   0.2000 
 17 C        4.5110     4.5830    -0.6300 C.3   1 <1>  -0.0970 
 18 C       -5.5060     5.3790     1.4240 C.3   1 <1>   0.1200 
 19 O       -5.5990     2.0730    -0.9930 O.3   1 <1>  -0.6800 
 20 C       -6.4140     4.3880    -0.7090 C.3   1 <1>   0.2800 
 21 C       -6.0330     5.6850     0.0230 C.3   1 <1>  -0.1600 
 22 O       -7.7670     4.2020    -0.5010 O.3   1 <1>  -0.6800 
 23 C       -6.2570     4.5580    -2.2270 C.3   1 <1>  -0.2400 
 24 H       -1.6870     4.3450     0.8230 H     1 <1>   0.0800 
 25 H       -1.0940     3.9950    -0.7860 H     1 <1>   0.0800 
 26 H       -3.1240     0.9840    -0.0850 H     1 <1>   0.0800 
 27 H       -2.4140     0.7070     1.4820 H     1 <1>   0.0800 
 28 H        1.6270     1.2960    -1.4740 H     1 <1>   0.1500 
 29 H        0.5580     3.8640     1.7290 H     1 <1>   0.1500 
 30 H       -3.3030     3.1440    -1.4130 H     1 <1>   0.0800 
 31 H       -3.3670     4.8140    -0.9560 H     1 <1>   0.0800 
 32 H       -3.3590     2.7720     2.3330 H     1 <1>   0.0800 
 33 H       -4.6080     1.7360     1.7290 H     1 <1>   0.0800 
 34 H        2.6550     5.1070     1.2900 H     1 <1>   0.1500 
 35 H       -6.2760     2.8020     0.7210 H     1 <1>   0.0800 
 36 H        4.6430     5.4110     0.0400 H     1 <1>   0.0800 
 37 H        4.4940     4.9490    -1.6400 H     1 <1>   0.0800 
 38 H        5.3420     3.9100    -0.5220 H     1 <1>   0.0800 
 39 H       -6.2140     4.8060     1.9990 H     1 <1>   0.0800 
 40 H       -5.2830     6.2890     1.9550 H     1 <1>   0.0800 
 41 H       -5.3610     2.3910    -1.8830 H     1 <1>   0.4000 
 42 H       -5.2560     6.2050    -0.5080 H     1 <1>   0.0800 
 43 H       -6.8750     6.3510     0.0860 H     1 <1>   0.0800 
 44 H       -8.2760     4.8620    -1.0060 H     1 <1>   0.4000 
 45 H       -5.2190     4.6430    -2.4910 H     1 <1>   0.0800 
 46 H       -6.7540     5.4520    -2.5590 H     1 <1>   0.0800 
 47 H       -6.6750     3.7170    -2.7510 H     1 <1>   0.0800 
@<TRIPOS>BOND
  1   1   2  2   
  2   2   3  am  
  3   2   4  1   
  4   3   5  1   
  5   3   6  1   
  6   4   7  ar  
  7   4   8  ar  
  8   5   9  1   
  9   5  24  1   
 10   5  25  1   
 11   6  10  1   
 12   6  26  1   
 13   6  27  1   
 14   7  11  ar  
 15   7  28  1   
 16   8  12  ar  
 17   8  29  1   
 18   9  13  1   
 19   9  30  1   
 20   9  31  1   
 21  10  13  1   
 22  10  32  1   
 23  10  33  1   
 24  11  14  ar  
 25  12  14  ar  
 26  12  34  1   
 27  13  15  1   
 28  13  16  1   
 29  14  17  1   
 30  15  18  1   
 31  16  19  1   
 32  16  20  1   
 33  16  35  1   
 34  17  36  1   
 35  17  37  1   
 36  17  38  1   
 37  18  21  1   
 38  18  39  1   
 39  18  40  1   
 40  19  41  1   
 41  20  21  1   
 42  20  22  1   
 43  20  23  1   
 44  21  42  1   
 45  21  43  1   
 46  22  44  1   
 47  23  45  1   
 48  23  46  1   
 49  23  47  1   
@<TRIPOS>SUBSTRUCTURE
  1 ****   5 GROUP 4 **** **** 0

# MOE 2024.06 (io_trps.svl 2023.06)
