@<TRIPOS>MOLECULE
NONAME
50 53 1 0 0 
SMALL
USER_CHARGES


@<TRIPOS>ATOM
  1 CL      -2.0960     2.1200     2.4720 Cl    1 <1>  -0.1230 
  2 C       -1.5470     2.5530     0.8690 C.2   1 <1>   0.1230 
  3 C       -0.6110     3.6280     0.6910 C.ar  1 <1>   0.0000 
  4 C       -1.9700     1.9400    -0.2460 C.2   1 <1>  -0.1400 
  5 C       -0.3180     3.8300    -0.6510 C.ar  1 <1>   0.0400 
  6 C        0.0050     4.4550     1.6270 C.ar  1 <1>  -0.1500 
  7 S       -1.2080     2.6730    -1.6610 S.3   1 <1>  -0.0800 
  8 C       -2.9400     0.8050    -0.4630 C.3   1 <1>   0.5230 
  9 C        0.5500     4.8090    -1.0970 C.ar  1 <1>  -0.1500 
 10 C        0.8770     5.4430     1.2020 C.ar  1 <1>  -0.1500 
 11 N       -4.3190     1.3510    -0.4280 N.4   1 <1>  -0.9590 
 12 C        1.1500     5.6210    -0.1520 C.ar  1 <1>  -0.1500 
 13 C       -5.3790     0.3230    -0.3230 C.3   1 <1>   0.3430 
 14 C       -4.6110     2.3440    -1.5020 C.3   1 <1>   0.3430 
 15 C       -6.6860     0.9820     0.1340 C.3   1 <1>  -0.1600 
 16 C       -6.0520     2.8590    -1.3970 C.3   1 <1>  -0.1600 
 17 C       -6.7360     2.5130    -0.0580 C.3   1 <1>   0.2800 
 18 O       -5.9110     3.0590     0.9560 O.3   1 <1>  -0.5600 
 19 C       -8.2080     3.0210     0.0360 C.3   1 <1>   0.2000 
 20 C       -6.4420     4.0120     1.8380 C.3   1 <1>   0.1200 
 21 O       -8.9560     2.5930    -1.0660 O.3   1 <1>  -0.6800 
 22 C       -8.3430     4.5580     0.2700 C.3   1 <1>   0.2800 
 23 C       -7.1300     5.1130     1.0320 C.3   1 <1>  -0.1600 
 24 O       -9.4470     4.7290     1.0810 O.3   1 <1>  -0.6800 
 25 C       -8.6290     5.4050    -0.9790 C.3   1 <1>  -0.2400 
 26 H       -0.1980     4.3250     2.6760 H     1 <1>   0.1500 
 27 H       -2.8180     0.0870     0.3320 H     1 <1>   0.0800 
 28 H       -2.7440     0.3170    -1.4030 H     1 <1>   0.0800 
 29 H        0.7510     4.9300    -2.1470 H     1 <1>   0.1500 
 30 H        1.3530     6.0830     1.9250 H     1 <1>   0.1500 
 31 H       -4.4120     1.9100     0.4430 H     1 <1>   0.4500 
 32 H        1.8320     6.3950    -0.4610 H     1 <1>   0.1500 
 33 H       -5.5250    -0.1410    -1.2850 H     1 <1>   0.0800 
 34 H       -5.0980    -0.4390     0.3850 H     1 <1>   0.0800 
 35 H       -3.9390     3.1820    -1.3980 H     1 <1>   0.0800 
 36 H       -4.4520     1.9060    -2.4730 H     1 <1>   0.0800 
 37 H       -6.8660     0.7490     1.1680 H     1 <1>   0.0800 
 38 H       -7.4820     0.5220    -0.4240 H     1 <1>   0.0800 
 39 H       -6.6190     2.4320    -2.2050 H     1 <1>   0.0800 
 40 H       -6.0480     3.9200    -1.5530 H     1 <1>   0.0800 
 41 H       -8.6410     2.5290     0.8900 H     1 <1>   0.0800 
 42 H       -7.1310     3.5250     2.5080 H     1 <1>   0.0800 
 43 H       -5.6260     4.4160     2.4130 H     1 <1>   0.0800 
 44 H       -9.8810     2.8990    -0.9500 H     1 <1>   0.4000 
 45 H       -6.4060     5.5130     0.3440 H     1 <1>   0.0800 
 46 H       -7.4250     5.9160     1.6850 H     1 <1>   0.0800 
 47 H       -9.6450     5.6800     1.1750 H     1 <1>   0.4000 
 48 H       -7.8570     5.2710    -1.7120 H     1 <1>   0.0800 
 49 H       -8.6690     6.4500    -0.7290 H     1 <1>   0.0800 
 50 H       -9.5630     5.1210    -1.4300 H     1 <1>   0.0800 
@<TRIPOS>BOND
  1   1   2  1   
  2   2   3  1   
  3   2   4  2   
  4   3   5  ar  
  5   3   6  ar  
  6   4   7  1   
  7   4   8  1   
  8   5   7  1   
  9   5   9  ar  
 10   6  10  ar  
 11   6  26  1   
 12   8  11  1   
 13   8  27  1   
 14   8  28  1   
 15   9  12  ar  
 16   9  29  1   
 17  10  12  ar  
 18  10  30  1   
 19  11  13  1   
 20  11  14  1   
 21  11  31  1   
 22  12  32  1   
 23  13  15  1   
 24  13  33  1   
 25  13  34  1   
 26  14  16  1   
 27  14  35  1   
 28  14  36  1   
 29  15  17  1   
 30  15  37  1   
 31  15  38  1   
 32  16  17  1   
 33  16  39  1   
 34  16  40  1   
 35  17  18  1   
 36  17  19  1   
 37  18  20  1   
 38  19  21  1   
 39  19  22  1   
 40  19  41  1   
 41  20  23  1   
 42  20  42  1   
 43  20  43  1   
 44  21  44  1   
 45  22  23  1   
 46  22  24  1   
 47  22  25  1   
 48  23  45  1   
 49  23  46  1   
 50  24  47  1   
 51  25  48  1   
 52  25  49  1   
 53  25  50  1   
@<TRIPOS>SUBSTRUCTURE
  1 ****  14 GROUP 4 **** **** 0

# MOE 2024.06 (io_trps.svl 2023.06)
