@<TRIPOS>MOLECULE
NONAME
43 45 1 0 0 
SMALL
USER_CHARGES


@<TRIPOS>ATOM
  1 F       -2.4750    -1.0650    -1.3160 F     1 <1>  -0.1900 
  2 C       -2.5520    -0.0430    -0.5010 C.ar  1 <1>   0.1900 
  3 C       -2.2460     1.2200    -0.9770 C.ar  1 <1>   0.1900 
  4 C       -2.9340    -0.2480     0.8210 C.ar  1 <1>   0.0860 
  5 F       -1.9030     1.3690    -2.2330 F     1 <1>  -0.1900 
  6 C       -2.2960     2.3370    -0.1560 C.ar  1 <1>  -0.1440 
  7 C       -3.2710    -1.5540     1.3400 C.2   1 <1>   0.5440 
  8 C       -2.9710     0.8800     1.6440 C.ar  1 <1>  -0.1500 
  9 C       -2.6630     2.1460     1.1690 C.ar  1 <1>  -0.1500 
 10 C       -1.9590     3.7260    -0.6790 C.3   1 <1>  -0.0960 
 11 O       -2.6220    -2.0180     2.2570 O.2   1 <1>  -0.5700 
 12 N       -4.3330    -2.2770     0.8550 N.am  1 <1>  -0.6600 
 13 C       -5.3620    -1.7970    -0.1040 C.3   1 <1>   0.1400 
 14 C       -4.6280    -3.6680     1.2800 C.3   1 <1>   0.1400 
 15 C       -6.4830    -2.8330    -0.0150 C.3   1 <1>   0.2000 
 16 C       -5.7690    -4.1320     0.3640 C.3   1 <1>  -0.0800 
 17 O       -7.3240    -2.4780     1.0270 O.3   1 <1>  -0.6800 
 18 C       -5.2280    -4.8470    -0.8890 C.3   1 <1>   0.0210 
 19 C       -4.4980    -6.1250    -0.5290 C.2   1 <1>   0.1080 
 20 N       -5.1020    -7.1700    -0.0550 N.2   1 <1>  -0.7070 
 21 C       -3.1260    -6.3210    -0.6540 C.2   1 <1>  -0.1500 
 22 N       -4.1200    -8.0710     0.1380 N.pl3 1 <1>   0.3000 
 23 C       -2.9140    -7.5800    -0.2170 C.2   1 <1>  -0.3320 
 24 C       -1.6130    -8.3530    -0.1130 C.3   1 <1>  -0.0600 
 25 H       -3.2450     0.7500     2.6780 H     1 <1>   0.1500 
 26 H       -2.7070     2.9860     1.8430 H     1 <1>   0.1500 
 27 H       -2.0580     4.4660     0.0940 H     1 <1>   0.0800 
 28 H       -2.6190     3.9850    -1.4880 H     1 <1>   0.0800 
 29 H       -0.9460     3.7440    -1.0430 H     1 <1>   0.0800 
 30 H       -5.7120    -0.8090     0.1440 H     1 <1>   0.0800 
 31 H       -4.9480    -1.7960    -1.0960 H     1 <1>   0.0800 
 32 H       -3.7490    -4.2850     1.2030 H     1 <1>   0.0800 
 33 H       -4.9520    -3.6590     2.3060 H     1 <1>   0.0800 
 34 H       -7.0720    -2.9030    -0.9140 H     1 <1>   0.0800 
 35 H       -6.4290    -4.8090     0.8800 H     1 <1>   0.0800 
 36 H       -6.7900    -2.3690     1.8400 H     1 <1>   0.4000 
 37 H       -4.5590    -4.2040    -1.4330 H     1 <1>   0.0800 
 38 H       -6.0460    -5.1030    -1.5380 H     1 <1>   0.0800 
 39 H       -2.4130    -5.6030    -1.0190 H     1 <1>   0.1500 
 40 H       -4.3060    -9.0090     0.5120 H     1 <1>   0.2700 
 41 H       -0.7930    -7.7440    -0.4520 H     1 <1>   0.0800 
 42 H       -1.6560    -9.2390    -0.7210 H     1 <1>   0.0800 
 43 H       -1.4280    -8.6350     0.9090 H     1 <1>   0.0800 
@<TRIPOS>BOND
  1   1   2  1   
  2   2   3  ar  
  3   2   4  ar  
  4   3   5  1   
  5   3   6  ar  
  6   4   7  1   
  7   4   8  ar  
  8   6   9  ar  
  9   6  10  1   
 10   7  11  2   
 11   7  12  am  
 12   8   9  ar  
 13   8  25  1   
 14   9  26  1   
 15  10  27  1   
 16  10  28  1   
 17  10  29  1   
 18  12  13  1   
 19  12  14  1   
 20  13  15  1   
 21  13  30  1   
 22  13  31  1   
 23  14  16  1   
 24  14  32  1   
 25  14  33  1   
 26  15  16  1   
 27  15  17  1   
 28  15  34  1   
 29  16  18  1   
 30  16  35  1   
 31  17  36  1   
 32  18  19  1   
 33  18  37  1   
 34  18  38  1   
 35  19  20  2   
 36  19  21  1   
 37  20  22  1   
 38  21  23  2   
 39  21  39  1   
 40  22  23  1   
 41  22  40  1   
 42  23  24  1   
 43  24  41  1   
 44  24  42  1   
 45  24  43  1   
@<TRIPOS>SUBSTRUCTURE
  1 ****  12 GROUP 4 **** **** 0

# MOE 2024.06 (io_trps.svl 2023.06)
