@<TRIPOS>MOLECULE
NONAME
43 44 1 0 0 
SMALL
USER_CHARGES


@<TRIPOS>ATOM
  1 O        0.2110    -0.7510    -2.9310 O.2   1 <1>  -0.5700 
  2 C        1.0040    -1.4500    -2.3410 C.2   1 <1>   0.5690 
  3 N        1.7630    -0.9980    -1.3020 N.am  1 <1>  -0.4930 
  4 C        1.1580    -2.9140    -2.7840 C.3   1 <1>   0.2610 
  5 C        1.8080     0.2890    -0.7120 C.2   1 <1>   0.0630 
  6 O        1.8810    -3.6770    -1.8250 O.3   1 <1>  -0.3620 
  7 C        1.9240    -3.0350    -4.1050 C.3   1 <1>  -0.2400 
  8 C        1.1490     1.4600    -1.0890 C.2   1 <1>   0.1390 
  9 C        2.5280     0.6410     0.3720 C.2   1 <1>  -0.3020 
 10 C        1.3240    -4.0950    -0.6590 C.ar  1 <1>   0.0830 
 11 N        1.4340     2.4600    -0.3080 N.2   1 <1>  -0.7070 
 12 N        2.2910     1.9520     0.6030 N.pl3 1 <1>   0.3140 
 13 C        0.0440    -3.7500    -0.2370 C.ar  1 <1>  -0.1500 
 14 C        2.1080    -4.9100     0.1410 C.ar  1 <1>  -0.1500 
 15 C        2.8800     2.7600     1.7100 C.3   1 <1>   0.1760 
 16 C       -0.4430    -4.2150     0.9730 C.ar  1 <1>   0.0830 
 17 C        1.6270    -5.3780     1.3510 C.ar  1 <1>  -0.1500 
 18 C        1.7780     3.3090     2.6280 C.3   1 <1>  -0.2400 
 19 C        3.7410     3.9010     1.1490 C.3   1 <1>  -0.2400 
 20 O       -1.6990    -3.8300     1.3100 O.3   1 <1>  -0.3630 
 21 C        0.3540    -5.0330     1.7700 C.ar  1 <1>  -0.1500 
 22 C       -2.2890    -4.2290     2.5270 C.3   1 <1>   0.0400 
 23 H        2.3370    -1.7120    -0.8490 H     1 <1>   0.3700 
 24 H        0.1850    -3.3560    -2.9040 H     1 <1>   0.0800 
 25 H        2.9080    -2.6130    -4.0070 H     1 <1>   0.0800 
 26 H        1.3990    -2.5010    -4.8780 H     1 <1>   0.0800 
 27 H        2.0010    -4.0670    -4.3950 H     1 <1>   0.0800 
 28 H        0.4790     1.5320    -1.9290 H     1 <1>   0.1500 
 29 H        3.1810     0.0460     0.9800 H     1 <1>   0.1500 
 30 H       -0.6020    -3.1190    -0.8180 H     1 <1>   0.1500 
 31 H        3.0960    -5.1790    -0.1890 H     1 <1>   0.1500 
 32 H        3.5110     2.1080     2.2860 H     1 <1>   0.0800 
 33 H        2.2430    -6.0120     1.9660 H     1 <1>   0.1500 
 34 H        1.1320     3.9720     2.0790 H     1 <1>   0.0800 
 35 H        2.2120     3.8520     3.4470 H     1 <1>   0.0800 
 36 H        1.1920     2.5000     3.0250 H     1 <1>   0.0800 
 37 H        3.1350     4.5750     0.5690 H     1 <1>   0.0800 
 38 H        4.5180     3.5030     0.5210 H     1 <1>   0.0800 
 39 H        4.1980     4.4520     1.9510 H     1 <1>   0.0800 
 40 H        0.0030    -5.4080     2.7130 H     1 <1>   0.1500 
 41 H       -3.2730    -3.7990     2.5770 H     1 <1>   0.0800 
 42 H       -1.6900    -3.8650     3.3420 H     1 <1>   0.0800 
 43 H       -2.3580    -5.3030     2.5460 H     1 <1>   0.0800 
@<TRIPOS>BOND
  1   1   2  2   
  2   2   3  am  
  3   2   4  1   
  4   3   5  1   
  5   3  23  1   
  6   4   6  1   
  7   4   7  1   
  8   4  24  1   
  9   5   8  1   
 10   5   9  2   
 11   6  10  1   
 12   7  25  1   
 13   7  26  1   
 14   7  27  1   
 15   8  11  2   
 16   8  28  1   
 17   9  12  1   
 18   9  29  1   
 19  10  13  ar  
 20  10  14  ar  
 21  11  12  1   
 22  12  15  1   
 23  13  16  ar  
 24  13  30  1   
 25  14  17  ar  
 26  14  31  1   
 27  15  18  1   
 28  15  19  1   
 29  15  32  1   
 30  16  20  1   
 31  16  21  ar  
 32  17  21  ar  
 33  17  33  1   
 34  18  34  1   
 35  18  35  1   
 36  18  36  1   
 37  19  37  1   
 38  19  38  1   
 39  19  39  1   
 40  20  22  1   
 41  21  40  1   
 42  22  41  1   
 43  22  42  1   
 44  22  43  1   
@<TRIPOS>SUBSTRUCTURE
  1 ****   3 GROUP 4 **** **** 0

# MOE 2024.06 (io_trps.svl 2023.06)
