@<TRIPOS>MOLECULE
NONAME
61 65 1 0 0 
SMALL
USER_CHARGES


@<TRIPOS>ATOM
  1 O        0.2180    -1.8180    -1.3170 O.2   1 <1>  -0.5700 
  2 C       -0.6210    -1.6320    -0.4680 C.2   1 <1>   0.5690 
  3 N       -0.5330    -2.2180     0.7560 N.am  1 <1>  -0.7300 
  4 C       -1.8090    -0.7280    -0.7800 C.3   1 <1>  -0.0190 
  5 C        0.5740    -3.1040     1.1700 C.3   1 <1>   0.1400 
  6 C       -1.8740     0.4910     0.1580 C.3   1 <1>  -0.1600 
  7 C       -3.1440    -1.4950    -0.7380 C.3   1 <1>  -0.1600 
  8 C        0.0880    -4.5430     1.4070 C.3   1 <1>  -0.0800 
  9 C       -3.1420     1.3100    -0.1020 C.3   1 <1>   0.1200 
 10 C       -4.3250    -0.5400    -0.9350 C.3   1 <1>   0.1200 
 11 C       -0.6650    -5.1330     0.2010 C.3   1 <1>   0.2000 
 12 C        1.2320    -5.5800     1.5510 C.3   1 <1>  -0.0800 
 13 O       -4.2520     0.4760     0.0170 O.3   1 <1>  -0.5600 
 14 O        0.3850    -5.6320    -0.5300 O.3   1 <1>  -0.5600 
 15 C       -1.3990    -6.4310     0.5730 C.3   1 <1>  -0.1600 
 16 C        0.9390    -6.5110     0.3770 C.3   1 <1>   0.2800 
 17 C        2.7010    -5.1520     1.3370 C.3   1 <1>   0.3430 
 18 C       -0.2420    -7.4380     0.6550 C.3   1 <1>  -0.1600 
 19 C        2.2940    -7.0080    -0.1190 C.3   1 <1>   0.3430 
 20 N        3.2090    -5.8490     0.1120 N.4   1 <1>  -0.9590 
 21 C        3.2250    -4.9410    -1.0780 C.3   1 <1>   0.4860 
 22 C        4.1910    -3.7980    -0.8450 C.ar  1 <1>  -0.1440 
 23 C        5.5230    -4.0420    -0.5210 C.ar  1 <1>   0.3920 
 24 C        3.7580    -2.4930    -0.9640 C.ar  1 <1>  -0.1500 
 25 O        5.9260    -5.3340    -0.4310 O.3   1 <1>  -0.3620 
 26 N        6.4190    -3.0920    -0.2850 N.ar  1 <1>  -0.6200 
 27 C        4.6860    -1.5010    -0.7310 C.ar  1 <1>  -0.1500 
 28 C        7.2920    -5.6510    -0.2140 C.3   1 <1>   0.0400 
 29 C        5.9820    -1.8490    -0.3990 C.ar  1 <1>   0.1600 
 30 H       -1.2530    -2.0120     1.4540 H     1 <1>   0.3700 
 31 H       -1.6760    -0.3600    -1.7830 H     1 <1>   0.0800 
 32 H        1.3170    -3.0990     0.3930 H     1 <1>   0.0800 
 33 H        1.0230    -2.7090     2.0660 H     1 <1>   0.0800 
 34 H       -1.0090     1.1130     0.0080 H     1 <1>   0.0800 
 35 H       -1.8810     0.1790     1.1870 H     1 <1>   0.0800 
 36 H       -3.2660    -1.9900     0.2090 H     1 <1>   0.0800 
 37 H       -3.1570    -2.2450    -1.5090 H     1 <1>   0.0800 
 38 H       -0.5460    -4.5510     2.2760 H     1 <1>   0.0800 
 39 H       -3.1380     1.7430    -1.0880 H     1 <1>   0.0800 
 40 H       -3.2420     2.0960     0.6270 H     1 <1>   0.0800 
 41 H       -5.2580    -1.0570    -0.7940 H     1 <1>   0.0800 
 42 H       -4.3150    -0.0960    -1.9170 H     1 <1>   0.0800 
 43 H       -1.2510    -4.4390    -0.3790 H     1 <1>   0.0800 
 44 H        1.1560    -6.1040     2.4870 H     1 <1>   0.0800 
 45 H       -1.9380    -6.3370     1.4990 H     1 <1>   0.0800 
 46 H       -2.0870    -6.7010    -0.2100 H     1 <1>   0.0800 
 47 H        3.2810    -5.4660     2.1900 H     1 <1>   0.0800 
 48 H        2.8080    -4.0850     1.2430 H     1 <1>   0.0800 
 49 H       -0.3280    -8.1830    -0.1170 H     1 <1>   0.0800 
 50 H       -0.1740    -7.9170     1.6160 H     1 <1>   0.0800 
 51 H        2.2490    -7.3000    -1.1550 H     1 <1>   0.0800 
 52 H        2.6060    -7.8460     0.4810 H     1 <1>   0.0800 
 53 H        4.1920    -6.1420     0.2400 H     1 <1>   0.4500 
 54 H        3.5350    -5.4890    -1.9520 H     1 <1>   0.0800 
 55 H        2.2380    -4.5460    -1.2620 H     1 <1>   0.0800 
 56 H        2.7450    -2.2380    -1.2350 H     1 <1>   0.1500 
 57 H        4.4070    -0.4640    -0.8100 H     1 <1>   0.1500 
 58 H        7.4010    -6.7200    -0.2090 H     1 <1>   0.0800 
 59 H        7.6020    -5.2420     0.7320 H     1 <1>   0.0800 
 60 H        7.8790    -5.2260    -1.0100 H     1 <1>   0.0800 
 61 H        6.6980    -1.0630    -0.2190 H     1 <1>   0.1500 
@<TRIPOS>BOND
  1   1   2  2   
  2   2   3  am  
  3   2   4  1   
  4   3   5  1   
  5   3  30  1   
  6   4   6  1   
  7   4   7  1   
  8   4  31  1   
  9   5   8  1   
 10   5  32  1   
 11   5  33  1   
 12   6   9  1   
 13   6  34  1   
 14   6  35  1   
 15   7  10  1   
 16   7  36  1   
 17   7  37  1   
 18   8  11  1   
 19   8  12  1   
 20   8  38  1   
 21   9  13  1   
 22   9  39  1   
 23   9  40  1   
 24  10  13  1   
 25  10  41  1   
 26  10  42  1   
 27  11  14  1   
 28  11  15  1   
 29  11  43  1   
 30  12  16  1   
 31  12  17  1   
 32  12  44  1   
 33  14  16  1   
 34  15  18  1   
 35  15  45  1   
 36  15  46  1   
 37  16  18  1   
 38  16  19  1   
 39  17  20  1   
 40  17  47  1   
 41  17  48  1   
 42  18  49  1   
 43  18  50  1   
 44  19  20  1   
 45  19  51  1   
 46  19  52  1   
 47  20  21  1   
 48  20  53  1   
 49  21  22  1   
 50  21  54  1   
 51  21  55  1   
 52  22  23  ar  
 53  22  24  ar  
 54  23  25  1   
 55  23  26  ar  
 56  24  27  ar  
 57  24  56  1   
 58  25  28  1   
 59  26  29  ar  
 60  27  29  ar  
 61  27  57  1   
 62  28  58  1   
 63  28  59  1   
 64  28  60  1   
 65  29  61  1   
@<TRIPOS>SUBSTRUCTURE
  1 ****   5 GROUP 4 **** **** 0

# MOE 2024.06 (io_trps.svl 2023.06)
