@<TRIPOS>MOLECULE
NONAME
59 61 1 0 0 
SMALL
USER_CHARGES


@<TRIPOS>ATOM
  1 O       -0.3690     0.7270     0.7960 O.2   1 <1>  -0.5700 
  2 C       -0.3530     1.9180     0.5930 C.2   1 <1>   0.5690 
  3 N       -1.3940     2.7340     0.9450 N.am  1 <1>  -0.6600 
  4 C        0.8690     2.5100    -0.1140 C.3   1 <1>   0.1810 
  5 C       -1.3570     4.2060     0.6550 C.3   1 <1>   0.3640 
  6 C       -2.5460     2.2560     1.7640 C.3   1 <1>   0.0600 
  7 O        1.0160     3.8930     0.0930 O.3   1 <1>  -0.5600 
  8 C       -2.6650     4.6830    -0.0010 C.ar  1 <1>  -0.1430 
  9 C       -0.1430     4.6520    -0.2020 C.3   1 <1>   0.2610 
 10 C       -3.2780     4.0770    -1.1040 C.ar  1 <1>  -0.1430 
 11 C       -3.2570     5.8110     0.5550 C.ar  1 <1>  -0.1500 
 12 C        0.1360     6.1600    -0.0520 C.2   1 <1>   0.5690 
 13 C       -4.4560     4.6120    -1.6080 C.ar  1 <1>  -0.1500 
 14 C       -2.7380     2.8320    -1.8010 C.3   1 <1>  -0.0960 
 15 C       -4.4280     6.3350     0.0430 C.ar  1 <1>  -0.1500 
 16 O       -0.1920     6.7170     0.9740 O.2   1 <1>  -0.5700 
 17 N        0.7350     6.8660    -1.0740 N.am  1 <1>  -0.6600 
 18 C       -5.0310     5.7330    -1.0420 C.ar  1 <1>  -0.1500 
 19 C        0.8700     8.3450    -0.9980 C.3   1 <1>   0.1400 
 20 C        1.3200     6.2390    -2.2930 C.3   1 <1>   0.0600 
 21 C        2.2230     8.7140    -0.3840 C.3   1 <1>  -0.1600 
 22 C        2.3900    10.2380    -0.2890 C.3   1 <1>  -0.1600 
 23 C        3.7140    10.6390     0.3800 C.3   1 <1>  -0.0800 
 24 C        3.8630    12.1520     0.5210 C.3   1 <1>  -0.1600 
 25 C        4.9620    10.2320    -0.4010 C.3   1 <1>  -0.1600 
 26 C        5.3610    12.3790     0.7200 C.3   1 <1>  -0.1600 
 27 C        6.0660    11.1810     0.0740 C.3   1 <1>  -0.1600 
 28 H        0.7950     2.3270    -1.1690 H     1 <1>   0.0800 
 29 H        1.7560     2.0310     0.2590 H     1 <1>   0.0800 
 30 H       -1.2680     4.6860     1.6140 H     1 <1>   0.0800 
 31 H       -2.6020     2.8210     2.6780 H     1 <1>   0.0800 
 32 H       -2.4320     1.2150     2.0090 H     1 <1>   0.0800 
 33 H       -3.4640     2.3810     1.2170 H     1 <1>   0.0800 
 34 H       -0.3810     4.4790    -1.2320 H     1 <1>   0.0800 
 35 H       -2.8020     6.3040     1.3990 H     1 <1>   0.1500 
 36 H       -4.9420     4.1540    -2.4510 H     1 <1>   0.1500 
 37 H       -3.1970     2.7020    -2.7650 H     1 <1>   0.0800 
 38 H       -2.9540     1.9600    -1.2110 H     1 <1>   0.0800 
 39 H       -1.6790     2.8920    -1.9540 H     1 <1>   0.0800 
 40 H       -4.8670     7.2110     0.4890 H     1 <1>   0.1500 
 41 H       -5.9440     6.1350    -1.4450 H     1 <1>   0.1500 
 42 H        0.7790     8.7680    -1.9830 H     1 <1>   0.0800 
 43 H        0.0770     8.7500    -0.3910 H     1 <1>   0.0800 
 44 H        2.1530     6.8220    -2.6460 H     1 <1>   0.0800 
 45 H        0.5750     6.1900    -3.0680 H     1 <1>   0.0800 
 46 H        1.6780     5.2480    -2.0760 H     1 <1>   0.0800 
 47 H        2.2820     8.2880     0.6030 H     1 <1>   0.0800 
 48 H        3.0120     8.2990    -0.9840 H     1 <1>   0.0800 
 49 H        1.5770    10.6430     0.2890 H     1 <1>   0.0800 
 50 H        2.3390    10.6680    -1.2750 H     1 <1>   0.0800 
 51 H        3.7660    10.2020     1.3640 H     1 <1>   0.0800 
 52 H        3.5520    12.6350    -0.3890 H     1 <1>   0.0800 
 53 H        3.2850    12.5390     1.3420 H     1 <1>   0.0800 
 54 H        5.2240     9.2020    -0.2310 H     1 <1>   0.0800 
 55 H        4.7970    10.3840    -1.4540 H     1 <1>   0.0800 
 56 H        5.6750    13.3100     0.2800 H     1 <1>   0.0800 
 57 H        5.5860    12.3990     1.7730 H     1 <1>   0.0800 
 58 H        6.6860    10.6890     0.8040 H     1 <1>   0.0800 
 59 H        6.6810    11.4900    -0.7530 H     1 <1>   0.0800 
@<TRIPOS>BOND
  1   1   2  2   
  2   2   3  am  
  3   2   4  1   
  4   3   5  1   
  5   3   6  1   
  6   4   7  1   
  7   4  28  1   
  8   4  29  1   
  9   5   8  1   
 10   5   9  1   
 11   5  30  1   
 12   6  31  1   
 13   6  32  1   
 14   6  33  1   
 15   7   9  1   
 16   8  10  ar  
 17   8  11  ar  
 18   9  12  1   
 19   9  34  1   
 20  10  13  ar  
 21  10  14  1   
 22  11  15  ar  
 23  11  35  1   
 24  12  16  2   
 25  12  17  am  
 26  13  18  ar  
 27  13  36  1   
 28  14  37  1   
 29  14  38  1   
 30  14  39  1   
 31  15  18  ar  
 32  15  40  1   
 33  17  19  1   
 34  17  20  1   
 35  18  41  1   
 36  19  21  1   
 37  19  42  1   
 38  19  43  1   
 39  20  44  1   
 40  20  45  1   
 41  20  46  1   
 42  21  22  1   
 43  21  47  1   
 44  21  48  1   
 45  22  23  1   
 46  22  49  1   
 47  22  50  1   
 48  23  24  1   
 49  23  25  1   
 50  23  51  1   
 51  24  26  1   
 52  24  52  1   
 53  24  53  1   
 54  25  27  1   
 55  25  54  1   
 56  25  55  1   
 57  26  27  1   
 58  26  56  1   
 59  26  57  1   
 60  27  58  1   
 61  27  59  1   
@<TRIPOS>SUBSTRUCTURE
  1 ****  12 GROUP 4 **** **** 0

# MOE 2024.06 (io_trps.svl 2023.06)
