@<TRIPOS>MOLECULE
NONAME
46 48 1 0 0 
SMALL
USER_CHARGES


@<TRIPOS>ATOM
  1 N       -0.0800    -0.1780     0.6150 N.ar  1 <1>  -0.6200 
  2 C        0.8550     0.6530     0.1930 C.ar  1 <1>   0.7710 
  3 C       -1.3170     0.2660     0.6780 C.ar  1 <1>   0.4100 
  4 N        0.5720     1.9140    -0.1620 N.ar  1 <1>  -0.1790 
  5 N        2.1400     0.2260     0.1200 N.pl3 1 <1>  -0.8380 
  6 N       -2.2260    -0.6170     1.1480 N.pl3 1 <1>  -0.8380 
  7 C       -1.6810     1.5780     0.2750 C.ar  1 <1>  -0.1430 
  8 C       -0.6850     2.4140    -0.1330 C.ar  1 <1>   0.2180 
  9 C        2.5200    -1.1530     0.5380 C.3   1 <1>   0.2090 
 10 C        3.3370     0.9520    -0.3830 C.3   1 <1>   0.2090 
 11 C       -2.4690    -1.8980     0.4110 C.3   1 <1>   0.3530 
 12 C       -3.0090    -0.4040     2.3940 C.3   1 <1>   0.1290 
 13 C       -3.1590     1.9860     0.2730 C.3   1 <1>  -0.0970 
 14 C       -0.8520     3.8640    -0.5700 C.3   1 <1>  -0.0970 
 15 C        4.0410    -1.1780     0.4990 C.3   1 <1>  -0.1600 
 16 C        4.4140    -0.1150    -0.5260 C.3   1 <1>  -0.1600 
 17 C       -3.8350    -1.9060    -0.2770 C.ar  1 <1>   0.1670 
 18 N       -3.9350    -1.2800    -1.4460 N.ar  1 <1>  -0.6200 
 19 C       -4.8950    -2.5600     0.3360 C.ar  1 <1>  -0.1500 
 20 C       -5.1280    -1.3120    -2.0170 C.ar  1 <1>   0.1600 
 21 C       -6.1330    -2.5820    -0.2700 C.ar  1 <1>  -0.1500 
 22 C       -6.2410    -1.9360    -1.4820 C.ar  1 <1>  -0.1500 
 23 H        1.3650     2.4640    -0.4580 H     1 <1>   0.4570 
 24 H        2.1150    -1.8620    -0.1660 H     1 <1>   0.0800 
 25 H        2.1490    -1.3800     1.5250 H     1 <1>   0.0800 
 26 H        3.6480     1.6810     0.3480 H     1 <1>   0.0800 
 27 H        3.1500     1.4280    -1.3310 H     1 <1>   0.0800 
 28 H       -2.3950    -2.7210     1.0980 H     1 <1>   0.0800 
 29 H       -1.7120    -2.0330    -0.3420 H     1 <1>   0.0800 
 30 H       -2.6860     0.4970     2.8860 H     1 <1>   0.0800 
 31 H       -2.8610    -1.2330     3.0640 H     1 <1>   0.0800 
 32 H       -4.0570    -0.3200     2.1590 H     1 <1>   0.0800 
 33 H       -3.7770     1.1530    -0.0140 H     1 <1>   0.0800 
 34 H       -3.3640     2.7700    -0.4320 H     1 <1>   0.0800 
 35 H       -3.4590     2.3100     1.2530 H     1 <1>   0.0800 
 36 H       -0.0520     4.4710    -0.1840 H     1 <1>   0.0800 
 37 H       -1.7710     4.2840    -0.2050 H     1 <1>   0.0800 
 38 H       -0.8510     3.9280    -1.6440 H     1 <1>   0.0800 
 39 H        4.4170    -2.1510     0.2380 H     1 <1>   0.0800 
 40 H        4.4210    -0.9060     1.4690 H     1 <1>   0.0800 
 41 H        5.4000     0.2830    -0.3630 H     1 <1>   0.0800 
 42 H        4.3670    -0.5330    -1.5170 H     1 <1>   0.0800 
 43 H       -4.7560    -3.0500     1.2830 H     1 <1>   0.1500 
 44 H       -5.2260    -0.8130    -2.9670 H     1 <1>   0.1500 
 45 H       -6.9740    -3.0810     0.1800 H     1 <1>   0.1500 
 46 H       -7.1770    -1.9160    -2.0100 H     1 <1>   0.1500 
@<TRIPOS>BOND
  1   1   2  ar  
  2   1   3  ar  
  3   2   4  ar  
  4   2   5  1   
  5   3   6  1   
  6   3   7  ar  
  7   4   8  ar  
  8   4  23  1   
  9   5   9  1   
 10   5  10  1   
 11   6  11  1   
 12   6  12  1   
 13   7   8  ar  
 14   7  13  1   
 15   8  14  1   
 16   9  15  1   
 17   9  24  1   
 18   9  25  1   
 19  10  16  1   
 20  10  26  1   
 21  10  27  1   
 22  11  17  1   
 23  11  28  1   
 24  11  29  1   
 25  12  30  1   
 26  12  31  1   
 27  12  32  1   
 28  13  33  1   
 29  13  34  1   
 30  13  35  1   
 31  14  36  1   
 32  14  37  1   
 33  14  38  1   
 34  15  16  1   
 35  15  39  1   
 36  15  40  1   
 37  16  41  1   
 38  16  42  1   
 39  17  18  ar  
 40  17  19  ar  
 41  18  20  ar  
 42  19  21  ar  
 43  19  43  1   
 44  20  22  ar  
 45  20  44  1   
 46  21  22  ar  
 47  21  45  1   
 48  22  46  1   
@<TRIPOS>SUBSTRUCTURE
  1 ****   3 GROUP 4 **** **** 0

# MOE 2024.06 (io_trps.svl 2023.06)
