@<TRIPOS>MOLECULE
NONAME
42 44 1 0 0 
SMALL
USER_CHARGES


@<TRIPOS>ATOM
  1 O       -2.4270     0.7280    -1.8140 O.2   1 <1>  -0.5700 
  2 C       -2.1520     0.6270    -0.6450 C.2   1 <1>   0.5690 
  3 N       -2.0380    -0.5800    -0.0410 N.am  1 <1>  -0.7300 
  4 C       -1.9380     1.8800     0.1730 C.3   1 <1>  -0.0990 
  5 C       -2.1930    -1.8850    -0.7260 C.3   1 <1>   0.2200 
  6 C       -0.6750     2.6210    -0.2760 C.3   1 <1>   0.0210 
  7 C       -3.5360    -2.5280    -0.4030 C.3   1 <1>  -0.0800 
  8 C       -1.2440    -2.8910    -0.0890 C.3   1 <1>   0.1200 
  9 C       -0.4720     3.8720     0.5560 C.2   1 <1>  -0.1810 
 10 C       -3.2670    -3.2440     0.9260 C.3   1 <1>   0.1200 
 11 C       -4.7490    -1.5790    -0.3790 C.3   1 <1>  -0.0170 
 12 O       -1.8780    -3.2880     1.0880 O.3   1 <1>  -0.5600 
 13 C        0.0360     3.9430     1.8510 C.2   1 <1>   0.1390 
 14 C       -0.7370     5.1530     0.2230 C.2   1 <1>  -0.3020 
 15 C       -6.0370    -2.3530    -0.1460 C.ar  1 <1>  -0.1440 
 16 N        0.0830     5.1620     2.2950 N.2   1 <1>  -0.7070 
 17 N       -0.3950     5.9110     1.2830 N.pl3 1 <1>   0.3000 
 18 C       -6.6850    -3.0060    -1.1740 C.ar  1 <1>  -0.1500 
 19 C       -6.6240    -2.4450     1.1000 C.ar  1 <1>  -0.1500 
 20 C       -7.8530    -3.7050    -0.9140 C.ar  1 <1>   0.1600 
 21 C       -7.7940    -3.1710     1.2530 C.ar  1 <1>   0.1600 
 22 N       -8.4210    -3.8050     0.2760 N.ar  1 <1>  -0.6200 
 23 H       -1.8390    -0.6600     0.9590 H     1 <1>   0.3700 
 24 H       -2.7910     2.5210     0.0430 H     1 <1>   0.0800 
 25 H       -1.8640     1.6300     1.2150 H     1 <1>   0.0800 
 26 H       -2.0270    -1.7800    -1.7860 H     1 <1>   0.0800 
 27 H       -0.7690     2.8950    -1.3130 H     1 <1>   0.0800 
 28 H        0.1840     1.9810    -0.1780 H     1 <1>   0.0800 
 29 H       -3.7210    -3.2860    -1.1430 H     1 <1>   0.0800 
 30 H       -0.2800    -2.4720     0.1380 H     1 <1>   0.0800 
 31 H       -1.1310    -3.7600    -0.7140 H     1 <1>   0.0800 
 32 H       -3.6520    -4.2500     0.9210 H     1 <1>   0.0800 
 33 H       -3.6750    -2.7030     1.7610 H     1 <1>   0.0800 
 34 H       -4.8120    -1.0570    -1.3190 H     1 <1>   0.0800 
 35 H       -4.6350    -0.8390     0.3930 H     1 <1>   0.0800 
 36 H        0.3570     3.0940     2.4290 H     1 <1>   0.1500 
 37 H       -1.1400     5.5580    -0.6870 H     1 <1>   0.1500 
 38 H       -0.4740     6.9330     1.3490 H     1 <1>   0.2700 
 39 H       -6.2950    -2.9780    -2.1750 H     1 <1>   0.1500 
 40 H       -6.1860    -1.9610     1.9530 H     1 <1>   0.1500 
 41 H       -8.3440    -4.2080    -1.7290 H     1 <1>   0.1500 
 42 H       -8.2380    -3.2330     2.2320 H     1 <1>   0.1500 
@<TRIPOS>BOND
  1   1   2  2   
  2   2   3  am  
  3   2   4  1   
  4   3   5  1   
  5   3  23  1   
  6   4   6  1   
  7   4  24  1   
  8   4  25  1   
  9   5   7  1   
 10   5   8  1   
 11   5  26  1   
 12   6   9  1   
 13   6  27  1   
 14   6  28  1   
 15   7  10  1   
 16   7  11  1   
 17   7  29  1   
 18   8  12  1   
 19   8  30  1   
 20   8  31  1   
 21   9  13  1   
 22   9  14  2   
 23  10  12  1   
 24  10  32  1   
 25  10  33  1   
 26  11  15  1   
 27  11  34  1   
 28  11  35  1   
 29  13  16  2   
 30  13  36  1   
 31  14  17  1   
 32  14  37  1   
 33  15  18  ar  
 34  15  19  ar  
 35  16  17  1   
 36  17  38  1   
 37  18  20  ar  
 38  18  39  1   
 39  19  21  ar  
 40  19  40  1   
 41  20  22  ar  
 42  20  41  1   
 43  21  22  ar  
 44  21  42  1   
@<TRIPOS>SUBSTRUCTURE
  1 ****   3 GROUP 4 **** **** 0

# MOE 2024.06 (io_trps.svl 2023.06)
