@<TRIPOS>MOLECULE
NONAME
53 56 1 0 0 
SMALL
USER_CHARGES


@<TRIPOS>ATOM
  1 CL      -0.5300     0.2270     0.6570 Cl    1 <1>  -0.1770 
  2 C       -1.9870    -0.7340     0.5770 C.ar  1 <1>   0.1770 
  3 C       -2.0270    -1.9610     1.2140 C.ar  1 <1>  -0.1500 
  4 C       -3.0790    -0.2540    -0.1230 C.ar  1 <1>  -0.1500 
  5 C       -3.1830    -2.7180     1.1470 C.ar  1 <1>  -0.1500 
  6 C       -4.2310    -1.0180    -0.1850 C.ar  1 <1>  -0.1500 
  7 C       -4.2940    -2.2560     0.4500 C.ar  1 <1>   0.1000 
  8 N       -5.4400    -3.0390     0.3960 N.pl3 1 <1>  -0.8380 
  9 C       -5.6500    -3.8000    -0.8490 C.3   1 <1>   0.2090 
 10 C       -6.6600    -2.4790     1.0100 C.3   1 <1>   0.2090 
 11 C       -6.5310    -5.0000    -0.5120 C.3   1 <1>  -0.1600 
 12 C       -7.5570    -3.6540     1.3910 C.3   1 <1>  -0.1600 
 13 C       -7.8250    -4.5460     0.1760 C.3   1 <1>   0.4230 
 14 N       -8.6120    -5.7090     0.6460 N.4   1 <1>  -0.9060 
 15 C       -9.1730    -6.6130    -0.3960 C.3   1 <1>   0.4230 
 16 C      -10.4610    -7.2290     0.1470 C.3   1 <1>  -0.0800 
 17 C       -8.2950    -7.8570    -0.4940 C.3   1 <1>   0.1200 
 18 C       -9.9550    -8.4550     0.9320 C.3   1 <1>   0.1200 
 19 C      -11.4260    -7.6270    -0.9870 C.3   1 <1>  -0.0170 
 20 O       -8.5830    -8.5310     0.6830 O.3   1 <1>  -0.5600 
 21 C      -12.7120    -8.2080    -0.4240 C.ar  1 <1>  -0.1430 
 22 C      -13.7010    -7.4060     0.1120 C.ar  1 <1>  -0.1500 
 23 C      -12.9640    -9.5670    -0.4210 C.ar  1 <1>  -0.1500 
 24 C      -14.8510    -7.9840     0.6220 C.ar  1 <1>   0.1600 
 25 C      -14.1480   -10.0430     0.1150 C.ar  1 <1>   0.1600 
 26 N      -15.0940    -9.2840     0.6410 N.ar  1 <1>  -0.6200 
 27 H       -1.1650    -2.3130     1.7520 H     1 <1>   0.1500 
 28 H       -3.0210     0.7030    -0.6100 H     1 <1>   0.1500 
 29 H       -3.2360    -3.6730     1.6350 H     1 <1>   0.1500 
 30 H       -5.0840    -0.6570    -0.7270 H     1 <1>   0.1500 
 31 H       -6.1170    -3.1690    -1.5870 H     1 <1>   0.0800 
 32 H       -4.6990    -4.1320    -1.2350 H     1 <1>   0.0800 
 33 H       -6.3960    -1.9110     1.8870 H     1 <1>   0.0800 
 34 H       -7.1540    -1.8240     0.3120 H     1 <1>   0.0800 
 35 H       -5.9680    -5.6500     0.1360 H     1 <1>   0.0800 
 36 H       -6.7470    -5.5170    -1.4280 H     1 <1>   0.0800 
 37 H       -8.4780    -3.2650     1.7830 H     1 <1>   0.0800 
 38 H       -7.0560    -4.2100     2.1650 H     1 <1>   0.0800 
 39 H       -8.4080    -3.9790    -0.5330 H     1 <1>   0.0800 
 40 H       -9.3720    -5.3730     1.2430 H     1 <1>   0.4500 
 41 H       -8.0280    -6.3050     1.2530 H     1 <1>   0.4500 
 42 H       -9.3110    -6.1060    -1.3380 H     1 <1>   0.0800 
 43 H      -10.9810    -6.5530     0.8030 H     1 <1>   0.0800 
 44 H       -7.2410    -7.6540    -0.5420 H     1 <1>   0.0800 
 45 H       -8.5810    -8.4840    -1.3220 H     1 <1>   0.0800 
 46 H      -10.4080    -9.3750     0.6040 H     1 <1>   0.0800 
 47 H      -10.1020    -8.3470     1.9940 H     1 <1>   0.0800 
 48 H      -10.9680    -8.3470    -1.6450 H     1 <1>   0.0800 
 49 H      -11.6750    -6.7620    -1.5790 H     1 <1>   0.0800 
 50 H      -13.5980    -6.3370     0.1390 H     1 <1>   0.1500 
 51 H      -12.2570   -10.2660    -0.8290 H     1 <1>   0.1500 
 52 H      -15.6130    -7.3460     1.0360 H     1 <1>   0.1500 
 53 H      -14.3280   -11.1050     0.1110 H     1 <1>   0.1500 
@<TRIPOS>BOND
  1   1   2  1   
  2   2   3  ar  
  3   2   4  ar  
  4   3   5  ar  
  5   3  27  1   
  6   4   6  ar  
  7   4  28  1   
  8   5   7  ar  
  9   5  29  1   
 10   6   7  ar  
 11   6  30  1   
 12   7   8  1   
 13   8   9  1   
 14   8  10  1   
 15   9  11  1   
 16   9  31  1   
 17   9  32  1   
 18  10  12  1   
 19  10  33  1   
 20  10  34  1   
 21  11  13  1   
 22  11  35  1   
 23  11  36  1   
 24  12  13  1   
 25  12  37  1   
 26  12  38  1   
 27  13  14  1   
 28  13  39  1   
 29  14  15  1   
 30  14  40  1   
 31  14  41  1   
 32  15  16  1   
 33  15  17  1   
 34  15  42  1   
 35  16  18  1   
 36  16  19  1   
 37  16  43  1   
 38  17  20  1   
 39  17  44  1   
 40  17  45  1   
 41  18  20  1   
 42  18  46  1   
 43  18  47  1   
 44  19  21  1   
 45  19  48  1   
 46  19  49  1   
 47  21  22  ar  
 48  21  23  ar  
 49  22  24  ar  
 50  22  50  1   
 51  23  25  ar  
 52  23  51  1   
 53  24  26  ar  
 54  24  52  1   
 55  25  26  ar  
 56  25  53  1   
@<TRIPOS>SUBSTRUCTURE
  1 ****  13 GROUP 4 **** **** 0

# MOE 2024.06 (io_trps.svl 2023.06)
