@<TRIPOS>MOLECULE
NONAME
51 54 1 0 0 
SMALL
USER_CHARGES


@<TRIPOS>ATOM
  1 O       -2.6900     0.7340    -1.8270 O.2   1 <1>  -0.5700 
  2 C       -2.0660     0.6640    -0.7800 C.2   1 <1>   0.7160 
  3 N       -1.8950    -0.5650    -0.2110 N.am  1 <1>  -0.7300 
  4 C       -1.5210     1.8380    -0.1170 C.2   1 <1>   0.2030 
  5 C       -2.4770    -1.8320    -0.7000 C.3   1 <1>   0.2200 
  6 N       -0.8900     1.8370     1.0460 N.2   1 <1>  -0.7070 
  7 C       -1.5960     3.1420    -0.6240 C.2   1 <1>  -0.1500 
  8 C       -3.8440    -2.0260    -0.0680 C.3   1 <1>  -0.0800 
  9 C       -1.6900    -3.0260    -0.1600 C.3   1 <1>   0.1200 
 10 N       -0.5680     3.1190     1.2740 N.pl3 1 <1>   0.3000 
 11 C       -0.9830     3.9300     0.2810 C.2   1 <1>  -0.3320 
 12 C       -3.4770    -2.6900     1.2570 C.3   1 <1>   0.1200 
 13 C       -4.7450    -2.9200    -0.9420 C.3   1 <1>  -0.0160 
 14 O       -2.3270    -3.4420     1.0150 O.3   1 <1>  -0.5600 
 15 C       -0.7620     5.4320     0.2550 C.3   1 <1>   0.0200 
 16 C       -6.1500    -3.0340    -0.3600 C.ar  1 <1>  -0.1430 
 17 C       -1.5660     6.1180     1.3660 C.3   1 <1>  -0.1600 
 18 C       -7.0980    -1.9880    -0.4610 C.ar  1 <1>   0.0000 
 19 C       -6.5320    -4.1720     0.2880 C.ar  1 <1>  -0.1500 
 20 C       -1.3810     7.6390     1.3360 C.3   1 <1>  -0.2400 
 21 C       -8.3690    -2.1950     0.1300 C.ar  1 <1>   0.3100 
 22 C       -6.8640    -0.7540    -1.1130 C.ar  1 <1>  -0.1500 
 23 C       -7.8160    -4.2750     0.8340 C.ar  1 <1>   0.1600 
 24 N       -8.7100    -3.3400     0.7730 N.ar  1 <1>  -0.6200 
 25 C       -9.3290    -1.1740     0.0510 C.ar  1 <1>  -0.1500 
 26 C       -7.8240     0.2200    -1.1720 C.ar  1 <1>  -0.1500 
 27 C       -9.0730     0.0110    -0.5830 C.ar  1 <1>  -0.1500 
 28 H       -1.4440    -0.5750     0.7090 H     1 <1>   0.3700 
 29 H       -2.5070    -1.8240    -1.7770 H     1 <1>   0.0800 
 30 H       -2.0600     3.4110    -1.5560 H     1 <1>   0.1500 
 31 H       -4.3340    -1.0840     0.1020 H     1 <1>   0.0800 
 32 H       -0.6650    -2.7810     0.0550 H     1 <1>   0.0800 
 33 H       -1.7290    -3.8480    -0.8530 H     1 <1>   0.0800 
 34 H       -0.0640     3.4200     2.1170 H     1 <1>   0.2700 
 35 H       -4.2490    -3.3330     1.6420 H     1 <1>   0.0800 
 36 H       -3.2300    -1.9470     1.9960 H     1 <1>   0.0800 
 37 H       -4.3090    -3.9000    -1.0270 H     1 <1>   0.0800 
 38 H       -4.8090    -2.5190    -1.9380 H     1 <1>   0.0800 
 39 H        0.2870     5.6450     0.3700 H     1 <1>   0.0800 
 40 H       -1.0740     5.8170    -0.7000 H     1 <1>   0.0800 
 41 H       -2.6100     5.8850     1.2410 H     1 <1>   0.0800 
 42 H       -1.2550     5.7440     2.3250 H     1 <1>   0.0800 
 43 H       -5.8650    -5.0080     0.4000 H     1 <1>   0.1500 
 44 H       -1.7130     8.0410     0.3940 H     1 <1>   0.0800 
 45 H       -0.3460     7.8980     1.4780 H     1 <1>   0.0800 
 46 H       -1.9580     8.0950     2.1220 H     1 <1>   0.0800 
 47 H       -5.9130    -0.5690    -1.5760 H     1 <1>   0.1500 
 48 H       -8.0760    -5.1910     1.3380 H     1 <1>   0.1500 
 49 H      -10.2830    -1.3580     0.5100 H     1 <1>   0.1500 
 50 H       -7.6290     1.1540    -1.6710 H     1 <1>   0.1500 
 51 H       -9.8190     0.7840    -0.6360 H     1 <1>   0.1500 
@<TRIPOS>BOND
  1   1   2  2   
  2   2   3  am  
  3   2   4  1   
  4   3   5  1   
  5   3  28  1   
  6   4   6  2   
  7   4   7  1   
  8   5   8  1   
  9   5   9  1   
 10   5  29  1   
 11   6  10  1   
 12   7  11  2   
 13   7  30  1   
 14   8  12  1   
 15   8  13  1   
 16   8  31  1   
 17   9  14  1   
 18   9  32  1   
 19   9  33  1   
 20  10  11  1   
 21  10  34  1   
 22  11  15  1   
 23  12  14  1   
 24  12  35  1   
 25  12  36  1   
 26  13  16  1   
 27  13  37  1   
 28  13  38  1   
 29  15  17  1   
 30  15  39  1   
 31  15  40  1   
 32  16  18  ar  
 33  16  19  ar  
 34  17  20  1   
 35  17  41  1   
 36  17  42  1   
 37  18  21  ar  
 38  18  22  ar  
 39  19  23  ar  
 40  19  43  1   
 41  20  44  1   
 42  20  45  1   
 43  20  46  1   
 44  21  24  ar  
 45  21  25  ar  
 46  22  26  ar  
 47  22  47  1   
 48  23  24  ar  
 49  23  48  1   
 50  25  27  ar  
 51  25  49  1   
 52  26  27  ar  
 53  26  50  1   
 54  27  51  1   
@<TRIPOS>SUBSTRUCTURE
  1 ****   8 GROUP 4 **** **** 0

# MOE 2024.06 (io_trps.svl 2023.06)
