@<TRIPOS>MOLECULE
NONAME
50 52 1 0 0 
SMALL
USER_CHARGES


@<TRIPOS>ATOM
  1 O       -1.6070     0.4570     3.1930 O.2   1 <1>  -0.5700 
  2 C       -1.8490     1.1480     2.2310 C.2   1 <1>   0.5690 
  3 N       -2.6300     0.6880     1.2050 N.am  1 <1>  -0.6600 
  4 C       -1.2640     2.5530     2.1950 C.3   1 <1>   0.0440 
  5 C       -3.0020     1.4360    -0.0200 C.3   1 <1>   0.1400 
  6 C       -3.0760    -0.7240     1.1050 C.3   1 <1>   0.1400 
  7 C       -0.2790     2.7410     1.0390 C.ar  1 <1>  -0.1440 
  8 C       -4.0680     0.5670    -0.6830 C.3   1 <1>   0.2000 
  9 C       -3.6840    -0.8650    -0.3000 C.3   1 <1>  -0.0800 
 10 C       -0.4750     3.6930     0.0390 C.ar  1 <1>   0.0820 
 11 C        0.8390     1.9220     0.9890 C.ar  1 <1>  -0.1500 
 12 O       -5.2910     0.8520    -0.0970 O.3   1 <1>  -0.6800 
 13 C       -2.6760    -1.4490    -1.3100 C.3   1 <1>  -0.0170 
 14 O       -1.5860     4.4750     0.1090 O.3   1 <1>  -0.3630 
 15 C        0.4520     3.8060    -0.9930 C.ar  1 <1>  -0.1500 
 16 C        1.7570     2.0360    -0.0390 C.ar  1 <1>  -0.1500 
 17 C       -2.4010    -2.9220    -1.0520 C.ar  1 <1>   0.1670 
 18 C       -1.7950     5.5440    -0.7870 C.3   1 <1>   0.0400 
 19 C        1.5640     2.9840    -1.0380 C.ar  1 <1>   0.0820 
 20 N       -1.3090    -3.2090    -0.3610 N.ar  1 <1>  -0.6200 
 21 C       -3.2810    -3.8760    -1.5400 C.ar  1 <1>  -0.1500 
 22 O        2.4100     3.1590    -2.0840 O.3   1 <1>  -0.3620 
 23 C       -1.0870    -4.4950    -0.1440 C.ar  1 <1>   0.1600 
 24 C       -3.0380    -5.2130    -1.3080 C.ar  1 <1>  -0.1500 
 25 C        3.5640     2.3620    -2.2320 C.3   1 <1>   0.0400 
 26 C       -1.9050    -5.5210    -0.5870 C.ar  1 <1>  -0.1500 
 27 H       -2.0740     3.2530     2.1530 H     1 <1>   0.0800 
 28 H       -0.7440     2.7300     3.1180 H     1 <1>   0.0800 
 29 H       -3.3710     2.4220     0.2030 H     1 <1>   0.0800 
 30 H       -2.1410     1.5090    -0.6610 H     1 <1>   0.0800 
 31 H       -2.2470    -1.3920     1.2680 H     1 <1>   0.0800 
 32 H       -3.8220    -0.9090     1.8590 H     1 <1>   0.0800 
 33 H       -4.1540     0.7320    -1.7430 H     1 <1>   0.0800 
 34 H       -4.5520    -1.5010    -0.2790 H     1 <1>   0.0800 
 35 H        0.9960     1.1810     1.7560 H     1 <1>   0.1500 
 36 H       -5.1760     0.8400     0.8750 H     1 <1>   0.4000 
 37 H       -1.7480    -0.9030    -1.2700 H     1 <1>   0.0800 
 38 H       -3.0670    -1.3490    -2.3060 H     1 <1>   0.0800 
 39 H        0.3380     4.5240    -1.7800 H     1 <1>   0.1500 
 40 H        2.6070     1.3810    -0.0430 H     1 <1>   0.1500 
 41 H       -2.7020     6.0460    -0.5040 H     1 <1>   0.0800 
 42 H       -1.8910     5.1520    -1.7840 H     1 <1>   0.0800 
 43 H       -0.9640     6.2240    -0.7190 H     1 <1>   0.0800 
 44 H       -4.1510    -3.5780    -2.0960 H     1 <1>   0.1500 
 45 H       -0.2040    -4.7460     0.4190 H     1 <1>   0.1500 
 46 H       -3.7010    -5.9790    -1.6720 H     1 <1>   0.1500 
 47 H        4.0720     2.6720    -3.1280 H     1 <1>   0.0800 
 48 H        3.2690     1.3320    -2.3170 H     1 <1>   0.0800 
 49 H        4.2030     2.5120    -1.3800 H     1 <1>   0.0800 
 50 H       -1.6550    -6.5430    -0.3690 H     1 <1>   0.1500 
@<TRIPOS>BOND
  1   1   2  2   
  2   2   3  am  
  3   2   4  1   
  4   3   5  1   
  5   3   6  1   
  6   4   7  1   
  7   4  27  1   
  8   4  28  1   
  9   5   8  1   
 10   5  29  1   
 11   5  30  1   
 12   6   9  1   
 13   6  31  1   
 14   6  32  1   
 15   7  10  ar  
 16   7  11  ar  
 17   8   9  1   
 18   8  12  1   
 19   8  33  1   
 20   9  13  1   
 21   9  34  1   
 22  10  14  1   
 23  10  15  ar  
 24  11  16  ar  
 25  11  35  1   
 26  12  36  1   
 27  13  17  1   
 28  13  37  1   
 29  13  38  1   
 30  14  18  1   
 31  15  19  ar  
 32  15  39  1   
 33  16  19  ar  
 34  16  40  1   
 35  17  20  ar  
 36  17  21  ar  
 37  18  41  1   
 38  18  42  1   
 39  18  43  1   
 40  19  22  1   
 41  20  23  ar  
 42  21  24  ar  
 43  21  44  1   
 44  22  25  1   
 45  23  26  ar  
 46  23  45  1   
 47  24  26  ar  
 48  24  46  1   
 49  25  47  1   
 50  25  48  1   
 51  25  49  1   
 52  26  50  1   
@<TRIPOS>SUBSTRUCTURE
  1 ****   3 GROUP 4 **** **** 0

# MOE 2024.06 (io_trps.svl 2023.06)
