@<TRIPOS>MOLECULE
NONAME
54 55 1 0 0 
SMALL
USER_CHARGES


@<TRIPOS>ATOM
  1 S       -0.7230    -1.2590     1.4150 S.o2  1 <1>   1.3330 
  2 O       -0.2560    -2.2780     2.3260 O.2   1 <1>  -0.6500 
  3 O       -1.8330    -0.4090     1.7780 O.2   1 <1>  -0.6500 
  4 N        0.5890    -0.2970     0.9350 N.am  1 <1>  -0.8490 
  5 C       -1.1910    -2.0670    -0.1170 C.3   1 <1>  -0.0550 
  6 C        1.8870    -0.9700     1.0640 C.3   1 <1>   0.1160 
  7 C        0.6260     0.9920     1.6370 C.3   1 <1>   0.1160 
  8 C       -2.4220    -2.9770     0.0560 C.3   1 <1>  -0.1600 
  9 C       -2.8640    -3.5910    -1.2710 C.3   1 <1>   0.3430 
 10 N       -4.0040    -4.5240    -1.0530 N.4   1 <1>  -0.9590 
 11 C       -4.2280    -5.3840    -2.2500 C.3   1 <1>   0.4860 
 12 C       -5.2700    -3.8250    -0.6520 C.3   1 <1>   0.2630 
 13 C       -5.1700    -6.5080    -1.8670 C.ar  1 <1>  -0.1440 
 14 C       -4.7380    -7.5090    -1.0120 C.ar  1 <1>  -0.1500 
 15 C       -6.4630    -6.5520    -2.3680 C.ar  1 <1>  -0.1500 
 16 C       -5.5780    -8.5540    -0.6390 C.ar  1 <1>  -0.0230 
 17 C       -7.3070    -7.5900    -2.0160 C.ar  1 <1>  -0.1500 
 18 N       -5.0970    -9.5650     0.2450 N.pl3 1 <1>   0.5930 
 19 C       -6.8670    -8.5850    -1.1630 C.ar  1 <1>  -0.1500 
 20 N       -3.8650   -10.1100     0.0860 N.2   1 <1>  -0.7070 
 21 C       -5.6710   -10.0470     1.3860 C.2   1 <1>  -0.3320 
 22 C       -3.7060   -10.9180     1.0810 C.2   1 <1>   0.1080 
 23 C       -4.8020   -10.9220     1.9330 C.2   1 <1>  -0.1500 
 24 C       -7.0310    -9.6430     1.9350 C.3   1 <1>  -0.0600 
 25 C       -2.4550   -11.7440     1.2670 C.3   1 <1>  -0.0590 
 26 H       -0.3610    -2.6450    -0.4740 H     1 <1>   0.0800 
 27 H       -1.4060    -1.3090    -0.8450 H     1 <1>   0.0800 
 28 H        1.8790    -1.9000     0.5220 H     1 <1>   0.0800 
 29 H        2.1020    -1.1770     2.1000 H     1 <1>   0.0800 
 30 H        2.6680    -0.3480     0.6620 H     1 <1>   0.0800 
 31 H       -0.2780     1.5450     1.4440 H     1 <1>   0.0800 
 32 H        1.4590     1.5810     1.2920 H     1 <1>   0.0800 
 33 H        0.7170     0.8370     2.7000 H     1 <1>   0.0800 
 34 H       -3.2170    -2.3820     0.4720 H     1 <1>   0.0800 
 35 H       -2.1740    -3.7560     0.7570 H     1 <1>   0.0800 
 36 H       -2.0330    -4.1300    -1.6980 H     1 <1>   0.0800 
 37 H       -3.1510    -2.8110    -1.9600 H     1 <1>   0.0800 
 38 H       -3.7560    -5.1720    -0.2920 H     1 <1>   0.4500 
 39 H       -3.2950    -5.8100    -2.5820 H     1 <1>   0.0800 
 40 H       -4.6470    -4.8060    -3.0570 H     1 <1>   0.0800 
 41 H       -5.5810    -3.1360    -1.4200 H     1 <1>   0.0800 
 42 H       -5.1260    -3.2780     0.2660 H     1 <1>   0.0800 
 43 H       -6.0590    -4.5440    -0.4940 H     1 <1>   0.0800 
 44 H       -3.7320    -7.5110    -0.6240 H     1 <1>   0.1500 
 45 H       -6.8270    -5.7930    -3.0410 H     1 <1>   0.1500 
 46 H       -8.3080    -7.6300    -2.4130 H     1 <1>   0.1500 
 47 H       -7.5280    -9.3980    -0.9140 H     1 <1>   0.1500 
 48 H       -4.9020   -11.5040     2.8320 H     1 <1>   0.1500 
 49 H       -7.1130    -8.5720     1.9860 H     1 <1>   0.0800 
 50 H       -7.1620   -10.0420     2.9250 H     1 <1>   0.0800 
 51 H       -7.8180   -10.0280     1.3120 H     1 <1>   0.0800 
 52 H       -2.3110   -12.3740     0.4080 H     1 <1>   0.0800 
 53 H       -2.5360   -12.3580     2.1440 H     1 <1>   0.0800 
 54 H       -1.6060   -11.0930     1.3680 H     1 <1>   0.0800 
@<TRIPOS>BOND
  1   1   2  2   
  2   1   3  2   
  3   1   4  am  
  4   1   5  1   
  5   4   6  1   
  6   4   7  1   
  7   5   8  1   
  8   5  26  1   
  9   5  27  1   
 10   6  28  1   
 11   6  29  1   
 12   6  30  1   
 13   7  31  1   
 14   7  32  1   
 15   7  33  1   
 16   8   9  1   
 17   8  34  1   
 18   8  35  1   
 19   9  10  1   
 20   9  36  1   
 21   9  37  1   
 22  10  11  1   
 23  10  12  1   
 24  10  38  1   
 25  11  13  1   
 26  11  39  1   
 27  11  40  1   
 28  12  41  1   
 29  12  42  1   
 30  12  43  1   
 31  13  14  ar  
 32  13  15  ar  
 33  14  16  ar  
 34  14  44  1   
 35  15  17  ar  
 36  15  45  1   
 37  16  18  1   
 38  16  19  ar  
 39  17  19  ar  
 40  17  46  1   
 41  18  20  1   
 42  18  21  1   
 43  19  47  1   
 44  20  22  2   
 45  21  23  2   
 46  21  24  1   
 47  22  23  1   
 48  22  25  1   
 49  23  48  1   
 50  24  49  1   
 51  24  50  1   
 52  24  51  1   
 53  25  52  1   
 54  25  53  1   
 55  25  54  1   
@<TRIPOS>SUBSTRUCTURE
  1 ****  10 GROUP 4 **** **** 0

# MOE 2024.06 (io_trps.svl 2023.06)
