@<TRIPOS>MOLECULE
NONAME
50 52 1 0 0 
SMALL
USER_CHARGES


@<TRIPOS>ATOM
  1 O        0.1470     0.4940     0.7510 O.2   1 <1>  -0.5700 
  2 C        0.3580     1.6910     0.6860 C.2   1 <1>   0.6900 
  3 N       -0.6600     2.5900     0.8730 N.am  1 <1>  -0.6600 
  4 N        1.6140     2.1720     0.4520 N.am  1 <1>  -0.5470 
  5 C       -1.9990     2.1300     1.3420 C.3   1 <1>   0.1400 
  6 C       -0.6250     3.9870     0.3420 C.3   1 <1>   0.1400 
  7 C        2.8060     1.5220     0.0970 C.ar  1 <1>   0.1170 
  8 C       -3.0140     2.1190     0.1760 C.3   1 <1>   0.0000 
  9 C       -2.0170     4.4660    -0.1080 C.3   1 <1>  -0.1600 
 10 C        4.0170     2.1350     0.3960 C.ar  1 <1>  -0.1500 
 11 C        2.8270     0.2980    -0.5650 C.ar  1 <1>  -0.1500 
 12 C       -4.4460     2.0400     0.7380 C.3   1 <1>   0.2000 
 13 C       -2.7940     3.3280    -0.7890 C.3   1 <1>  -0.1600 
 14 C       -2.9510     0.8100    -0.6300 C.3   1 <1>  -0.1600 
 15 C        5.2210     1.5480     0.0510 C.ar  1 <1>   0.0830 
 16 C        4.0250    -0.3090    -0.9000 C.ar  1 <1>  -0.1500 
 17 O       -4.9420     3.2780     1.1070 O.3   1 <1>  -0.6800 
 18 C       -5.3070     1.4170    -0.3610 C.3   1 <1>  -0.1600 
 19 C       -4.3300     0.6730    -1.2830 C.3   1 <1>  -0.1600 
 20 O        6.3540     2.2300     0.3520 O.3   1 <1>  -0.3630 
 21 C        5.2260     0.3000    -0.5820 C.ar  1 <1>   0.0830 
 22 C        7.1640     2.6240    -0.7350 C.3   1 <1>   0.0400 
 23 O        6.3700    -0.3590    -0.8980 O.3   1 <1>  -0.3630 
 24 C        7.0970    -0.8670     0.1980 C.3   1 <1>   0.0400 
 25 H        1.7050     3.1500     0.6980 H     1 <1>   0.3700 
 26 H       -1.9320     1.1550     1.7950 H     1 <1>   0.0800 
 27 H       -2.3400     2.8080     2.1050 H     1 <1>   0.0800 
 28 H       -0.2400     4.6500     1.0980 H     1 <1>   0.0800 
 29 H        0.0350     4.0200    -0.5090 H     1 <1>   0.0800 
 30 H       -2.5650     4.8240     0.7460 H     1 <1>   0.0800 
 31 H       -1.9030     5.2930    -0.7870 H     1 <1>   0.0800 
 32 H        4.0320     3.0810     0.9010 H     1 <1>   0.1500 
 33 H        1.9020    -0.1890    -0.8200 H     1 <1>   0.1500 
 34 H       -4.4660     1.4040     1.6080 H     1 <1>   0.0800 
 35 H       -2.2080     3.0120    -1.6350 H     1 <1>   0.0800 
 36 H       -3.7250     3.6930    -1.1830 H     1 <1>   0.0800 
 37 H       -2.1490     0.7940    -1.3470 H     1 <1>   0.0800 
 38 H       -2.8040    -0.0200     0.0410 H     1 <1>   0.0800 
 39 H        4.0300    -1.2580    -1.4040 H     1 <1>   0.1500 
 40 H       -4.9000     3.8810     0.3430 H     1 <1>   0.4000 
 41 H       -6.0150     0.7330     0.0730 H     1 <1>   0.0800 
 42 H       -5.8350     2.1690    -0.9210 H     1 <1>   0.0800 
 43 H       -4.6020    -0.3620    -1.4020 H     1 <1>   0.0800 
 44 H       -4.3190     1.1430    -2.2530 H     1 <1>   0.0800 
 45 H        7.9170     3.2960    -0.3660 H     1 <1>   0.0800 
 46 H        6.5510     3.1210    -1.4650 H     1 <1>   0.0800 
 47 H        7.6300     1.7570    -1.1660 H     1 <1>   0.0800 
 48 H        7.9420    -1.4120    -0.1810 H     1 <1>   0.0800 
 49 H        6.4580    -1.5220     0.7640 H     1 <1>   0.0800 
 50 H        7.4310    -0.0500     0.8120 H     1 <1>   0.0800 
@<TRIPOS>BOND
  1   1   2  2   
  2   2   3  am  
  3   2   4  am  
  4   3   5  1   
  5   3   6  1   
  6   4   7  1   
  7   4  25  1   
  8   5   8  1   
  9   5  26  1   
 10   5  27  1   
 11   6   9  1   
 12   6  28  1   
 13   6  29  1   
 14   7  10  ar  
 15   7  11  ar  
 16   8  12  1   
 17   8  13  1   
 18   8  14  1   
 19   9  13  1   
 20   9  30  1   
 21   9  31  1   
 22  10  15  ar  
 23  10  32  1   
 24  11  16  ar  
 25  11  33  1   
 26  12  17  1   
 27  12  18  1   
 28  12  34  1   
 29  13  35  1   
 30  13  36  1   
 31  14  19  1   
 32  14  37  1   
 33  14  38  1   
 34  15  20  1   
 35  15  21  ar  
 36  16  21  ar  
 37  16  39  1   
 38  17  40  1   
 39  18  19  1   
 40  18  41  1   
 41  18  42  1   
 42  19  43  1   
 43  19  44  1   
 44  20  22  1   
 45  21  23  1   
 46  22  45  1   
 47  22  46  1   
 48  22  47  1   
 49  23  24  1   
 50  24  48  1   
 51  24  49  1   
 52  24  50  1   
@<TRIPOS>SUBSTRUCTURE
  1 ****   2 GROUP 4 **** **** 0

# MOE 2024.06 (io_trps.svl 2023.06)
