@<TRIPOS>MOLECULE
NONAME
50 52 1 0 0 
SMALL
USER_CHARGES


@<TRIPOS>ATOM
  1 O        0.4240     1.3630     2.4060 O.2   1 <1>  -0.5700 
  2 C        0.3980     2.4660     1.8860 C.2   1 <1>   0.7150 
  3 N       -0.8310     3.0660     1.6770 N.am  1 <1>  -0.6600 
  4 C        1.6340     3.1230     1.5160 C.2   1 <1>   0.0550 
  5 C       -1.0800     4.0960     0.6310 C.3   1 <1>   0.1400 
  6 C       -2.0670     2.5840     2.3570 C.3   1 <1>   0.1400 
  7 O        2.6360     2.4430     0.9670 O.3   1 <1>  -0.2800 
  8 C        2.0200     4.4250     1.6330 C.2   1 <1>  -0.1500 
  9 C       -2.0380     3.5270    -0.4190 C.3   1 <1>  -0.1600 
 10 C       -3.0330     2.0120     1.3190 C.3   1 <1>  -0.1600 
 11 C        3.6430     3.2560     0.7260 C.2   1 <1>   0.1600 
 12 C        3.3130     4.5080     1.1220 C.2   1 <1>  -0.1500 
 13 C       -3.3430     3.0260     0.2140 C.3   1 <1>   0.4180 
 14 C        4.8390     2.7480     0.1330 C.1   1 <1>  -0.0200 
 15 O       -3.9990     4.1020     0.8410 O.3   1 <1>  -0.5600 
 16 C       -4.2500     2.3830    -0.8320 C.2   1 <1>  -0.2880 
 17 C        5.8310     2.3070    -0.3560 C.1   1 <1>  -0.2000 
 18 C       -4.7680     4.9490     0.0330 C.3   1 <1>   0.1200 
 19 C       -5.4310     2.8800    -1.2070 C.2   1 <1>  -0.2760 
 20 C        7.0610     1.7290    -0.9590 C.3   1 <1>   0.4800 
 21 C       -5.9330     4.1790    -0.6050 C.3   1 <1>  -0.0220 
 22 C       -6.3580     2.2270    -2.2170 C.3   1 <1>  -0.1020 
 23 O        7.7400     1.1150     0.0540 O.3   1 <1>  -0.6800 
 24 C        6.7170     0.6590    -1.9880 C.3   1 <1>  -0.2400 
 25 C        7.9710     2.8080    -1.5320 C.3   1 <1>  -0.2400 
 26 H       -0.1660     4.3860     0.1460 H     1 <1>   0.0800 
 27 H       -1.5150     4.9680     1.0900 H     1 <1>   0.0800 
 28 H       -2.5300     3.4100     2.8690 H     1 <1>   0.0800 
 29 H       -1.8320     1.8310     3.0900 H     1 <1>   0.0800 
 30 H        1.4540     5.2420     2.0440 H     1 <1>   0.1500 
 31 H       -1.5520     2.7060    -0.9150 H     1 <1>   0.0800 
 32 H       -2.2490     4.2660    -1.1670 H     1 <1>   0.0800 
 33 H       -3.9490     1.7170     1.7960 H     1 <1>   0.0800 
 34 H       -2.5900     1.1310     0.8900 H     1 <1>   0.0800 
 35 H        3.9170     5.3950     1.0630 H     1 <1>   0.1500 
 36 H       -3.8400     1.4740    -1.2340 H     1 <1>   0.1500 
 37 H       -4.1350     5.3700    -0.7270 H     1 <1>   0.0800 
 38 H       -5.1420     5.7450     0.6520 H     1 <1>   0.0800 
 39 H       -6.3750     4.7970    -1.3650 H     1 <1>   0.0800 
 40 H       -6.6820     3.9710     0.1380 H     1 <1>   0.0800 
 41 H       -6.5190     2.8820    -3.0540 H     1 <1>   0.0800 
 42 H       -7.3060     2.0060    -1.7590 H     1 <1>   0.0800 
 43 H       -5.9330     1.3080    -2.5790 H     1 <1>   0.0800 
 44 H        7.0840     0.6690     0.6190 H     1 <1>   0.4000 
 45 H        6.0950    -0.1000    -1.5490 H     1 <1>   0.0800 
 46 H        7.6150     0.2080    -2.3710 H     1 <1>   0.0800 
 47 H        6.1810     1.1020    -2.8080 H     1 <1>   0.0800 
 48 H        8.2220     3.5220    -0.7690 H     1 <1>   0.0800 
 49 H        7.4710     3.3230    -2.3310 H     1 <1>   0.0800 
 50 H        8.8730     2.3680    -1.9160 H     1 <1>   0.0800 
@<TRIPOS>BOND
  1   1   2  2   
  2   2   3  am  
  3   2   4  1   
  4   3   5  1   
  5   3   6  1   
  6   4   7  1   
  7   4   8  2   
  8   5   9  1   
  9   5  26  1   
 10   5  27  1   
 11   6  10  1   
 12   6  28  1   
 13   6  29  1   
 14   7  11  1   
 15   8  12  1   
 16   8  30  1   
 17   9  13  1   
 18   9  31  1   
 19   9  32  1   
 20  10  13  1   
 21  10  33  1   
 22  10  34  1   
 23  11  12  2   
 24  11  14  1   
 25  12  35  1   
 26  13  15  1   
 27  13  16  1   
 28  14  17  3   
 29  15  18  1   
 30  16  19  2   
 31  16  36  1   
 32  17  20  1   
 33  18  21  1   
 34  18  37  1   
 35  18  38  1   
 36  19  21  1   
 37  19  22  1   
 38  20  23  1   
 39  20  24  1   
 40  20  25  1   
 41  21  39  1   
 42  21  40  1   
 43  22  41  1   
 44  22  42  1   
 45  22  43  1   
 46  23  44  1   
 47  24  45  1   
 48  24  46  1   
 49  24  47  1   
 50  25  48  1   
 51  25  49  1   
 52  25  50  1   
@<TRIPOS>SUBSTRUCTURE
  1 ****   2 GROUP 4 **** **** 0

# MOE 2024.06 (io_trps.svl 2023.06)
