@<TRIPOS>MOLECULE
NONAME
49 50 1 0 0 
SMALL
USER_CHARGES


@<TRIPOS>ATOM
  1 O        1.6840     0.0300     2.5580 O.co2 1 <1>  -0.9000 
  2 C        1.7930    -0.4200     1.4150 C.2   1 <1>   0.9060 
  3 O        1.6950    -1.6300     1.1680 O.co2 1 <1>  -0.9000 
  4 C        2.1200     0.5300     0.2490 C.3   1 <1>  -0.1060 
  5 C        3.3190    -0.1330    -0.4710 C.3   1 <1>   0.2000 
  6 C        2.5760     1.9140     0.8020 C.3   1 <1>  -0.1600 
  7 C        0.8110     0.6620    -0.5990 C.3   1 <1>  -0.1600 
  8 O        2.8990    -1.2360    -1.1850 O.3   1 <1>  -0.6800 
  9 C        4.0910     0.7950    -1.4130 C.3   1 <1>   0.3430 
 10 C        3.3480     2.7980    -0.1740 C.3   1 <1>   0.3430 
 11 C        0.8560     1.3880    -1.9550 C.3   1 <1>  -0.1600 
 12 N        4.5180     2.0530    -0.7200 N.4   1 <1>  -0.9590 
 13 C       -0.5300     1.3870    -2.6060 C.3   1 <1>  -0.2400 
 14 C        5.3560     2.8990    -1.6050 C.3   1 <1>   0.4860 
 15 C        5.9070     4.0560    -0.7980 C.ar  1 <1>  -0.1430 
 16 C        5.3930     5.3320    -0.9690 C.ar  1 <1>  -0.1500 
 17 C        6.9210     3.8490     0.1230 C.ar  1 <1>  -0.1500 
 18 C        5.8740     6.3970    -0.2240 C.ar  1 <1>  -0.1430 
 19 C        7.4030     4.9080     0.8680 C.ar  1 <1>  -0.1500 
 20 C        6.8860     6.1830     0.7040 C.ar  1 <1>  -0.1430 
 21 C        5.2820     7.7840    -0.4430 C.3   1 <1>  -0.0970 
 22 C        7.4480     7.3210     1.5460 C.3   1 <1>  -0.0970 
 23 H        4.0080    -0.5010     0.2720 H     1 <1>   0.0800 
 24 H        3.2130     1.7600     1.6570 H     1 <1>   0.0800 
 25 H        1.7170     2.4510     1.1670 H     1 <1>   0.0800 
 26 H        0.4400    -0.3330    -0.7840 H     1 <1>   0.0800 
 27 H        0.0670     1.1360     0.0200 H     1 <1>   0.0800 
 28 H        2.3550    -1.7720    -0.5350 H     1 <1>   0.4000 
 29 H        3.4660     1.0390    -2.2520 H     1 <1>   0.0800 
 30 H        4.9550     0.2630    -1.7740 H     1 <1>   0.0800 
 31 H        3.6860     3.6780     0.3510 H     1 <1>   0.0800 
 32 H        2.7080     3.1180    -0.9750 H     1 <1>   0.0800 
 33 H        1.1610     2.4080    -1.8360 H     1 <1>   0.0800 
 34 H        1.5310     0.8820    -2.6190 H     1 <1>   0.0800 
 35 H        5.0910     1.7950     0.0930 H     1 <1>   0.4500 
 36 H       -1.2430     1.8920    -1.9770 H     1 <1>   0.0800 
 37 H       -0.8680     0.3780    -2.7650 H     1 <1>   0.0800 
 38 H       -0.4960     1.8890    -3.5560 H     1 <1>   0.0800 
 39 H        6.1750     2.3220    -2.0020 H     1 <1>   0.0800 
 40 H        4.7690     3.2710    -2.4290 H     1 <1>   0.0800 
 41 H        4.6120     5.5080    -1.6890 H     1 <1>   0.1500 
 42 H        7.3480     2.8730     0.2720 H     1 <1>   0.1500 
 43 H        8.1910     4.7350     1.5810 H     1 <1>   0.1500 
 44 H        4.5170     7.7690    -1.1970 H     1 <1>   0.0800 
 45 H        6.0510     8.4660    -0.7590 H     1 <1>   0.0800 
 46 H        4.8480     8.1480     0.4700 H     1 <1>   0.0800 
 47 H        8.2190     6.9700     2.2080 H     1 <1>   0.0800 
 48 H        6.6690     7.7610     2.1410 H     1 <1>   0.0800 
 49 H        7.8720     8.0760     0.9090 H     1 <1>   0.0800 
@<TRIPOS>BOND
  1   1   2  ar  
  2   2   3  ar  
  3   2   4  1   
  4   4   5  1   
  5   4   6  1   
  6   4   7  1   
  7   5   8  1   
  8   5   9  1   
  9   5  23  1   
 10   6  10  1   
 11   6  24  1   
 12   6  25  1   
 13   7  11  1   
 14   7  26  1   
 15   7  27  1   
 16   8  28  1   
 17   9  12  1   
 18   9  29  1   
 19   9  30  1   
 20  10  12  1   
 21  10  31  1   
 22  10  32  1   
 23  11  13  1   
 24  11  33  1   
 25  11  34  1   
 26  12  14  1   
 27  12  35  1   
 28  13  36  1   
 29  13  37  1   
 30  13  38  1   
 31  14  15  1   
 32  14  39  1   
 33  14  40  1   
 34  15  16  ar  
 35  15  17  ar  
 36  16  18  ar  
 37  16  41  1   
 38  17  19  ar  
 39  17  42  1   
 40  18  20  ar  
 41  18  21  1   
 42  19  20  ar  
 43  19  43  1   
 44  20  22  1   
 45  21  44  1   
 46  21  45  1   
 47  21  46  1   
 48  22  47  1   
 49  22  48  1   
 50  22  49  1   
@<TRIPOS>SUBSTRUCTURE
  1 ****  10 GROUP 4 **** **** 0

# MOE 2024.06 (io_trps.svl 2023.06)
