@<TRIPOS>MOLECULE
NONAME
51 53 1 0 0 
SMALL
USER_CHARGES


@<TRIPOS>ATOM
  1 F       -2.0980     3.9840    -2.2630 F     1 <1>  -0.1900 
  2 C       -1.2140     4.0910    -1.3100 C.ar  1 <1>   0.1900 
  3 C       -0.1530     4.9350    -1.4660 C.ar  1 <1>  -0.1500 
  4 C       -1.3970     3.3280    -0.1580 C.ar  1 <1>  -0.1500 
  5 C        0.8020     5.0580    -0.4460 C.ar  1 <1>   0.3100 
  6 C       -0.4760     3.4330     0.8500 C.ar  1 <1>  -0.1500 
  7 N        1.8330     5.9100    -0.6540 N.ar  1 <1>  -0.6200 
  8 C        0.6410     4.2920     0.7380 C.ar  1 <1>   0.0000 
  9 C        2.7270     6.0130     0.2890 C.ar  1 <1>   0.4100 
 10 C        1.6200     4.4420     1.7460 C.ar  1 <1>  -0.1440 
 11 N        3.7950     6.8630     0.0760 N.pl3 1 <1>  -0.8380 
 12 C        2.6440     5.3020     1.5010 C.ar  1 <1>  -0.1500 
 13 C        1.5410     3.6790     3.0610 C.3   1 <1>  -0.0970 
 14 C        3.6340     8.0030    -0.8630 C.3   1 <1>   0.2090 
 15 C        5.1660     6.2940     0.0910 C.3   1 <1>   0.2090 
 16 C        4.5430     9.1780    -0.4520 C.3   1 <1>   0.0000 
 17 C        6.1630     7.3920     0.4750 C.3   1 <1>  -0.1600 
 18 C        6.0100     8.6570    -0.3930 C.3   1 <1>  -0.1600 
 19 C        4.0430     9.6660     0.9300 C.3   1 <1>   0.1200 
 20 C        4.3140    10.2910    -1.5080 C.3   1 <1>   0.3430 
 21 O        4.6710    10.8470     1.3000 O.3   1 <1>  -0.6800 
 22 N        5.5460    11.0060    -1.9980 N.4   1 <1>  -0.9590 
 23 C        6.0230    12.0280    -1.0130 C.3   1 <1>   0.2630 
 24 C        5.2920    11.6510    -3.3210 C.3   1 <1>   0.2630 
 25 H       -0.0310     5.5120    -2.3620 H     1 <1>   0.1500 
 26 H       -2.2520     2.6790    -0.0880 H     1 <1>   0.1500 
 27 H       -0.6060     2.8490     1.7430 H     1 <1>   0.1500 
 28 H        3.4160     5.4740     2.2260 H     1 <1>   0.1500 
 29 H        0.6320     3.9280     3.5780 H     1 <1>   0.0800 
 30 H        2.3710     3.9270     3.6990 H     1 <1>   0.0800 
 31 H        1.5630     2.6200     2.8750 H     1 <1>   0.0800 
 32 H        2.6040     8.3210    -0.8650 H     1 <1>   0.0800 
 33 H        3.8770     7.6630    -1.8560 H     1 <1>   0.0800 
 34 H        5.3970     5.9120    -0.8900 H     1 <1>   0.0800 
 35 H        5.2310     5.4780     0.7890 H     1 <1>   0.0800 
 36 H        7.1620     7.0050     0.3740 H     1 <1>   0.0800 
 37 H        6.0250     7.6340     1.5140 H     1 <1>   0.0800 
 38 H        6.6640     9.4150     0.0010 H     1 <1>   0.0800 
 39 H        6.3410     8.4080    -1.3860 H     1 <1>   0.0800 
 40 H        4.2300     8.9300     1.6930 H     1 <1>   0.0800 
 41 H        2.9820     9.8540     0.9050 H     1 <1>   0.0800 
 42 H        3.6170    11.0100    -1.1110 H     1 <1>   0.0800 
 43 H        3.8390     9.8330    -2.3610 H     1 <1>   0.0800 
 44 H        4.4490    11.0620     2.2320 H     1 <1>   0.4000 
 45 H        6.2890    10.3020    -2.1070 H     1 <1>   0.4500 
 46 H        5.2300    12.7160    -0.7710 H     1 <1>   0.0800 
 47 H        6.8550    12.5810    -1.4170 H     1 <1>   0.0800 
 48 H        6.3450    11.5490    -0.1030 H     1 <1>   0.0800 
 49 H        4.5160    12.3940    -3.2320 H     1 <1>   0.0800 
 50 H        4.9830    10.9140    -4.0450 H     1 <1>   0.0800 
 51 H        6.1880    12.1300    -3.6810 H     1 <1>   0.0800 
@<TRIPOS>BOND
  1   1   2  1   
  2   2   3  ar  
  3   2   4  ar  
  4   3   5  ar  
  5   3  25  1   
  6   4   6  ar  
  7   4  26  1   
  8   5   7  ar  
  9   5   8  ar  
 10   6   8  ar  
 11   6  27  1   
 12   7   9  ar  
 13   8  10  ar  
 14   9  11  1   
 15   9  12  ar  
 16  10  12  ar  
 17  10  13  1   
 18  11  14  1   
 19  11  15  1   
 20  12  28  1   
 21  13  29  1   
 22  13  30  1   
 23  13  31  1   
 24  14  16  1   
 25  14  32  1   
 26  14  33  1   
 27  15  17  1   
 28  15  34  1   
 29  15  35  1   
 30  16  18  1   
 31  16  19  1   
 32  16  20  1   
 33  17  18  1   
 34  17  36  1   
 35  17  37  1   
 36  18  38  1   
 37  18  39  1   
 38  19  21  1   
 39  19  40  1   
 40  19  41  1   
 41  20  22  1   
 42  20  42  1   
 43  20  43  1   
 44  21  44  1   
 45  22  23  1   
 46  22  24  1   
 47  22  45  1   
 48  23  46  1   
 49  23  47  1   
 50  23  48  1   
 51  24  49  1   
 52  24  50  1   
 53  24  51  1   
@<TRIPOS>SUBSTRUCTURE
  1 ****   9 GROUP 4 **** **** 0

# MOE 2024.06 (io_trps.svl 2023.06)
