@<TRIPOS>MOLECULE
NONAME
44 46 1 0 0 
SMALL
USER_CHARGES


@<TRIPOS>ATOM
  1 O       -0.7990    -1.3130    -1.4000 O.2   1 <1>  -0.5700 
  2 C        0.0400    -1.9800    -0.8530 C.2   1 <1>   0.5690 
  3 N       -0.2770    -2.8440     0.1340 N.am  1 <1>  -0.7300 
  4 C        1.4990    -1.8700    -1.2410 C.3   1 <1>  -0.0990 
  5 C        0.7250    -3.6790     0.8270 C.3   1 <1>   0.1400 
  6 C        2.1490    -3.2670    -1.3260 C.3   1 <1>  -0.0800 
  7 C        1.7260    -4.2420    -0.2010 C.3   1 <1>  -0.0800 
  8 C        3.6820    -3.2220    -1.2970 C.3   1 <1>  -0.1600 
  9 C        3.0300    -4.7300     0.4430 C.3   1 <1>  -0.1600 
 10 C        4.0990    -4.5310    -0.6280 C.3   1 <1>   0.2200 
 11 N        5.4670    -4.4990    -0.0440 N.am  1 <1>  -0.6600 
 12 C        6.4550    -3.7990    -0.6900 C.2   1 <1>   0.5440 
 13 C        5.8690    -5.7680     0.6240 C.3   1 <1>   0.0600 
 14 O        7.0300    -4.3520    -1.6090 O.2   1 <1>  -0.5700 
 15 C        6.8120    -2.4460    -0.2920 C.ar  1 <1>   0.0860 
 16 C        7.6700    -1.6650    -1.0670 C.ar  1 <1>  -0.1500 
 17 C        6.3210    -1.8600     0.8760 C.ar  1 <1>  -0.1500 
 18 C        8.0160    -0.3770    -0.7010 C.ar  1 <1>  -0.1500 
 19 C        6.6650    -0.5730     1.2430 C.ar  1 <1>  -0.1500 
 20 C        7.5260     0.2050     0.4690 C.ar  1 <1>   0.0860 
 21 C        7.8820     1.5530     0.8750 C.2   1 <1>   0.5440 
 22 O        7.1730     2.2040     1.6110 O.2   1 <1>  -0.5700 
 23 N        9.0260     2.1520     0.4690 N.am  1 <1>  -0.8000 
 24 H       -1.2560    -2.8980     0.4210 H     1 <1>   0.3700 
 25 H        1.5840    -1.3630    -2.1850 H     1 <1>   0.0800 
 26 H        1.9860    -1.2720    -0.4930 H     1 <1>   0.0800 
 27 H        1.2360    -3.0650     1.5500 H     1 <1>   0.0800 
 28 H        0.2360    -4.4850     1.3470 H     1 <1>   0.0800 
 29 H        1.8430    -3.7110    -2.2600 H     1 <1>   0.0800 
 30 H        1.2560    -5.0890    -0.6730 H     1 <1>   0.0800 
 31 H        4.0030    -2.3920    -0.6950 H     1 <1>   0.0800 
 32 H        4.0940    -3.1340    -2.2870 H     1 <1>   0.0800 
 33 H        2.9550    -5.7600     0.7450 H     1 <1>   0.0800 
 34 H        3.2740    -4.1180     1.2940 H     1 <1>   0.0800 
 35 H        4.0380    -5.3290    -1.3510 H     1 <1>   0.0800 
 36 H        5.3680    -5.8620     1.5700 H     1 <1>   0.0800 
 37 H        6.9330    -5.7730     0.7940 H     1 <1>   0.0800 
 38 H        5.6200    -6.6080    -0.0020 H     1 <1>   0.0800 
 39 H        8.0680    -2.0830    -1.9770 H     1 <1>   0.1500 
 40 H        5.6580    -2.4240     1.5080 H     1 <1>   0.1500 
 41 H        8.6730     0.1860    -1.3390 H     1 <1>   0.1500 
 42 H        6.2630    -0.1520     2.1490 H     1 <1>   0.1500 
 43 H        9.2320     3.0880     0.8200 H     1 <1>   0.3700 
 44 H        9.7730     1.6750    -0.0320 H     1 <1>   0.3700 
@<TRIPOS>BOND
  1   1   2  2   
  2   2   3  am  
  3   2   4  1   
  4   3   5  1   
  5   3  24  1   
  6   4   6  1   
  7   4  25  1   
  8   4  26  1   
  9   5   7  1   
 10   5  27  1   
 11   5  28  1   
 12   6   7  1   
 13   6   8  1   
 14   6  29  1   
 15   7   9  1   
 16   7  30  1   
 17   8  10  1   
 18   8  31  1   
 19   8  32  1   
 20   9  10  1   
 21   9  33  1   
 22   9  34  1   
 23  10  11  1   
 24  10  35  1   
 25  11  12  am  
 26  11  13  1   
 27  12  14  2   
 28  12  15  1   
 29  13  36  1   
 30  13  37  1   
 31  13  38  1   
 32  15  16  ar  
 33  15  17  ar  
 34  16  18  ar  
 35  16  39  1   
 36  17  19  ar  
 37  17  40  1   
 38  18  20  ar  
 39  18  41  1   
 40  19  20  ar  
 41  19  42  1   
 42  20  21  1   
 43  21  22  2   
 44  21  23  am  
 45  23  43  1   
 46  23  44  1   
@<TRIPOS>SUBSTRUCTURE
  1 ****   8 GROUP 4 **** **** 0

# MOE 2024.06 (io_trps.svl 2023.06)
