@<TRIPOS>MOLECULE
NONAME
47 50 1 0 0 
SMALL
USER_CHARGES


@<TRIPOS>ATOM
  1 S       -0.5350    -0.9440     1.6400 S.3   1 <1>  -0.1570 
  2 C       -2.2840    -0.7670     1.4270 C.2   1 <1>   0.2420 
  3 C       -0.2580     0.6210     0.8290 C.2   1 <1>  -0.0370 
  4 N       -3.2840    -1.5180     1.7510 N.2   1 <1>  -0.5650 
  5 N       -2.5590     0.3910     0.7990 N.pl3 1 <1>   0.3340 
  6 C       -1.4280     1.1730     0.4590 C.2   1 <1>  -0.1690 
  7 C        1.1940     1.0380     0.7040 C.3   1 <1>  -0.1020 
  8 C       -4.3270    -0.7830     1.2870 C.2   1 <1>   0.0460 
  9 C       -3.9070     0.3730     0.7090 C.2   1 <1>  -0.3020 
 10 C       -1.6630     2.4940    -0.2580 C.3   1 <1>  -0.1020 
 11 C       -5.7540    -1.2910     1.4270 C.3   1 <1>   0.3210 
 12 N       -5.8420    -2.6040     0.7650 N.am  1 <1>  -0.7300 
 13 C       -6.8420    -3.0160    -0.0510 C.2   1 <1>   0.5690 
 14 O       -7.8380    -2.3510    -0.2020 O.2   1 <1>  -0.5700 
 15 C       -6.7030    -4.3530    -0.7820 C.3   1 <1>   0.2610 
 16 O       -5.3340    -4.6320    -1.0510 O.3   1 <1>  -0.5600 
 17 C       -7.3440    -5.4730     0.0760 C.3   1 <1>   0.3640 
 18 C       -5.1090    -5.8240    -1.7710 C.3   1 <1>   0.1810 
 19 N       -6.8450    -6.8190    -0.2990 N.am  1 <1>  -0.7300 
 20 C       -8.8650    -5.4730    -0.0380 C.ar  1 <1>  -0.1440 
 21 C       -5.8220    -7.0300    -1.1560 C.2   1 <1>   0.5690 
 22 C       -9.5060    -6.0200    -1.1440 C.ar  1 <1>  -0.1500 
 23 C       -9.6330    -4.9120     0.9730 C.ar  1 <1>  -0.1500 
 24 O       -5.4910    -8.1490    -1.4560 O.2   1 <1>  -0.5700 
 25 C      -10.8870    -6.0120    -1.2320 C.ar  1 <1>  -0.1500 
 26 C      -11.0140    -4.9030     0.8860 C.ar  1 <1>  -0.1500 
 27 C      -11.6420    -5.4540    -0.2160 C.ar  1 <1>  -0.1500 
 28 H        1.7350     0.3010     0.1390 H     1 <1>   0.0800 
 29 H        1.6340     1.1180     1.6820 H     1 <1>   0.0800 
 30 H        1.2790     1.9860     0.2080 H     1 <1>   0.0800 
 31 H       -4.4660     1.1630     0.2460 H     1 <1>   0.1500 
 32 H       -2.2720     3.1400     0.3490 H     1 <1>   0.0800 
 33 H       -2.1660     2.3210    -1.1930 H     1 <1>   0.0800 
 34 H       -0.7330     2.9920    -0.4590 H     1 <1>   0.0800 
 35 H       -6.4440    -0.5980     0.9780 H     1 <1>   0.0800 
 36 H       -5.9950    -1.4010     2.4700 H     1 <1>   0.0800 
 37 H       -4.9430    -3.1010     0.7510 H     1 <1>   0.3700 
 38 H       -7.2160    -4.2760    -1.7240 H     1 <1>   0.0800 
 39 H       -7.0740    -5.3020     1.1040 H     1 <1>   0.0800 
 40 H       -5.4480    -5.6810    -2.7810 H     1 <1>   0.0800 
 41 H       -4.0490    -6.0040    -1.7830 H     1 <1>   0.0800 
 42 H       -7.3440    -7.6240     0.0840 H     1 <1>   0.3700 
 43 H       -8.9360    -6.4590    -1.9440 H     1 <1>   0.1500 
 44 H       -9.1630    -4.4710     1.8360 H     1 <1>   0.1500 
 45 H      -11.3750    -6.4390    -2.0910 H     1 <1>   0.1500 
 46 H      -11.6000    -4.4640     1.6740 H     1 <1>   0.1500 
 47 H      -12.7160    -5.4460    -0.2840 H     1 <1>   0.1500 
@<TRIPOS>BOND
  1   1   2  1   
  2   1   3  1   
  3   2   4  2   
  4   2   5  1   
  5   3   6  2   
  6   3   7  1   
  7   4   8  1   
  8   5   6  1   
  9   5   9  1   
 10   6  10  1   
 11   7  28  1   
 12   7  29  1   
 13   7  30  1   
 14   8   9  2   
 15   8  11  1   
 16   9  31  1   
 17  10  32  1   
 18  10  33  1   
 19  10  34  1   
 20  11  12  1   
 21  11  35  1   
 22  11  36  1   
 23  12  13  am  
 24  12  37  1   
 25  13  14  2   
 26  13  15  1   
 27  15  16  1   
 28  15  17  1   
 29  15  38  1   
 30  16  18  1   
 31  17  19  1   
 32  17  20  1   
 33  17  39  1   
 34  18  21  1   
 35  18  40  1   
 36  18  41  1   
 37  19  21  am  
 38  19  42  1   
 39  20  22  ar  
 40  20  23  ar  
 41  21  24  2   
 42  22  25  ar  
 43  22  43  1   
 44  23  26  ar  
 45  23  44  1   
 46  25  27  ar  
 47  25  45  1   
 48  26  27  ar  
 49  26  46  1   
 50  27  47  1   
@<TRIPOS>SUBSTRUCTURE
  1 ****  12 GROUP 4 **** **** 0

# MOE 2024.06 (io_trps.svl 2023.06)
