@<TRIPOS>MOLECULE
NONAME
46 48 1 0 0 
SMALL
USER_CHARGES


@<TRIPOS>ATOM
  1 O       -0.6780    -1.1470     0.7570 O.3   1 <1>  -0.3630 
  2 C       -1.9210    -1.3880     0.2460 C.ar  1 <1>   0.0830 
  3 C       -0.1820     0.1730     0.8350 C.3   1 <1>   0.0400 
  4 C       -2.8040    -0.4190    -0.1940 C.ar  1 <1>   0.1600 
  5 C       -2.3510    -2.6930     0.1550 C.ar  1 <1>   0.1600 
  6 N       -3.9890    -0.7160    -0.6770 N.ar  1 <1>  -0.6200 
  7 N       -3.5310    -3.0250    -0.3240 N.ar  1 <1>  -0.6200 
  8 C       -4.2930    -2.0070    -0.7290 C.ar  1 <1>   0.7200 
  9 N       -5.5330    -2.3280    -1.2340 N.pl3 1 <1>  -0.8380 
 10 C       -5.7880    -3.6900    -1.7630 C.3   1 <1>   0.2090 
 11 C       -6.7300    -1.6590    -0.6610 C.3   1 <1>   0.2090 
 12 C       -6.3120    -4.5910    -0.6200 C.3   1 <1>   0.4230 
 13 C       -7.2680    -2.5310     0.4810 C.3   1 <1>  -0.1600 
 14 N       -6.4360    -6.0660    -0.9900 N.4   1 <1>  -0.9590 
 15 C       -7.5850    -3.9960     0.0570 C.3   1 <1>   0.0000 
 16 C       -7.3120    -6.8570    -0.0670 C.3   1 <1>   0.3430 
 17 C       -6.8070    -6.3420    -2.4160 C.3   1 <1>   0.2630 
 18 C       -7.9200    -4.8220     1.3350 C.3   1 <1>  -0.1600 
 19 C       -8.7810    -4.0200    -0.9370 C.3   1 <1>   0.1200 
 20 C       -7.3280    -6.2440     1.3320 C.3   1 <1>  -0.1600 
 21 O       -9.8760    -3.3330    -0.4410 O.3   1 <1>  -0.6800 
 22 H        0.8090     0.1330     1.2510 H     1 <1>   0.0800 
 23 H       -0.8220     0.7520     1.4770 H     1 <1>   0.0800 
 24 H       -0.1440     0.5940    -0.1550 H     1 <1>   0.0800 
 25 H       -2.5410     0.6220    -0.1530 H     1 <1>   0.1500 
 26 H       -1.6930    -3.4760     0.4900 H     1 <1>   0.1500 
 27 H       -6.4990    -3.6150    -2.5650 H     1 <1>   0.0800 
 28 H       -4.8740    -4.0940    -2.1630 H     1 <1>   0.0800 
 29 H       -6.4760    -0.6820    -0.2830 H     1 <1>   0.0800 
 30 H       -7.4760    -1.5260    -1.4270 H     1 <1>   0.0800 
 31 H       -5.5460    -4.5370     0.1370 H     1 <1>   0.0800 
 32 H       -6.5210    -2.5280     1.2560 H     1 <1>   0.0800 
 33 H       -8.1400    -2.0560     0.8950 H     1 <1>   0.0800 
 34 H       -5.4810    -6.4320    -0.8550 H     1 <1>   0.4500 
 35 H       -8.3220    -6.8710    -0.4440 H     1 <1>   0.0800 
 36 H       -6.9640    -7.8770    -0.0150 H     1 <1>   0.0800 
 37 H       -7.7820    -5.9390    -2.6380 H     1 <1>   0.0800 
 38 H       -6.8280    -7.4050    -2.5970 H     1 <1>   0.0800 
 39 H       -6.0880    -5.9010    -3.0870 H     1 <1>   0.0800 
 40 H       -7.5470    -4.3240     2.2150 H     1 <1>   0.0800 
 41 H       -8.9860    -4.8890     1.4640 H     1 <1>   0.0800 
 42 H       -9.1010    -5.0250    -1.1450 H     1 <1>   0.0800 
 43 H       -8.5260    -3.5460    -1.8680 H     1 <1>   0.0800 
 44 H       -7.9100    -6.8700     1.9870 H     1 <1>   0.0800 
 45 H       -6.3240    -6.2290     1.7220 H     1 <1>   0.0800 
 46 H      -10.2090    -3.7180     0.3940 H     1 <1>   0.4000 
@<TRIPOS>BOND
  1   1   2  1   
  2   1   3  1   
  3   2   4  ar  
  4   2   5  ar  
  5   3  22  1   
  6   3  23  1   
  7   3  24  1   
  8   4   6  ar  
  9   4  25  1   
 10   5   7  ar  
 11   5  26  1   
 12   6   8  ar  
 13   7   8  ar  
 14   8   9  1   
 15   9  10  1   
 16   9  11  1   
 17  10  12  1   
 18  10  27  1   
 19  10  28  1   
 20  11  13  1   
 21  11  29  1   
 22  11  30  1   
 23  12  14  1   
 24  12  15  1   
 25  12  31  1   
 26  13  15  1   
 27  13  32  1   
 28  13  33  1   
 29  14  16  1   
 30  14  17  1   
 31  14  34  1   
 32  15  18  1   
 33  15  19  1   
 34  16  20  1   
 35  16  35  1   
 36  16  36  1   
 37  17  37  1   
 38  17  38  1   
 39  17  39  1   
 40  18  20  1   
 41  18  40  1   
 42  18  41  1   
 43  19  21  1   
 44  19  42  1   
 45  19  43  1   
 46  20  44  1   
 47  20  45  1   
 48  21  46  1   
@<TRIPOS>SUBSTRUCTURE
  1 ****   9 GROUP 4 **** **** 0

# MOE 2024.06 (io_trps.svl 2023.06)
