@<TRIPOS>MOLECULE
NONAME
51 54 1 0 0 
SMALL
USER_CHARGES


@<TRIPOS>ATOM
  1 CL      -0.4490     0.1100    -0.6850 Cl    1 <1>  -0.1770 
  2 C       -1.7500     0.9890     0.0770 C.ar  1 <1>   0.1770 
  3 C       -1.8670     2.3460    -0.1440 C.ar  1 <1>  -0.1500 
  4 C       -2.6390     0.3090     0.8880 C.ar  1 <1>  -0.1500 
  5 C       -2.8980     3.0610     0.4550 C.ar  1 <1>   0.1170 
  6 C       -3.6680     1.0120     1.4910 C.ar  1 <1>  -0.1500 
  7 N       -2.9850     4.4410     0.2270 N.am  1 <1>  -0.5470 
  8 C       -3.7910     2.3750     1.2760 C.ar  1 <1>  -0.1500 
  9 C       -4.0510     5.2950     0.2710 C.2   1 <1>   0.6900 
 10 O       -5.1840     4.8690     0.3960 O.2   1 <1>  -0.5700 
 11 N       -3.8120     6.6440     0.1410 N.am  1 <1>  -0.6600 
 12 C       -4.9760     7.5690    -0.2210 C.3   1 <1>   0.2200 
 13 C       -2.5800     7.1850     0.7700 C.3   1 <1>   0.1400 
 14 C       -4.9750     9.1860    -0.0820 C.3   1 <1>   0.1380 
 15 C       -5.4460     7.2250    -1.6450 C.3   1 <1>  -0.1600 
 16 C       -2.7010     8.6700     1.0140 C.3   1 <1>  -0.1600 
 17 C       -5.0310    10.7280     0.1040 C.2   1 <1>  -0.2760 
 18 C       -6.5770     9.1810    -0.0300 C.3   1 <1>   0.1200 
 19 C       -3.3960     9.2930    -0.1920 C.3   1 <1>  -0.1600 
 20 C       -6.9180     7.6090    -1.7620 C.3   1 <1>   0.1200 
 21 C       -4.9490    11.3550     1.2860 C.2   1 <1>  -0.2880 
 22 C       -5.2010    11.5580    -1.1730 C.3   1 <1>  -0.0220 
 23 O       -7.0910     8.9120    -1.3120 O.3   1 <1>  -0.5600 
 24 C       -5.0300    12.8690     1.4410 C.3   1 <1>   0.2580 
 25 C       -4.8670    13.0320    -0.9050 C.3   1 <1>   0.1200 
 26 O       -5.5010    13.4600     0.2640 O.3   1 <1>  -0.5600 
 27 H       -1.1590     2.8370    -0.7830 H     1 <1>   0.1500 
 28 H       -2.5260    -0.7490     1.0420 H     1 <1>   0.1500 
 29 H       -4.3710     0.5020     2.1270 H     1 <1>   0.1500 
 30 H       -2.1580     4.8790    -0.1610 H     1 <1>   0.3700 
 31 H       -4.5920     2.9090     1.7540 H     1 <1>   0.1500 
 32 H       -5.7200     7.1730     0.4450 H     1 <1>   0.0800 
 33 H       -2.3850     6.6790     1.7020 H     1 <1>   0.0800 
 34 H       -1.7520     7.0090     0.1040 H     1 <1>   0.0800 
 35 H       -5.3590     6.1760    -1.8570 H     1 <1>   0.0800 
 36 H       -4.8730     7.7660    -2.3750 H     1 <1>   0.0800 
 37 H       -3.2580     8.8600     1.9150 H     1 <1>   0.0800 
 38 H       -1.7160     9.0850     1.1380 H     1 <1>   0.0800 
 39 H       -7.0540    10.1060     0.2590 H     1 <1>   0.0800 
 40 H       -7.0110     8.4900     0.6710 H     1 <1>   0.0800 
 41 H       -3.0670     8.8150    -1.1010 H     1 <1>   0.0800 
 42 H       -2.9550    10.2760    -0.2910 H     1 <1>   0.0800 
 43 H       -7.5330     6.9600    -1.1610 H     1 <1>   0.0800 
 44 H       -7.2510     7.5600    -2.7850 H     1 <1>   0.0800 
 45 H       -4.8200    10.8450     2.2230 H     1 <1>   0.1500 
 46 H       -6.2130    11.4880    -1.5310 H     1 <1>   0.0800 
 47 H       -4.5560    11.1930    -1.9510 H     1 <1>   0.0800 
 48 H       -4.0640    13.2830     1.6700 H     1 <1>   0.0800 
 49 H       -5.7200    13.1280     2.2250 H     1 <1>   0.0800 
 50 H       -5.2120    13.6500    -1.7150 H     1 <1>   0.0800 
 51 H       -3.8060    13.1680    -0.7840 H     1 <1>   0.0800 
@<TRIPOS>BOND
  1   1   2  1   
  2   2   3  ar  
  3   2   4  ar  
  4   3   5  ar  
  5   3  27  1   
  6   4   6  ar  
  7   4  28  1   
  8   5   7  1   
  9   5   8  ar  
 10   6   8  ar  
 11   6  29  1   
 12   7   9  am  
 13   7  30  1   
 14   8  31  1   
 15   9  10  2   
 16   9  11  am  
 17  11  12  1   
 18  11  13  1   
 19  12  14  1   
 20  12  15  1   
 21  12  32  1   
 22  13  16  1   
 23  13  33  1   
 24  13  34  1   
 25  14  17  1   
 26  14  18  1   
 27  14  19  1   
 28  15  20  1   
 29  15  35  1   
 30  15  36  1   
 31  16  19  1   
 32  16  37  1   
 33  16  38  1   
 34  17  21  2   
 35  17  22  1   
 36  18  23  1   
 37  18  39  1   
 38  18  40  1   
 39  19  41  1   
 40  19  42  1   
 41  20  23  1   
 42  20  43  1   
 43  20  44  1   
 44  21  24  1   
 45  21  45  1   
 46  22  25  1   
 47  22  46  1   
 48  22  47  1   
 49  24  26  1   
 50  24  48  1   
 51  24  49  1   
 52  25  26  1   
 53  25  50  1   
 54  25  51  1   
@<TRIPOS>SUBSTRUCTURE
  1 ****  11 GROUP 4 **** **** 0

# MOE 2024.06 (io_trps.svl 2023.06)
