@<TRIPOS>MOLECULE
NONAME
64 68 1 0 0 
SMALL
USER_CHARGES


@<TRIPOS>ATOM
  1 O       -3.5060     0.7050     0.6000 O.2   1 <1>  -0.5700 
  2 C       -2.5140     1.2590     0.1860 C.2   1 <1>   0.5690 
  3 N       -2.5750     2.4820    -0.4260 N.am  1 <1>  -0.6600 
  4 C       -1.1830     0.5490     0.3630 C.3   1 <1>  -0.0990 
  5 C       -1.4060     3.1500    -1.0510 C.3   1 <1>   0.1400 
  6 C       -3.8590     3.2320    -0.4790 C.3   1 <1>   0.1400 
  7 C       -0.1940     1.3300     1.2460 C.3   1 <1>  -0.1600 
  8 C       -0.4030     3.5970     0.0170 C.3   1 <1>  -0.1600 
  9 C       -4.6340     2.8410    -1.7340 C.3   1 <1>  -0.0990 
 10 C        0.5210     2.4710     0.5080 C.3   1 <1>  -0.1600 
 11 C       -6.0380     3.4020    -1.6580 C.2   1 <1>   0.5690 
 12 O       -6.2010     4.5260    -2.0700 O.2   1 <1>  -0.5700 
 13 N       -7.0650     2.6660    -1.1270 N.am  1 <1>  -0.6600 
 14 C       -8.4620     3.1970    -1.1110 C.3   1 <1>   0.1400 
 15 C       -6.8910     1.3550    -0.4200 C.3   1 <1>   0.1400 
 16 C       -8.9220     3.4810     0.3360 C.3   1 <1>   0.1430 
 17 C       -8.0040     1.1070     0.6140 C.3   1 <1>  -0.1600 
 18 C      -10.4390     3.5800     0.3240 C.ar  1 <1>   0.1670 
 19 C       -8.3990     2.4090     1.3310 C.3   1 <1>  -0.1600 
 20 C       -8.5090     4.9080     0.7820 C.3   1 <1>  -0.1600 
 21 N      -11.2700     2.5690     0.2420 N.ar  1 <1>  -0.6200 
 22 C      -10.8560     4.8740     0.3960 C.ar  1 <1>  -0.1440 
 23 C       -9.6950     5.8340     0.4670 C.3   1 <1>  -0.0170 
 24 C      -12.5730     2.8780     0.2440 C.ar  1 <1>   0.6200 
 25 C      -12.2060     5.1100     0.3880 C.ar  1 <1>   0.1600 
 26 N      -13.0690     4.1230     0.3140 N.ar  1 <1>  -0.6200 
 27 C      -13.5230     1.7750     0.1630 C.ar  1 <1>   0.0000 
 28 C      -14.8030     1.9450    -0.3750 C.ar  1 <1>  -0.1500 
 29 C      -13.2000     0.4940     0.6200 C.ar  1 <1>  -0.1500 
 30 C      -15.7060     0.9010    -0.4530 C.ar  1 <1>  -0.1500 
 31 C      -14.0980    -0.5560     0.5450 C.ar  1 <1>  -0.1500 
 32 C      -15.3550    -0.3550     0.0070 C.ar  1 <1>  -0.1500 
 33 H       -0.7540     0.3430    -0.5990 H     1 <1>   0.0800 
 34 H       -1.3810    -0.3980     0.8330 H     1 <1>   0.0800 
 35 H       -1.7420     4.0130    -1.6010 H     1 <1>   0.0800 
 36 H       -0.9360     2.4820    -1.7520 H     1 <1>   0.0800 
 37 H       -3.6750     4.2930    -0.4690 H     1 <1>   0.0800 
 38 H       -4.4410     2.9970     0.3970 H     1 <1>   0.0800 
 39 H        0.5550     0.6430     1.6020 H     1 <1>   0.0800 
 40 H       -0.7100     1.7170     2.1080 H     1 <1>   0.0800 
 41 H       -0.9270     4.0430     0.8450 H     1 <1>   0.0800 
 42 H        0.2180     4.3610    -0.4160 H     1 <1>   0.0800 
 43 H       -4.6700     1.7740    -1.8390 H     1 <1>   0.0800 
 44 H       -4.1460     3.2480    -2.6000 H     1 <1>   0.0800 
 45 H        1.0680     2.0670    -0.3270 H     1 <1>   0.0800 
 46 H        1.2450     2.9010     1.1800 H     1 <1>   0.0800 
 47 H       -9.1070     2.4560    -1.5520 H     1 <1>   0.0800 
 48 H       -8.5460     4.0870    -1.7100 H     1 <1>   0.0800 
 49 H       -5.9480     1.3500     0.0960 H     1 <1>   0.0800 
 50 H       -6.8800     0.5560    -1.1420 H     1 <1>   0.0800 
 51 H       -7.6630     0.3800     1.3300 H     1 <1>   0.0800 
 52 H       -8.8670     0.6910     0.1210 H     1 <1>   0.0800 
 53 H       -9.1430     2.2070     2.0820 H     1 <1>   0.0800 
 54 H       -7.5220     2.7780     1.8320 H     1 <1>   0.0800 
 55 H       -7.6030     5.2370     0.3020 H     1 <1>   0.0800 
 56 H       -8.3550     4.9220     1.8470 H     1 <1>   0.0800 
 57 H       -9.5600     6.3120    -0.4890 H     1 <1>   0.0800 
 58 H       -9.8330     6.5770     1.2330 H     1 <1>   0.0800 
 59 H      -12.5830     6.1170     0.4440 H     1 <1>   0.1500 
 60 H      -15.0960     2.9150    -0.7390 H     1 <1>   0.1500 
 61 H      -12.2270     0.3160     1.0440 H     1 <1>   0.1500 
 62 H      -16.6840     1.0650    -0.8720 H     1 <1>   0.1500 
 63 H      -13.8170    -1.5300     0.9050 H     1 <1>   0.1500 
 64 H      -16.0560    -1.1690    -0.0520 H     1 <1>   0.1500 
@<TRIPOS>BOND
  1   1   2  2   
  2   2   3  am  
  3   2   4  1   
  4   3   5  1   
  5   3   6  1   
  6   4   7  1   
  7   4  33  1   
  8   4  34  1   
  9   5   8  1   
 10   5  35  1   
 11   5  36  1   
 12   6   9  1   
 13   6  37  1   
 14   6  38  1   
 15   7  10  1   
 16   7  39  1   
 17   7  40  1   
 18   8  10  1   
 19   8  41  1   
 20   8  42  1   
 21   9  11  1   
 22   9  43  1   
 23   9  44  1   
 24  10  45  1   
 25  10  46  1   
 26  11  12  2   
 27  11  13  am  
 28  13  14  1   
 29  13  15  1   
 30  14  16  1   
 31  14  47  1   
 32  14  48  1   
 33  15  17  1   
 34  15  49  1   
 35  15  50  1   
 36  16  18  1   
 37  16  19  1   
 38  16  20  1   
 39  17  19  1   
 40  17  51  1   
 41  17  52  1   
 42  18  21  ar  
 43  18  22  ar  
 44  19  53  1   
 45  19  54  1   
 46  20  23  1   
 47  20  55  1   
 48  20  56  1   
 49  21  24  ar  
 50  22  23  1   
 51  22  25  ar  
 52  23  57  1   
 53  23  58  1   
 54  24  26  ar  
 55  24  27  1   
 56  25  26  ar  
 57  25  59  1   
 58  27  28  ar  
 59  27  29  ar  
 60  28  30  ar  
 61  28  60  1   
 62  29  31  ar  
 63  29  61  1   
 64  30  32  ar  
 65  30  62  1   
 66  31  32  ar  
 67  31  63  1   
 68  32  64  1   
@<TRIPOS>SUBSTRUCTURE
  1 ****  14 GROUP 4 **** **** 0

# MOE 2024.06 (io_trps.svl 2023.06)
