@<TRIPOS>MOLECULE
NONAME
48 51 1 0 0 
SMALL
USER_CHARGES


@<TRIPOS>ATOM
  1 CL      -2.8850    -2.5320    -1.0750 Cl    1 <1>  -0.1770 
  2 C       -2.8970    -0.8780    -0.5260 C.ar  1 <1>   0.1770 
  3 C       -3.9610    -0.0690    -0.8110 C.ar  1 <1>  -0.1500 
  4 C       -1.8050    -0.4090     0.2040 C.ar  1 <1>  -0.1500 
  5 C       -3.9910     1.2700    -0.3610 C.ar  1 <1>   0.0000 
  6 C       -1.8050     0.8910     0.6340 C.ar  1 <1>  -0.1500 
  7 C       -2.8780     1.7590     0.3610 C.ar  1 <1>   0.3100 
  8 C       -5.0710     2.1560    -0.5980 C.ar  1 <1>   0.0860 
  9 N       -2.7890     3.0350     0.8020 N.ar  1 <1>  -0.6200 
 10 C       -6.2820     1.7380    -1.2680 C.2   1 <1>   0.5440 
 11 C       -4.9190     3.4440    -0.1570 C.ar  1 <1>  -0.1500 
 12 C       -3.7710     3.8370     0.5350 C.ar  1 <1>   0.1660 
 13 O       -6.5810     2.2680    -2.3210 O.2   1 <1>  -0.5700 
 14 N       -7.1150     0.7700    -0.7360 N.am  1 <1>  -0.6600 
 15 C       -3.6390     5.2670     1.0150 C.3   1 <1>  -0.0970 
 16 C       -8.2230     0.2050    -1.5670 C.3   1 <1>   0.2200 
 17 C       -7.0020     0.3320     0.6900 C.3   1 <1>   0.0600 
 18 C       -8.4040    -1.3060    -1.4390 C.3   1 <1>  -0.1600 
 19 C       -9.5850     0.7850    -1.2020 C.3   1 <1>  -0.1600 
 20 C       -9.8230    -1.5560    -1.9670 C.3   1 <1>  -0.0800 
 21 C      -10.5990    -0.2330    -1.7430 C.3   1 <1>  -0.0800 
 22 C      -10.4680    -2.8260    -1.3740 C.3   1 <1>   0.1400 
 23 C      -11.8480    -0.3750    -0.8510 C.3   1 <1>  -0.0990 
 24 N      -11.9400    -2.7400    -1.4780 N.am  1 <1>  -0.7300 
 25 C      -12.6340    -1.6110    -1.2300 C.2   1 <1>   0.5690 
 26 O      -13.8360    -1.5830    -1.2960 O.2   1 <1>  -0.5700 
 27 H       -4.7800    -0.4620    -1.3870 H     1 <1>   0.1500 
 28 H       -0.9860    -1.0750     0.4100 H     1 <1>   0.1500 
 29 H       -0.9780     1.2890     1.1930 H     1 <1>   0.1500 
 30 H       -5.6970     4.1630    -0.3420 H     1 <1>   0.1500 
 31 H       -4.4880     5.8580     0.7250 H     1 <1>   0.0800 
 32 H       -2.7520     5.7050     0.5950 H     1 <1>   0.0800 
 33 H       -3.5550     5.2790     2.0870 H     1 <1>   0.0800 
 34 H       -8.0410     0.4190    -2.6080 H     1 <1>   0.0800 
 35 H       -7.9780     0.2010     1.1230 H     1 <1>   0.0800 
 36 H       -6.4770     1.0650     1.2760 H     1 <1>   0.0800 
 37 H       -6.4690    -0.6010     0.7420 H     1 <1>   0.0800 
 38 H       -7.6670    -1.8370    -2.0140 H     1 <1>   0.0800 
 39 H       -8.3520    -1.6100    -0.4110 H     1 <1>   0.0800 
 40 H       -9.6770     0.8720    -0.1350 H     1 <1>   0.0800 
 41 H       -9.7200     1.7540    -1.6500 H     1 <1>   0.0800 
 42 H       -9.7510    -1.7030    -3.0320 H     1 <1>   0.0800 
 43 H      -10.9310     0.1050    -2.7110 H     1 <1>   0.0800 
 44 H      -10.2110    -2.9250    -0.3330 H     1 <1>   0.0800 
 45 H      -10.1140    -3.6980    -1.8970 H     1 <1>   0.0800 
 46 H      -12.4730     0.4940    -0.9490 H     1 <1>   0.0800 
 47 H      -11.5660    -0.4740     0.1810 H     1 <1>   0.0800 
 48 H      -12.4720    -3.5830    -1.7020 H     1 <1>   0.3700 
@<TRIPOS>BOND
  1   1   2  1   
  2   2   3  ar  
  3   2   4  ar  
  4   3   5  ar  
  5   3  27  1   
  6   4   6  ar  
  7   4  28  1   
  8   5   7  ar  
  9   5   8  ar  
 10   6   7  ar  
 11   6  29  1   
 12   7   9  ar  
 13   8  10  1   
 14   8  11  ar  
 15   9  12  ar  
 16  10  13  2   
 17  10  14  am  
 18  11  12  ar  
 19  11  30  1   
 20  12  15  1   
 21  14  16  1   
 22  14  17  1   
 23  15  31  1   
 24  15  32  1   
 25  15  33  1   
 26  16  18  1   
 27  16  19  1   
 28  16  34  1   
 29  17  35  1   
 30  17  36  1   
 31  17  37  1   
 32  18  20  1   
 33  18  38  1   
 34  18  39  1   
 35  19  21  1   
 36  19  40  1   
 37  19  41  1   
 38  20  21  1   
 39  20  22  1   
 40  20  42  1   
 41  21  23  1   
 42  21  43  1   
 43  22  24  1   
 44  22  44  1   
 45  22  45  1   
 46  23  25  1   
 47  23  46  1   
 48  23  47  1   
 49  24  25  am  
 50  24  48  1   
 51  25  26  2   
@<TRIPOS>SUBSTRUCTURE
  1 ****  14 GROUP 4 **** **** 0

# MOE 2024.06 (io_trps.svl 2023.06)
