@<TRIPOS>MOLECULE
NONAME
43 45 1 0 0 
SMALL
USER_CHARGES


@<TRIPOS>ATOM
  1 S        2.5810     0.6330    -0.5120 S.o2  1 <1>   1.3330 
  2 O        3.1520    -0.2730     0.4520 O.2   1 <1>  -0.6500 
  3 O        3.4250     1.4670    -1.3330 O.2   1 <1>  -0.6500 
  4 N        1.5720     1.6430     0.4450 N.am  1 <1>  -0.7570 
  5 C        1.4170    -0.2910    -1.5280 C.3   1 <1>  -0.0550 
  6 C        1.3780     3.0080     0.3160 C.ar  1 <1>   0.1990 
  7 C        0.5590     0.5410    -2.5000 C.3   1 <1>  -0.2400 
  8 C        1.3890     3.6650    -0.9110 C.ar  1 <1>  -0.1500 
  9 C        1.1660     3.7710     1.4590 C.ar  1 <1>  -0.1500 
 10 C        1.2420     5.0350    -0.9840 C.ar  1 <1>  -0.1500 
 11 C        1.0270     5.1440     1.3860 C.ar  1 <1>  -0.1500 
 12 C        1.0950     5.8120     0.1640 C.ar  1 <1>   0.0860 
 13 C        1.0650     7.2550     0.0710 C.2   1 <1>   0.5440 
 14 O        0.1840     7.7810    -0.5850 O.2   1 <1>  -0.5700 
 15 N        2.0210     8.0510     0.6830 N.am  1 <1>  -0.5090 
 16 C        1.8950     9.5280     0.6920 C.3   1 <1>   0.0490 
 17 C        3.3280     7.5430     1.2150 C.3   1 <1>   0.3200 
 18 C        2.0560    10.2630     1.9880 C.3   1 <1>  -0.2000 
 19 C        0.7060    10.1440     1.3590 C.3   1 <1>  -0.2000 
 20 C        3.9820     6.4560     0.3730 C.2   1 <1>   0.1980 
 21 S        4.3490     6.8170    -1.3030 S.3   1 <1>  -0.0800 
 22 N        4.2970     5.2740     0.7340 N.2   1 <1>  -0.5650 
 23 C        4.9330     5.1900    -1.4980 C.2   1 <1>  -0.1100 
 24 C        4.8210     4.5480    -0.3250 C.2   1 <1>   0.0770 
 25 H        1.5940     1.2830     1.3940 H     1 <1>   0.4200 
 26 H        0.7590    -0.8410    -0.8830 H     1 <1>   0.0800 
 27 H        1.9690    -1.0110    -2.1020 H     1 <1>   0.0800 
 28 H       -0.0600     1.2320    -1.9550 H     1 <1>   0.0800 
 29 H       -0.0770    -0.1070    -3.0770 H     1 <1>   0.0800 
 30 H        1.1910     1.0920    -3.1750 H     1 <1>   0.0800 
 31 H        1.5300     3.1100    -1.8180 H     1 <1>   0.1500 
 32 H        1.1260     3.2860     2.4170 H     1 <1>   0.1500 
 33 H        1.2630     5.5270    -1.9410 H     1 <1>   0.1500 
 34 H        0.8770     5.7160     2.2850 H     1 <1>   0.1500 
 35 H        2.2440     9.9780    -0.2230 H     1 <1>   0.1000 
 36 H        3.1690     7.1620     2.2070 H     1 <1>   0.0800 
 37 H        4.0230     8.3600     1.2860 H     1 <1>   0.0800 
 38 H        2.5270    11.2300     1.9840 H     1 <1>   0.1000 
 39 H        2.2300     9.7190     2.8990 H     1 <1>   0.1000 
 40 H       -0.0300     9.4850     1.7860 H     1 <1>   0.1000 
 41 H        0.2650    11.0150     0.9070 H     1 <1>   0.1000 
 42 H        5.2910     4.8840    -2.4630 H     1 <1>   0.1500 
 43 H        5.0950     3.5200    -0.1470 H     1 <1>   0.1500 
@<TRIPOS>BOND
  1   1   2  2   
  2   1   3  2   
  3   1   4  am  
  4   1   5  1   
  5   4   6  1   
  6   4  25  1   
  7   5   7  1   
  8   5  26  1   
  9   5  27  1   
 10   6   8  ar  
 11   6   9  ar  
 12   7  28  1   
 13   7  29  1   
 14   7  30  1   
 15   8  10  ar  
 16   8  31  1   
 17   9  11  ar  
 18   9  32  1   
 19  10  12  ar  
 20  10  33  1   
 21  11  12  ar  
 22  11  34  1   
 23  12  13  1   
 24  13  14  2   
 25  13  15  am  
 26  15  16  1   
 27  15  17  1   
 28  16  18  1   
 29  16  19  1   
 30  16  35  1   
 31  17  20  1   
 32  17  36  1   
 33  17  37  1   
 34  18  19  1   
 35  18  38  1   
 36  18  39  1   
 37  19  40  1   
 38  19  41  1   
 39  20  21  1   
 40  20  22  2   
 41  21  23  1   
 42  22  24  1   
 43  23  24  2   
 44  23  42  1   
 45  24  43  1   
@<TRIPOS>SUBSTRUCTURE
  1 ****  10 GROUP 4 **** **** 0

# MOE 2024.06 (io_trps.svl 2023.06)
