@<TRIPOS>MOLECULE
NONAME
51 53 1 0 0 
SMALL
USER_CHARGES


@<TRIPOS>ATOM
  1 F       -0.9760    -0.5930     0.9010 F     1 <1>  -0.1900 
  2 C       -2.0670    -1.0230     0.3170 C.ar  1 <1>   0.1900 
  3 C       -3.1760    -0.1920     0.1210 C.ar  1 <1>   0.0820 
  4 C       -2.0590    -2.3450    -0.0880 C.ar  1 <1>  -0.1500 
  5 O       -3.2980     1.1170     0.4770 O.3   1 <1>  -0.3630 
  6 C       -4.2840    -0.7450    -0.5030 C.ar  1 <1>  -0.1500 
  7 C       -3.1820    -2.8780    -0.7050 C.ar  1 <1>  -0.1440 
  8 C       -2.2410     1.8680     1.0330 C.3   1 <1>   0.0400 
  9 C       -4.2900    -2.0680    -0.9130 C.ar  1 <1>  -0.1500 
 10 C       -3.2100    -4.3320    -1.1460 C.3   1 <1>   0.4870 
 11 N       -3.3540    -5.2020     0.0530 N.4   1 <1>  -0.9590 
 12 C       -3.0850    -6.6270    -0.3770 C.3   1 <1>   0.3430 
 13 C       -4.7080    -4.9520     0.6560 C.3   1 <1>   0.3430 
 14 C       -4.2980    -7.5500    -0.2980 C.3   1 <1>  -0.1060 
 15 C       -5.1540    -6.0480     1.6220 C.3   1 <1>  -0.1600 
 16 C       -5.3070    -7.0080    -1.2900 C.2   1 <1>   0.9060 
 17 C       -4.8050    -7.4720     1.1600 C.3   1 <1>   0.2000 
 18 C       -3.9790    -8.9910    -0.7780 C.3   1 <1>  -0.0170 
 19 O       -4.8770    -6.5220    -2.3430 O.co2 1 <1>  -0.9000 
 20 O       -6.4950    -6.9530    -0.9790 O.co2 1 <1>  -0.9000 
 21 O       -3.7930    -7.8940     2.0140 O.3   1 <1>  -0.6800 
 22 C       -2.8950    -9.7270    -0.0010 C.ar  1 <1>  -0.1440 
 23 C       -1.5540    -9.5140    -0.2820 C.ar  1 <1>  -0.1500 
 24 C       -3.2450   -10.6290     0.9930 C.ar  1 <1>  -0.1500 
 25 C       -0.5740   -10.1720     0.4410 C.ar  1 <1>  -0.1500 
 26 C       -2.2660   -11.2870     1.7170 C.ar  1 <1>  -0.1500 
 27 C       -0.9300   -11.0560     1.4440 C.ar  1 <1>  -0.1500 
 28 H       -1.1770    -2.9360     0.0840 H     1 <1>   0.1500 
 29 H       -5.1480    -0.1250    -0.6680 H     1 <1>   0.1500 
 30 H       -2.5840     2.8770     1.1710 H     1 <1>   0.0800 
 31 H       -1.4070     1.8580     0.3530 H     1 <1>   0.0800 
 32 H       -1.9700     1.4440     1.9830 H     1 <1>   0.0800 
 33 H       -5.1690    -2.4620    -1.3990 H     1 <1>   0.1500 
 34 H       -2.2980    -4.5670    -1.6680 H     1 <1>   0.0800 
 35 H       -4.0340    -4.4990    -1.8240 H     1 <1>   0.0800 
 36 H       -2.6520    -4.9400     0.7490 H     1 <1>   0.4500 
 37 H       -2.7170    -6.6410    -1.3900 H     1 <1>   0.0800 
 38 H       -2.3170    -7.0380     0.2570 H     1 <1>   0.0800 
 39 H       -4.7210    -3.9980     1.1570 H     1 <1>   0.0800 
 40 H       -5.4370    -4.9030    -0.1400 H     1 <1>   0.0800 
 41 H       -6.2250    -5.9800     1.6900 H     1 <1>   0.0800 
 42 H       -4.7670    -5.8480     2.6060 H     1 <1>   0.0800 
 43 H       -5.6520    -8.1250     1.3000 H     1 <1>   0.0800 
 44 H       -4.8880    -9.5690    -0.7470 H     1 <1>   0.0800 
 45 H       -3.6860    -8.9570    -1.8150 H     1 <1>   0.0800 
 46 H       -3.4710    -8.7830     1.7370 H     1 <1>   0.4000 
 47 H       -1.2620    -8.8420    -1.0690 H     1 <1>   0.1500 
 48 H       -4.2820   -10.8260     1.2110 H     1 <1>   0.1500 
 49 H        0.4660   -10.0020     0.2220 H     1 <1>   0.1500 
 50 H       -2.5440   -11.9810     2.4920 H     1 <1>   0.1500 
 51 H       -0.1690   -11.5680     2.0070 H     1 <1>   0.1500 
@<TRIPOS>BOND
  1   1   2  1   
  2   2   3  ar  
  3   2   4  ar  
  4   3   5  1   
  5   3   6  ar  
  6   4   7  ar  
  7   4  28  1   
  8   5   8  1   
  9   6   9  ar  
 10   6  29  1   
 11   7   9  ar  
 12   7  10  1   
 13   8  30  1   
 14   8  31  1   
 15   8  32  1   
 16   9  33  1   
 17  10  11  1   
 18  10  34  1   
 19  10  35  1   
 20  11  12  1   
 21  11  13  1   
 22  11  36  1   
 23  12  14  1   
 24  12  37  1   
 25  12  38  1   
 26  13  15  1   
 27  13  39  1   
 28  13  40  1   
 29  14  16  1   
 30  14  17  1   
 31  14  18  1   
 32  15  17  1   
 33  15  41  1   
 34  15  42  1   
 35  16  19  ar  
 36  16  20  ar  
 37  17  21  1   
 38  17  43  1   
 39  18  22  1   
 40  18  44  1   
 41  18  45  1   
 42  21  46  1   
 43  22  23  ar  
 44  22  24  ar  
 45  23  25  ar  
 46  23  47  1   
 47  24  26  ar  
 48  24  48  1   
 49  25  27  ar  
 50  25  49  1   
 51  26  27  ar  
 52  26  50  1   
 53  27  51  1   
@<TRIPOS>SUBSTRUCTURE
  1 ****  11 GROUP 4 **** **** 0

# MOE 2024.06 (io_trps.svl 2023.06)
