@<TRIPOS>MOLECULE
NONAME
43 45 1 0 0 
SMALL
USER_CHARGES


@<TRIPOS>ATOM
  1 F       -2.3800     0.8090     2.7150 F     1 <1>  -0.1900 
  2 C       -2.4650    -0.0200     1.7080 C.ar  1 <1>   0.1900 
  3 C       -2.5130     0.4770     0.4130 C.ar  1 <1>  -0.1440 
  4 C       -2.5090    -1.3710     1.9980 C.ar  1 <1>  -0.1500 
  5 C       -2.6430    -0.4720    -0.5920 C.ar  1 <1>   0.1900 
  6 C       -2.4550     1.9740     0.1150 C.3   1 <1>   0.2540 
  7 C       -2.6180    -2.2890     0.9650 C.ar  1 <1>   0.0830 
  8 F       -2.7360    -0.0840    -1.8370 F     1 <1>  -0.1900 
  9 C       -2.6900    -1.8330    -0.3490 C.ar  1 <1>  -0.1500 
 10 N       -1.0830     2.4800    -0.0950 N.3   1 <1>  -0.8100 
 11 O       -2.6500    -3.5990     1.3110 O.3   1 <1>  -0.3630 
 12 C       -0.2400     2.3850     1.1220 C.3   1 <1>   0.1100 
 13 C       -0.4560     1.9440    -1.3190 C.3   1 <1>   0.1100 
 14 C       -2.7290    -4.6140     0.3350 C.3   1 <1>   0.0400 
 15 C        1.1000     3.1670     1.0910 C.3   1 <1>   0.2200 
 16 C        0.8250     2.6810    -1.7580 C.3   1 <1>  -0.0190 
 17 N        1.0970     4.3090     0.1250 N.am  1 <1>  -0.6600 
 18 C        2.3150     2.2450     0.8530 C.3   1 <1>   0.1200 
 19 C        0.9410     4.0960    -1.2190 C.2   1 <1>   0.5690 
 20 C        2.1100     1.8860    -1.4790 C.3   1 <1>   0.1200 
 21 C        1.1050     5.6740     0.7150 C.3   1 <1>   0.0600 
 22 O        2.1280     1.3400    -0.1960 O.3   1 <1>  -0.5600 
 23 O        0.9370     5.0060    -2.0180 O.2   1 <1>  -0.5700 
 24 H       -2.4620    -1.7110     3.0160 H     1 <1>   0.1500 
 25 H       -2.9030     2.5210     0.9270 H     1 <1>   0.0800 
 26 H       -3.0420     2.1920    -0.7610 H     1 <1>   0.0800 
 27 H       -2.7840    -2.5020    -1.1810 H     1 <1>   0.1500 
 28 H       -0.8070     2.7770     1.9480 H     1 <1>   0.0800 
 29 H       -0.0390     1.3510     1.3430 H     1 <1>   0.0800 
 30 H       -0.2470     0.8950    -1.1930 H     1 <1>   0.0800 
 31 H       -1.1680     2.0390    -2.1210 H     1 <1>   0.0800 
 32 H       -2.7270    -5.5630     0.8400 H     1 <1>   0.0800 
 33 H       -1.8720    -4.5450    -0.3130 H     1 <1>   0.0800 
 34 H       -3.6430    -4.4980    -0.2200 H     1 <1>   0.0800 
 35 H        1.2400     3.5760     2.0750 H     1 <1>   0.0800 
 36 H        0.7740     2.7710    -2.8270 H     1 <1>   0.0800 
 37 H        2.4770     1.6530     1.7360 H     1 <1>   0.0800 
 38 H        3.2040     2.8240     0.6700 H     1 <1>   0.0800 
 39 H        2.9840     2.5000    -1.6150 H     1 <1>   0.0800 
 40 H        2.1680     1.0590    -2.1640 H     1 <1>   0.0800 
 41 H        1.9950     5.8130     1.3020 H     1 <1>   0.0800 
 42 H        0.2380     5.8020     1.3390 H     1 <1>   0.0800 
 43 H        1.0830     6.4220    -0.0580 H     1 <1>   0.0800 
@<TRIPOS>BOND
  1   1   2  1   
  2   2   3  ar  
  3   2   4  ar  
  4   3   5  ar  
  5   3   6  1   
  6   4   7  ar  
  7   4  24  1   
  8   5   8  1   
  9   5   9  ar  
 10   6  10  1   
 11   6  25  1   
 12   6  26  1   
 13   7   9  ar  
 14   7  11  1   
 15   9  27  1   
 16  10  12  1   
 17  10  13  1   
 18  11  14  1   
 19  12  15  1   
 20  12  28  1   
 21  12  29  1   
 22  13  16  1   
 23  13  30  1   
 24  13  31  1   
 25  14  32  1   
 26  14  33  1   
 27  14  34  1   
 28  15  17  1   
 29  15  18  1   
 30  15  35  1   
 31  16  19  1   
 32  16  20  1   
 33  16  36  1   
 34  17  19  am  
 35  17  21  1   
 36  18  22  1   
 37  18  37  1   
 38  18  38  1   
 39  19  23  2   
 40  20  22  1   
 41  20  39  1   
 42  20  40  1   
 43  21  41  1   
 44  21  42  1   
 45  21  43  1   
@<TRIPOS>SUBSTRUCTURE
  1 ****  10 GROUP 4 **** **** 0

# MOE 2024.06 (io_trps.svl 2023.06)
