@<TRIPOS>MOLECULE
NONAME
46 48 1 0 0 
SMALL
USER_CHARGES


@<TRIPOS>ATOM
  1 F       -1.6710    -0.4580    -1.7300 F     1 <1>  -0.1900 
  2 C       -2.0710    -0.8860    -0.5590 C.ar  1 <1>   0.1900 
  3 C       -2.1500    -2.2530    -0.3190 C.ar  1 <1>   0.0830 
  4 C       -2.3960     0.0550     0.3960 C.ar  1 <1>  -0.1500 
  5 O       -1.8150    -3.1290    -1.2950 O.3   1 <1>  -0.3630 
  6 C       -2.5940    -2.7010     0.9310 C.ar  1 <1>   0.0860 
  7 C       -2.8180    -0.3830     1.6400 C.ar  1 <1>  -0.1500 
  8 C       -0.5540    -3.7530    -1.1870 C.3   1 <1>   0.0400 
  9 C       -2.7340    -4.1050     1.2420 C.2   1 <1>   0.5440 
 10 C       -2.9110    -1.7410     1.8960 C.ar  1 <1>  -0.1500 
 11 O       -1.9590    -4.6290     2.0200 O.2   1 <1>  -0.5700 
 12 N       -3.7370    -4.8650     0.6930 N.am  1 <1>  -0.6600 
 13 C       -4.7110    -4.4090    -0.3300 C.3   1 <1>   0.1400 
 14 C       -3.9560    -6.2910     1.0090 C.3   1 <1>   0.1400 
 15 C       -5.6400    -5.6050    -0.5770 C.3   1 <1>   0.2000 
 16 C       -4.8010    -6.8170    -0.1540 C.3   1 <1>  -0.0800 
 17 O       -6.7630    -5.5210     0.2550 O.3   1 <1>  -0.5600 
 18 C       -5.6190    -8.0720     0.1980 C.3   1 <1>   0.0200 
 19 C       -7.8130    -4.7500    -0.2390 C.3   1 <1>   0.0400 
 20 C       -4.7570    -9.3010     0.4360 C.2   1 <1>  -0.0400 
 21 O       -5.3370   -10.4110     0.8120 O.3   1 <1>  -0.0190 
 22 C       -3.4400    -9.5430     0.3410 C.2   1 <1>  -0.1500 
 23 N       -4.4800   -11.3780     0.9760 N.2   1 <1>  -0.4100 
 24 C       -3.3280   -10.8830     0.7000 C.2   1 <1>   0.1080 
 25 C       -2.0320   -11.6580     0.7620 C.3   1 <1>  -0.0590 
 26 H       -2.3190     1.1040     0.1720 H     1 <1>   0.1500 
 27 H       -3.0720     0.3310     2.4060 H     1 <1>   0.1500 
 28 H       -0.4120    -4.3770    -2.0510 H     1 <1>   0.0800 
 29 H       -0.5260    -4.3530    -0.2940 H     1 <1>   0.0800 
 30 H        0.2080    -2.9940    -1.1530 H     1 <1>   0.0800 
 31 H       -3.2370    -2.0800     2.8660 H     1 <1>   0.1500 
 32 H       -5.2510    -3.5440     0.0110 H     1 <1>   0.0800 
 33 H       -4.1800    -4.1730    -1.2350 H     1 <1>   0.0800 
 34 H       -3.0200    -6.8130     1.1020 H     1 <1>   0.0800 
 35 H       -4.5000    -6.3590     1.9360 H     1 <1>   0.0800 
 36 H       -5.9620    -5.6770    -1.6020 H     1 <1>   0.0800 
 37 H       -4.1350    -7.0510    -0.9650 H     1 <1>   0.0800 
 38 H       -6.3010    -8.2880    -0.6060 H     1 <1>   0.0800 
 39 H       -6.2060    -7.8890     1.0810 H     1 <1>   0.0800 
 40 H       -8.6020    -4.7550     0.4920 H     1 <1>   0.0800 
 41 H       -8.1700    -5.1840    -1.1580 H     1 <1>   0.0800 
 42 H       -7.4780    -3.7410    -0.4010 H     1 <1>   0.0800 
 43 H       -2.6300    -8.8960     0.0610 H     1 <1>   0.1500 
 44 H       -1.5630   -11.6630    -0.2050 H     1 <1>   0.0800 
 45 H       -2.2250   -12.6730     1.0610 H     1 <1>   0.0800 
 46 H       -1.3700   -11.2050     1.4760 H     1 <1>   0.0800 
@<TRIPOS>BOND
  1   1   2  1   
  2   2   3  ar  
  3   2   4  ar  
  4   3   5  1   
  5   3   6  ar  
  6   4   7  ar  
  7   4  26  1   
  8   5   8  1   
  9   6   9  1   
 10   6  10  ar  
 11   7  10  ar  
 12   7  27  1   
 13   8  28  1   
 14   8  29  1   
 15   8  30  1   
 16   9  11  2   
 17   9  12  am  
 18  10  31  1   
 19  12  13  1   
 20  12  14  1   
 21  13  15  1   
 22  13  32  1   
 23  13  33  1   
 24  14  16  1   
 25  14  34  1   
 26  14  35  1   
 27  15  16  1   
 28  15  17  1   
 29  15  36  1   
 30  16  18  1   
 31  16  37  1   
 32  17  19  1   
 33  18  20  1   
 34  18  38  1   
 35  18  39  1   
 36  19  40  1   
 37  19  41  1   
 38  19  42  1   
 39  20  21  1   
 40  20  22  2   
 41  21  23  1   
 42  22  24  1   
 43  22  43  1   
 44  23  24  2   
 45  24  25  1   
 46  25  44  1   
 47  25  45  1   
 48  25  46  1   
@<TRIPOS>SUBSTRUCTURE
  1 ****  12 GROUP 4 **** **** 0

# MOE 2024.06 (io_trps.svl 2023.06)
