@<TRIPOS>MOLECULE
NONAME
60 62 1 0 0 
SMALL
USER_CHARGES


@<TRIPOS>ATOM
  1 S        0.6600    -1.2280     1.3420 S.o2  1 <1>   1.4470 
  2 O       -0.3520    -0.7340     2.2520 O.2   1 <1>  -0.6500 
  3 O        1.3600    -2.4300     1.7380 O.2   1 <1>  -0.6500 
  4 N       -0.1900    -1.6570    -0.0690 N.am  1 <1>  -0.8490 
  5 C        1.8040     0.0950     0.8270 C.ar  1 <1>  -0.0090 
  6 C       -1.0630    -2.8200     0.1260 C.3   1 <1>   0.1960 
  7 C       -0.8540    -0.5660    -0.8020 C.3   1 <1>   0.1960 
  8 C        2.9210    -0.1070     0.0060 C.ar  1 <1>  -0.1440 
  9 C        1.5350     1.3860     1.2680 C.ar  1 <1>  -0.1500 
 10 C       -2.3910    -2.4480     0.8410 C.3   1 <1>   0.4230 
 11 C       -2.1900    -0.1530    -0.1620 C.3   1 <1>  -0.1600 
 12 C        3.7470     0.9670    -0.3380 C.ar  1 <1>  -0.1440 
 13 C        3.2420    -1.5170    -0.5020 C.3   1 <1>  -0.0960 
 14 C        2.3210     2.4640     0.9160 C.ar  1 <1>  -0.1430 
 15 N       -3.2470    -3.6480     1.2320 N.4   1 <1>  -0.9590 
 16 C       -3.1670    -1.3410     0.0700 C.3   1 <1>   0.0000 
 17 C        3.4180     2.2510     0.0940 C.ar  1 <1>   0.0830 
 18 C        5.0190     0.7570    -1.1640 C.3   1 <1>  -0.0970 
 19 C        1.9790     3.8520     1.4400 C.3   1 <1>  -0.0970 
 20 C       -4.6780    -3.3070     1.5240 C.3   1 <1>   0.3430 
 21 C       -3.1770    -4.8290     0.3100 C.3   1 <1>   0.2630 
 22 C       -4.3600    -0.8490     0.9420 C.3   1 <1>  -0.1600 
 23 C       -3.6790    -1.8910    -1.2930 C.3   1 <1>   0.1200 
 24 O        4.1690     3.3150    -0.2690 O.3   1 <1>  -0.3630 
 25 C       -4.8110    -1.8650     2.0090 C.3   1 <1>  -0.1600 
 26 O       -4.1980    -0.8860    -2.0900 O.3   1 <1>  -0.6800 
 27 C        3.8390     3.9170    -1.5000 C.3   1 <1>   0.0400 
 28 H       -1.2640    -3.2480    -0.8390 H     1 <1>   0.0800 
 29 H       -0.5400    -3.5620     0.7050 H     1 <1>   0.0800 
 30 H       -0.2020     0.2900    -0.8680 H     1 <1>   0.0800 
 31 H       -1.0370    -0.8920    -1.8130 H     1 <1>   0.0800 
 32 H        0.6860     1.5540     1.9090 H     1 <1>   0.1500 
 33 H       -2.1010    -1.9880     1.7690 H     1 <1>   0.0800 
 34 H       -1.9800     0.3450     0.7660 H     1 <1>   0.0800 
 35 H       -2.6470     0.5920    -0.7900 H     1 <1>   0.0800 
 36 H        3.8220    -1.5040    -1.4040 H     1 <1>   0.0800 
 37 H        2.3520    -2.0680    -0.7360 H     1 <1>   0.0800 
 38 H        3.7910    -2.0560     0.2500 H     1 <1>   0.0800 
 39 H       -2.8480    -3.9530     2.1340 H     1 <1>   0.4500 
 40 H        5.5610    -0.1000    -0.8080 H     1 <1>   0.0800 
 41 H        5.6870     1.5950    -1.0910 H     1 <1>   0.0800 
 42 H        4.7670     0.6120    -2.1990 H     1 <1>   0.0800 
 43 H        1.2720     3.7980     2.2480 H     1 <1>   0.0800 
 44 H        1.5590     4.4490     0.6520 H     1 <1>   0.0800 
 45 H        2.8680     4.3360     1.8040 H     1 <1>   0.0800 
 46 H       -5.2700    -3.4220     0.6300 H     1 <1>   0.0800 
 47 H       -5.0700    -3.9810     2.2690 H     1 <1>   0.0800 
 48 H       -3.5430    -4.5670    -0.6690 H     1 <1>   0.0800 
 49 H       -3.7780    -5.6380     0.6940 H     1 <1>   0.0800 
 50 H       -2.1620    -5.1790     0.2180 H     1 <1>   0.0800 
 51 H       -4.1030     0.0610     1.4590 H     1 <1>   0.0800 
 52 H       -5.2010    -0.6040     0.3160 H     1 <1>   0.0800 
 53 H       -4.4540    -2.6240    -1.1580 H     1 <1>   0.0800 
 54 H       -2.8840    -2.3400    -1.8600 H     1 <1>   0.0800 
 55 H       -5.8370    -1.6710     2.2690 H     1 <1>   0.0800 
 56 H       -4.2300    -1.7400     2.9070 H     1 <1>   0.0800 
 57 H       -4.9840    -0.4620    -1.6910 H     1 <1>   0.4000 
 58 H        4.5070     4.7440    -1.6590 H     1 <1>   0.0800 
 59 H        2.8220     4.2640    -1.4570 H     1 <1>   0.0800 
 60 H        3.9540     3.1920    -2.2860 H     1 <1>   0.0800 
@<TRIPOS>BOND
  1   1   2  2   
  2   1   3  2   
  3   1   4  am  
  4   1   5  1   
  5   4   6  1   
  6   4   7  1   
  7   5   8  ar  
  8   5   9  ar  
  9   6  10  1   
 10   6  28  1   
 11   6  29  1   
 12   7  11  1   
 13   7  30  1   
 14   7  31  1   
 15   8  12  ar  
 16   8  13  1   
 17   9  14  ar  
 18   9  32  1   
 19  10  15  1   
 20  10  16  1   
 21  10  33  1   
 22  11  16  1   
 23  11  34  1   
 24  11  35  1   
 25  12  17  ar  
 26  12  18  1   
 27  13  36  1   
 28  13  37  1   
 29  13  38  1   
 30  14  17  ar  
 31  14  19  1   
 32  15  20  1   
 33  15  21  1   
 34  15  39  1   
 35  16  22  1   
 36  16  23  1   
 37  17  24  1   
 38  18  40  1   
 39  18  41  1   
 40  18  42  1   
 41  19  43  1   
 42  19  44  1   
 43  19  45  1   
 44  20  25  1   
 45  20  46  1   
 46  20  47  1   
 47  21  48  1   
 48  21  49  1   
 49  21  50  1   
 50  22  25  1   
 51  22  51  1   
 52  22  52  1   
 53  23  26  1   
 54  23  53  1   
 55  23  54  1   
 56  24  27  1   
 57  25  55  1   
 58  25  56  1   
 59  26  57  1   
 60  27  58  1   
 61  27  59  1   
 62  27  60  1   
@<TRIPOS>SUBSTRUCTURE
  1 ****   4 GROUP 4 **** **** 0

# MOE 2024.06 (io_trps.svl 2023.06)
