@<TRIPOS>MOLECULE
NONAME
53 55 1 0 0 
SMALL
USER_CHARGES


@<TRIPOS>ATOM
  1 O       -1.0390     0.7710     2.7500 O.2   1 <1>  -0.5700 
  2 C       -1.7310     1.3590     1.9390 C.2   1 <1>   0.5440 
  3 N       -2.5070     0.6160     1.0800 N.am  1 <1>  -0.6600 
  4 C       -1.7190     2.8040     1.9120 C.ar  1 <1>   0.0860 
  5 C       -3.3550     1.1600    -0.0100 C.3   1 <1>   0.1400 
  6 C       -2.3610    -0.8540     0.9530 C.3   1 <1>   0.1400 
  7 C       -1.1300     3.5430     0.8750 C.ar  1 <1>   0.0830 
  8 C       -2.3170     3.5160     2.9530 C.ar  1 <1>  -0.1500 
  9 C       -3.4380     0.0270    -1.0300 C.3   1 <1>   0.2000 
 10 C       -3.2490    -1.2580    -0.2270 C.3   1 <1>  -0.0800 
 11 O       -0.5180     2.9520    -0.1730 O.3   1 <1>  -0.3630 
 12 C       -1.1820     4.9280     0.8730 C.ar  1 <1>  -0.1500 
 13 C       -2.3570     4.8970     2.9560 C.ar  1 <1>  -0.1500 
 14 O       -4.6620     0.0120    -1.6800 O.3   1 <1>  -0.6800 
 15 C       -2.6650    -2.4050    -1.0650 C.3   1 <1>   0.0210 
 16 C        0.6410     2.1750     0.0520 C.3   1 <1>   0.1200 
 17 C       -1.7920     5.6070     1.9100 C.ar  1 <1>  -0.1500 
 18 C       -2.3730    -3.6160    -0.2020 C.2   1 <1>   0.1080 
 19 C        0.6160     0.9940    -0.9200 C.3   1 <1>  -0.1600 
 20 N       -3.2990    -4.2700     0.4280 N.2   1 <1>  -0.7070 
 21 C       -1.1080    -4.1490     0.0230 C.2   1 <1>  -0.1500 
 22 C        1.7490     0.0050    -0.6250 C.3   1 <1>  -0.1600 
 23 N       -2.6430    -5.2490     1.0770 N.pl3 1 <1>   0.3000 
 24 C       -1.3130    -5.1960     0.8490 C.2   1 <1>  -0.3320 
 25 C        1.7130    -1.1780    -1.5950 C.3   1 <1>  -0.2400 
 26 C       -0.3060    -6.1620     1.4440 C.3   1 <1>  -0.0600 
 27 H       -4.3280     1.3910     0.3870 H     1 <1>   0.0800 
 28 H       -2.9170     2.0350    -0.4540 H     1 <1>   0.0800 
 29 H       -1.3270    -1.0890     0.7640 H     1 <1>   0.0800 
 30 H       -2.6710    -1.3450     1.8600 H     1 <1>   0.0800 
 31 H       -2.7560     2.9650     3.7670 H     1 <1>   0.1500 
 32 H       -2.6630     0.1520    -1.7660 H     1 <1>   0.0800 
 33 H       -4.1920    -1.5710     0.1860 H     1 <1>   0.0800 
 34 H       -0.7390     5.4690     0.0560 H     1 <1>   0.1500 
 35 H       -2.8270     5.4230     3.7700 H     1 <1>   0.1500 
 36 H       -5.3710    -0.2390    -1.0570 H     1 <1>   0.4000 
 37 H       -1.7600    -2.0860    -1.5470 H     1 <1>   0.0800 
 38 H       -3.3690    -2.6860    -1.8280 H     1 <1>   0.0800 
 39 H        1.4990     2.8000    -0.1220 H     1 <1>   0.0800 
 40 H        0.6610     1.8320     1.0710 H     1 <1>   0.0800 
 41 H       -1.8260     6.6830     1.9070 H     1 <1>   0.1500 
 42 H       -0.3260     0.4850    -0.8240 H     1 <1>   0.0800 
 43 H        0.7070     1.3640    -1.9260 H     1 <1>   0.0800 
 44 H       -0.1820    -3.7840    -0.3830 H     1 <1>   0.1500 
 45 H        2.6990     0.5060    -0.7080 H     1 <1>   0.0800 
 46 H        1.6520    -0.3620     0.3840 H     1 <1>   0.0800 
 47 H       -3.1290    -5.9350     1.6670 H     1 <1>   0.2700 
 48 H        1.8330    -0.8370    -2.6090 H     1 <1>   0.0800 
 49 H        0.7770    -1.7020    -1.5140 H     1 <1>   0.0800 
 50 H        2.5100    -1.8640    -1.3690 H     1 <1>   0.0800 
 51 H        0.6870    -5.9100     1.1160 H     1 <1>   0.0800 
 52 H       -0.5250    -7.1670     1.1320 H     1 <1>   0.0800 
 53 H       -0.3330    -6.1120     2.5190 H     1 <1>   0.0800 
@<TRIPOS>BOND
  1   1   2  2   
  2   2   3  am  
  3   2   4  1   
  4   3   5  1   
  5   3   6  1   
  6   4   7  ar  
  7   4   8  ar  
  8   5   9  1   
  9   5  27  1   
 10   5  28  1   
 11   6  10  1   
 12   6  29  1   
 13   6  30  1   
 14   7  11  1   
 15   7  12  ar  
 16   8  13  ar  
 17   8  31  1   
 18   9  10  1   
 19   9  14  1   
 20   9  32  1   
 21  10  15  1   
 22  10  33  1   
 23  11  16  1   
 24  12  17  ar  
 25  12  34  1   
 26  13  17  ar  
 27  13  35  1   
 28  14  36  1   
 29  15  18  1   
 30  15  37  1   
 31  15  38  1   
 32  16  19  1   
 33  16  39  1   
 34  16  40  1   
 35  17  41  1   
 36  18  20  2   
 37  18  21  1   
 38  19  22  1   
 39  19  42  1   
 40  19  43  1   
 41  20  23  1   
 42  21  24  2   
 43  21  44  1   
 44  22  25  1   
 45  22  45  1   
 46  22  46  1   
 47  23  24  1   
 48  23  47  1   
 49  24  26  1   
 50  25  48  1   
 51  25  49  1   
 52  25  50  1   
 53  26  51  1   
 54  26  52  1   
 55  26  53  1   
@<TRIPOS>SUBSTRUCTURE
  1 ****   3 GROUP 4 **** **** 0

# MOE 2024.06 (io_trps.svl 2023.06)
