@<TRIPOS>MOLECULE
NONAME
44 46 1 0 0 
SMALL
USER_CHARGES


@<TRIPOS>ATOM
  1 O       -0.5760     0.3310     2.0670 O.3   1 <1>  -0.5600 
  2 C        0.4480     0.6420     1.1670 C.3   1 <1>   0.1200 
  3 C       -1.8250     0.6710     1.5340 C.3   1 <1>   0.1200 
  4 C       -0.1320     1.6580     0.1880 C.3   1 <1>   0.2890 
  5 C       -1.5770     1.1920     0.1180 C.3   1 <1>  -0.0800 
  6 N       -0.0440     3.0150     0.7730 N.pl3 1 <1>  -0.8690 
  7 C       -2.5960     2.2450    -0.3560 C.3   1 <1>  -0.0170 
  8 C        0.4640     4.1010     0.1540 C.ar  1 <1>   0.7200 
  9 C       -3.9950     1.6520    -0.4320 C.ar  1 <1>  -0.1440 
 10 N        0.8490     5.0620     0.9740 N.ar  1 <1>  -0.6200 
 11 N        0.5190     4.0980    -1.1710 N.ar  1 <1>  -0.6200 
 12 C       -4.9240     1.8440     0.5690 C.ar  1 <1>  -0.1500 
 13 C       -4.4050     0.8880    -1.5060 C.ar  1 <1>  -0.1500 
 14 C        1.3450     6.1400     0.4140 C.ar  1 <1>   0.1670 
 15 C        1.0170     5.1830    -1.7080 C.ar  1 <1>   0.1600 
 16 C       -6.1820     1.2750     0.4540 C.ar  1 <1>   0.1600 
 17 C       -5.6870     0.3630    -1.5230 C.ar  1 <1>   0.1600 
 18 C        1.4570     6.2550    -0.9610 C.ar  1 <1>  -0.1430 
 19 C        1.7860     7.2410     1.3720 C.3   1 <1>  -0.0170 
 20 N       -6.5850     0.5360    -0.5670 N.ar  1 <1>  -0.6200 
 21 C        2.0310     7.4840    -1.6570 C.3   1 <1>  -0.0970 
 22 C        3.2210     7.0140     1.8630 C.3   1 <1>  -0.2400 
 23 H        1.2990     1.0240     1.7020 H     1 <1>   0.0800 
 24 H        0.7140    -0.2640     0.6530 H     1 <1>   0.0800 
 25 H       -2.4620    -0.1960     1.5420 H     1 <1>   0.0800 
 26 H       -2.2440     1.4380     2.1620 H     1 <1>   0.0800 
 27 H        0.3620     1.6140    -0.7680 H     1 <1>   0.0800 
 28 H       -1.6230     0.3510    -0.5500 H     1 <1>   0.0800 
 29 H        0.0230     3.0540     1.7890 H     1 <1>   0.4000 
 30 H       -2.3060     2.6100    -1.3260 H     1 <1>   0.0800 
 31 H       -2.6030     3.0890     0.3120 H     1 <1>   0.0800 
 32 H       -4.6830     2.4310     1.4360 H     1 <1>   0.1500 
 33 H       -3.7390     0.6970    -2.3280 H     1 <1>   0.1500 
 34 H        1.0780     5.2190    -2.7820 H     1 <1>   0.1500 
 35 H       -6.8930     1.4360     1.2460 H     1 <1>   0.1500 
 36 H       -5.9890    -0.2300    -2.3690 H     1 <1>   0.1500 
 37 H        1.7100     8.2040     0.9040 H     1 <1>   0.0800 
 38 H        1.1210     7.2480     2.2190 H     1 <1>   0.0800 
 39 H        2.1500     7.3080    -2.7110 H     1 <1>   0.0800 
 40 H        2.9950     7.7270    -1.2480 H     1 <1>   0.0800 
 41 H        1.3720     8.3230    -1.5260 H     1 <1>   0.0800 
 42 H        3.9060     7.0120     1.0340 H     1 <1>   0.0800 
 43 H        3.2890     6.0660     2.3670 H     1 <1>   0.0800 
 44 H        3.5060     7.7910     2.5490 H     1 <1>   0.0800 
@<TRIPOS>BOND
  1   1   2  1   
  2   1   3  1   
  3   2   4  1   
  4   2  23  1   
  5   2  24  1   
  6   3   5  1   
  7   3  25  1   
  8   3  26  1   
  9   4   5  1   
 10   4   6  1   
 11   4  27  1   
 12   5   7  1   
 13   5  28  1   
 14   6   8  1   
 15   6  29  1   
 16   7   9  1   
 17   7  30  1   
 18   7  31  1   
 19   8  10  ar  
 20   8  11  ar  
 21   9  12  ar  
 22   9  13  ar  
 23  10  14  ar  
 24  11  15  ar  
 25  12  16  ar  
 26  12  32  1   
 27  13  17  ar  
 28  13  33  1   
 29  14  18  ar  
 30  14  19  1   
 31  15  18  ar  
 32  15  34  1   
 33  16  20  ar  
 34  16  35  1   
 35  17  20  ar  
 36  17  36  1   
 37  18  21  1   
 38  19  22  1   
 39  19  37  1   
 40  19  38  1   
 41  21  39  1   
 42  21  40  1   
 43  21  41  1   
 44  22  42  1   
 45  22  43  1   
 46  22  44  1   
@<TRIPOS>SUBSTRUCTURE
  1 ****   6 GROUP 4 **** **** 0

# MOE 2024.06 (io_trps.svl 2023.06)
