@<TRIPOS>MOLECULE
NONAME
53 55 1 0 0 
SMALL
USER_CHARGES


@<TRIPOS>ATOM
  1 O        1.4390     0.7010     1.5830 O.2   1 <1>  -0.5700 
  2 C        1.8450    -0.3770     1.2000 C.2   1 <1>   0.5690 
  3 N        3.2110    -0.5410     1.0160 N.am  1 <1>  -0.6600 
  4 C        0.7910    -1.4840     0.8690 C.3   1 <1>   0.3410 
  5 C        4.1590     0.5850     1.3150 C.3   1 <1>   0.1400 
  6 C        3.8800    -1.7090     0.3660 C.3   1 <1>   0.1400 
  7 O        1.0660    -1.9530    -0.4560 O.3   1 <1>  -0.3630 
  8 C       -0.6490    -0.9260     0.8720 C.3   1 <1>  -0.2400 
  9 C        0.8690    -2.6330     1.8940 C.3   1 <1>  -0.2400 
 10 C        4.7620     1.2780     0.0590 C.3   1 <1>   0.4230 
 11 C        4.3030    -1.3760    -1.0810 C.3   1 <1>  -0.0800 
 12 C        0.4010    -2.9910    -1.0130 C.ar  1 <1>   0.0820 
 13 N        3.9440     1.1860    -1.2200 N.4   1 <1>  -0.9590 
 14 C        6.2240     0.8420    -0.1870 C.3   1 <1>   0.1200 
 15 C        5.8250    -1.2470    -1.2570 C.3   1 <1>   0.1200 
 16 C        3.5230    -0.1900    -1.6740 C.3   1 <1>   0.3430 
 17 C       -0.7110    -2.7510    -1.8060 C.ar  1 <1>  -0.1500 
 18 C        0.8620    -4.2870    -0.8420 C.ar  1 <1>  -0.1500 
 19 C        2.7280     2.0530    -1.1110 C.3   1 <1>   0.2630 
 20 O        6.3910    -0.5410    -0.2010 O.3   1 <1>  -0.5600 
 21 C       -1.3740    -3.8080    -2.4030 C.ar  1 <1>  -0.1500 
 22 C        0.1960    -5.3410    -1.4410 C.ar  1 <1>  -0.1500 
 23 C       -0.9270    -5.1080    -2.2200 C.ar  1 <1>  -0.1430 
 24 C       -1.6570    -6.2660    -2.8760 C.3   1 <1>  -0.0970 
 25 H        3.6650     1.3370     1.9040 H     1 <1>   0.0800 
 26 H        4.9560     0.2090     1.9340 H     1 <1>   0.0800 
 27 H        4.7340    -2.0020     0.9540 H     1 <1>   0.0800 
 28 H        3.2260    -2.5590     0.3500 H     1 <1>   0.0800 
 29 H       -0.8750    -0.5000     1.8330 H     1 <1>   0.0800 
 30 H       -1.3680    -1.7020     0.6840 H     1 <1>   0.0800 
 31 H       -0.7520    -0.1530     0.1330 H     1 <1>   0.0800 
 32 H        0.6970    -2.2400     2.8800 H     1 <1>   0.0800 
 33 H        1.8330    -3.1020     1.8950 H     1 <1>   0.0800 
 34 H        0.1120    -3.3730     1.7030 H     1 <1>   0.0800 
 35 H        4.8310     2.3230     0.3090 H     1 <1>   0.0800 
 36 H        4.0170    -2.2280    -1.6730 H     1 <1>   0.0800 
 37 H        4.5330     1.5720    -1.9670 H     1 <1>   0.4500 
 38 H        6.8340     1.2090     0.6210 H     1 <1>   0.0800 
 39 H        6.6110     1.2520    -1.1030 H     1 <1>   0.0800 
 40 H        6.0930    -0.7800    -2.1890 H     1 <1>   0.0800 
 41 H        6.2670    -2.2290    -1.2350 H     1 <1>   0.0800 
 42 H        2.4830    -0.3370    -1.4290 H     1 <1>   0.0800 
 43 H        3.5960    -0.2360    -2.7480 H     1 <1>   0.0800 
 44 H       -1.0560    -1.7450    -1.9560 H     1 <1>   0.1500 
 45 H        1.7340    -4.4750    -0.2450 H     1 <1>   0.1500 
 46 H        2.0710     1.6850    -0.3420 H     1 <1>   0.0800 
 47 H        2.1870     2.0610    -2.0440 H     1 <1>   0.0800 
 48 H        3.0060     3.0650    -0.8660 H     1 <1>   0.0800 
 49 H       -2.2410    -3.6170    -3.0120 H     1 <1>   0.1500 
 50 H        0.5540    -6.3460    -1.3000 H     1 <1>   0.1500 
 51 H       -2.7060    -6.0470    -2.9660 H     1 <1>   0.0800 
 52 H       -1.5480    -7.1610    -2.2910 H     1 <1>   0.0800 
 53 H       -1.2550    -6.4420    -3.8570 H     1 <1>   0.0800 
@<TRIPOS>BOND
  1   1   2  2   
  2   2   3  am  
  3   2   4  1   
  4   3   5  1   
  5   3   6  1   
  6   4   7  1   
  7   4   8  1   
  8   4   9  1   
  9   5  10  1   
 10   5  25  1   
 11   5  26  1   
 12   6  11  1   
 13   6  27  1   
 14   6  28  1   
 15   7  12  1   
 16   8  29  1   
 17   8  30  1   
 18   8  31  1   
 19   9  32  1   
 20   9  33  1   
 21   9  34  1   
 22  10  13  1   
 23  10  14  1   
 24  10  35  1   
 25  11  15  1   
 26  11  16  1   
 27  11  36  1   
 28  12  17  ar  
 29  12  18  ar  
 30  13  16  1   
 31  13  19  1   
 32  13  37  1   
 33  14  20  1   
 34  14  38  1   
 35  14  39  1   
 36  15  20  1   
 37  15  40  1   
 38  15  41  1   
 39  16  42  1   
 40  16  43  1   
 41  17  21  ar  
 42  17  44  1   
 43  18  22  ar  
 44  18  45  1   
 45  19  46  1   
 46  19  47  1   
 47  19  48  1   
 48  21  23  ar  
 49  21  49  1   
 50  22  23  ar  
 51  22  50  1   
 52  23  24  1   
 53  24  51  1   
 54  24  52  1   
 55  24  53  1   
@<TRIPOS>SUBSTRUCTURE
  1 ****   7 GROUP 4 **** **** 0

# MOE 2024.06 (io_trps.svl 2023.06)
