@<TRIPOS>MOLECULE
NONAME
41 43 1 0 0 
SMALL
USER_CHARGES


@<TRIPOS>ATOM
  1 S       -0.5120    -0.6300     0.0400 S.o2  1 <1>   1.4150 
  2 O       -1.1730    -1.8900     0.3030 O.2   1 <1>  -0.6500 
  3 O       -0.4350    -0.1230    -1.3130 O.2   1 <1>  -0.6500 
  4 N       -1.2220     0.5530     1.0270 N.am  1 <1>  -0.8490 
  5 C        1.1560    -0.7470     0.7340 C.3   1 <1>  -0.0770 
  6 C       -2.6700     0.3960     1.2510 C.3   1 <1>   0.1960 
  7 C       -0.7910     1.9390     0.7650 C.3   1 <1>   0.1960 
  8 C        2.3020     0.1400     0.3340 C.3   1 <1>  -0.2000 
  9 C        2.3260    -1.3200    -0.0120 C.3   1 <1>  -0.2000 
 10 C       -3.5800     0.9360     0.1050 C.3   1 <1>   0.0000 
 11 C       -1.9240     2.8550     0.2760 C.3   1 <1>  -0.1600 
 12 C       -4.9450     1.3070     0.7360 C.3   1 <1>   0.2000 
 13 C       -2.8840     2.1010    -0.6480 C.3   1 <1>  -0.1600 
 14 C       -3.9810    -0.1890    -0.8660 C.3   1 <1>  -0.1600 
 15 O       -5.7010     2.0850    -0.1500 O.3   1 <1>  -0.5600 
 16 C       -5.6630    -0.0360     0.9130 C.3   1 <1>  -0.1600 
 17 C       -5.1200    -0.9580    -0.1880 C.3   1 <1>  -0.1600 
 18 C       -6.6670     2.8920     0.4450 C.3   1 <1>   0.0400 
 19 H        1.1210    -1.0050     1.7750 H     1 <1>   0.1000 
 20 H       -2.9020    -0.6340     1.4610 H     1 <1>   0.0800 
 21 H       -2.8980     0.9410     2.1510 H     1 <1>   0.0800 
 22 H       -0.3770     2.3490     1.6700 H     1 <1>   0.0800 
 23 H       -0.0070     1.9440     0.0260 H     1 <1>   0.0800 
 24 H        2.1670     0.8440    -0.4700 H     1 <1>   0.1000 
 25 H        2.9650     0.5050     1.0990 H     1 <1>   0.1000 
 26 H        3.0010    -1.9740     0.5130 H     1 <1>   0.1000 
 27 H        2.1870    -1.6080    -1.0410 H     1 <1>   0.1000 
 28 H       -2.4640     3.2460     1.1200 H     1 <1>   0.0800 
 29 H       -1.4960     3.6920    -0.2480 H     1 <1>   0.0800 
 30 H       -4.8280     1.8460     1.6610 H     1 <1>   0.0800 
 31 H       -2.3120     1.7000    -1.4680 H     1 <1>   0.0800 
 32 H       -3.5950     2.7830    -1.0770 H     1 <1>   0.0800 
 33 H       -4.3630     0.2530    -1.7710 H     1 <1>   0.0800 
 34 H       -3.1630    -0.8330    -1.1300 H     1 <1>   0.0800 
 35 H       -5.4090    -0.4490     1.8720 H     1 <1>   0.0800 
 36 H       -6.7320     0.0630     0.8560 H     1 <1>   0.0800 
 37 H       -4.7510    -1.8740     0.2410 H     1 <1>   0.0800 
 38 H       -5.8870    -1.1930    -0.9070 H     1 <1>   0.0800 
 39 H       -7.1960     3.4080    -0.3370 H     1 <1>   0.0800 
 40 H       -6.1830     3.6080     1.0870 H     1 <1>   0.0800 
 41 H       -7.3530     2.2820     1.0050 H     1 <1>   0.0800 
@<TRIPOS>BOND
  1   1   2  2   
  2   1   3  2   
  3   1   4  am  
  4   1   5  1   
  5   4   6  1   
  6   4   7  1   
  7   5   8  1   
  8   5   9  1   
  9   5  19  1   
 10   6  10  1   
 11   6  20  1   
 12   6  21  1   
 13   7  11  1   
 14   7  22  1   
 15   7  23  1   
 16   8   9  1   
 17   8  24  1   
 18   8  25  1   
 19   9  26  1   
 20   9  27  1   
 21  10  12  1   
 22  10  13  1   
 23  10  14  1   
 24  11  13  1   
 25  11  28  1   
 26  11  29  1   
 27  12  15  1   
 28  12  16  1   
 29  12  30  1   
 30  13  31  1   
 31  13  32  1   
 32  14  17  1   
 33  14  33  1   
 34  14  34  1   
 35  15  18  1   
 36  16  17  1   
 37  16  35  1   
 38  16  36  1   
 39  17  37  1   
 40  17  38  1   
 41  18  39  1   
 42  18  40  1   
 43  18  41  1   
@<TRIPOS>SUBSTRUCTURE
  1 ****   6 GROUP 4 **** **** 0

# MOE 2024.06 (io_trps.svl 2023.06)
