@<TRIPOS>MOLECULE
NONAME
43 45 1 0 0 
SMALL
USER_CHARGES


@<TRIPOS>ATOM
  1 O       -0.4620     0.0700     2.6330 O.2   1 <1>  -0.5700 
  2 C       -0.0890    -0.3880     1.5790 C.2   1 <1>   0.5690 
  3 N        0.6530     0.2980     0.6680 N.am  1 <1>  -0.4930 
  4 C       -0.4610    -1.8300     1.2680 C.3   1 <1>   0.0450 
  5 C        1.3420     1.5320     0.7580 C.2   1 <1>   0.0630 
  6 C        0.2320    -2.3790     0.0230 C.ar  1 <1>  -0.1440 
  7 C        2.5900     1.7260     0.1560 C.2   1 <1>   0.3720 
  8 C        1.0490     2.7140     1.3420 C.2   1 <1>  -0.3320 
  9 C       -0.4700    -2.5780    -1.1580 C.ar  1 <1>   0.1600 
 10 C        1.5830    -2.6660     0.0470 C.ar  1 <1>  -0.1500 
 11 N        3.0580     2.9170     0.3520 N.2   1 <1>  -0.7070 
 12 N        3.2580     0.7360    -0.5910 N.pl3 1 <1>  -0.8210 
 13 N        2.1080     3.5270     1.0970 N.pl3 1 <1>   0.3140 
 14 C       -0.1900     3.1370     2.1180 C.3   1 <1>  -0.0600 
 15 N        0.0560    -3.0240    -2.2870 N.ar  1 <1>  -0.6200 
 16 C        2.1480    -3.1290    -1.1210 C.ar  1 <1>  -0.1500 
 17 C        4.5790     0.3850    -0.0050 C.3   1 <1>   0.2090 
 18 C        3.4740     1.1530    -2.0030 C.3   1 <1>   0.2090 
 19 C        2.2820     4.9150     1.5430 C.3   1 <1>   0.0160 
 20 C        1.3520    -3.2880    -2.2420 C.ar  1 <1>   0.1600 
 21 C        5.5210     0.2050    -1.1840 C.3   1 <1>  -0.1600 
 22 C        4.9800     1.1730    -2.2240 C.3   1 <1>  -0.1600 
 23 H        1.0300    -0.2620    -0.1030 H     1 <1>   0.3700 
 24 H       -1.5280    -1.8820     1.1550 H     1 <1>   0.0800 
 25 H       -0.1970    -2.4350     2.1160 H     1 <1>   0.0800 
 26 H       -1.5240    -2.3540    -1.1820 H     1 <1>   0.1500 
 27 H        2.1800    -2.5270     0.9340 H     1 <1>   0.1500 
 28 H       -0.9950     2.4490     1.9400 H     1 <1>   0.0800 
 29 H       -0.5160     4.1130     1.8090 H     1 <1>   0.0800 
 30 H        0.0220     3.1490     3.1720 H     1 <1>   0.0800 
 31 H        3.1960    -3.3630    -1.1660 H     1 <1>   0.1500 
 32 H        4.5020    -0.5170     0.5770 H     1 <1>   0.0800 
 33 H        4.9330     1.1830     0.6280 H     1 <1>   0.0800 
 34 H        3.0410     2.1200    -2.2060 H     1 <1>   0.0800 
 35 H        3.0140     0.4240    -2.6480 H     1 <1>   0.0800 
 36 H        2.1050     4.9710     2.6000 H     1 <1>   0.0800 
 37 H        1.5860     5.5420     1.0180 H     1 <1>   0.0800 
 38 H        3.2860     5.2300     1.3280 H     1 <1>   0.0800 
 39 H        1.8040    -3.6510    -3.1490 H     1 <1>   0.1500 
 40 H        5.4460    -0.8060    -1.5440 H     1 <1>   0.0800 
 41 H        6.5410     0.4160    -0.9160 H     1 <1>   0.0800 
 42 H        5.3420     2.1660    -2.0220 H     1 <1>   0.0800 
 43 H        5.2430     0.8960    -3.2280 H     1 <1>   0.0800 
@<TRIPOS>BOND
  1   1   2  2   
  2   2   3  am  
  3   2   4  1   
  4   3   5  1   
  5   3  23  1   
  6   4   6  1   
  7   4  24  1   
  8   4  25  1   
  9   5   7  1   
 10   5   8  2   
 11   6   9  ar  
 12   6  10  ar  
 13   7  11  2   
 14   7  12  1   
 15   8  13  1   
 16   8  14  1   
 17   9  15  ar  
 18   9  26  1   
 19  10  16  ar  
 20  10  27  1   
 21  11  13  1   
 22  12  17  1   
 23  12  18  1   
 24  13  19  1   
 25  14  28  1   
 26  14  29  1   
 27  14  30  1   
 28  15  20  ar  
 29  16  20  ar  
 30  16  31  1   
 31  17  21  1   
 32  17  32  1   
 33  17  33  1   
 34  18  22  1   
 35  18  34  1   
 36  18  35  1   
 37  19  36  1   
 38  19  37  1   
 39  19  38  1   
 40  20  39  1   
 41  21  22  1   
 42  21  40  1   
 43  21  41  1   
 44  22  42  1   
 45  22  43  1   
@<TRIPOS>SUBSTRUCTURE
  1 ****   3 GROUP 4 **** **** 0

# MOE 2024.06 (io_trps.svl 2023.06)
