@<TRIPOS>MOLECULE
NONAME
43 44 1 0 0 
SMALL
USER_CHARGES


@<TRIPOS>ATOM
  1 S       -0.1720     0.2370    -0.1440 S.o2  1 <1>   1.3330 
  2 O       -0.4770    -0.3220     1.1540 O.2   1 <1>  -0.6500 
  3 O       -0.6940     1.5370    -0.5000 O.2   1 <1>  -0.6500 
  4 N       -0.6910    -0.8770    -1.3160 N.am  1 <1>  -0.8490 
  5 C        1.6020     0.2690    -0.4040 C.3   1 <1>  -0.0550 
  6 C       -0.5790    -2.2730    -0.8800 C.3   1 <1>   0.1160 
  7 C       -2.0580    -0.6070    -1.7720 C.3   1 <1>   0.1160 
  8 C        2.3450     1.2790     0.4930 C.3   1 <1>  -0.0800 
  9 C        3.7960     1.4160     0.0650 C.3   1 <1>   0.2200 
 10 C        2.5020     0.7660     1.9240 C.3   1 <1>   0.1200 
 11 N        4.3110     2.7300     0.5110 N.am  1 <1>  -0.7300 
 12 C        4.4820     0.2930     0.8430 C.3   1 <1>   0.1200 
 13 O        3.6460    -0.0310     1.9180 O.3   1 <1>  -0.5600 
 14 C        4.7540     3.7470    -0.2920 C.2   1 <1>   0.5440 
 15 O        4.7030     3.5610    -1.4960 O.2   1 <1>  -0.5700 
 16 C        5.2770     4.9810     0.3180 C.ar  1 <1>   0.3960 
 17 N        5.6650     4.8830     1.6070 N.ar  1 <1>  -0.6200 
 18 C        5.3670     6.2070    -0.3730 C.ar  1 <1>  -0.1440 
 19 C        6.1510     5.9620     2.1870 C.ar  1 <1>   0.1600 
 20 C        5.8810     7.3210     0.2610 C.ar  1 <1>  -0.1500 
 21 C        4.9100     6.3870    -1.8200 C.3   1 <1>  -0.0970 
 22 C        6.2820     7.1880     1.5690 C.ar  1 <1>  -0.1500 
 23 H        2.0050    -0.7120    -0.2480 H     1 <1>   0.0800 
 24 H        1.7760     0.5340    -1.4290 H     1 <1>   0.0800 
 25 H       -0.8310    -2.9350    -1.6910 H     1 <1>   0.0800 
 26 H       -1.2420    -2.4650    -0.0520 H     1 <1>   0.0800 
 27 H        0.4300    -2.4870    -0.5700 H     1 <1>   0.0800 
 28 H       -2.3490    -1.3210    -2.5230 H     1 <1>   0.0800 
 29 H       -2.1140     0.3780    -2.2070 H     1 <1>   0.0800 
 30 H       -2.7460    -0.6580    -0.9450 H     1 <1>   0.0800 
 31 H        1.8340     2.2270     0.4600 H     1 <1>   0.0800 
 32 H        3.9340     1.3050    -0.9970 H     1 <1>   0.0800 
 33 H        1.6690     0.1850     2.2760 H     1 <1>   0.0800 
 34 H        2.6780     1.5830     2.6020 H     1 <1>   0.0800 
 35 H        4.4530     2.8480     1.5190 H     1 <1>   0.3700 
 36 H        5.4480     0.5840     1.2150 H     1 <1>   0.0800 
 37 H        4.5770    -0.5870     0.2330 H     1 <1>   0.0800 
 38 H        6.4640     5.8670     3.2140 H     1 <1>   0.1500 
 39 H        5.9700     8.2690    -0.2400 H     1 <1>   0.1500 
 40 H        4.9220     7.4210    -2.1110 H     1 <1>   0.0800 
 41 H        3.9060     6.0200    -1.9420 H     1 <1>   0.0800 
 42 H        5.5600     5.8420    -2.4820 H     1 <1>   0.0800 
 43 H        6.6900     8.0250     2.1060 H     1 <1>   0.1500 
@<TRIPOS>BOND
  1   1   2  2   
  2   1   3  2   
  3   1   4  am  
  4   1   5  1   
  5   4   6  1   
  6   4   7  1   
  7   5   8  1   
  8   5  23  1   
  9   5  24  1   
 10   6  25  1   
 11   6  26  1   
 12   6  27  1   
 13   7  28  1   
 14   7  29  1   
 15   7  30  1   
 16   8   9  1   
 17   8  10  1   
 18   8  31  1   
 19   9  11  1   
 20   9  12  1   
 21   9  32  1   
 22  10  13  1   
 23  10  33  1   
 24  10  34  1   
 25  11  14  am  
 26  11  35  1   
 27  12  13  1   
 28  12  36  1   
 29  12  37  1   
 30  14  15  2   
 31  14  16  1   
 32  16  17  ar  
 33  16  18  ar  
 34  17  19  ar  
 35  18  20  ar  
 36  18  21  1   
 37  19  22  ar  
 38  19  38  1   
 39  20  22  ar  
 40  20  39  1   
 41  21  40  1   
 42  21  41  1   
 43  21  42  1   
 44  22  43  1   
@<TRIPOS>SUBSTRUCTURE
  1 ****   9 GROUP 4 **** **** 0

# MOE 2024.06 (io_trps.svl 2023.06)
