@<TRIPOS>MOLECULE
NONAME
56 58 1 0 0 
SMALL
USER_CHARGES


@<TRIPOS>ATOM
  1 O        0.7630    -1.7250    -0.2410 O.3   1 <1>  -0.3630 
  2 C        0.1880    -2.7230     0.4780 C.ar  1 <1>   0.0820 
  3 C        0.4020    -0.3730    -0.0670 C.3   1 <1>   0.1200 
  4 C        0.6150    -4.0220     0.2210 C.ar  1 <1>  -0.1440 
  5 C       -0.7990    -2.4940     1.4350 C.ar  1 <1>  -0.1500 
  6 C        1.2340     0.4710    -1.0330 C.3   1 <1>  -0.1600 
  7 C        0.0540    -5.0670     0.9410 C.ar  1 <1>  -0.1500 
  8 C        1.6570    -4.2510    -0.8740 C.3   1 <1>   0.2640 
  9 C       -1.3700    -3.5510     2.1190 C.ar  1 <1>  -0.1500 
 10 C        0.8950     1.9610    -0.9060 C.3   1 <1>  -0.2400 
 11 C       -0.9530    -4.8480     1.8670 C.ar  1 <1>  -0.1430 
 12 O        2.1760    -5.5410    -0.8100 O.3   1 <1>  -0.6800 
 13 C       -1.6030    -6.0360     2.5520 C.3   1 <1>   0.4860 
 14 N       -2.2040    -6.8870     1.4960 N.4   1 <1>  -0.9590 
 15 C       -3.2440    -6.2280     0.6560 C.3   1 <1>   0.3430 
 16 C       -2.7140    -8.2190     1.8760 C.3   1 <1>   0.3430 
 17 C       -4.0870    -7.3690     0.0710 C.3   1 <1>   0.2000 
 18 C       -3.5370    -8.6730     0.6680 C.3   1 <1>  -0.0800 
 19 O       -5.4120    -7.2160     0.4630 O.3   1 <1>  -0.6800 
 20 C       -2.7170    -9.4990    -0.3540 C.3   1 <1>   0.0210 
 21 C       -1.3290    -8.9810    -0.7210 C.2   1 <1>   0.1080 
 22 N       -1.0270    -7.7330    -0.9250 N.2   1 <1>  -0.7070 
 23 C       -0.2300    -9.8140    -0.8970 C.2   1 <1>  -0.1500 
 24 N        0.2850    -7.7450    -1.2700 N.pl3 1 <1>   0.3000 
 25 C        0.7850    -8.9950    -1.2420 C.2   1 <1>  -0.3320 
 26 C        2.2290    -9.3290    -1.5660 C.3   1 <1>  -0.0600 
 27 H       -0.6480    -0.2700    -0.2810 H     1 <1>   0.0800 
 28 H        0.6060    -0.0940     0.9530 H     1 <1>   0.0800 
 29 H       -1.1390    -1.4990     1.6550 H     1 <1>   0.1500 
 30 H        2.2790     0.3270    -0.8190 H     1 <1>   0.0800 
 31 H        1.0400     0.1490    -2.0410 H     1 <1>   0.0800 
 32 H        0.3910    -6.0720     0.7720 H     1 <1>   0.1500 
 33 H        2.4740    -3.5550    -0.7810 H     1 <1>   0.0800 
 34 H        1.2020    -4.1230    -1.8420 H     1 <1>   0.0800 
 35 H       -2.1420    -3.3490     2.8440 H     1 <1>   0.1500 
 36 H        1.0960     2.3100     0.0920 H     1 <1>   0.0800 
 37 H       -0.1430     2.1330    -1.1320 H     1 <1>   0.0800 
 38 H        1.4930     2.5320    -1.5940 H     1 <1>   0.0800 
 39 H        2.7880    -5.5860    -0.0480 H     1 <1>   0.4000 
 40 H       -2.3590    -5.7020     3.2420 H     1 <1>   0.0800 
 41 H       -0.8540    -6.5900     3.0940 H     1 <1>   0.0800 
 42 H       -1.4570    -7.0810     0.7930 H     1 <1>   0.4500 
 43 H       -3.8630    -5.5750     1.2460 H     1 <1>   0.0800 
 44 H       -2.7730    -5.6650    -0.1350 H     1 <1>   0.0800 
 45 H       -1.9080    -8.9050     2.0870 H     1 <1>   0.0800 
 46 H       -3.3520    -8.1330     2.7400 H     1 <1>   0.0800 
 47 H       -4.0590    -7.3580    -1.0070 H     1 <1>   0.0800 
 48 H       -4.3450    -9.3020     0.9990 H     1 <1>   0.0800 
 49 H       -5.5440    -7.3310     1.4230 H     1 <1>   0.4000 
 50 H       -3.2840    -9.5990    -1.2620 H     1 <1>   0.0800 
 51 H       -2.5960   -10.4920     0.0410 H     1 <1>   0.0800 
 52 H       -0.2120   -10.8840    -0.7870 H     1 <1>   0.1500 
 53 H        0.8300    -6.8900    -1.4870 H     1 <1>   0.2700 
 54 H        2.3960   -10.3880    -1.4770 H     1 <1>   0.0800 
 55 H        2.8920    -8.8180    -0.8900 H     1 <1>   0.0800 
 56 H        2.4620    -9.0290    -2.5730 H     1 <1>   0.0800 
@<TRIPOS>BOND
  1   1   2  1   
  2   1   3  1   
  3   2   4  ar  
  4   2   5  ar  
  5   3   6  1   
  6   3  27  1   
  7   3  28  1   
  8   4   7  ar  
  9   4   8  1   
 10   5   9  ar  
 11   5  29  1   
 12   6  10  1   
 13   6  30  1   
 14   6  31  1   
 15   7  11  ar  
 16   7  32  1   
 17   8  12  1   
 18   8  33  1   
 19   8  34  1   
 20   9  11  ar  
 21   9  35  1   
 22  10  36  1   
 23  10  37  1   
 24  10  38  1   
 25  11  13  1   
 26  12  39  1   
 27  13  14  1   
 28  13  40  1   
 29  13  41  1   
 30  14  15  1   
 31  14  16  1   
 32  14  42  1   
 33  15  17  1   
 34  15  43  1   
 35  15  44  1   
 36  16  18  1   
 37  16  45  1   
 38  16  46  1   
 39  17  18  1   
 40  17  19  1   
 41  17  47  1   
 42  18  20  1   
 43  18  48  1   
 44  19  49  1   
 45  20  21  1   
 46  20  50  1   
 47  20  51  1   
 48  21  22  2   
 49  21  23  1   
 50  22  24  1   
 51  23  25  2   
 52  23  52  1   
 53  24  25  1   
 54  24  53  1   
 55  25  26  1   
 56  26  54  1   
 57  26  55  1   
 58  26  56  1   
@<TRIPOS>SUBSTRUCTURE
  1 ****   7 GROUP 4 **** **** 0

# MOE 2024.06 (io_trps.svl 2023.06)
