@<TRIPOS>MOLECULE
NONAME
57 60 1 0 0 
SMALL
USER_CHARGES


@<TRIPOS>ATOM
  1 O       -5.2180     2.3900     1.8300 O.2   1 <1>  -0.5700 
  2 C       -5.0730     3.0080     0.8030 C.2   1 <1>   0.5690 
  3 N       -5.5830     2.5160    -0.3670 N.am  1 <1>  -0.6600 
  4 C       -4.2150     4.2600     0.8170 C.3   1 <1>  -0.0990 
  5 C       -6.6710     1.4870    -0.2900 C.3   1 <1>   0.1400 
  6 C       -4.6510     2.2140    -1.4920 C.3   1 <1>   0.1400 
  7 C       -2.7210     3.9090     0.9170 C.3   1 <1>  -0.1600 
  8 C       -6.0850     0.0610    -0.1030 C.3   1 <1>   0.4230 
  9 C       -3.9840     0.8310    -1.2700 C.3   1 <1>   0.3430 
 10 C       -1.8280     5.1450     0.8550 C.3   1 <1>   0.1200 
 11 N       -4.5710     0.0720    -0.0960 N.4   1 <1>  -0.9590 
 12 C       -6.6160    -0.9310    -1.1610 C.3   1 <1>   0.1200 
 13 O       -0.5380     4.6850     0.6520 O.3   1 <1>  -0.5600 
 14 C       -4.0450    -1.3150     0.0810 C.3   1 <1>   0.5180 
 15 O       -6.0630    -2.2020    -0.9630 O.3   1 <1>  -0.5600 
 16 C        0.4340     5.6830     0.6140 C.3   1 <1>   0.2630 
 17 C       -2.5040    -1.2760     0.0960 C.3   1 <1>  -0.1950 
 18 C       -4.6590    -2.2650    -0.9790 C.3   1 <1>   0.1200 
 19 C        1.7680     5.0450     0.2630 C.ar  1 <1>  -0.1440 
 20 C       -1.6290    -1.3420    -1.1230 C.3   1 <1>  -0.2000 
 21 C       -1.6550    -2.4870    -0.1510 C.3   1 <1>  -0.2000 
 22 C        2.3890     5.3240    -0.9460 C.ar  1 <1>  -0.1500 
 23 C        2.3790     4.1770     1.1550 C.ar  1 <1>  -0.1500 
 24 C        3.6070     4.7450    -1.2570 C.ar  1 <1>  -0.1500 
 25 C        3.5980     3.5980     0.8460 C.ar  1 <1>  -0.1500 
 26 C        4.2130     3.8820    -0.3600 C.ar  1 <1>  -0.1500 
 27 H       -4.4080     4.8330    -0.0720 H     1 <1>   0.0800 
 28 H       -4.5020     4.8570     1.6640 H     1 <1>   0.0800 
 29 H       -7.3210     1.7110     0.5400 H     1 <1>   0.0800 
 30 H       -7.2720     1.5380    -1.1820 H     1 <1>   0.0800 
 31 H       -5.2030     2.2030    -2.4160 H     1 <1>   0.0800 
 32 H       -3.8980     2.9760    -1.5860 H     1 <1>   0.0800 
 33 H       -2.4470     3.2550     0.1100 H     1 <1>   0.0800 
 34 H       -2.5350     3.3950     1.8450 H     1 <1>   0.0800 
 35 H       -6.4290    -0.2940     0.8550 H     1 <1>   0.0800 
 36 H       -2.9300     0.9840    -1.1040 H     1 <1>   0.0800 
 37 H       -4.0830     0.2490    -2.1710 H     1 <1>   0.0800 
 38 H       -1.8700     5.7000     1.7770 H     1 <1>   0.0800 
 39 H       -2.0990     5.7770     0.0250 H     1 <1>   0.0800 
 40 H       -4.3360     0.6220     0.7480 H     1 <1>   0.4500 
 41 H       -6.3810    -0.6050    -2.1600 H     1 <1>   0.0800 
 42 H       -7.6850    -1.0280    -1.0760 H     1 <1>   0.0800 
 43 H       -4.3640    -1.6800     1.0440 H     1 <1>   0.0800 
 44 H        0.1560     6.4130    -0.1260 H     1 <1>   0.0800 
 45 H        0.4870     6.1500     1.5830 H     1 <1>   0.0800 
 46 H       -2.1580    -0.6580     0.9070 H     1 <1>   0.1000 
 47 H       -4.3840    -3.2820    -0.7640 H     1 <1>   0.0800 
 48 H       -4.3180    -2.0230    -1.9690 H     1 <1>   0.0800 
 49 H       -2.0300    -1.5270    -2.1050 H     1 <1>   0.1000 
 50 H       -0.7360    -0.7390    -1.1600 H     1 <1>   0.1000 
 51 H       -0.7880    -2.6480     0.4680 H     1 <1>   0.1000 
 52 H       -2.0840    -3.4180    -0.4840 H     1 <1>   0.1000 
 53 H        1.9260     5.9900    -1.6520 H     1 <1>   0.1500 
 54 H        1.9000     3.9470     2.0910 H     1 <1>   0.1500 
 55 H        4.0830     4.9650    -2.1960 H     1 <1>   0.1500 
 56 H        4.0660     2.9250     1.5430 H     1 <1>   0.1500 
 57 H        5.1600     3.4320    -0.6020 H     1 <1>   0.1500 
@<TRIPOS>BOND
  1   1   2  2   
  2   2   3  am  
  3   2   4  1   
  4   3   5  1   
  5   3   6  1   
  6   4   7  1   
  7   4  27  1   
  8   4  28  1   
  9   5   8  1   
 10   5  29  1   
 11   5  30  1   
 12   6   9  1   
 13   6  31  1   
 14   6  32  1   
 15   7  10  1   
 16   7  33  1   
 17   7  34  1   
 18   8  11  1   
 19   8  12  1   
 20   8  35  1   
 21   9  11  1   
 22   9  36  1   
 23   9  37  1   
 24  10  13  1   
 25  10  38  1   
 26  10  39  1   
 27  11  14  1   
 28  11  40  1   
 29  12  15  1   
 30  12  41  1   
 31  12  42  1   
 32  13  16  1   
 33  14  17  1   
 34  14  18  1   
 35  14  43  1   
 36  15  18  1   
 37  16  19  1   
 38  16  44  1   
 39  16  45  1   
 40  17  20  1   
 41  17  21  1   
 42  17  46  1   
 43  18  47  1   
 44  18  48  1   
 45  19  22  ar  
 46  19  23  ar  
 47  20  21  1   
 48  20  49  1   
 49  20  50  1   
 50  21  51  1   
 51  21  52  1   
 52  22  24  ar  
 53  22  53  1   
 54  23  25  ar  
 55  23  54  1   
 56  24  26  ar  
 57  24  55  1   
 58  25  26  ar  
 59  25  56  1   
 60  26  57  1   
@<TRIPOS>SUBSTRUCTURE
  1 ****   7 GROUP 4 **** **** 0

# MOE 2024.06 (io_trps.svl 2023.06)
