@<TRIPOS>MOLECULE
NONAME
49 52 1 0 0 
SMALL
USER_CHARGES


@<TRIPOS>ATOM
  1 O       -0.5210     2.0430     2.9760 O.2   1 <1>  -0.5700 
  2 C       -0.0700     2.5720     1.9790 C.2   1 <1>   0.6160 
  3 N       -0.9260     2.9540     0.9670 N.am  1 <1>  -0.6600 
  4 C        1.3520     2.8150     1.9040 C.2   1 <1>  -0.0140 
  5 C       -2.4100     2.8120     1.0900 C.3   1 <1>   0.1400 
  6 C       -0.4950     3.6370    -0.2840 C.3   1 <1>   0.1400 
  7 C        2.1890     2.0240     1.0280 C.ar  1 <1>   0.0280 
  8 C        1.9290     3.7990     2.6490 C.2   1 <1>  -0.1360 
  9 C       -3.0050     2.0270    -0.1060 C.3   1 <1>   0.0000 
 10 C       -1.0320     2.8720    -1.4990 C.3   1 <1>  -0.1600 
 11 C        3.5560     2.3410     0.9330 C.ar  1 <1>   0.1170 
 12 C        1.7130     0.9540     0.2640 C.ar  1 <1>  -0.1500 
 13 C        3.3110     4.1010     2.5670 C.2   1 <1>   0.6160 
 14 C       -4.5430     1.9230    -0.0280 C.3   1 <1>   0.2000 
 15 C       -2.5580     2.6900    -1.4280 C.3   1 <1>  -0.1600 
 16 C       -2.5940     0.5460    -0.0300 C.3   1 <1>  -0.1600 
 17 N        4.0680     3.3750     1.7050 N.am  1 <1>  -0.5470 
 18 C        4.3830     1.6200     0.0780 C.ar  1 <1>  -0.1500 
 19 C        2.5370     0.2410    -0.5820 C.ar  1 <1>  -0.1440 
 20 O        3.8450     4.9820     3.2140 O.2   1 <1>  -0.5700 
 21 O       -5.1390     3.0640     0.4840 O.3   1 <1>  -0.6800 
 22 C       -4.8660     0.7190     0.8590 C.3   1 <1>  -0.1600 
 23 C       -3.5730    -0.1000     0.9520 C.3   1 <1>  -0.1600 
 24 C        3.8800     0.5820    -0.6750 C.ar  1 <1>  -0.1500 
 25 C        1.9980    -0.9120    -1.4090 C.3   1 <1>  -0.0970 
 26 H       -2.6700     2.3250     2.0140 H     1 <1>   0.0800 
 27 H       -2.8300     3.8020     1.1170 H     1 <1>   0.0800 
 28 H       -0.8900     4.6390    -0.2860 H     1 <1>   0.0800 
 29 H        0.5760     3.7030    -0.3470 H     1 <1>   0.0800 
 30 H        1.3570     4.3970     3.3330 H     1 <1>   0.1500 
 31 H       -0.7780     3.4110    -2.3940 H     1 <1>   0.0800 
 32 H       -0.5480     1.9130    -1.5520 H     1 <1>   0.0800 
 33 H        0.6780     0.6770     0.3400 H     1 <1>   0.1500 
 34 H       -4.9450     1.7590    -1.0140 H     1 <1>   0.0800 
 35 H       -2.8900     2.1060    -2.2690 H     1 <1>   0.0800 
 36 H       -3.0260     3.6570    -1.5030 H     1 <1>   0.0800 
 37 H       -2.7150     0.0840    -0.9940 H     1 <1>   0.0800 
 38 H       -1.5770     0.4110     0.2900 H     1 <1>   0.0800 
 39 H        5.0570     3.6190     1.6800 H     1 <1>   0.3700 
 40 H        5.4250     1.8750     0.0070 H     1 <1>   0.1500 
 41 H       -5.0070     3.1030     1.4490 H     1 <1>   0.4000 
 42 H       -5.1810     1.0160     1.8440 H     1 <1>   0.0800 
 43 H       -5.6450     0.1350     0.4000 H     1 <1>   0.0800 
 44 H       -3.1740    -0.0330     1.9510 H     1 <1>   0.0800 
 45 H       -3.7380    -1.1380     0.7160 H     1 <1>   0.0800 
 46 H        4.5280     0.0300    -1.3350 H     1 <1>   0.1500 
 47 H        2.5220    -1.8170    -1.1590 H     1 <1>   0.0800 
 48 H        2.1360    -0.7080    -2.4560 H     1 <1>   0.0800 
 49 H        0.9490    -1.0620    -1.2250 H     1 <1>   0.0800 
@<TRIPOS>BOND
  1   1   2  2   
  2   2   3  am  
  3   2   4  1   
  4   3   5  1   
  5   3   6  1   
  6   4   7  1   
  7   4   8  2   
  8   5   9  1   
  9   5  26  1   
 10   5  27  1   
 11   6  10  1   
 12   6  28  1   
 13   6  29  1   
 14   7  11  ar  
 15   7  12  ar  
 16   8  13  1   
 17   8  30  1   
 18   9  14  1   
 19   9  15  1   
 20   9  16  1   
 21  10  15  1   
 22  10  31  1   
 23  10  32  1   
 24  11  17  1   
 25  11  18  ar  
 26  12  19  ar  
 27  12  33  1   
 28  13  17  am  
 29  13  20  2   
 30  14  21  1   
 31  14  22  1   
 32  14  34  1   
 33  15  35  1   
 34  15  36  1   
 35  16  23  1   
 36  16  37  1   
 37  16  38  1   
 38  17  39  1   
 39  18  24  ar  
 40  18  40  1   
 41  19  24  ar  
 42  19  25  1   
 43  21  41  1   
 44  22  23  1   
 45  22  42  1   
 46  22  43  1   
 47  23  44  1   
 48  23  45  1   
 49  24  46  1   
 50  25  47  1   
 51  25  48  1   
 52  25  49  1   
@<TRIPOS>SUBSTRUCTURE
  1 ****   3 GROUP 4 **** **** 0

# MOE 2024.06 (io_trps.svl 2023.06)
