@<TRIPOS>MOLECULE
NONAME
51 53 1 0 0 
SMALL
USER_CHARGES


@<TRIPOS>ATOM
  1 O       -0.6650     1.4080     2.0080 O.2   1 <1>  -0.5700 
  2 C       -0.3760     2.3910     1.3510 C.2   1 <1>   0.5440 
  3 N       -1.3760     3.1770     0.8150 N.am  1 <1>  -0.6600 
  4 C        1.0210     2.7010     1.1280 C.ar  1 <1>   0.0860 
  5 C       -2.8260     2.8630     1.0530 C.3   1 <1>   0.1400 
  6 C       -1.0850     4.2060    -0.2280 C.3   1 <1>   0.1400 
  7 C        1.6050     3.8460     1.6610 C.ar  1 <1>  -0.1500 
  8 C        1.8260     1.8590     0.3660 C.ar  1 <1>  -0.1500 
  9 C       -3.6020     2.7670    -0.2850 C.3   1 <1>   0.0000 
 10 C       -2.3380     5.0030    -0.6060 C.3   1 <1>  -0.1600 
 11 C        2.9340     4.1570     1.4320 C.ar  1 <1>   0.0830 
 12 C        3.1570     2.1510     0.1250 C.ar  1 <1>   0.0830 
 13 C       -5.0670     2.3570    -0.0470 C.3   1 <1>   0.2000 
 14 C       -3.5030     4.1060    -1.0650 C.3   1 <1>  -0.1600 
 15 C       -3.0910     1.5670    -1.1090 C.3   1 <1>  -0.1600 
 16 O        3.3910     5.3040     1.9930 O.3   1 <1>  -0.3630 
 17 C        3.7170     3.3070     0.6580 C.ar  1 <1>  -0.1500 
 18 O        3.8420     1.2640    -0.6390 O.3   1 <1>  -0.3630 
 19 O       -5.6060     3.0180     1.0590 O.3   1 <1>  -0.5600 
 20 C       -5.0530     0.8380     0.1600 C.3   1 <1>  -0.1600 
 21 C       -3.7580     0.3350    -0.4920 C.3   1 <1>  -0.1600 
 22 C        4.7440     5.6890     1.8890 C.3   1 <1>   0.0400 
 23 C        5.2190     1.4190    -0.8980 C.3   1 <1>   0.0400 
 24 C       -6.9920     2.9450     1.1710 C.3   1 <1>   0.0400 
 25 H       -2.9300     1.9460     1.6050 H     1 <1>   0.0800 
 26 H       -3.2490     3.6440     1.6600 H     1 <1>   0.0800 
 27 H       -0.3350     4.8870     0.1350 H     1 <1>   0.0800 
 28 H       -0.6980     3.7120    -1.1030 H     1 <1>   0.0800 
 29 H        1.0100     4.5050     2.2670 H     1 <1>   0.1500 
 30 H        1.4020     0.9600    -0.0440 H     1 <1>   0.1500 
 31 H       -2.6440     5.5730     0.2540 H     1 <1>   0.0800 
 32 H       -2.0960     5.7050    -1.3840 H     1 <1>   0.0800 
 33 H       -5.6480     2.6010    -0.9210 H     1 <1>   0.0800 
 34 H       -3.4060     3.9120    -2.1180 H     1 <1>   0.0800 
 35 H       -4.4120     4.6670    -0.9310 H     1 <1>   0.0800 
 36 H       -3.4210     1.6540    -2.1290 H     1 <1>   0.0800 
 37 H       -2.0190     1.4780    -1.1050 H     1 <1>   0.0800 
 38 H        4.7440     3.5410     0.4740 H     1 <1>   0.1500 
 39 H       -5.0400     0.6030     1.2110 H     1 <1>   0.0800 
 40 H       -5.9130     0.3880    -0.3020 H     1 <1>   0.0800 
 41 H       -3.1130    -0.0820     0.2640 H     1 <1>   0.0800 
 42 H       -3.9510    -0.4180    -1.2360 H     1 <1>   0.0800 
 43 H        4.8720     6.6070     2.4320 H     1 <1>   0.0800 
 44 H        4.9850     5.8420     0.8520 H     1 <1>   0.0800 
 45 H        5.3610     4.9200     2.3200 H     1 <1>   0.0800 
 46 H        5.5420     0.5860    -1.4950 H     1 <1>   0.0800 
 47 H        5.7510     1.4250     0.0370 H     1 <1>   0.0800 
 48 H        5.3730     2.3360    -1.4370 H     1 <1>   0.0800 
 49 H       -7.2860     3.5050     2.0410 H     1 <1>   0.0800 
 50 H       -7.2900     1.9180     1.2860 H     1 <1>   0.0800 
 51 H       -7.4430     3.3760     0.2930 H     1 <1>   0.0800 
@<TRIPOS>BOND
  1   1   2  2   
  2   2   3  am  
  3   2   4  1   
  4   3   5  1   
  5   3   6  1   
  6   4   7  ar  
  7   4   8  ar  
  8   5   9  1   
  9   5  25  1   
 10   5  26  1   
 11   6  10  1   
 12   6  27  1   
 13   6  28  1   
 14   7  11  ar  
 15   7  29  1   
 16   8  12  ar  
 17   8  30  1   
 18   9  13  1   
 19   9  14  1   
 20   9  15  1   
 21  10  14  1   
 22  10  31  1   
 23  10  32  1   
 24  11  16  1   
 25  11  17  ar  
 26  12  17  ar  
 27  12  18  1   
 28  13  19  1   
 29  13  20  1   
 30  13  33  1   
 31  14  34  1   
 32  14  35  1   
 33  15  21  1   
 34  15  36  1   
 35  15  37  1   
 36  16  22  1   
 37  17  38  1   
 38  18  23  1   
 39  19  24  1   
 40  20  21  1   
 41  20  39  1   
 42  20  40  1   
 43  21  41  1   
 44  21  42  1   
 45  22  43  1   
 46  22  44  1   
 47  22  45  1   
 48  23  46  1   
 49  23  47  1   
 50  23  48  1   
 51  24  49  1   
 52  24  50  1   
 53  24  51  1   
@<TRIPOS>SUBSTRUCTURE
  1 ****   3 GROUP 4 **** **** 0

# MOE 2024.06 (io_trps.svl 2023.06)
