@<TRIPOS>MOLECULE
NONAME
52 54 1 0 0 
SMALL
USER_CHARGES


@<TRIPOS>ATOM
  1 O        0.1250    -3.4400     1.4590 O.co2 1 <1>  -0.9000 
  2 C        1.0030    -4.1720     0.9880 C.2   1 <1>   1.0330 
  3 O        0.9640    -5.3690     1.3450 O.co2 1 <1>  -0.9000 
  4 C        1.7680    -3.7870    -0.1530 C.2   1 <1>  -0.2330 
  5 C        2.0200    -4.6700    -1.2000 C.2   1 <1>   0.3720 
  6 C        2.3280    -2.6240    -0.5840 C.2   1 <1>   0.0870 
  7 N        2.6010    -4.0920    -2.1840 N.2   1 <1>  -0.4100 
  8 N        1.6770    -6.0140    -1.1830 N.pl3 1 <1>  -0.8520 
  9 O        2.7940    -2.8600    -1.7910 O.3   1 <1>  -0.0190 
 10 C        2.5010    -1.3090    -0.0170 C.ar  1 <1>   0.0530 
 11 C        0.5440    -6.4020    -2.0640 C.3   1 <1>   0.2090 
 12 C        1.5300    -0.6840     0.7660 C.ar  1 <1>  -0.1500 
 13 C        3.6800    -0.5980    -0.2490 C.ar  1 <1>  -0.1500 
 14 C       -0.8350    -5.8200    -1.6380 C.3   1 <1>   0.4230 
 15 C        1.7230     0.5760     1.2990 C.ar  1 <1>  -0.1500 
 16 C        3.8820     0.6640     0.2760 C.ar  1 <1>  -0.1500 
 17 N       -1.1580    -6.1010    -0.1960 N.4   1 <1>  -0.9590 
 18 C       -1.9160    -6.3450    -2.6100 C.3   1 <1>  -0.1600 
 19 C        2.9080     1.2640     1.0570 C.ar  1 <1>   0.0830 
 20 C       -1.3870    -7.5240     0.2160 C.3   1 <1>   0.3430 
 21 C       -2.1060    -5.1280     0.4450 C.3   1 <1>   0.3430 
 22 C       -3.3230    -5.7480    -2.4580 C.3   1 <1>  -0.2400 
 23 O        3.1790     2.5000     1.5400 O.3   1 <1>  -0.3630 
 24 C       -2.7430    -7.7380     0.9210 C.3   1 <1>   0.1200 
 25 C       -2.3930    -5.5520     1.8950 C.3   1 <1>   0.1200 
 26 C        2.2630     3.1780     2.3710 C.3   1 <1>   0.0400 
 27 O       -2.9840    -6.8320     1.9690 O.3   1 <1>  -0.5600 
 28 H        1.5260    -6.2690    -0.1870 H     1 <1>   0.4000 
 29 H        0.4890    -7.4750    -2.0950 H     1 <1>   0.0800 
 30 H        0.7680    -6.0670    -3.0630 H     1 <1>   0.0800 
 31 H        0.6020    -1.1880     0.9590 H     1 <1>   0.1500 
 32 H        4.4510    -1.0470    -0.8500 H     1 <1>   0.1500 
 33 H       -0.7680    -4.7510    -1.7620 H     1 <1>   0.0800 
 34 H        0.9410     1.0030     1.8980 H     1 <1>   0.1500 
 35 H        4.7970     1.1950     0.0870 H     1 <1>   0.1500 
 36 H       -0.2820    -5.8600     0.3300 H     1 <1>   0.4500 
 37 H       -1.9750    -7.4180    -2.5580 H     1 <1>   0.0800 
 38 H       -1.5860    -6.1070    -3.6070 H     1 <1>   0.0800 
 39 H       -0.6070    -7.8110     0.9030 H     1 <1>   0.0800 
 40 H       -1.3220    -8.1740    -0.6390 H     1 <1>   0.0800 
 41 H       -3.0370    -5.0850    -0.0860 H     1 <1>   0.0800 
 42 H       -1.6780    -4.1400     0.4420 H     1 <1>   0.0800 
 43 H       -3.8190    -6.1320    -1.5850 H     1 <1>   0.0800 
 44 H       -3.9230    -6.0140    -3.3110 H     1 <1>   0.0800 
 45 H       -3.2800    -4.6740    -2.4030 H     1 <1>   0.0800 
 46 H       -2.7900    -8.7300     1.3360 H     1 <1>   0.0800 
 47 H       -3.5440    -7.6360     0.2110 H     1 <1>   0.0800 
 48 H       -3.0610    -4.8520     2.3630 H     1 <1>   0.0800 
 49 H       -1.4740    -5.5660     2.4570 H     1 <1>   0.0800 
 50 H        2.6930     4.1260     2.6390 H     1 <1>   0.0800 
 51 H        2.0940     2.5890     3.2560 H     1 <1>   0.0800 
 52 H        1.3470     3.3310     1.8290 H     1 <1>   0.0800 
@<TRIPOS>BOND
  1   1   2  ar  
  2   2   3  ar  
  3   2   4  1   
  4   4   5  1   
  5   4   6  2   
  6   5   7  2   
  7   5   8  1   
  8   6   9  1   
  9   6  10  1   
 10   7   9  1   
 11   8  11  1   
 12   8  28  1   
 13  10  12  ar  
 14  10  13  ar  
 15  11  14  1   
 16  11  29  1   
 17  11  30  1   
 18  12  15  ar  
 19  12  31  1   
 20  13  16  ar  
 21  13  32  1   
 22  14  17  1   
 23  14  18  1   
 24  14  33  1   
 25  15  19  ar  
 26  15  34  1   
 27  16  19  ar  
 28  16  35  1   
 29  17  20  1   
 30  17  21  1   
 31  17  36  1   
 32  18  22  1   
 33  18  37  1   
 34  18  38  1   
 35  19  23  1   
 36  20  24  1   
 37  20  39  1   
 38  20  40  1   
 39  21  25  1   
 40  21  41  1   
 41  21  42  1   
 42  22  43  1   
 43  22  44  1   
 44  22  45  1   
 45  23  26  1   
 46  24  27  1   
 47  24  46  1   
 48  24  47  1   
 49  25  27  1   
 50  25  48  1   
 51  25  49  1   
 52  26  50  1   
 53  26  51  1   
 54  26  52  1   
@<TRIPOS>SUBSTRUCTURE
  1 ****   4 GROUP 4 **** **** 0

# MOE 2024.06 (io_trps.svl 2023.06)
