@<TRIPOS>MOLECULE
NONAME
45 47 1 0 0 
SMALL
USER_CHARGES


@<TRIPOS>ATOM
  1 O       -3.0200     2.2790    -1.1820 O.2   1 <1>  -0.5700 
  2 C       -2.6900     1.2780    -0.5850 C.2   1 <1>   0.5690 
  3 N       -3.2640     0.0670    -0.9000 N.am  1 <1>  -0.6600 
  4 C       -1.6270     1.4390     0.5130 C.3   1 <1>  -0.0190 
  5 C       -2.9160    -1.2360    -0.2230 C.3   1 <1>   0.3640 
  6 C       -4.3530     0.0560    -1.9260 C.3   1 <1>   0.1400 
  7 C       -1.9540     2.5870     1.4850 C.3   1 <1>  -0.1600 
  8 C       -0.2310     1.6840    -0.0820 C.3   1 <1>  -0.1600 
  9 C       -1.4640    -1.6040    -0.5420 C.ar  1 <1>  -0.1440 
 10 C       -3.8290    -2.4610    -0.5520 C.3   1 <1>   0.2000 
 11 C       -4.7380    -1.3470    -2.3950 C.3   1 <1>   0.1200 
 12 C       -0.8280     2.7650     2.5090 C.3   1 <1>   0.1200 
 13 C        0.7980     1.9110     1.0300 C.3   1 <1>   0.1200 
 14 C       -0.6170    -2.0290     0.4730 C.ar  1 <1>  -0.1500 
 15 C       -0.9680    -1.5250    -1.8380 C.ar  1 <1>  -0.1500 
 16 O       -4.9810    -2.1410    -1.2830 O.3   1 <1>  -0.5600 
 17 C       -4.3090    -3.1830     0.7150 C.3   1 <1>   0.1200 
 18 O        0.3820     2.9650     1.8440 O.3   1 <1>  -0.5600 
 19 C        0.6980    -2.3640     0.2020 C.ar  1 <1>  -0.1500 
 20 C        0.3460    -1.8600    -2.1110 C.ar  1 <1>  -0.1500 
 21 O       -3.2320    -3.6080     1.4880 O.3   1 <1>  -0.6800 
 22 C        1.1810    -2.2790    -1.0910 C.ar  1 <1>  -0.1500 
 23 H       -1.5750     0.5510     1.1070 H     1 <1>   0.0800 
 24 H       -2.9930    -1.0680     0.8370 H     1 <1>   0.0800 
 25 H       -5.2230     0.5330    -1.5080 H     1 <1>   0.0800 
 26 H       -4.0460     0.6370    -2.7800 H     1 <1>   0.0800 
 27 H       -2.8790     2.3830     1.9950 H     1 <1>   0.0800 
 28 H       -2.0740     3.5090     0.9420 H     1 <1>   0.0800 
 29 H       -0.2510     2.5500    -0.7210 H     1 <1>   0.0800 
 30 H        0.0710     0.8430    -0.6780 H     1 <1>   0.0800 
 31 H       -3.2760    -3.1640    -1.1500 H     1 <1>   0.0800 
 32 H       -3.9590    -1.7910    -2.9910 H     1 <1>   0.0800 
 33 H       -5.6410    -1.3060    -2.9770 H     1 <1>   0.0800 
 34 H       -0.7320     1.8990     3.1420 H     1 <1>   0.0800 
 35 H       -1.0100     3.6300     3.1230 H     1 <1>   0.0800 
 36 H        1.7520     2.1770     0.6110 H     1 <1>   0.0800 
 37 H        0.9150     1.0300     1.6390 H     1 <1>   0.0800 
 38 H       -0.9780    -2.1030     1.4860 H     1 <1>   0.1500 
 39 H       -1.6020    -1.1920    -2.6410 H     1 <1>   0.1500 
 40 H       -4.8990    -4.0460     0.4570 H     1 <1>   0.0800 
 41 H       -4.9000    -2.5150     1.3170 H     1 <1>   0.0800 
 42 H        1.3450    -2.6910     0.9970 H     1 <1>   0.1500 
 43 H        0.7200    -1.7920    -3.1180 H     1 <1>   0.1500 
 44 H       -2.7650    -4.3520     1.0550 H     1 <1>   0.4000 
 45 H        2.2030    -2.5400    -1.3040 H     1 <1>   0.1500 
@<TRIPOS>BOND
  1   1   2  2   
  2   2   3  am  
  3   2   4  1   
  4   3   5  1   
  5   3   6  1   
  6   4   7  1   
  7   4   8  1   
  8   4  23  1   
  9   5   9  1   
 10   5  10  1   
 11   5  24  1   
 12   6  11  1   
 13   6  25  1   
 14   6  26  1   
 15   7  12  1   
 16   7  27  1   
 17   7  28  1   
 18   8  13  1   
 19   8  29  1   
 20   8  30  1   
 21   9  14  ar  
 22   9  15  ar  
 23  10  16  1   
 24  10  17  1   
 25  10  31  1   
 26  11  16  1   
 27  11  32  1   
 28  11  33  1   
 29  12  18  1   
 30  12  34  1   
 31  12  35  1   
 32  13  18  1   
 33  13  36  1   
 34  13  37  1   
 35  14  19  ar  
 36  14  38  1   
 37  15  20  ar  
 38  15  39  1   
 39  17  21  1   
 40  17  40  1   
 41  17  41  1   
 42  19  22  ar  
 43  19  42  1   
 44  20  22  ar  
 45  20  43  1   
 46  21  44  1   
 47  22  45  1   
@<TRIPOS>SUBSTRUCTURE
  1 ****   5 GROUP 4 **** **** 0

# MOE 2024.06 (io_trps.svl 2023.06)
