@<TRIPOS>MOLECULE
NONAME
40 43 1 0 0 
SMALL
USER_CHARGES


@<TRIPOS>ATOM
  1 O       -0.0640     1.5100     2.0480 O.2   1 <1>  -0.5700 
  2 C       -0.8500     2.3100     1.6270 C.2   1 <1>   0.6590 
  3 O       -1.1590     2.4550     0.3620 O.3   1 <1>  -0.4300 
  4 C       -1.5700     3.3180     2.4140 C.3   1 <1>  -0.0990 
  5 C       -2.3180     3.2080    -0.0110 C.3   1 <1>   0.2800 
  6 C       -2.1480     4.1420     1.2670 C.3   1 <1>  -0.0190 
  7 C       -2.3910     2.3130    -1.3040 C.3   1 <1>  -0.1600 
  8 C       -3.6620     3.9580    -0.4130 C.3   1 <1>  -0.1600 
  9 C       -1.2390     5.3250     0.9310 C.2   1 <1>   0.5690 
 10 C       -3.1550     2.9480    -2.4490 C.3   1 <1>  -0.1600 
 11 C       -4.3130     3.5210    -1.7170 C.3   1 <1>  -0.1600 
 12 O       -1.5120     6.3930     1.4190 O.2   1 <1>  -0.5700 
 13 N       -0.1590     5.1540     0.1160 N.am  1 <1>  -0.4940 
 14 C        0.8270     6.0590    -0.2960 C.2   1 <1>   0.2510 
 15 N        2.0240     5.6400    -0.5630 N.2   1 <1>  -0.3380 
 16 N        0.7070     7.3920    -0.4940 N.pl3 1 <1>   0.3340 
 17 N        2.7490     6.6950    -0.9280 N.2   1 <1>  -0.3380 
 18 C        1.9690     7.7340    -0.8880 C.2   1 <1>   0.3120 
 19 C       -0.2890     8.3630    -0.5040 C.2   1 <1>  -0.1810 
 20 N        2.3310     9.0230    -1.2140 N.2   1 <1>  -0.5760 
 21 C        0.0590     9.6300    -0.8400 C.2   1 <1>  -0.1360 
 22 C        1.4090     9.9210    -1.1840 C.2   1 <1>   0.3750 
 23 C        1.7670    11.3490    -1.5330 C.3   1 <1>  -0.1790 
 24 H       -0.9070     3.8760     3.0510 H     1 <1>   0.0800 
 25 H       -2.3390     2.8360     2.9890 H     1 <1>   0.0800 
 26 H       -3.0430     4.5730     1.6880 H     1 <1>   0.0800 
 27 H       -2.8840     1.3890    -1.0450 H     1 <1>   0.0800 
 28 H       -1.4280     2.0570    -1.7250 H     1 <1>   0.0800 
 29 H       -3.4810     5.0160    -0.5280 H     1 <1>   0.0800 
 30 H       -4.4260     3.8260     0.3370 H     1 <1>   0.0800 
 31 H       -3.4530     2.2310    -3.1950 H     1 <1>   0.0800 
 32 H       -2.5680     3.7290    -2.9050 H     1 <1>   0.0800 
 33 H       -4.7730     4.3370    -2.2500 H     1 <1>   0.0800 
 34 H       -5.0470     2.7530    -1.5330 H     1 <1>   0.0800 
 35 H        0.0750     4.1850    -0.1200 H     1 <1>   0.3700 
 36 H       -1.2870     8.0650    -0.2450 H     1 <1>   0.1500 
 37 H       -0.6560    10.4320    -0.8600 H     1 <1>   0.1500 
 38 H        1.2020    11.6690    -2.3890 H     1 <1>   0.0800 
 39 H        2.8140    11.4230    -1.7650 H     1 <1>   0.0800 
 40 H        1.5520    11.9940    -0.7010 H     1 <1>   0.0800 
@<TRIPOS>BOND
  1   1   2  2   
  2   2   3  1   
  3   2   4  1   
  4   3   5  1   
  5   4   6  1   
  6   4  24  1   
  7   4  25  1   
  8   5   6  1   
  9   5   7  1   
 10   5   8  1   
 11   6   9  1   
 12   6  26  1   
 13   7  10  1   
 14   7  27  1   
 15   7  28  1   
 16   8  11  1   
 17   8  29  1   
 18   8  30  1   
 19   9  12  2   
 20   9  13  am  
 21  10  11  1   
 22  10  31  1   
 23  10  32  1   
 24  11  33  1   
 25  11  34  1   
 26  13  14  1   
 27  13  35  1   
 28  14  15  2   
 29  14  16  1   
 30  15  17  1   
 31  16  18  1   
 32  16  19  1   
 33  17  18  2   
 34  18  20  1   
 35  19  21  2   
 36  19  36  1   
 37  20  22  2   
 38  21  22  1   
 39  21  37  1   
 40  22  23  1   
 41  23  38  1   
 42  23  39  1   
 43  23  40  1   
@<TRIPOS>SUBSTRUCTURE
  1 ****  13 GROUP 4 **** **** 0

# MOE 2024.06 (io_trps.svl 2023.06)
