@<TRIPOS>MOLECULE
NONAME
54 56 1 0 0 
SMALL
USER_CHARGES


@<TRIPOS>ATOM
  1 O       -0.5490    -0.0200    -0.0560 O.3   1 <1>  -0.3430 
  2 C       -1.8740     0.0960     0.2060 C.2   1 <1>   0.2490 
  3 C       -0.1040    -1.1630    -0.7540 C.3   1 <1>   0.0400 
  4 N       -2.7760    -0.7720    -0.0870 N.2   1 <1>  -0.5650 
  5 N       -2.3890     1.1710     0.8150 N.pl3 1 <1>   0.3140 
  6 C       -3.8760    -0.1570     0.3710 C.2   1 <1>   0.5990 
  7 N       -3.7090     0.9950     0.9310 N.2   1 <1>  -0.7070 
  8 C       -1.6920     2.3780     1.3020 C.3   1 <1>   0.0960 
  9 N       -5.1230    -0.7700     0.2400 N.pl3 1 <1>  -0.8210 
 10 C       -1.6790     3.4760     0.2310 C.3   1 <1>  -0.2400 
 11 C       -5.1790    -2.1200     0.8390 C.3   1 <1>   0.2090 
 12 C       -6.2880     0.0760     0.6160 C.3   1 <1>   0.2090 
 13 C       -6.4270    -2.8440     0.3180 C.3   1 <1>  -0.0800 
 14 C       -7.5830    -0.6020     0.1580 C.3   1 <1>  -0.1600 
 15 C       -7.6990    -2.0450     0.6760 C.3   1 <1>  -0.1600 
 16 C       -6.4400    -4.2740     0.8720 C.3   1 <1>   0.3430 
 17 N       -7.6270    -5.0390     0.3990 N.4   1 <1>  -0.9590 
 18 C       -7.8560    -6.3210     1.1410 C.3   1 <1>   0.3430 
 19 C       -7.6810    -5.2770    -1.0850 C.3   1 <1>   0.3430 
 20 C       -9.1940    -6.9760     0.7130 C.3   1 <1>   0.1100 
 21 C       -9.0180    -5.9470    -1.4890 C.3   1 <1>   0.1100 
 22 N       -9.9000    -6.1840    -0.3220 N.3   1 <1>  -0.8100 
 23 C      -11.1580    -6.8280    -0.7230 C.3   1 <1>   0.0300 
 24 H        0.9590    -1.0830    -0.8940 H     1 <1>   0.0800 
 25 H       -0.6020    -1.2040    -1.7070 H     1 <1>   0.0800 
 26 H       -0.3370    -2.0380    -0.1730 H     1 <1>   0.0800 
 27 H       -0.6860     2.1090     1.5690 H     1 <1>   0.0800 
 28 H       -2.2000     2.7270     2.1820 H     1 <1>   0.0800 
 29 H       -1.1610     3.1340    -0.6480 H     1 <1>   0.0800 
 30 H       -1.1760     4.3480     0.6080 H     1 <1>   0.0800 
 31 H       -2.6860     3.7480    -0.0320 H     1 <1>   0.0800 
 32 H       -5.2040    -2.0310     1.9120 H     1 <1>   0.0800 
 33 H       -4.2980    -2.6760     0.5640 H     1 <1>   0.0800 
 34 H       -6.2010     1.0400     0.1410 H     1 <1>   0.0800 
 35 H       -6.2960     0.2250     1.6820 H     1 <1>   0.0800 
 36 H       -6.3230    -2.8870    -0.7520 H     1 <1>   0.0800 
 37 H       -7.6020    -0.5990    -0.9180 H     1 <1>   0.0800 
 38 H       -8.4230    -0.0220     0.4990 H     1 <1>   0.0800 
 39 H       -7.8270    -2.0210     1.7460 H     1 <1>   0.0800 
 40 H       -8.5740    -2.4940     0.2410 H     1 <1>   0.0800 
 41 H       -6.4540    -4.2240     1.9480 H     1 <1>   0.0800 
 42 H       -5.5370    -4.7830     0.5730 H     1 <1>   0.0800 
 43 H       -8.4890    -4.4990     0.5830 H     1 <1>   0.4500 
 44 H       -7.8860    -6.1320     2.2010 H     1 <1>   0.0800 
 45 H       -7.0480    -7.0070     0.9510 H     1 <1>   0.0800 
 46 H       -6.8610    -5.9040    -1.3900 H     1 <1>   0.0800 
 47 H       -7.5940    -4.3420    -1.6130 H     1 <1>   0.0800 
 48 H       -9.8270    -7.0720     1.5790 H     1 <1>   0.0800 
 49 H       -8.9990    -7.9700     0.3450 H     1 <1>   0.0800 
 50 H       -8.8090    -6.8790    -1.9870 H     1 <1>   0.0800 
 51 H       -9.5260    -5.3100    -2.1940 H     1 <1>   0.0800 
 52 H      -11.8000    -6.9500     0.1330 H     1 <1>   0.0800 
 53 H      -10.9720    -7.7940    -1.1610 H     1 <1>   0.0800 
 54 H      -11.6730    -6.2130    -1.4420 H     1 <1>   0.0800 
@<TRIPOS>BOND
  1   1   2  1   
  2   1   3  1   
  3   2   4  2   
  4   2   5  1   
  5   3  24  1   
  6   3  25  1   
  7   3  26  1   
  8   4   6  1   
  9   5   7  1   
 10   5   8  1   
 11   6   7  2   
 12   6   9  1   
 13   8  10  1   
 14   8  27  1   
 15   8  28  1   
 16   9  11  1   
 17   9  12  1   
 18  10  29  1   
 19  10  30  1   
 20  10  31  1   
 21  11  13  1   
 22  11  32  1   
 23  11  33  1   
 24  12  14  1   
 25  12  34  1   
 26  12  35  1   
 27  13  15  1   
 28  13  16  1   
 29  13  36  1   
 30  14  15  1   
 31  14  37  1   
 32  14  38  1   
 33  15  39  1   
 34  15  40  1   
 35  16  17  1   
 36  16  41  1   
 37  16  42  1   
 38  17  18  1   
 39  17  19  1   
 40  17  43  1   
 41  18  20  1   
 42  18  44  1   
 43  18  45  1   
 44  19  21  1   
 45  19  46  1   
 46  19  47  1   
 47  20  22  1   
 48  20  48  1   
 49  20  49  1   
 50  21  22  1   
 51  21  50  1   
 52  21  51  1   
 53  22  23  1   
 54  23  52  1   
 55  23  53  1   
 56  23  54  1   
@<TRIPOS>SUBSTRUCTURE
  1 ****  11 GROUP 4 **** **** 0

# MOE 2024.06 (io_trps.svl 2023.06)
