@<TRIPOS>MOLECULE
NONAME
44 47 1 0 0 
SMALL
USER_CHARGES


@<TRIPOS>ATOM
  1 S        0.9330     4.5900    -0.1900 S.3   1 <1>  -0.0800 
  2 C        2.4200     3.6320    -0.2460 C.2   1 <1>  -0.0450 
  3 C        1.8090     5.9950     0.4160 C.2   1 <1>  -0.1100 
  4 C        2.5940     2.2850    -0.6510 C.2   1 <1>   0.8660 
  5 C        3.4580     4.3880     0.1720 C.2   1 <1>   0.0830 
  6 C        3.1220     5.7220     0.5520 C.2   1 <1>  -0.1500 
  7 O        1.6690     1.5850    -1.0360 O.2   1 <1>  -0.5700 
  8 N        3.8570     1.7360    -0.6120 N.2   1 <1>  -0.6610 
  9 N        4.6830     3.7800     0.1720 N.pl3 1 <1>  -0.5330 
 10 C        4.8350     2.4760    -0.2120 C.2   1 <1>   0.4390 
 11 C        6.2580     1.8980    -0.1490 C.3   1 <1>   0.2700 
 12 N        7.3370     2.8240    -0.6520 N.pl3 1 <1>  -0.8380 
 13 C        7.9720     3.6620     0.2440 C.ar  1 <1>   0.4100 
 14 C        7.1980     3.2640    -2.0690 C.3   1 <1>   0.1290 
 15 N        7.3550     4.8020     0.4900 N.ar  1 <1>  -0.6200 
 16 C        9.1850     3.3070     0.8510 C.ar  1 <1>   0.1600 
 17 C        7.9870     5.5860     1.3790 C.ar  1 <1>   0.3960 
 18 N        9.8320     4.0520     1.7240 N.ar  1 <1>  -0.6200 
 19 C        7.4060     6.8700     1.7740 C.2   1 <1>   0.5440 
 20 C        9.1930     5.1900     1.9660 C.ar  1 <1>   0.1600 
 21 O        7.6380     7.3070     2.8880 O.2   1 <1>  -0.5700 
 22 N        6.5930     7.6310     0.9520 N.am  1 <1>  -0.6600 
 23 C        6.4370     7.4650    -0.5130 C.3   1 <1>   0.1400 
 24 C        5.9760     8.8990     1.4040 C.3   1 <1>   0.1400 
 25 C        5.9010     8.8040    -1.0060 C.3   1 <1>  -0.1600 
 26 C        5.1850     9.4020     0.2020 C.3   1 <1>  -0.1600 
 27 H        1.2360     6.8850     0.6110 H     1 <1>   0.1500 
 28 H        3.8750     6.4030     0.9090 H     1 <1>   0.1500 
 29 H        5.5460     4.3040     0.3960 H     1 <1>   0.4000 
 30 H        6.2860     0.9870    -0.7210 H     1 <1>   0.0800 
 31 H        6.4660     1.6410     0.8750 H     1 <1>   0.0800 
 32 H        7.2190     2.4080    -2.7220 H     1 <1>   0.0800 
 33 H        8.0110     3.9190    -2.3320 H     1 <1>   0.0800 
 34 H        6.2700     3.7920    -2.2090 H     1 <1>   0.0800 
 35 H        9.6140     2.3600     0.5800 H     1 <1>   0.1500 
 36 H        9.6500     5.8560     2.6780 H     1 <1>   0.1500 
 37 H        5.7230     6.6830    -0.7080 H     1 <1>   0.0800 
 38 H        7.3770     7.2220    -0.9790 H     1 <1>   0.0800 
 39 H        6.7560     9.5960     1.6640 H     1 <1>   0.0800 
 40 H        5.3440     8.7330     2.2600 H     1 <1>   0.0800 
 41 H        5.2490     8.6860    -1.8530 H     1 <1>   0.0800 
 42 H        6.7290     9.4310    -1.2850 H     1 <1>   0.0800 
 43 H        5.1520    10.4770     0.1690 H     1 <1>   0.0800 
 44 H        4.1800     9.0220     0.2590 H     1 <1>   0.0800 
@<TRIPOS>BOND
  1   1   2  1   
  2   1   3  1   
  3   2   4  1   
  4   2   5  2   
  5   3   6  2   
  6   3  27  1   
  7   4   7  2   
  8   4   8  1   
  9   5   6  1   
 10   5   9  1   
 11   6  28  1   
 12   8  10  2   
 13   9  10  1   
 14   9  29  1   
 15  10  11  1   
 16  11  12  1   
 17  11  30  1   
 18  11  31  1   
 19  12  13  1   
 20  12  14  1   
 21  13  15  ar  
 22  13  16  ar  
 23  14  32  1   
 24  14  33  1   
 25  14  34  1   
 26  15  17  ar  
 27  16  18  ar  
 28  16  35  1   
 29  17  19  1   
 30  17  20  ar  
 31  18  20  ar  
 32  19  21  2   
 33  19  22  am  
 34  20  36  1   
 35  22  23  1   
 36  22  24  1   
 37  23  25  1   
 38  23  37  1   
 39  23  38  1   
 40  24  26  1   
 41  24  39  1   
 42  24  40  1   
 43  25  26  1   
 44  25  41  1   
 45  25  42  1   
 46  26  43  1   
 47  26  44  1   
@<TRIPOS>SUBSTRUCTURE
  1 ****   9 GROUP 4 **** **** 0

# MOE 2024.06 (io_trps.svl 2023.06)
