@<TRIPOS>MOLECULE
NONAME
49 51 1 0 0 
SMALL
USER_CHARGES


@<TRIPOS>ATOM
  1 F       -0.4480     0.3050    -0.1930 F     1 <1>  -0.1900 
  2 C       -1.7220     0.6000    -0.1580 C.ar  1 <1>   0.1900 
  3 C       -2.1850     1.9140    -0.2850 C.ar  1 <1>   0.0830 
  4 C       -2.5940    -0.4580     0.0090 C.ar  1 <1>  -0.1500 
  5 O       -1.4300     3.0380    -0.4540 O.3   1 <1>  -0.3630 
  6 C       -3.5540     2.1200    -0.2370 C.ar  1 <1>  -0.1500 
  7 C       -3.9540    -0.2170     0.0510 C.ar  1 <1>  -0.1500 
  8 C       -0.0200     3.0190    -0.4940 C.3   1 <1>   0.0400 
  9 C       -4.4700     1.0770    -0.0690 C.ar  1 <1>   0.0530 
 10 C       -5.8900     1.3430    -0.0290 C.2   1 <1>   0.0870 
 11 O       -6.3620     2.4820    -0.4730 O.3   1 <1>  -0.0190 
 12 C       -6.9630     0.6230     0.3920 C.2   1 <1>  -0.0860 
 13 N       -7.6620     2.5760    -0.3750 N.2   1 <1>  -0.4100 
 14 C       -8.0480     1.4690     0.1550 C.2   1 <1>   0.3720 
 15 C       -7.0680    -0.6770     0.9660 C.2   1 <1>   0.7160 
 16 N       -9.3870     1.1590     0.4540 N.pl3 1 <1>  -0.8210 
 17 O       -6.5820    -0.8940     2.0610 O.2   1 <1>  -0.5700 
 18 N       -7.7110    -1.7070     0.3220 N.am  1 <1>  -0.6600 
 19 C       -9.6900     1.1950     1.9140 C.3   1 <1>   0.1290 
 20 C      -10.4020     1.9270    -0.3290 C.3   1 <1>   0.1290 
 21 C       -8.3390    -2.8210     1.0860 C.3   1 <1>   0.1400 
 22 C       -8.3660    -1.6230    -1.0130 C.3   1 <1>   0.1400 
 23 C       -9.4690    -3.3720     0.1980 C.3   1 <1>   0.2000 
 24 C       -9.7450    -2.2450    -0.7990 C.3   1 <1>   0.2000 
 25 O       -9.0060    -4.4810    -0.5270 O.3   1 <1>  -0.5600 
 26 O      -10.5930    -1.3040    -0.2130 O.3   1 <1>  -0.6800 
 27 C       -9.1110    -5.7020     0.1380 C.3   1 <1>   0.0400 
 28 H       -2.2090    -1.4580     0.1050 H     1 <1>   0.1500 
 29 H       -3.9130     3.1300    -0.3310 H     1 <1>   0.1500 
 30 H       -4.6160    -1.0540     0.1780 H     1 <1>   0.1500 
 31 H        0.3240     4.0300    -0.6180 H     1 <1>   0.0800 
 32 H        0.2990     2.4220    -1.3300 H     1 <1>   0.0800 
 33 H        0.3520     2.6190     0.4320 H     1 <1>   0.0800 
 34 H      -10.6610     0.7670     2.0980 H     1 <1>   0.0800 
 35 H       -9.6780     2.2120     2.2680 H     1 <1>   0.0800 
 36 H       -8.9580     0.6300     2.4650 H     1 <1>   0.0800 
 37 H      -11.3800     1.4980    -0.1870 H     1 <1>   0.0800 
 38 H      -10.1600     1.8890    -1.3780 H     1 <1>   0.0800 
 39 H      -10.4150     2.9560    -0.0130 H     1 <1>   0.0800 
 40 H       -7.6090    -3.5750     1.3210 H     1 <1>   0.0800 
 41 H       -8.7550    -2.4280     1.9970 H     1 <1>   0.0800 
 42 H       -8.4360    -0.6230    -1.3990 H     1 <1>   0.0800 
 43 H       -7.8080    -2.2290    -1.7050 H     1 <1>   0.0800 
 44 H      -10.3540    -3.6460     0.7460 H     1 <1>   0.0800 
 45 H      -10.2040    -2.5990    -1.7060 H     1 <1>   0.0800 
 46 H      -10.0720    -0.5020     0.0650 H     1 <1>   0.4000 
 47 H       -8.7150    -6.4670    -0.5060 H     1 <1>   0.0800 
 48 H      -10.1480    -5.9050     0.3440 H     1 <1>   0.0800 
 49 H       -8.5420    -5.6680     1.0500 H     1 <1>   0.0800 
@<TRIPOS>BOND
  1   1   2  1   
  2   2   3  ar  
  3   2   4  ar  
  4   3   5  1   
  5   3   6  ar  
  6   4   7  ar  
  7   4  28  1   
  8   5   8  1   
  9   6   9  ar  
 10   6  29  1   
 11   7   9  ar  
 12   7  30  1   
 13   8  31  1   
 14   8  32  1   
 15   8  33  1   
 16   9  10  1   
 17  10  11  1   
 18  10  12  2   
 19  11  13  1   
 20  12  14  1   
 21  12  15  1   
 22  13  14  2   
 23  14  16  1   
 24  15  17  2   
 25  15  18  am  
 26  16  19  1   
 27  16  20  1   
 28  18  21  1   
 29  18  22  1   
 30  19  34  1   
 31  19  35  1   
 32  19  36  1   
 33  20  37  1   
 34  20  38  1   
 35  20  39  1   
 36  21  23  1   
 37  21  40  1   
 38  21  41  1   
 39  22  24  1   
 40  22  42  1   
 41  22  43  1   
 42  23  24  1   
 43  23  25  1   
 44  23  44  1   
 45  24  26  1   
 46  24  45  1   
 47  25  27  1   
 48  26  46  1   
 49  27  47  1   
 50  27  48  1   
 51  27  49  1   
@<TRIPOS>SUBSTRUCTURE
  1 ****  12 GROUP 4 **** **** 0

# MOE 2024.06 (io_trps.svl 2023.06)
