@<TRIPOS>MOLECULE
NONAME
45 48 1 0 0 
SMALL
USER_CHARGES


@<TRIPOS>ATOM
  1 O        0.2920     0.6930     0.0780 O.2   1 <1>  -0.5700 
  2 C        0.1670     1.8190    -0.3310 C.2   1 <1>   0.5690 
  3 N        0.0280     2.8520     0.5320 N.am  1 <1>  -0.7300 
  4 C        0.1430     2.0930    -1.8390 C.3   1 <1>   0.1810 
  5 C       -0.0840     4.2660     0.0990 C.3   1 <1>   0.3640 
  6 O        0.4060     3.4440    -2.1560 O.3   1 <1>  -0.5600 
  7 C       -1.1500     4.9750     0.9220 C.ar  1 <1>  -0.1440 
  8 C       -0.3740     4.3730    -1.4180 C.3   1 <1>   0.2610 
  9 C       -2.3570     4.3620     1.2320 C.ar  1 <1>   0.1600 
 10 C       -0.9330     6.2650     1.3660 C.ar  1 <1>  -0.1500 
 11 C       -0.1860     5.8210    -1.8950 C.2   1 <1>   0.5690 
 12 N       -3.3330     4.9170     1.9320 N.ar  1 <1>  -0.6200 
 13 C       -1.9420     6.8610     2.0900 C.ar  1 <1>  -0.1500 
 14 O       -1.1810     6.3890    -2.2840 O.2   1 <1>  -0.5700 
 15 N        1.0220     6.4830    -1.8480 N.am  1 <1>  -0.6600 
 16 C       -3.1040     6.1540     2.3420 C.ar  1 <1>   0.1600 
 17 C        1.0680     7.9730    -2.0460 C.3   1 <1>   0.3210 
 18 C        2.3620     5.8500    -1.6550 C.3   1 <1>   0.0600 
 19 C        1.5600     8.7070    -0.7980 C.2   1 <1>   0.3350 
 20 N        0.8070     9.2200     0.0930 N.2   1 <1>  -0.4100 
 21 N        2.8560     8.8660    -0.5460 N.2   1 <1>  -0.5650 
 22 O        1.5810     9.7520     0.9900 O.3   1 <1>  -0.0190 
 23 C        2.7920     9.5100     0.5500 C.2   1 <1>   0.3930 
 24 C        3.9920     9.9940     1.3530 C.3   1 <1>  -0.0150 
 25 C        3.9810    10.0020     2.8530 C.3   1 <1>  -0.2000 
 26 C        3.9640    11.2970     2.0940 C.3   1 <1>  -0.2000 
 27 H        0.0630     2.6610     1.5350 H     1 <1>   0.3700 
 28 H       -0.8210     1.8320    -2.2360 H     1 <1>   0.0800 
 29 H        0.8910     1.4910    -2.3230 H     1 <1>   0.0800 
 30 H        0.8610     4.7380     0.3010 H     1 <1>   0.0800 
 31 H       -1.4050     4.1200    -1.5870 H     1 <1>   0.0800 
 32 H       -2.5380     3.3570     0.8870 H     1 <1>   0.1500 
 33 H       -0.0220     6.8010     1.1560 H     1 <1>   0.1500 
 34 H       -1.8300     7.8670     2.4530 H     1 <1>   0.1500 
 35 H       -3.8860     6.6310     2.9080 H     1 <1>   0.1500 
 36 H        1.7220     8.2020    -2.8680 H     1 <1>   0.0800 
 37 H        0.0940     8.3570    -2.2940 H     1 <1>   0.0800 
 38 H        3.0640     6.2650    -2.3580 H     1 <1>   0.0800 
 39 H        2.3280     4.7880    -1.8130 H     1 <1>   0.0800 
 40 H        2.7190     6.0440    -0.6590 H     1 <1>   0.0800 
 41 H        4.9170     9.7270     0.8740 H     1 <1>   0.1000 
 42 H        3.0880     9.6990     3.3720 H     1 <1>   0.1000 
 43 H        4.8780     9.7200     3.3760 H     1 <1>   0.1000 
 44 H        4.8490    11.9090     2.0910 H     1 <1>   0.1000 
 45 H        3.0590    11.8810     2.0920 H     1 <1>   0.1000 
@<TRIPOS>BOND
  1   1   2  2   
  2   2   3  am  
  3   2   4  1   
  4   3   5  1   
  5   3  27  1   
  6   4   6  1   
  7   4  28  1   
  8   4  29  1   
  9   5   7  1   
 10   5   8  1   
 11   5  30  1   
 12   6   8  1   
 13   7   9  ar  
 14   7  10  ar  
 15   8  11  1   
 16   8  31  1   
 17   9  12  ar  
 18   9  32  1   
 19  10  13  ar  
 20  10  33  1   
 21  11  14  2   
 22  11  15  am  
 23  12  16  ar  
 24  13  16  ar  
 25  13  34  1   
 26  15  17  1   
 27  15  18  1   
 28  16  35  1   
 29  17  19  1   
 30  17  36  1   
 31  17  37  1   
 32  18  38  1   
 33  18  39  1   
 34  18  40  1   
 35  19  20  2   
 36  19  21  1   
 37  20  22  1   
 38  21  23  2   
 39  22  23  1   
 40  23  24  1   
 41  24  25  1   
 42  24  26  1   
 43  24  41  1   
 44  25  26  1   
 45  25  42  1   
 46  25  43  1   
 47  26  44  1   
 48  26  45  1   
@<TRIPOS>SUBSTRUCTURE
  1 ****  10 GROUP 4 **** **** 0

# MOE 2024.06 (io_trps.svl 2023.06)
