@<TRIPOS>MOLECULE
NONAME
30 32 1 0 0 
SMALL
USER_CHARGES


@<TRIPOS>ATOM
  1 F       -5.6690    -1.2340     0.4110 F     1 <1>  -0.3400 
  2 C       -4.5930    -1.8330    -0.0800 C.3   1 <1>   1.3000 
  3 F       -4.9680    -2.5260    -1.1490 F     1 <1>  -0.3400 
  4 F       -3.7460    -0.8860    -0.4720 F     1 <1>  -0.3400 
  5 O       -4.0110    -2.6650     0.9030 O.3   1 <1>  -0.3630 
  6 C       -2.9070    -3.3600     0.5400 C.ar  1 <1>   0.0830 
  7 C       -1.6570    -2.8050     0.6990 C.ar  1 <1>  -0.1500 
  8 C       -3.0640    -4.6530     0.0240 C.ar  1 <1>  -0.1500 
  9 C       -0.5300    -3.5430     0.3200 C.ar  1 <1>   0.0000 
 10 C       -1.9640    -5.3890    -0.3500 C.ar  1 <1>  -0.1500 
 11 C       -0.6930    -4.8260    -0.2010 C.ar  1 <1>  -0.1520 
 12 C        0.8600    -3.3030     0.3290 C.2   1 <1>  -0.1810 
 13 N        0.5440    -5.3450    -0.4940 N.pl3 1 <1>   0.0330 
 14 C        1.4770    -4.4030    -0.1590 C.2   1 <1>  -0.3320 
 15 C        1.5740    -2.0550     0.7950 C.3   1 <1>   0.5240 
 16 C        2.9810    -4.5350    -0.3020 C.3   1 <1>   0.0200 
 17 N        2.9400    -2.0640     0.1880 N.4   1 <1>  -0.9060 
 18 C        3.6740    -3.3570     0.4160 C.3   1 <1>   0.3430 
 19 H       -1.5470    -1.8190     1.1100 H     1 <1>   0.1500 
 20 H       -4.0540    -5.0630    -0.0750 H     1 <1>   0.1500 
 21 H       -2.0730    -6.3820    -0.7500 H     1 <1>   0.1500 
 22 H        0.7070    -6.2800    -0.8860 H     1 <1>   0.2700 
 23 H        1.6350    -2.0560     1.8720 H     1 <1>   0.0800 
 24 H        1.0270    -1.1820     0.4760 H     1 <1>   0.0800 
 25 H        3.2500    -4.5380    -1.3440 H     1 <1>   0.0800 
 26 H        3.3180    -5.4610     0.1310 H     1 <1>   0.0800 
 27 H        3.4810    -1.2620     0.5280 H     1 <1>   0.4500 
 28 H        2.8000    -1.9560    -0.8230 H     1 <1>   0.4500 
 29 H        4.6900    -3.2770     0.0660 H     1 <1>   0.0800 
 30 H        3.7000    -3.5650     1.4740 H     1 <1>   0.0800 
@<TRIPOS>BOND
  1   1   2  1   
  2   2   3  1   
  3   2   4  1   
  4   2   5  1   
  5   5   6  1   
  6   6   7  ar  
  7   6   8  ar  
  8   7   9  ar  
  9   7  19  1   
 10   8  10  ar  
 11   8  20  1   
 12   9  11  ar  
 13   9  12  1   
 14  10  11  ar  
 15  10  21  1   
 16  11  13  1   
 17  12  14  2   
 18  12  15  1   
 19  13  14  1   
 20  13  22  1   
 21  14  16  1   
 22  15  17  1   
 23  15  23  1   
 24  15  24  1   
 25  16  18  1   
 26  16  25  1   
 27  16  26  1   
 28  17  18  1   
 29  17  27  1   
 30  17  28  1   
 31  18  29  1   
 32  18  30  1   
@<TRIPOS>SUBSTRUCTURE
  1 ****   9 GROUP 4 **** **** 0

# MOE 2024.06 (io_trps.svl 2023.06)
