@<TRIPOS>MOLECULE
NONAME
43 44 1 0 0 
SMALL
USER_CHARGES


@<TRIPOS>ATOM
  1 S        0.7070     0.2750    -1.7370 S.o2  1 <1>   1.3330 
  2 O        1.1030    -1.0240    -2.2320 O.2   1 <1>  -0.6500 
  3 O       -0.0690     1.1590    -2.5760 O.2   1 <1>  -0.6500 
  4 N       -0.1730     0.0410    -0.3010 N.am  1 <1>  -0.8490 
  5 C        2.1860     1.1310    -1.1900 C.3   1 <1>  -0.0550 
  6 C       -1.0250    -1.1510    -0.3630 C.3   1 <1>   0.1160 
  7 C       -0.9810     1.2060     0.0790 C.3   1 <1>   0.1160 
  8 C        3.1440     0.2630    -0.3430 C.3   1 <1>  -0.0800 
  9 C        4.4880     0.9050    -0.0310 C.3   1 <1>   0.2200 
 10 C        2.6210    -0.1240     1.0470 C.3   1 <1>   0.1200 
 11 N        4.3150     2.3210     0.3670 N.am  1 <1>  -0.7300 
 12 C        4.8900     0.1070     1.2000 C.3   1 <1>   0.1200 
 13 O        3.7070    -0.0350     1.9240 O.3   1 <1>  -0.5600 
 14 C        4.5380     3.4100    -0.4170 C.2   1 <1>   0.7160 
 15 O        4.8560     3.2270    -1.5740 O.2   1 <1>  -0.5700 
 16 C        4.3860     4.7340     0.1310 C.2   1 <1>  -0.0860 
 17 C        3.6300     5.2200     1.1430 C.2   1 <1>  -0.0400 
 18 C        5.0380     5.8870    -0.2870 C.2   1 <1>   0.1080 
 19 O        3.8170     6.5040     1.3290 O.3   1 <1>  -0.0190 
 20 C        2.6210     4.5410     2.0530 C.3   1 <1>  -0.0600 
 21 N        4.6890     6.8870     0.4280 N.2   1 <1>  -0.4100 
 22 C        6.0350     5.9930    -1.4240 C.3   1 <1>  -0.0590 
 23 H        2.7220     1.4580    -2.0610 H     1 <1>   0.0800 
 24 H        1.9050     2.0080    -0.6430 H     1 <1>   0.0800 
 25 H       -1.5620    -1.2760     0.5620 H     1 <1>   0.0800 
 26 H       -0.4220    -2.0290    -0.5210 H     1 <1>   0.0800 
 27 H       -1.7300    -1.0660    -1.1740 H     1 <1>   0.0800 
 28 H       -1.4410     1.0390     1.0380 H     1 <1>   0.0800 
 29 H       -1.7530     1.3840    -0.6520 H     1 <1>   0.0800 
 30 H       -0.3620     2.0830     0.1460 H     1 <1>   0.0800 
 31 H        3.3360    -0.6490    -0.8820 H     1 <1>   0.0800 
 32 H        5.1980     0.8120    -0.8370 H     1 <1>   0.0800 
 33 H        2.2380    -1.1300     1.0620 H     1 <1>   0.0800 
 34 H        1.8650     0.5570     1.3980 H     1 <1>   0.0800 
 35 H        4.1020     2.4500     1.3570 H     1 <1>   0.3700 
 36 H        5.6310     0.6040     1.8020 H     1 <1>   0.0800 
 37 H        5.2350    -0.8760     0.9280 H     1 <1>   0.0800 
 38 H        2.3970     3.5440     1.7260 H     1 <1>   0.0800 
 39 H        1.7070     5.1070     2.0560 H     1 <1>   0.0800 
 40 H        3.0050     4.5070     3.0570 H     1 <1>   0.0800 
 41 H        6.8260     5.2790    -1.2880 H     1 <1>   0.0800 
 42 H        6.4590     6.9810    -1.4540 H     1 <1>   0.0800 
 43 H        5.5420     5.7970    -2.3590 H     1 <1>   0.0800 
@<TRIPOS>BOND
  1   1   2  2   
  2   1   3  2   
  3   1   4  am  
  4   1   5  1   
  5   4   6  1   
  6   4   7  1   
  7   5   8  1   
  8   5  23  1   
  9   5  24  1   
 10   6  25  1   
 11   6  26  1   
 12   6  27  1   
 13   7  28  1   
 14   7  29  1   
 15   7  30  1   
 16   8   9  1   
 17   8  10  1   
 18   8  31  1   
 19   9  11  1   
 20   9  12  1   
 21   9  32  1   
 22  10  13  1   
 23  10  33  1   
 24  10  34  1   
 25  11  14  am  
 26  11  35  1   
 27  12  13  1   
 28  12  36  1   
 29  12  37  1   
 30  14  15  2   
 31  14  16  1   
 32  16  17  2   
 33  16  18  1   
 34  17  19  1   
 35  17  20  1   
 36  18  21  2   
 37  18  22  1   
 38  19  21  1   
 39  20  38  1   
 40  20  39  1   
 41  20  40  1   
 42  22  41  1   
 43  22  42  1   
 44  22  43  1   
@<TRIPOS>SUBSTRUCTURE
  1 ****  11 GROUP 4 **** **** 0

# MOE 2024.06 (io_trps.svl 2023.06)
