@<TRIPOS>MOLECULE
NONAME
59 62 1 0 0 
SMALL
USER_CHARGES


@<TRIPOS>ATOM
  1 F        1.2910     5.5660    -5.8090 F     1 <1>  -0.1900 
  2 C        1.0730     6.0100    -4.5980 C.ar  1 <1>   0.1900 
  3 C        0.7740     5.1020    -3.6000 C.ar  1 <1>  -0.1500 
  4 C        1.1410     7.3700    -4.3640 C.ar  1 <1>  -0.1500 
  5 C        0.5440     5.5770    -2.3190 C.ar  1 <1>  -0.1440 
  6 C        0.9100     7.8310    -3.0800 C.ar  1 <1>  -0.1500 
  7 C        0.6280     6.9420    -2.0440 C.ar  1 <1>   0.1170 
  8 C        0.1630     4.6550    -1.1780 C.3   1 <1>  -0.0160 
  9 N        0.4240     7.3890    -0.7200 N.am  1 <1>  -0.4770 
 10 C       -1.0130     5.3090    -0.4440 C.3   1 <1>  -0.1600 
 11 C        1.3490     8.1940    -0.0790 C.2   1 <1>   0.5690 
 12 C       -0.7160     6.7560     0.0230 C.3   1 <1>   0.2200 
 13 O        2.4220     8.4510    -0.5850 O.2   1 <1>  -0.5700 
 14 C        1.0490     8.7900     1.3150 C.3   1 <1>   0.1710 
 15 C       -1.9630     7.6310    -0.1320 C.3   1 <1>  -0.2400 
 16 N        1.9760     9.8470     1.8270 N.3   1 <1>  -0.8100 
 17 C        2.0680    11.1240     1.0880 C.3   1 <1>   0.1100 
 18 C        2.9980     9.4810     2.8100 C.3   1 <1>   0.1100 
 19 C        3.5020    11.5280     0.6960 C.3   1 <1>   0.3430 
 20 C        4.1980     8.7980     2.1460 C.3   1 <1>  -0.1600 
 21 N        4.2800    10.3510     0.1990 N.4   1 <1>  -0.9590 
 22 C        5.0680     9.7080     1.2770 C.3   1 <1>   0.3430 
 23 C        5.0960    10.6150    -1.0170 C.3   1 <1>   0.4860 
 24 C        4.2540    11.2480    -2.1080 C.ar  1 <1>  -0.1430 
 25 C        3.3910    10.4680    -2.8640 C.ar  1 <1>   0.1600 
 26 C        4.3350    12.6020    -2.3750 C.ar  1 <1>  -0.1500 
 27 N        2.6050    10.9270    -3.8220 N.ar  1 <1>  -0.6200 
 28 C        3.5260    13.0920    -3.3770 C.ar  1 <1>  -0.1500 
 29 C        2.6890    12.2250    -4.0590 C.ar  1 <1>   0.1600 
 30 H        0.7200     4.0550    -3.8320 H     1 <1>   0.1500 
 31 H        1.3680     8.0520    -5.1650 H     1 <1>   0.1500 
 32 H        0.9480     8.8860    -2.8790 H     1 <1>   0.1500 
 33 H        1.0020     4.5360    -0.5150 H     1 <1>   0.0800 
 34 H       -0.1240     3.6860    -1.5490 H     1 <1>   0.0800 
 35 H       -1.2960     4.7110     0.4030 H     1 <1>   0.0800 
 36 H       -1.8530     5.3150    -1.1170 H     1 <1>   0.0800 
 37 H       -0.4610     6.6960     1.0660 H     1 <1>   0.0800 
 38 H        1.0290     7.9840     2.0250 H     1 <1>   0.0800 
 39 H        0.0640     9.2160     1.2880 H     1 <1>   0.0800 
 40 H       -2.2400     7.7020    -1.1700 H     1 <1>   0.0800 
 41 H       -1.7950     8.6210     0.2480 H     1 <1>   0.0800 
 42 H       -2.7850     7.1990     0.4100 H     1 <1>   0.0800 
 43 H        1.6410    11.9060     1.6920 H     1 <1>   0.0800 
 44 H        1.4760    11.0610     0.1900 H     1 <1>   0.0800 
 45 H        2.5610     8.8080     3.5300 H     1 <1>   0.0800 
 46 H        3.3160    10.3590     3.3480 H     1 <1>   0.0800 
 47 H        3.9950    11.9570     1.5510 H     1 <1>   0.0800 
 48 H        3.4380    12.2900    -0.0610 H     1 <1>   0.0800 
 49 H        3.8690     7.9490     1.5760 H     1 <1>   0.0800 
 50 H        4.8250     8.4120     2.9290 H     1 <1>   0.0800 
 51 H        3.5510     9.6530    -0.0670 H     1 <1>   0.4500 
 52 H        5.8490     9.1060     0.8410 H     1 <1>   0.0800 
 53 H        5.5320    10.4640     1.8890 H     1 <1>   0.0800 
 54 H        5.5070     9.6880    -1.3840 H     1 <1>   0.0800 
 55 H        5.9140    11.2720    -0.7720 H     1 <1>   0.0800 
 56 H        3.3390     9.4070    -2.6770 H     1 <1>   0.1500 
 57 H        4.9960    13.2610    -1.8370 H     1 <1>   0.1500 
 58 H        3.5400    14.1360    -3.6360 H     1 <1>   0.1500 
 59 H        2.0600    12.6190    -4.8410 H     1 <1>   0.1500 
@<TRIPOS>BOND
  1   1   2  1   
  2   2   3  ar  
  3   2   4  ar  
  4   3   5  ar  
  5   3  30  1   
  6   4   6  ar  
  7   4  31  1   
  8   5   7  ar  
  9   5   8  1   
 10   6   7  ar  
 11   6  32  1   
 12   7   9  1   
 13   8  10  1   
 14   8  33  1   
 15   8  34  1   
 16   9  11  am  
 17   9  12  1   
 18  10  12  1   
 19  10  35  1   
 20  10  36  1   
 21  11  13  2   
 22  11  14  1   
 23  12  15  1   
 24  12  37  1   
 25  14  16  1   
 26  14  38  1   
 27  14  39  1   
 28  15  40  1   
 29  15  41  1   
 30  15  42  1   
 31  16  17  1   
 32  16  18  1   
 33  17  19  1   
 34  17  43  1   
 35  17  44  1   
 36  18  20  1   
 37  18  45  1   
 38  18  46  1   
 39  19  21  1   
 40  19  47  1   
 41  19  48  1   
 42  20  22  1   
 43  20  49  1   
 44  20  50  1   
 45  21  22  1   
 46  21  23  1   
 47  21  51  1   
 48  22  52  1   
 49  22  53  1   
 50  23  24  1   
 51  23  54  1   
 52  23  55  1   
 53  24  25  ar  
 54  24  26  ar  
 55  25  27  ar  
 56  25  56  1   
 57  26  28  ar  
 58  26  57  1   
 59  27  29  ar  
 60  28  29  ar  
 61  28  58  1   
 62  29  59  1   
@<TRIPOS>SUBSTRUCTURE
  1 ****  13 GROUP 4 **** **** 0

# MOE 2024.06 (io_trps.svl 2023.06)
