@<TRIPOS>MOLECULE
NONAME
45 48 1 0 0 
SMALL
USER_CHARGES


@<TRIPOS>ATOM
  1 CL      -0.0180    -0.5400     0.6450 Cl    1 <1>  -0.1230 
  2 C       -1.6030     0.2160     0.5570 C.2   1 <1>   0.1230 
  3 C       -2.8490    -0.4260     0.6100 C.2   1 <1>   0.2030 
  4 C       -1.8220     1.5340     0.4060 C.2   1 <1>  -0.3320 
  5 N       -3.8010     0.4930     0.4800 N.2   1 <1>  -0.7070 
  6 C       -3.0290    -1.8650     0.7810 C.2   1 <1>   0.7160 
  7 N       -3.1620     1.6710     0.3670 N.pl3 1 <1>   0.3000 
  8 C       -0.8410     2.6900     0.2930 C.3   1 <1>  -0.0600 
  9 O       -2.1540    -2.5420     1.2950 O.2   1 <1>  -0.5700 
 10 N       -4.1700    -2.5410     0.3800 N.am  1 <1>  -0.6600 
 11 C       -5.3360    -1.9490    -0.3280 C.3   1 <1>   0.1400 
 12 C       -4.2700    -4.0230     0.3850 C.3   1 <1>   0.1400 
 13 C       -6.3290    -3.1020    -0.4720 C.3   1 <1>   0.2000 
 14 C       -5.4360    -4.3460    -0.5580 C.3   1 <1>  -0.0800 
 15 O       -7.0970    -3.1580     0.6820 O.3   1 <1>  -0.6800 
 16 C       -6.1520    -5.6760    -0.2400 C.3   1 <1>  -0.0170 
 17 C       -5.3390    -6.9610    -0.4450 C.ar  1 <1>  -0.1430 
 18 C       -5.8530    -8.1970     0.0240 C.ar  1 <1>   0.0000 
 19 C       -4.1250    -6.9970    -1.0740 C.ar  1 <1>  -0.1500 
 20 C       -5.0670    -9.3610    -0.1670 C.ar  1 <1>   0.3100 
 21 C       -7.1060    -8.3490     0.6650 C.ar  1 <1>  -0.1500 
 22 C       -3.4320    -8.2040    -1.2150 C.ar  1 <1>   0.1600 
 23 N       -3.8600    -9.3470    -0.7850 N.ar  1 <1>  -0.6200 
 24 C       -5.5500   -10.5950     0.2970 C.ar  1 <1>  -0.1500 
 25 C       -7.5480    -9.5680     1.1040 C.ar  1 <1>  -0.1500 
 26 C       -6.7620   -10.7070     0.9210 C.ar  1 <1>  -0.1500 
 27 H       -3.6670     2.5610     0.2620 H     1 <1>   0.2700 
 28 H        0.1710     2.3290     0.3520 H     1 <1>   0.0800 
 29 H       -0.9980     3.3930     1.0920 H     1 <1>   0.0800 
 30 H       -0.9660     3.1950    -0.6490 H     1 <1>   0.0800 
 31 H       -5.7670    -1.1310     0.2230 H     1 <1>   0.0800 
 32 H       -5.0200    -1.6040    -1.2970 H     1 <1>   0.0800 
 33 H       -3.3480    -4.4690     0.0540 H     1 <1>   0.0800 
 34 H       -4.4820    -4.3550     1.3870 H     1 <1>   0.0800 
 35 H       -6.9880    -2.9890    -1.3160 H     1 <1>   0.0800 
 36 H       -5.0560    -4.3860    -1.5630 H     1 <1>   0.0800 
 37 H       -6.5110    -3.0320     1.4560 H     1 <1>   0.4000 
 38 H       -7.0370    -5.7400    -0.8500 H     1 <1>   0.0800 
 39 H       -6.4700    -5.6430     0.7870 H     1 <1>   0.0800 
 40 H       -3.6540    -6.1250    -1.4830 H     1 <1>   0.1500 
 41 H       -7.7350    -7.4920     0.8130 H     1 <1>   0.1500 
 42 H       -2.4770    -8.1800    -1.7130 H     1 <1>   0.1500 
 43 H       -4.9270   -11.4570     0.1420 H     1 <1>   0.1500 
 44 H       -8.5030    -9.6650     1.5910 H     1 <1>   0.1500 
 45 H       -7.1200   -11.6600     1.2710 H     1 <1>   0.1500 
@<TRIPOS>BOND
  1   1   2  1   
  2   2   3  1   
  3   2   4  2   
  4   3   5  2   
  5   3   6  1   
  6   4   7  1   
  7   4   8  1   
  8   5   7  1   
  9   6   9  2   
 10   6  10  am  
 11   7  27  1   
 12   8  28  1   
 13   8  29  1   
 14   8  30  1   
 15  10  11  1   
 16  10  12  1   
 17  11  13  1   
 18  11  31  1   
 19  11  32  1   
 20  12  14  1   
 21  12  33  1   
 22  12  34  1   
 23  13  14  1   
 24  13  15  1   
 25  13  35  1   
 26  14  16  1   
 27  14  36  1   
 28  15  37  1   
 29  16  17  1   
 30  16  38  1   
 31  16  39  1   
 32  17  18  ar  
 33  17  19  ar  
 34  18  20  ar  
 35  18  21  ar  
 36  19  22  ar  
 37  19  40  1   
 38  20  23  ar  
 39  20  24  ar  
 40  21  25  ar  
 41  21  41  1   
 42  22  23  ar  
 43  22  42  1   
 44  24  26  ar  
 45  24  43  1   
 46  25  26  ar  
 47  25  44  1   
 48  26  45  1   
@<TRIPOS>SUBSTRUCTURE
  1 ****  12 GROUP 4 **** **** 0

# MOE 2024.06 (io_trps.svl 2023.06)
