@<TRIPOS>MOLECULE
NONAME
48 50 1 0 0 
SMALL
USER_CHARGES


@<TRIPOS>ATOM
  1 O       -0.4520     0.5270    -1.9770 O.2   1 <1>  -0.5700 
  2 C       -1.2200     0.8620    -1.1020 C.2   1 <1>   0.5690 
  3 N       -2.5060     0.3730    -1.0480 N.am  1 <1>  -0.6600 
  4 C       -0.6680     1.8110    -0.0320 C.3   1 <1>   0.1810 
  5 C       -3.0320    -0.5600    -2.0830 C.3   1 <1>   0.1400 
  6 C       -3.5200     0.7530    -0.0250 C.3   1 <1>   0.1400 
  7 O       -1.3770     3.0250     0.0450 O.3   1 <1>  -0.5600 
  8 C       -3.5370    -1.8390    -1.4100 C.3   1 <1>  -0.1600 
  9 C       -4.0220    -0.5080     0.6820 C.3   1 <1>  -0.1600 
 10 C       -0.8290     3.9440     0.9260 C.3   1 <1>   0.1200 
 11 C       -4.5780    -1.5460    -0.3140 C.3   1 <1>   0.4240 
 12 C       -1.7290     5.1730     0.9210 C.3   1 <1>  -0.2400 
 13 O       -5.6320    -0.9180    -1.0120 O.3   1 <1>  -0.5600 
 14 C       -5.0560    -2.8510     0.3890 C.ar  1 <1>  -0.1430 
 15 C       -6.8900    -0.9100    -0.4230 C.3   1 <1>   0.1200 
 16 C       -4.1770    -3.6860     1.0930 C.ar  1 <1>   0.0820 
 17 C       -6.4000    -3.2180     0.3300 C.ar  1 <1>  -0.1430 
 18 C       -7.4030    -2.3400    -0.3920 C.3   1 <1>  -0.0170 
 19 O       -2.8660    -3.3370     1.1860 O.3   1 <1>  -0.3630 
 20 C       -4.6470    -4.8530     1.6940 C.ar  1 <1>  -0.1500 
 21 C       -6.8550    -4.3810     0.9280 C.ar  1 <1>  -0.1500 
 22 C       -1.8790    -4.2100     1.6890 C.3   1 <1>   0.0400 
 23 C       -5.9790    -5.2000     1.6090 C.ar  1 <1>  -0.1500 
 24 H        0.3570     2.0340    -0.2680 H     1 <1>   0.0800 
 25 H       -0.7140     1.3260     0.9250 H     1 <1>   0.0800 
 26 H       -2.2660    -0.8080    -2.7980 H     1 <1>   0.0800 
 27 H       -3.8360    -0.0780    -2.6130 H     1 <1>   0.0800 
 28 H       -4.3380     1.2530    -0.5160 H     1 <1>   0.0800 
 29 H       -3.1120     1.4280     0.7030 H     1 <1>   0.0800 
 30 H       -2.6850    -2.3470    -1.0060 H     1 <1>   0.0800 
 31 H       -3.9760    -2.4880    -2.1440 H     1 <1>   0.0800 
 32 H       -4.7740    -0.2520     1.4030 H     1 <1>   0.0800 
 33 H       -3.1980    -0.9230     1.2270 H     1 <1>   0.0800 
 34 H        0.1630     4.1990     0.5920 H     1 <1>   0.0800 
 35 H       -0.7890     3.5070     1.9100 H     1 <1>   0.0800 
 36 H       -1.7730     5.5920    -0.0680 H     1 <1>   0.0800 
 37 H       -1.3380     5.9160     1.5920 H     1 <1>   0.0800 
 38 H       -2.7200     4.9060     1.2410 H     1 <1>   0.0800 
 39 H       -7.5320    -0.2900    -1.0240 H     1 <1>   0.0800 
 40 H       -6.8210    -0.4960     0.5670 H     1 <1>   0.0800 
 41 H       -7.5400    -2.6950    -1.3980 H     1 <1>   0.0800 
 42 H       -8.3520    -2.3640     0.1110 H     1 <1>   0.0800 
 43 H       -3.9930    -5.5060     2.2380 H     1 <1>   0.1500 
 44 H       -7.8940    -4.6540     0.8670 H     1 <1>   0.1500 
 45 H       -0.9220    -3.7360     1.5650 H     1 <1>   0.0800 
 46 H       -1.9070    -5.1280     1.1300 H     1 <1>   0.0800 
 47 H       -2.0660    -4.3850     2.7330 H     1 <1>   0.0800 
 48 H       -6.3350    -6.1030     2.0730 H     1 <1>   0.1500 
@<TRIPOS>BOND
  1   1   2  2   
  2   2   3  am  
  3   2   4  1   
  4   3   5  1   
  5   3   6  1   
  6   4   7  1   
  7   4  24  1   
  8   4  25  1   
  9   5   8  1   
 10   5  26  1   
 11   5  27  1   
 12   6   9  1   
 13   6  28  1   
 14   6  29  1   
 15   7  10  1   
 16   8  11  1   
 17   8  30  1   
 18   8  31  1   
 19   9  11  1   
 20   9  32  1   
 21   9  33  1   
 22  10  12  1   
 23  10  34  1   
 24  10  35  1   
 25  11  13  1   
 26  11  14  1   
 27  12  36  1   
 28  12  37  1   
 29  12  38  1   
 30  13  15  1   
 31  14  16  ar  
 32  14  17  ar  
 33  15  18  1   
 34  15  39  1   
 35  15  40  1   
 36  16  19  1   
 37  16  20  ar  
 38  17  18  1   
 39  17  21  ar  
 40  18  41  1   
 41  18  42  1   
 42  19  22  1   
 43  20  23  ar  
 44  20  43  1   
 45  21  23  ar  
 46  21  44  1   
 47  22  45  1   
 48  22  46  1   
 49  22  47  1   
 50  23  48  1   
@<TRIPOS>SUBSTRUCTURE
  1 ****   9 GROUP 4 **** **** 0

# MOE 2024.06 (io_trps.svl 2023.06)
