@<TRIPOS>MOLECULE
NONAME
49 52 1 0 0 
SMALL
USER_CHARGES


@<TRIPOS>ATOM
  1 O        2.0650    -1.7990    -2.5470 O.2   1 <1>  -0.5700 
  2 C        1.9770    -1.3440    -1.4300 C.2   1 <1>   0.6300 
  3 N        2.2110    -0.0350    -1.1770 N.am  1 <1>  -0.7300 
  4 C        1.6020    -2.2480    -0.2510 C.3   1 <1>   0.0320 
  5 C        2.6760     0.9560    -2.1560 C.3   1 <1>   0.2840 
  6 C        0.0880    -2.3330    -0.0850 C.ar  1 <1>  -0.0320 
  7 C        2.4670    -3.4200     0.1470 C.3   1 <1>  -0.1900 
  8 C        2.4650    -2.2000     0.9980 C.3   1 <1>  -0.2000 
  9 C        3.7090     1.8280    -1.4680 C.ar  1 <1>  -0.1430 
 10 C       -0.6430    -3.1660    -0.9150 C.ar  1 <1>  -0.1500 
 11 C       -0.5760    -1.5840     0.8730 C.ar  1 <1>  -0.1500 
 12 C        3.7390    -3.7430    -0.6490 C.3   1 <1>  -0.1450 
 13 C        1.8330    -4.6940     0.7250 C.3   1 <1>  -0.1450 
 14 C        3.3120     2.7060    -0.4730 C.ar  1 <1>  -0.1500 
 15 C        5.0500     1.7460    -1.8070 C.ar  1 <1>  -0.1500 
 16 C       -2.0180    -3.2610    -0.7830 C.ar  1 <1>  -0.1500 
 17 C       -1.9510    -1.6780     1.0070 C.ar  1 <1>  -0.1500 
 18 C        4.2220     3.5100     0.2160 C.ar  1 <1>   0.0410 
 19 C        5.9750     2.5400    -1.1530 C.ar  1 <1>  -0.1500 
 20 C       -2.6790    -2.5190     0.1820 C.ar  1 <1>  -0.1430 
 21 C        3.7870     4.3980     1.2780 C.2   1 <1>   0.6960 
 22 C        5.5640     3.4060    -0.1570 C.ar  1 <1>  -0.1500 
 23 C       -4.1860    -2.6220     0.3280 C.3   1 <1>  -0.0970 
 24 N        2.5630     4.4830     1.7060 N.2   1 <1>  -0.6190 
 25 N        4.5670     5.2050     1.9380 N.2   1 <1>  -0.6190 
 26 N        2.5740     5.3560     2.6470 N.2   1 <1>  -0.2500 
 27 N        3.7930     5.7950     2.7880 N.2   1 <1>  -0.2500 
 28 H        2.1620     0.3070    -0.2170 H     1 <1>   0.3700 
 29 H        1.8430     1.5570    -2.4800 H     1 <1>   0.0800 
 30 H        3.1000     0.4620    -3.0140 H     1 <1>   0.0800 
 31 H        1.9970    -2.2500     1.9640 H     1 <1>   0.1000 
 32 H        3.3400    -1.5730     1.0020 H     1 <1>   0.1000 
 33 H       -0.1340    -3.7400    -1.6710 H     1 <1>   0.1500 
 34 H       -0.0270    -0.9220     1.5180 H     1 <1>   0.1500 
 35 H        4.2370    -2.8460    -0.9710 H     1 <1>   0.0800 
 36 H        3.4880    -4.3190    -1.5220 H     1 <1>   0.0800 
 37 H        4.4250    -4.3090    -0.0450 H     1 <1>   0.0800 
 38 H        0.9820    -4.4620     1.3410 H     1 <1>   0.0800 
 39 H        2.5480    -5.2250     1.3270 H     1 <1>   0.0800 
 40 H        1.5080    -5.3370    -0.0730 H     1 <1>   0.0800 
 41 H        2.2700     2.7800    -0.2070 H     1 <1>   0.1500 
 42 H        5.3770     1.0660    -2.5740 H     1 <1>   0.1500 
 43 H       -2.5680    -3.9140    -1.4370 H     1 <1>   0.1500 
 44 H       -2.4520    -1.0900     1.7560 H     1 <1>   0.1500 
 45 H        7.0170     2.4820    -1.4150 H     1 <1>   0.1500 
 46 H        6.2870     4.0200     0.3540 H     1 <1>   0.1500 
 47 H       -4.5260    -3.6000     0.0370 H     1 <1>   0.0800 
 48 H       -4.6620    -1.8890    -0.2960 H     1 <1>   0.0800 
 49 H       -4.4780    -2.4530     1.3490 H     1 <1>   0.0800 
@<TRIPOS>BOND
  1   1   2  2   
  2   2   3  am  
  3   2   4  1   
  4   3   5  1   
  5   3  28  1   
  6   4   6  1   
  7   4   7  1   
  8   4   8  1   
  9   5   9  1   
 10   5  29  1   
 11   5  30  1   
 12   6  10  ar  
 13   6  11  ar  
 14   7   8  1   
 15   7  12  1   
 16   7  13  1   
 17   8  31  1   
 18   8  32  1   
 19   9  14  ar  
 20   9  15  ar  
 21  10  16  ar  
 22  10  33  1   
 23  11  17  ar  
 24  11  34  1   
 25  12  35  1   
 26  12  36  1   
 27  12  37  1   
 28  13  38  1   
 29  13  39  1   
 30  13  40  1   
 31  14  18  ar  
 32  14  41  1   
 33  15  19  ar  
 34  15  42  1   
 35  16  20  ar  
 36  16  43  1   
 37  17  20  ar  
 38  17  44  1   
 39  18  21  1   
 40  18  22  ar  
 41  19  22  ar  
 42  19  45  1   
 43  20  23  1   
 44  21  24  1   
 45  21  25  2   
 46  22  46  1   
 47  23  47  1   
 48  23  48  1   
 49  23  49  1   
 50  24  26  1   
 51  25  27  1   
 52  26  27  2   
@<TRIPOS>SUBSTRUCTURE
  1 ****   3 GROUP 4 **** **** 0

# MOE 2024.06 (io_trps.svl 2023.06)
