@<TRIPOS>MOLECULE
NONAME
48 52 1 0 0 
SMALL
USER_CHARGES


@<TRIPOS>ATOM
  1 S       -0.2710    -0.5690    -0.9730 S.3   1 <1>  -0.0800 
  2 C       -1.7040    -0.6670     0.0560 C.2   1 <1>  -0.0450 
  3 C       -0.6710     1.0480    -1.5100 C.2   1 <1>  -0.1400 
  4 C       -1.9340    -1.8750     0.8130 C.2   1 <1>   0.7150 
  5 C       -2.3900     0.5020    -0.0510 C.2   1 <1>  -0.1500 
  6 C       -1.8130     1.4630    -0.9320 C.2   1 <1>  -0.1500 
  7 C        0.2750     1.7090    -2.4890 C.3   1 <1>  -0.0600 
  8 O       -0.9930    -2.5350     1.2170 O.2   1 <1>  -0.5700 
  9 N       -3.2110    -2.3150     1.0960 N.am  1 <1>  -0.6600 
 10 C       -4.3620    -2.1160     0.1750 C.3   1 <1>   0.1400 
 11 C       -3.4720    -3.3100     2.1720 C.3   1 <1>   0.1400 
 12 C       -4.7030    -3.4530    -0.4850 C.3   1 <1>  -0.1600 
 13 C       -3.8050    -4.6600     1.5390 C.3   1 <1>  -0.1600 
 14 C       -4.9740    -4.5480     0.5560 C.3   1 <1>   0.4600 
 15 O       -6.1030    -4.1840     1.3220 O.3   1 <1>  -0.5600 
 16 C       -5.2290    -5.8920    -0.1140 C.2   1 <1>  -0.3320 
 17 C       -7.3800    -4.4480     0.7900 C.3   1 <1>   0.1200 
 18 N       -4.3200    -6.6330    -0.8190 N.pl3 1 <1>   0.0330 
 19 C       -6.4110    -6.5390    -0.0940 C.2   1 <1>  -0.1810 
 20 C       -7.6110    -5.9580     0.6100 C.3   1 <1>   0.0210 
 21 C       -4.9480    -7.7760    -1.2490 C.ar  1 <1>  -0.1520 
 22 C       -6.2680    -7.7490    -0.8050 C.ar  1 <1>   0.0000 
 23 C       -4.4680    -8.8530    -1.9990 C.ar  1 <1>  -0.1500 
 24 C       -7.1240    -8.8110    -1.1120 C.ar  1 <1>  -0.1500 
 25 C       -5.3210    -9.8910    -2.2950 C.ar  1 <1>  -0.1500 
 26 C       -6.6490    -9.8700    -1.8520 C.ar  1 <1>  -0.1500 
 27 H       -3.2990     0.7230     0.4800 H     1 <1>   0.1500 
 28 H       -2.2770     2.4210    -1.0890 H     1 <1>   0.1500 
 29 H        0.3400     1.1240    -3.3880 H     1 <1>   0.0800 
 30 H        1.2550     1.7890    -2.0530 H     1 <1>   0.0800 
 31 H       -0.0760     2.6940    -2.7380 H     1 <1>   0.0800 
 32 H       -4.1280    -1.3970    -0.5900 H     1 <1>   0.0800 
 33 H       -5.2070    -1.7540     0.7360 H     1 <1>   0.0800 
 34 H       -4.3000    -2.9720     2.7730 H     1 <1>   0.0800 
 35 H       -2.6130    -3.4070     2.8150 H     1 <1>   0.0800 
 36 H       -3.8730    -3.7500    -1.1000 H     1 <1>   0.0800 
 37 H       -5.5500    -3.3420    -1.1340 H     1 <1>   0.0800 
 38 H       -4.0530    -5.3740     2.3020 H     1 <1>   0.0800 
 39 H       -2.9300    -5.0180     1.0290 H     1 <1>   0.0800 
 40 H       -7.4680    -3.9430    -0.1560 H     1 <1>   0.0800 
 41 H       -8.1090    -4.0400     1.4680 H     1 <1>   0.0800 
 42 H       -3.3380    -6.3980    -0.9900 H     1 <1>   0.2700 
 43 H       -8.4990    -6.1230     0.0280 H     1 <1>   0.0800 
 44 H       -7.7320    -6.4280     1.5690 H     1 <1>   0.0800 
 45 H       -3.4470    -8.8610    -2.3350 H     1 <1>   0.1500 
 46 H       -8.1400    -8.7820    -0.7640 H     1 <1>   0.1500 
 47 H       -4.9760   -10.7310    -2.8720 H     1 <1>   0.1500 
 48 H       -7.2960   -10.6950    -2.0960 H     1 <1>   0.1500 
@<TRIPOS>BOND
  1   1   2  1   
  2   1   3  1   
  3   2   4  1   
  4   2   5  2   
  5   3   6  2   
  6   3   7  1   
  7   4   8  2   
  8   4   9  am  
  9   5   6  1   
 10   5  27  1   
 11   6  28  1   
 12   7  29  1   
 13   7  30  1   
 14   7  31  1   
 15   9  10  1   
 16   9  11  1   
 17  10  12  1   
 18  10  32  1   
 19  10  33  1   
 20  11  13  1   
 21  11  34  1   
 22  11  35  1   
 23  12  14  1   
 24  12  36  1   
 25  12  37  1   
 26  13  14  1   
 27  13  38  1   
 28  13  39  1   
 29  14  15  1   
 30  14  16  1   
 31  15  17  1   
 32  16  18  1   
 33  16  19  2   
 34  17  20  1   
 35  17  40  1   
 36  17  41  1   
 37  18  21  1   
 38  18  42  1   
 39  19  20  1   
 40  19  22  1   
 41  20  43  1   
 42  20  44  1   
 43  21  22  ar  
 44  21  23  ar  
 45  22  24  ar  
 46  23  25  ar  
 47  23  45  1   
 48  24  26  ar  
 49  24  46  1   
 50  25  26  ar  
 51  25  47  1   
 52  26  48  1   
@<TRIPOS>SUBSTRUCTURE
  1 ****  12 GROUP 4 **** **** 0

# MOE 2024.06 (io_trps.svl 2023.06)
