@<TRIPOS>MOLECULE
NONAME
44 46 1 0 0 
SMALL
USER_CHARGES


@<TRIPOS>ATOM
  1 O        0.1360     0.3590    -0.7600 O.co2 1 <1>  -0.9000 
  2 C       -0.7010    -0.1360     0.0100 C.2   1 <1>   0.9060 
  3 O       -0.6550    -1.2990     0.4150 O.co2 1 <1>  -0.9000 
  4 C       -1.8540     0.7900     0.4510 C.3   1 <1>   0.3170 
  5 N       -1.6010     2.2260     0.0420 N.4   1 <1>  -0.9590 
  6 C       -3.1930     0.3910    -0.1910 C.3   1 <1>  -0.1600 
  7 C       -2.6120     2.5620    -0.9930 C.3   1 <1>   0.3430 
  8 C       -1.6110     3.1300     1.2180 C.3   1 <1>   0.4860 
  9 C       -3.8250     1.6890    -0.6640 C.3   1 <1>   0.2000 
 10 C       -1.4400     4.5830     0.7860 C.ar  1 <1>  -0.1430 
 11 O       -4.5250     2.2470     0.4020 O.3   1 <1>  -0.6800 
 12 C       -0.2130     5.0720     0.3260 C.ar  1 <1>  -0.0230 
 13 C       -2.5370     5.4250     0.8670 C.ar  1 <1>  -0.1500 
 14 N        0.8960     4.1890     0.1960 N.pl3 1 <1>   0.5930 
 15 C       -0.1070     6.4210    -0.0230 C.ar  1 <1>  -0.1430 
 16 C       -2.4340     6.7540     0.5030 C.ar  1 <1>  -0.1430 
 17 N        1.3660     3.4330     1.2210 N.2   1 <1>  -0.7070 
 18 C        1.4130     3.7490    -0.9750 C.2   1 <1>  -0.3020 
 19 C       -1.2170     7.2440     0.0650 C.ar  1 <1>  -0.1500 
 20 C        1.2130     7.0210    -0.4950 C.3   1 <1>  -0.0970 
 21 C       -3.6370     7.6750     0.5930 C.3   1 <1>  -0.0970 
 22 C        2.1460     2.5520     0.6730 C.2   1 <1>   0.1390 
 23 C        2.2180     2.7020    -0.7050 C.2   1 <1>  -0.1500 
 24 H       -1.9310     0.7210     1.5210 H     1 <1>   0.0800 
 25 H       -0.6420     2.1690    -0.3710 H     1 <1>   0.4500 
 26 H       -3.8110    -0.1640     0.4920 H     1 <1>   0.0800 
 27 H       -2.9930    -0.2370    -1.0420 H     1 <1>   0.0800 
 28 H       -2.8650     3.6080    -1.0010 H     1 <1>   0.0800 
 29 H       -2.2280     2.2800    -1.9590 H     1 <1>   0.0800 
 30 H       -2.5480     3.0250     1.7370 H     1 <1>   0.0800 
 31 H       -0.8210     2.8540     1.8980 H     1 <1>   0.0800 
 32 H       -4.4930     1.5700    -1.5010 H     1 <1>   0.0800 
 33 H       -5.3060     1.6990     0.6200 H     1 <1>   0.4000 
 34 H       -3.4830     5.0460     1.2180 H     1 <1>   0.1500 
 35 H        1.1620     4.1920    -1.9190 H     1 <1>   0.1500 
 36 H       -1.1370     8.2830    -0.2070 H     1 <1>   0.1500 
 37 H        1.1680     8.0950    -0.4980 H     1 <1>   0.0800 
 38 H        1.4380     6.6880    -1.4920 H     1 <1>   0.0800 
 39 H        2.0140     6.7270     0.1610 H     1 <1>   0.0800 
 40 H       -3.6350     8.3740    -0.2250 H     1 <1>   0.0800 
 41 H       -3.6070     8.2240     1.5170 H     1 <1>   0.0800 
 42 H       -4.5530     7.1130     0.5540 H     1 <1>   0.0800 
 43 H        2.6670     1.7840     1.2210 H     1 <1>   0.1500 
 44 H        2.7840     2.0780    -1.3760 H     1 <1>   0.1500 
@<TRIPOS>BOND
  1   1   2  ar  
  2   2   3  ar  
  3   2   4  1   
  4   4   5  1   
  5   4   6  1   
  6   4  24  1   
  7   5   7  1   
  8   5   8  1   
  9   5  25  1   
 10   6   9  1   
 11   6  26  1   
 12   6  27  1   
 13   7   9  1   
 14   7  28  1   
 15   7  29  1   
 16   8  10  1   
 17   8  30  1   
 18   8  31  1   
 19   9  11  1   
 20   9  32  1   
 21  10  12  ar  
 22  10  13  ar  
 23  11  33  1   
 24  12  14  1   
 25  12  15  ar  
 26  13  16  ar  
 27  13  34  1   
 28  14  17  1   
 29  14  18  1   
 30  15  19  ar  
 31  15  20  1   
 32  16  19  ar  
 33  16  21  1   
 34  17  22  2   
 35  18  23  2   
 36  18  35  1   
 37  19  36  1   
 38  20  37  1   
 39  20  38  1   
 40  20  39  1   
 41  21  40  1   
 42  21  41  1   
 43  21  42  1   
 44  22  23  1   
 45  22  43  1   
 46  23  44  1   
@<TRIPOS>SUBSTRUCTURE
  1 ****   8 GROUP 4 **** **** 0

# MOE 2024.06 (io_trps.svl 2023.06)
