@<TRIPOS>MOLECULE
NONAME
59 62 1 0 0 
SMALL
USER_CHARGES


@<TRIPOS>ATOM
  1 O       -2.8110     0.4820    -2.4480 O.2   1 <1>  -0.5700 
  2 C       -2.3350     0.6660    -1.3450 C.2   1 <1>   0.5440 
  3 N       -2.0050    -0.4300    -0.6010 N.am  1 <1>  -0.7300 
  4 C       -2.1530     2.0080    -0.8210 C.ar  1 <1>   0.0860 
  5 C       -2.1070    -1.8400    -1.0480 C.3   1 <1>   0.2200 
  6 C       -1.2150     2.2910     0.1760 C.ar  1 <1>  -0.1500 
  7 C       -2.9220     3.0700    -1.3010 C.ar  1 <1>  -0.1500 
  8 C       -3.3310    -2.5270    -0.4520 C.3   1 <1>  -0.0800 
  9 C       -0.9950    -2.6350    -0.3800 C.3   1 <1>   0.1200 
 10 C       -1.0550     3.5750     0.6860 C.ar  1 <1>   0.0830 
 11 C       -2.7760     4.3520    -0.8070 C.ar  1 <1>  -0.1500 
 12 C       -2.8410    -2.9280     0.9470 C.3   1 <1>   0.1200 
 13 C       -4.6260    -1.6880    -0.4620 C.3   1 <1>  -0.0160 
 14 O       -1.4440    -2.8530     0.9240 O.3   1 <1>  -0.5600 
 15 O       -0.1480     3.8760     1.6590 O.3   1 <1>  -0.3630 
 16 C       -1.8430     4.6110     0.1830 C.ar  1 <1>   0.0830 
 17 C       -5.9020    -2.3830     0.0270 C.ar  1 <1>  -0.1430 
 18 C        0.6750     2.8940     2.2460 C.3   1 <1>   0.0400 
 19 O       -1.7160     5.8670     0.6680 O.3   1 <1>  -0.3630 
 20 C       -7.0800    -1.6210     0.2260 C.ar  1 <1>   0.0000 
 21 C       -5.9830    -3.7240     0.2830 C.ar  1 <1>  -0.1500 
 22 C       -1.1850     6.8610    -0.1790 C.3   1 <1>   0.2000 
 23 C       -8.2330    -2.2900     0.7050 C.ar  1 <1>   0.3100 
 24 C       -7.1840    -0.2320    -0.0280 C.ar  1 <1>  -0.1500 
 25 C       -7.1780    -4.2890     0.7450 C.ar  1 <1>   0.1600 
 26 C        0.3370     6.7160    -0.2110 C.3   1 <1>  -0.2400 
 27 C       -1.6060     8.2130     0.3900 C.3   1 <1>  -0.2400 
 28 N       -8.2650    -3.6220     0.9600 N.ar  1 <1>  -0.6200 
 29 C       -9.4080    -1.5540     0.9250 C.ar  1 <1>  -0.1500 
 30 C       -8.3460     0.4560     0.1950 C.ar  1 <1>  -0.1500 
 31 C       -9.4730    -0.2090     0.6800 C.ar  1 <1>  -0.1500 
 32 H       -1.7380    -0.3310     0.3800 H     1 <1>   0.3700 
 33 H       -2.0710    -1.9050    -2.1230 H     1 <1>   0.0800 
 34 H       -0.6050     1.4890     0.5400 H     1 <1>   0.1500 
 35 H       -3.6480     2.8790    -2.0740 H     1 <1>   0.1500 
 36 H       -3.4970    -3.4230    -1.0230 H     1 <1>   0.0800 
 37 H       -0.0570    -2.1080    -0.3610 H     1 <1>   0.0800 
 38 H       -0.8700    -3.5930    -0.8530 H     1 <1>   0.0800 
 39 H       -3.3890     5.1510    -1.1830 H     1 <1>   0.1500 
 40 H       -3.1270    -3.9330     1.2040 H     1 <1>   0.0800 
 41 H       -3.1930    -2.2460     1.7010 H     1 <1>   0.0800 
 42 H       -4.7970    -1.3410    -1.4670 H     1 <1>   0.0800 
 43 H       -4.4680    -0.8220     0.1560 H     1 <1>   0.0800 
 44 H        1.2870     3.3760     2.9880 H     1 <1>   0.0800 
 45 H        1.2990     2.4600     1.4860 H     1 <1>   0.0800 
 46 H        0.0550     2.1500     2.7130 H     1 <1>   0.0800 
 47 H       -5.1580    -4.3950     0.1460 H     1 <1>   0.1500 
 48 H       -1.5970     6.7350    -1.1650 H     1 <1>   0.0800 
 49 H       -6.3360     0.3030    -0.4100 H     1 <1>   0.1500 
 50 H       -7.1920    -5.3480     0.9360 H     1 <1>   0.1500 
 51 H        0.7370     6.7820     0.7850 H     1 <1>   0.0800 
 52 H        0.7690     7.4950    -0.8110 H     1 <1>   0.0800 
 53 H        0.6100     5.7690    -0.6390 H     1 <1>   0.0800 
 54 H       -1.2200     8.3350     1.3860 H     1 <1>   0.0800 
 55 H       -2.6780     8.2830     0.4140 H     1 <1>   0.0800 
 56 H       -1.2260     9.0070    -0.2270 H     1 <1>   0.0800 
 57 H      -10.2630    -2.0890     1.2950 H     1 <1>   0.1500 
 58 H       -8.4070     1.5130    -0.0020 H     1 <1>   0.1500 
 59 H      -10.3810     0.3430     0.8530 H     1 <1>   0.1500 
@<TRIPOS>BOND
  1   1   2  2   
  2   2   3  am  
  3   2   4  1   
  4   3   5  1   
  5   3  32  1   
  6   4   6  ar  
  7   4   7  ar  
  8   5   8  1   
  9   5   9  1   
 10   5  33  1   
 11   6  10  ar  
 12   6  34  1   
 13   7  11  ar  
 14   7  35  1   
 15   8  12  1   
 16   8  13  1   
 17   8  36  1   
 18   9  14  1   
 19   9  37  1   
 20   9  38  1   
 21  10  15  1   
 22  10  16  ar  
 23  11  16  ar  
 24  11  39  1   
 25  12  14  1   
 26  12  40  1   
 27  12  41  1   
 28  13  17  1   
 29  13  42  1   
 30  13  43  1   
 31  15  18  1   
 32  16  19  1   
 33  17  20  ar  
 34  17  21  ar  
 35  18  44  1   
 36  18  45  1   
 37  18  46  1   
 38  19  22  1   
 39  20  23  ar  
 40  20  24  ar  
 41  21  25  ar  
 42  21  47  1   
 43  22  26  1   
 44  22  27  1   
 45  22  48  1   
 46  23  28  ar  
 47  23  29  ar  
 48  24  30  ar  
 49  24  49  1   
 50  25  28  ar  
 51  25  50  1   
 52  26  51  1   
 53  26  52  1   
 54  26  53  1   
 55  27  54  1   
 56  27  55  1   
 57  27  56  1   
 58  29  31  ar  
 59  29  57  1   
 60  30  31  ar  
 61  30  58  1   
 62  31  59  1   
@<TRIPOS>SUBSTRUCTURE
  1 ****   2 GROUP 4 **** **** 0

# MOE 2024.06 (io_trps.svl 2023.06)
