@<TRIPOS>MOLECULE
NONAME
49 50 1 0 0 
SMALL
USER_CHARGES


@<TRIPOS>ATOM
  1 S        1.9070     0.0180    -1.7010 S.o2  1 <1>   1.3330 
  2 O        2.7800     1.0870    -2.1320 O.2   1 <1>  -0.6500 
  3 O        1.4260    -0.9520    -2.6520 O.2   1 <1>  -0.6500 
  4 N        2.7210    -0.8140    -0.4190 N.am  1 <1>  -0.6930 
  5 C        0.5230     0.7330    -0.8410 C.3   1 <1>  -0.1350 
  6 C        2.1620    -1.9160     0.2260 C.ar  1 <1>   0.1990 
  7 C        3.9720    -0.2000     0.1280 C.3   1 <1>   0.2570 
  8 C        1.8520    -3.0740    -0.4790 C.ar  1 <1>  -0.1500 
  9 C        1.9000    -1.8850     1.5920 C.ar  1 <1>  -0.1500 
 10 C        3.7510     1.0920     0.9240 C.2   1 <1>   0.5690 
 11 C        1.2880    -4.1700     0.1500 C.ar  1 <1>  -0.1440 
 12 C        1.3420    -2.9760     2.2310 C.ar  1 <1>  -0.1500 
 13 O        3.7220     1.0400     2.1310 O.2   1 <1>  -0.5700 
 14 N        3.5960     2.2690     0.2590 N.am  1 <1>  -0.7300 
 15 C        1.0350    -4.1170     1.5110 C.ar  1 <1>  -0.1500 
 16 C        0.9520    -5.4230    -0.6380 C.3   1 <1>  -0.0970 
 17 C        3.4420     3.6000     0.8770 C.3   1 <1>   0.1400 
 18 C        4.6200     4.4770     0.4610 C.3   1 <1>  -0.1600 
 19 C        4.5240     5.8730     1.0850 C.3   1 <1>   0.0210 
 20 C        5.6980     6.7260     0.6520 C.2   1 <1>  -0.1810 
 21 C        7.0040     6.6490     1.1250 C.2   1 <1>   0.1390 
 22 C        5.7280     7.7180    -0.2620 C.2   1 <1>  -0.3020 
 23 N        7.7850     7.5170     0.5580 N.2   1 <1>  -0.7070 
 24 N        6.9940     8.1780    -0.3030 N.pl3 1 <1>   0.3140 
 25 C        7.5140     9.2590    -1.1460 C.3   1 <1>   0.0160 
 26 H       -0.0720     1.3120    -1.5190 H     1 <1>   0.0800 
 27 H        0.8630     1.3690    -0.0480 H     1 <1>   0.0800 
 28 H       -0.0890    -0.0420    -0.4230 H     1 <1>   0.0800 
 29 H        4.6450     0.0060    -0.6840 H     1 <1>   0.0800 
 30 H        4.4580    -0.9100     0.7730 H     1 <1>   0.0800 
 31 H        2.0610    -3.1120    -1.5330 H     1 <1>   0.1500 
 32 H        2.1300    -1.0030     2.1620 H     1 <1>   0.1500 
 33 H        1.1450    -2.9380     3.2880 H     1 <1>   0.1500 
 34 H        3.5570     2.2420    -0.7730 H     1 <1>   0.3700 
 35 H        0.6000    -4.9640     2.0140 H     1 <1>   0.1500 
 36 H        0.8950    -5.2060    -1.6900 H     1 <1>   0.0800 
 37 H        0.0040    -5.8180    -0.3220 H     1 <1>   0.0800 
 38 H        1.7110    -6.1670    -0.4790 H     1 <1>   0.0800 
 39 H        3.4150     3.5040     1.9510 H     1 <1>   0.0800 
 40 H        2.5140     4.0370     0.5500 H     1 <1>   0.0800 
 41 H        4.6390     4.5730    -0.6100 H     1 <1>   0.0800 
 42 H        5.5370     4.0120     0.7800 H     1 <1>   0.0800 
 43 H        4.5160     5.8000     2.1590 H     1 <1>   0.0800 
 44 H        3.6100     6.3490     0.7740 H     1 <1>   0.0800 
 45 H        7.3420     5.9550     1.8760 H     1 <1>   0.1500 
 46 H        4.9390     8.1150    -0.8720 H     1 <1>   0.1500 
 47 H        6.8380     9.4360    -1.9610 H     1 <1>   0.0800 
 48 H        8.4760     8.9690    -1.5270 H     1 <1>   0.0800 
 49 H        7.6140    10.1460    -0.5510 H     1 <1>   0.0800 
@<TRIPOS>BOND
  1   1   2  2   
  2   1   3  2   
  3   1   4  am  
  4   1   5  1   
  5   4   6  1   
  6   4   7  1   
  7   5  26  1   
  8   5  27  1   
  9   5  28  1   
 10   6   8  ar  
 11   6   9  ar  
 12   7  10  1   
 13   7  29  1   
 14   7  30  1   
 15   8  11  ar  
 16   8  31  1   
 17   9  12  ar  
 18   9  32  1   
 19  10  13  2   
 20  10  14  am  
 21  11  15  ar  
 22  11  16  1   
 23  12  15  ar  
 24  12  33  1   
 25  14  17  1   
 26  14  34  1   
 27  15  35  1   
 28  16  36  1   
 29  16  37  1   
 30  16  38  1   
 31  17  18  1   
 32  17  39  1   
 33  17  40  1   
 34  18  19  1   
 35  18  41  1   
 36  18  42  1   
 37  19  20  1   
 38  19  43  1   
 39  19  44  1   
 40  20  21  1   
 41  20  22  2   
 42  21  23  2   
 43  21  45  1   
 44  22  24  1   
 45  22  46  1   
 46  23  24  1   
 47  24  25  1   
 48  25  47  1   
 49  25  48  1   
 50  25  49  1   
@<TRIPOS>SUBSTRUCTURE
  1 ****  14 GROUP 4 **** **** 0

# MOE 2024.06 (io_trps.svl 2023.06)
