@<TRIPOS>MOLECULE
NONAME
55 56 1 0 0 
SMALL
USER_CHARGES


@<TRIPOS>ATOM
  1 O       -0.5480     0.4840    -0.5200 O.3   1 <1>  -0.3630 
  2 C       -0.0290     1.6320    -0.0090 C.ar  1 <1>   0.0830 
  3 C       -1.8090     0.0060    -0.1240 C.3   1 <1>   0.1200 
  4 C        1.1870     2.0750    -0.5240 C.ar  1 <1>  -0.1440 
  5 C       -0.6580     2.3680     0.9920 C.ar  1 <1>  -0.1500 
  6 C       -2.0870    -1.2620    -0.9340 C.3   1 <1>   0.3430 
  7 C        1.7520     3.2430    -0.0380 C.ar  1 <1>  -0.1500 
  8 C        1.9050     1.2930    -1.6150 C.3   1 <1>  -0.0960 
  9 C       -0.0830     3.5320     1.4680 C.ar  1 <1>  -0.1500 
 10 N       -3.4180    -1.8660    -0.6140 N.4   1 <1>  -0.9590 
 11 C        1.1240     3.9770     0.9550 C.ar  1 <1>  -0.1430 
 12 C       -3.5220    -3.2680    -1.1240 C.3   1 <1>   0.3430 
 13 C       -4.5810    -1.0630    -1.0600 C.3   1 <1>   0.3430 
 14 C        1.7580     5.2530     1.4770 C.3   1 <1>  -0.0970 
 15 C       -4.9250    -3.8830    -0.9150 C.3   1 <1>   0.2000 
 16 C       -5.8470    -1.5540    -0.3460 C.3   1 <1>  -0.1600 
 17 O       -4.7730    -5.1820    -0.4490 O.3   1 <1>  -0.6800 
 18 C       -5.8880    -3.0740     0.0140 C.3   1 <1>   0.0000 
 19 C       -5.5390    -3.2520     1.5240 C.3   1 <1>   0.1200 
 20 C       -7.3500    -3.5930    -0.1200 C.3   1 <1>  -0.1600 
 21 O       -4.2450    -2.8410     1.8350 O.3   1 <1>  -0.6800 
 22 C       -7.9340    -3.7030    -1.5440 C.3   1 <1>  -0.1600 
 23 C       -9.4270    -4.0420    -1.4880 C.3   1 <1>  -0.2400 
 24 H       -1.7690    -0.2120     0.9290 H     1 <1>   0.0800 
 25 H       -2.5330     0.7730    -0.3340 H     1 <1>   0.0800 
 26 H       -1.5910     2.0600     1.4210 H     1 <1>   0.1500 
 27 H       -1.3100    -1.9750    -0.7100 H     1 <1>   0.0800 
 28 H       -2.0380    -1.0260    -1.9840 H     1 <1>   0.0800 
 29 H        2.6910     3.5880    -0.4320 H     1 <1>   0.1500 
 30 H        2.8310     1.7660    -1.8850 H     1 <1>   0.0800 
 31 H        1.2840     1.2330    -2.4900 H     1 <1>   0.0800 
 32 H        2.1180     0.2970    -1.2690 H     1 <1>   0.0800 
 33 H       -0.5760     4.0930     2.2430 H     1 <1>   0.1500 
 34 H       -3.5150    -1.9690     0.4190 H     1 <1>   0.4500 
 35 H       -3.2970    -3.2860    -2.1770 H     1 <1>   0.0800 
 36 H       -2.7970    -3.8830    -0.6160 H     1 <1>   0.0800 
 37 H       -4.4330    -0.0180    -0.8410 H     1 <1>   0.0800 
 38 H       -4.7010    -1.1690    -2.1270 H     1 <1>   0.0800 
 39 H        1.0080     5.9150     1.8720 H     1 <1>   0.0800 
 40 H        2.2760     5.7650     0.6850 H     1 <1>   0.0800 
 41 H        2.4600     5.0180     2.2560 H     1 <1>   0.0800 
 42 H       -5.3570    -3.9660    -1.8950 H     1 <1>   0.0800 
 43 H       -5.9740    -0.9690     0.5480 H     1 <1>   0.0800 
 44 H       -6.6750    -1.2860    -0.9750 H     1 <1>   0.0800 
 45 H       -4.4780    -5.1910     0.4840 H     1 <1>   0.4000 
 46 H       -5.6370    -4.2840     1.8190 H     1 <1>   0.0800 
 47 H       -6.2180    -2.6750     2.1300 H     1 <1>   0.0800 
 48 H       -7.4120    -4.5760     0.3180 H     1 <1>   0.0800 
 49 H       -7.9950    -2.9560     0.4620 H     1 <1>   0.0800 
 50 H       -4.0870    -2.9570     2.8000 H     1 <1>   0.4000 
 51 H       -7.8150    -2.7880    -2.0940 H     1 <1>   0.0800 
 52 H       -7.4390    -4.4900    -2.0870 H     1 <1>   0.0800 
 53 H       -9.9750    -3.2680    -0.9820 H     1 <1>   0.0800 
 54 H       -9.5840    -4.9730    -0.9710 H     1 <1>   0.0800 
 55 H       -9.8200    -4.1400    -2.4850 H     1 <1>   0.0800 
@<TRIPOS>BOND
  1   1   2  1   
  2   1   3  1   
  3   2   4  ar  
  4   2   5  ar  
  5   3   6  1   
  6   3  24  1   
  7   3  25  1   
  8   4   7  ar  
  9   4   8  1   
 10   5   9  ar  
 11   5  26  1   
 12   6  10  1   
 13   6  27  1   
 14   6  28  1   
 15   7  11  ar  
 16   7  29  1   
 17   8  30  1   
 18   8  31  1   
 19   8  32  1   
 20   9  11  ar  
 21   9  33  1   
 22  10  12  1   
 23  10  13  1   
 24  10  34  1   
 25  11  14  1   
 26  12  15  1   
 27  12  35  1   
 28  12  36  1   
 29  13  16  1   
 30  13  37  1   
 31  13  38  1   
 32  14  39  1   
 33  14  40  1   
 34  14  41  1   
 35  15  17  1   
 36  15  18  1   
 37  15  42  1   
 38  16  18  1   
 39  16  43  1   
 40  16  44  1   
 41  17  45  1   
 42  18  19  1   
 43  18  20  1   
 44  19  21  1   
 45  19  46  1   
 46  19  47  1   
 47  20  22  1   
 48  20  48  1   
 49  20  49  1   
 50  21  50  1   
 51  22  23  1   
 52  22  51  1   
 53  22  52  1   
 54  23  53  1   
 55  23  54  1   
 56  23  55  1   
@<TRIPOS>SUBSTRUCTURE
  1 ****   3 GROUP 4 **** **** 0

# MOE 2024.06 (io_trps.svl 2023.06)
