@<TRIPOS>MOLECULE
NONAME
40 41 1 0 0 
SMALL
USER_CHARGES


@<TRIPOS>ATOM
  1 N       -0.1660     0.6650     0.5080 N.ar  1 <1>  -0.6200 
  2 C       -0.3860     1.8740     0.0460 C.ar  1 <1>   0.7710 
  3 C       -1.0760    -0.2640     0.2790 C.ar  1 <1>   0.4100 
  4 N       -1.4860     2.2000    -0.6530 N.ar  1 <1>  -0.1790 
  5 N        0.5540     2.7820     0.3100 N.pl3 1 <1>  -0.8690 
  6 N       -0.8320    -1.4870     0.8170 N.pl3 1 <1>  -0.8380 
  7 C       -2.2390     0.0030    -0.4900 C.ar  1 <1>  -0.1430 
  8 C       -2.4240     1.2680    -0.9430 C.ar  1 <1>   0.2110 
  9 C        0.8040     4.1620    -0.1450 C.3   1 <1>   0.3900 
 10 C       -1.7800    -2.1620     1.7470 C.3   1 <1>   0.1290 
 11 C        0.5440    -2.0620     0.8440 C.3   1 <1>   0.1290 
 12 C       -3.2440    -1.0930    -0.8430 C.3   1 <1>  -0.0970 
 13 C        2.3020     4.3610    -0.1750 C.2   1 <1>  -0.1810 
 14 C        3.0360     5.2190     0.6420 C.2   1 <1>   0.1080 
 15 C        3.2250     3.7690    -0.9700 C.2   1 <1>  -0.3320 
 16 N        4.3020     5.1760     0.3830 N.2   1 <1>  -0.7070 
 17 C        2.4860     6.1200     1.7270 C.3   1 <1>  -0.0590 
 18 N        4.4220     4.2800    -0.6120 N.pl3 1 <1>   0.3000 
 19 C        3.0730     2.7310    -2.0690 C.3   1 <1>  -0.0600 
 20 H       -1.5710     3.1660    -0.9460 H     1 <1>   0.4570 
 21 H        1.3590     2.4180     0.8360 H     1 <1>   0.4000 
 22 H       -3.2820     1.5570    -1.5300 H     1 <1>   0.1500 
 23 H        0.3500     4.8610     0.5380 H     1 <1>   0.0800 
 24 H        0.4070     4.3200    -1.1320 H     1 <1>   0.0800 
 25 H       -2.6190    -1.5230     1.9610 H     1 <1>   0.0800 
 26 H       -1.2850    -2.3880     2.6760 H     1 <1>   0.0800 
 27 H       -2.1330    -3.0790     1.3060 H     1 <1>   0.0800 
 28 H        1.1590    -1.5980     0.0920 H     1 <1>   0.0800 
 29 H        0.5040    -3.1200     0.6500 H     1 <1>   0.0800 
 30 H        0.9910    -1.8940     1.8090 H     1 <1>   0.0800 
 31 H       -2.7240    -1.9870    -1.1430 H     1 <1>   0.0800 
 32 H       -3.8820    -0.7930    -1.6550 H     1 <1>   0.0800 
 33 H       -3.8630    -1.3240     0.0050 H     1 <1>   0.0800 
 34 H        1.9240     5.5430     2.4370 H     1 <1>   0.0800 
 35 H        1.8590     6.8760     1.2940 H     1 <1>   0.0800 
 36 H        3.2980     6.6020     2.2430 H     1 <1>   0.0800 
 37 H        5.3340     4.0410    -1.0200 H     1 <1>   0.2700 
 38 H        2.0420     2.4560    -2.1970 H     1 <1>   0.0800 
 39 H        3.6310     1.8450    -1.8200 H     1 <1>   0.0800 
 40 H        3.4410     3.1220    -3.0020 H     1 <1>   0.0800 
@<TRIPOS>BOND
  1   1   2  ar  
  2   1   3  ar  
  3   2   4  ar  
  4   2   5  1   
  5   3   6  1   
  6   3   7  ar  
  7   4   8  ar  
  8   4  20  1   
  9   5   9  1   
 10   5  21  1   
 11   6  10  1   
 12   6  11  1   
 13   7   8  ar  
 14   7  12  1   
 15   8  22  1   
 16   9  13  1   
 17   9  23  1   
 18   9  24  1   
 19  10  25  1   
 20  10  26  1   
 21  10  27  1   
 22  11  28  1   
 23  11  29  1   
 24  11  30  1   
 25  12  31  1   
 26  12  32  1   
 27  12  33  1   
 28  13  14  1   
 29  13  15  2   
 30  14  16  2   
 31  14  17  1   
 32  15  18  1   
 33  15  19  1   
 34  16  18  1   
 35  17  34  1   
 36  17  35  1   
 37  17  36  1   
 38  18  37  1   
 39  19  38  1   
 40  19  39  1   
 41  19  40  1   
@<TRIPOS>SUBSTRUCTURE
  1 ****   5 GROUP 4 **** **** 0

# MOE 2024.06 (io_trps.svl 2023.06)
