@<TRIPOS>MOLECULE
NONAME
51 54 1 0 0 
SMALL
USER_CHARGES


@<TRIPOS>ATOM
  1 O        0.5000     2.2100     1.8120 O.2   1 <1>  -0.5700 
  2 C        0.0090     2.2910     0.7070 C.2   1 <1>   0.7800 
  3 O       -0.2230     1.2270    -0.0450 O.3   1 <1>  -0.4300 
  4 N       -0.3340     3.4320     0.0780 N.am  1 <1>  -0.6600 
  5 C       -0.7550     1.6060    -1.3030 C.3   1 <1>   0.1200 
  6 C       -0.8280     3.1380    -1.2680 C.3   1 <1>   0.1400 
  7 C       -0.1110     4.8240     0.5710 C.3   1 <1>   0.2010 
  8 C        0.8450     5.6350    -0.3100 C.2   1 <1>   0.5690 
  9 O        0.3430     6.3920    -1.1090 O.2   1 <1>  -0.5700 
 10 N        2.2100     5.5200    -0.1950 N.am  1 <1>  -0.6600 
 11 C        2.9260     4.5760     0.7270 C.3   1 <1>   0.1400 
 12 C        3.1180     6.3630    -1.0180 C.3   1 <1>   0.1400 
 13 C        3.4950     5.2830     1.9680 C.3   1 <1>   0.1400 
 14 C        3.3860     7.7150    -0.3430 C.3   1 <1>  -0.1600 
 15 N        4.3380     6.4660     1.6070 N.am  1 <1>  -0.6600 
 16 C        3.5630     7.6660     1.1810 C.3   1 <1>   0.1400 
 17 C        5.7070     6.3650     1.4950 C.2   1 <1>   0.6160 
 18 O        6.2360     5.2830     1.6600 O.2   1 <1>  -0.5700 
 19 C        6.5160     7.5140     1.1680 C.2   1 <1>  -0.0140 
 20 C        7.1340     7.6170    -0.1360 C.ar  1 <1>   0.0280 
 21 C        6.7010     8.5250     2.0640 C.2   1 <1>  -0.1360 
 22 C        7.8670     8.7780    -0.4450 C.ar  1 <1>   0.1170 
 23 C        7.0400     6.6250    -1.1180 C.ar  1 <1>  -0.1500 
 24 C        7.4500     9.6860     1.7520 C.2   1 <1>   0.6160 
 25 N        7.9980     9.7750     0.5130 N.am  1 <1>  -0.5470 
 26 C        8.4540     8.9260    -1.6990 C.ar  1 <1>  -0.1500 
 27 C        7.6260     6.7810    -2.3560 C.ar  1 <1>  -0.1500 
 28 O        7.6100    10.6070     2.5310 O.2   1 <1>  -0.5700 
 29 C        8.3340     7.9370    -2.6500 C.ar  1 <1>  -0.1500 
 30 H       -1.7300     1.1640    -1.4120 H     1 <1>   0.0800 
 31 H       -0.0970     1.2550    -2.0780 H     1 <1>   0.0800 
 32 H       -0.1900     3.5770    -2.0170 H     1 <1>   0.0800 
 33 H       -1.8380     3.4880    -1.3930 H     1 <1>   0.0800 
 34 H        0.2700     4.7940     1.5750 H     1 <1>   0.0800 
 35 H       -1.0570     5.3320     0.6000 H     1 <1>   0.0800 
 36 H        3.7360     4.1060     0.1970 H     1 <1>   0.0800 
 37 H        2.2720     3.7900     1.0470 H     1 <1>   0.0800 
 38 H        2.6860     6.5250    -1.9920 H     1 <1>   0.0800 
 39 H        4.0500     5.8450    -1.1630 H     1 <1>   0.0800 
 40 H        4.0800     4.5750     2.5310 H     1 <1>   0.0800 
 41 H        2.6860     5.5970     2.6020 H     1 <1>   0.0800 
 42 H        2.5650     8.3740    -0.5650 H     1 <1>   0.0800 
 43 H        4.2600     8.1520    -0.7890 H     1 <1>   0.0800 
 44 H        2.5900     7.6340     1.6420 H     1 <1>   0.0800 
 45 H        4.0450     8.5650     1.5220 H     1 <1>   0.0800 
 46 H        6.2790     8.4900     3.0500 H     1 <1>   0.1500 
 47 H        6.5070     5.7130    -0.9110 H     1 <1>   0.1500 
 48 H        8.5370    10.6200     0.3330 H     1 <1>   0.3700 
 49 H        9.0070     9.8200    -1.9240 H     1 <1>   0.1500 
 50 H        7.5410     6.0050    -3.0980 H     1 <1>   0.1500 
 51 H        8.7900     8.0530    -3.6190 H     1 <1>   0.1500 
@<TRIPOS>BOND
  1   1   2  2   
  2   2   3  1   
  3   2   4  am  
  4   3   5  1   
  5   4   6  1   
  6   4   7  1   
  7   5   6  1   
  8   5  30  1   
  9   5  31  1   
 10   6  32  1   
 11   6  33  1   
 12   7   8  1   
 13   7  34  1   
 14   7  35  1   
 15   8   9  2   
 16   8  10  am  
 17  10  11  1   
 18  10  12  1   
 19  11  13  1   
 20  11  36  1   
 21  11  37  1   
 22  12  14  1   
 23  12  38  1   
 24  12  39  1   
 25  13  15  1   
 26  13  40  1   
 27  13  41  1   
 28  14  16  1   
 29  14  42  1   
 30  14  43  1   
 31  15  16  1   
 32  15  17  am  
 33  16  44  1   
 34  16  45  1   
 35  17  18  2   
 36  17  19  1   
 37  19  20  1   
 38  19  21  2   
 39  20  22  ar  
 40  20  23  ar  
 41  21  24  1   
 42  21  46  1   
 43  22  25  1   
 44  22  26  ar  
 45  23  27  ar  
 46  23  47  1   
 47  24  25  am  
 48  24  28  2   
 49  25  48  1   
 50  26  29  ar  
 51  26  49  1   
 52  27  29  ar  
 53  27  50  1   
 54  29  51  1   
@<TRIPOS>SUBSTRUCTURE
  1 ****  15 GROUP 4 **** **** 0

# MOE 2024.06 (io_trps.svl 2023.06)
