@<TRIPOS>MOLECULE
NONAME
37 38 1 0 0 
SMALL
USER_CHARGES


@<TRIPOS>ATOM
  1 S        0.7490     0.1430     0.7690 S.3   1 <1>  -0.0800 
  2 C        0.4920     1.8480     0.5470 C.2   1 <1>   0.4620 
  3 C       -0.6020    -0.1310    -0.2800 C.2   1 <1>   0.1980 
  4 N       -0.5070     2.0810    -0.2330 N.2   1 <1>  -0.3380 
  5 N        1.3260     2.7600     1.1660 N.pl3 1 <1>  -0.8220 
  6 N       -1.1210     0.9530    -0.6980 N.2   1 <1>  -0.3380 
  7 C       -0.9900    -1.5790    -0.5640 C.3   1 <1>   0.1000 
  8 C        1.2160     4.2040     0.8280 C.3   1 <1>   0.3530 
  9 C        2.5300     2.3610     1.9460 C.3   1 <1>   0.1290 
 10 C       -1.8280    -1.7030    -1.8450 C.3   1 <1>  -0.2400 
 11 C       -1.7590    -2.1750     0.6220 C.3   1 <1>  -0.2400 
 12 C        2.3720     4.6110    -0.0780 C.ar  1 <1>  -0.1440 
 13 C        3.3890     5.4310     0.3870 C.ar  1 <1>  -0.1500 
 14 C        2.4130     4.1540    -1.3850 C.ar  1 <1>  -0.1500 
 15 C        4.4470     5.8030    -0.4370 C.ar  1 <1>  -0.1440 
 16 C        3.4570     4.5130    -2.2170 C.ar  1 <1>  -0.1500 
 17 C        4.4680     5.3310    -1.7470 C.ar  1 <1>  -0.1500 
 18 C        5.5600     6.7070     0.1120 C.3   1 <1>   1.1630 
 19 F        5.0770     7.7620     0.7580 F     1 <1>  -0.3400 
 20 F        6.3660     7.1870    -0.8290 F     1 <1>  -0.3400 
 21 F        6.3360     6.0670     0.9760 F     1 <1>  -0.3400 
 22 H       -0.0830    -2.1420    -0.7050 H     1 <1>   0.0800 
 23 H        1.2280     4.7820     1.7350 H     1 <1>   0.0800 
 24 H        0.2850     4.4070     0.3280 H     1 <1>   0.0800 
 25 H        2.3160     1.5060     2.5620 H     1 <1>   0.0800 
 26 H        2.8420     3.1670     2.5860 H     1 <1>   0.0800 
 27 H        3.3330     2.1210     1.2710 H     1 <1>   0.0800 
 28 H       -2.7530    -1.1620    -1.7410 H     1 <1>   0.0800 
 29 H       -2.0490    -2.7340    -2.0540 H     1 <1>   0.0800 
 30 H       -1.2870    -1.2910    -2.6790 H     1 <1>   0.0800 
 31 H       -2.6630    -1.6180     0.7960 H     1 <1>   0.0800 
 32 H       -1.1590    -2.1370     1.5140 H     1 <1>   0.0800 
 33 H       -2.0160    -3.2010     0.4270 H     1 <1>   0.0800 
 34 H        3.3580     5.7840     1.4050 H     1 <1>   0.1500 
 35 H        1.6290     3.5120    -1.7520 H     1 <1>   0.1500 
 36 H        3.4800     4.1520    -3.2300 H     1 <1>   0.1500 
 37 H        5.2710     5.5950    -2.4150 H     1 <1>   0.1500 
@<TRIPOS>BOND
  1   1   2  1   
  2   1   3  1   
  3   2   4  2   
  4   2   5  1   
  5   3   6  2   
  6   3   7  1   
  7   4   6  1   
  8   5   8  1   
  9   5   9  1   
 10   7  10  1   
 11   7  11  1   
 12   7  22  1   
 13   8  12  1   
 14   8  23  1   
 15   8  24  1   
 16   9  25  1   
 17   9  26  1   
 18   9  27  1   
 19  10  28  1   
 20  10  29  1   
 21  10  30  1   
 22  11  31  1   
 23  11  32  1   
 24  11  33  1   
 25  12  13  ar  
 26  12  14  ar  
 27  13  15  ar  
 28  13  34  1   
 29  14  16  ar  
 30  14  35  1   
 31  15  17  ar  
 32  15  18  1   
 33  16  17  ar  
 34  16  36  1   
 35  17  37  1   
 36  18  19  1   
 37  18  20  1   
 38  18  21  1   
@<TRIPOS>SUBSTRUCTURE
  1 ****  12 GROUP 4 **** **** 0

# MOE 2024.06 (io_trps.svl 2023.06)
