@<TRIPOS>MOLECULE
NONAME
30 32 1 0 0 
SMALL
USER_CHARGES


@<TRIPOS>ATOM
  1 CL      -3.8520    -0.5890    -2.7110 Cl    1 <1>  -0.1770 
  2 C       -3.1950    -1.3060    -1.2620 C.ar  1 <1>   0.1770 
  3 C       -2.4710    -0.5280    -0.3740 C.ar  1 <1>   0.1600 
  4 C       -3.3970    -2.6430    -1.0100 C.ar  1 <1>  -0.1500 
  5 N       -1.9300    -0.9910     0.7450 N.ar  1 <1>  -0.6200 
  6 C       -2.8490    -3.1580     0.1580 C.ar  1 <1>   0.0860 
  7 C       -2.1290    -2.2850     0.9720 C.ar  1 <1>   0.1600 
  8 C       -2.9820    -4.5460     0.5340 C.2   1 <1>   0.5440 
  9 O       -1.9730    -5.1920     0.7430 O.2   1 <1>  -0.5700 
 10 N       -4.2050    -5.1430     0.6710 N.am  1 <1>  -0.6600 
 11 C       -5.5360    -4.4720     0.6280 C.3   1 <1>   0.2350 
 12 C       -4.4060    -6.6100     0.5060 C.3   1 <1>   0.2350 
 13 C       -6.4080    -5.3910    -0.2060 C.3   1 <1>  -0.2420 
 14 C       -5.7170    -6.7320    -0.2560 C.3   1 <1>  -0.2420 
 15 C       -7.8760    -4.9800    -0.0740 C.2   1 <1>   0.9470 
 16 C       -5.9360    -5.9500    -1.5260 C.3   1 <1>  -0.2000 
 17 C       -6.2750    -8.1510    -0.1470 C.2   1 <1>   0.9470 
 18 O       -8.5260    -4.7080    -1.0930 O.co2 1 <1>  -0.9000 
 19 O       -8.3290    -4.7430     1.0540 O.co2 1 <1>  -0.9000 
 20 O       -6.4030    -8.6590     0.9760 O.co2 1 <1>  -0.9000 
 21 O       -6.4360    -8.8220    -1.1760 O.co2 1 <1>  -0.9000 
 22 H       -2.3340     0.5150    -0.5990 H     1 <1>   0.1500 
 23 H       -3.9580    -3.2650    -1.6860 H     1 <1>   0.1500 
 24 H       -1.6930    -2.6950     1.8680 H     1 <1>   0.1500 
 25 H       -5.9300    -4.4110     1.6290 H     1 <1>   0.0800 
 26 H       -5.5050    -3.4890     0.2000 H     1 <1>   0.0800 
 27 H       -3.5980    -7.0630    -0.0410 H     1 <1>   0.0800 
 28 H       -4.4930    -7.0710     1.4760 H     1 <1>   0.0800 
 29 H       -5.0920    -5.5170    -2.0290 H     1 <1>   0.1000 
 30 H       -6.6810    -6.3160    -2.2130 H     1 <1>   0.1000 
@<TRIPOS>BOND
  1   1   2  1   
  2   2   3  ar  
  3   2   4  ar  
  4   3   5  ar  
  5   3  22  1   
  6   4   6  ar  
  7   4  23  1   
  8   5   7  ar  
  9   6   7  ar  
 10   6   8  1   
 11   7  24  1   
 12   8   9  2   
 13   8  10  am  
 14  10  11  1   
 15  10  12  1   
 16  11  13  1   
 17  11  25  1   
 18  11  26  1   
 19  12  14  1   
 20  12  27  1   
 21  12  28  1   
 22  13  14  1   
 23  13  15  1   
 24  13  16  1   
 25  14  16  1   
 26  14  17  1   
 27  15  18  ar  
 28  15  19  ar  
 29  16  29  1   
 30  16  30  1   
 31  17  20  ar  
 32  17  21  ar  
@<TRIPOS>SUBSTRUCTURE
  1 ****  11 GROUP 4 **** **** 0

# MOE 2024.06 (io_trps.svl 2023.06)
