@<TRIPOS>MOLECULE
NONAME
47 49 1 0 0 
SMALL
USER_CHARGES


@<TRIPOS>ATOM
  1 O        1.7510    -0.6530     2.0060 O.3   1 <1>  -0.0190 
  2 N        1.4650    -1.8680     2.3600 N.2   1 <1>  -0.4100 
  3 C        1.6650    -0.6740     0.7000 C.2   1 <1>   0.2980 
  4 C        1.2270    -2.5250     1.2930 C.2   1 <1>   0.3350 
  5 N        1.3580    -1.7970     0.1870 N.2   1 <1>  -0.5650 
  6 C        1.9320     0.6050    -0.0720 C.3   1 <1>   0.0200 
  7 C        0.8470    -4.0080     1.2430 C.3   1 <1>   0.2910 
  8 C        0.8840     1.7000     0.2110 C.3   1 <1>  -0.0800 
  9 N       -0.6120    -4.2590     1.1130 N.3   1 <1>  -0.8100 
 10 C       -0.5280     1.2520    -0.1940 C.3   1 <1>  -0.2400 
 11 C        1.2490     2.9930    -0.5300 C.3   1 <1>  -0.2400 
 12 C       -1.1900    -3.6660    -0.1000 C.3   1 <1>   0.1100 
 13 C       -0.9330    -5.6950     1.0660 C.3   1 <1>   0.1100 
 14 C       -2.4840    -4.4400    -0.3100 C.3   1 <1>   0.2000 
 15 C       -2.0950    -5.8680     0.0680 C.3   1 <1>  -0.0800 
 16 O       -3.3940    -3.9890     0.6270 O.3   1 <1>  -0.6800 
 17 C       -1.6780    -6.6710    -1.1790 C.3   1 <1>  -0.0170 
 18 C       -1.3130    -8.1080    -0.8390 C.ar  1 <1>   0.1670 
 19 N       -0.0230    -8.3780    -0.7120 N.ar  1 <1>  -0.6200 
 20 C       -2.3210    -9.0470    -0.6830 C.ar  1 <1>  -0.1500 
 21 C        0.2740    -9.6340    -0.4190 C.ar  1 <1>   0.1600 
 22 C       -1.9980   -10.3510    -0.3750 C.ar  1 <1>  -0.1500 
 23 C       -0.6580   -10.6420    -0.2420 C.ar  1 <1>  -0.1500 
 24 H        2.9090     0.9610     0.1980 H     1 <1>   0.0800 
 25 H        1.9420     0.3780    -1.1230 H     1 <1>   0.0800 
 26 H        1.1930    -4.4700     2.1510 H     1 <1>   0.0800 
 27 H        1.3680    -4.4640     0.4200 H     1 <1>   0.0800 
 28 H        0.8830     1.9070     1.2690 H     1 <1>   0.0800 
 29 H       -0.5650     1.0100    -1.2420 H     1 <1>   0.0800 
 30 H       -1.2390     2.0360     0.0010 H     1 <1>   0.0800 
 31 H       -0.8290     0.3850     0.3680 H     1 <1>   0.0800 
 32 H        1.2540     2.8340    -1.5940 H     1 <1>   0.0800 
 33 H        2.2220     3.3380    -0.2280 H     1 <1>   0.0800 
 34 H        0.5350     3.7650    -0.3030 H     1 <1>   0.0800 
 35 H       -1.3680    -2.6100     0.0190 H     1 <1>   0.0800 
 36 H       -0.5340    -3.8240    -0.9390 H     1 <1>   0.0800 
 37 H       -0.0730    -6.2660     0.7580 H     1 <1>   0.0800 
 38 H       -1.2270    -6.0250     2.0470 H     1 <1>   0.0800 
 39 H       -2.9100    -4.3320    -1.2920 H     1 <1>   0.0800 
 40 H       -2.9200    -6.3740     0.5370 H     1 <1>   0.0800 
 41 H       -2.8890    -3.8740     1.4610 H     1 <1>   0.4000 
 42 H       -0.8400    -6.1990    -1.6620 H     1 <1>   0.0800 
 43 H       -2.4900    -6.6820    -1.8830 H     1 <1>   0.0800 
 44 H       -3.3510    -8.7620    -0.7990 H     1 <1>   0.1500 
 45 H        1.3180    -9.8740    -0.3130 H     1 <1>   0.1500 
 46 H       -2.7550   -11.1060    -0.2460 H     1 <1>   0.1500 
 47 H       -0.3360   -11.6400    -0.0040 H     1 <1>   0.1500 
@<TRIPOS>BOND
  1   1   2  1   
  2   1   3  1   
  3   2   4  2   
  4   3   5  2   
  5   3   6  1   
  6   4   5  1   
  7   4   7  1   
  8   6   8  1   
  9   6  24  1   
 10   6  25  1   
 11   7   9  1   
 12   7  26  1   
 13   7  27  1   
 14   8  10  1   
 15   8  11  1   
 16   8  28  1   
 17   9  12  1   
 18   9  13  1   
 19  10  29  1   
 20  10  30  1   
 21  10  31  1   
 22  11  32  1   
 23  11  33  1   
 24  11  34  1   
 25  12  14  1   
 26  12  35  1   
 27  12  36  1   
 28  13  15  1   
 29  13  37  1   
 30  13  38  1   
 31  14  15  1   
 32  14  16  1   
 33  14  39  1   
 34  15  17  1   
 35  15  40  1   
 36  16  41  1   
 37  17  18  1   
 38  17  42  1   
 39  17  43  1   
 40  18  19  ar  
 41  18  20  ar  
 42  19  21  ar  
 43  20  22  ar  
 44  20  44  1   
 45  21  23  ar  
 46  21  45  1   
 47  22  23  ar  
 48  22  46  1   
 49  23  47  1   
@<TRIPOS>SUBSTRUCTURE
  1 ****   9 GROUP 4 **** **** 0

# MOE 2024.06 (io_trps.svl 2023.06)
