@<TRIPOS>MOLECULE
NONAME
54 58 1 0 0 
SMALL
USER_CHARGES


@<TRIPOS>ATOM
  1 O       -1.1940     0.1990     1.9820 O.2   1 <1>  -0.5700 
  2 C       -1.7690     0.9950     1.2740 C.2   1 <1>   0.5690 
  3 N       -3.1250     0.9410     1.1740 N.am  1 <1>  -0.5470 
  4 C       -0.9980     2.1100     0.4980 C.3   1 <1>   0.4300 
  5 C       -3.8800     1.8000     0.3590 C.ar  1 <1>   0.1170 
  6 N       -1.8250     2.7090    -0.6090 N.pl3 1 <1>  -0.8690 
  7 C        0.2790     1.5540    -0.1470 C.3   1 <1>  -0.1600 
  8 C       -0.6260     3.2340     1.4750 C.3   1 <1>  -0.1600 
  9 C       -3.2220     2.6810    -0.5160 C.ar  1 <1>   0.1000 
 10 C       -5.2650     1.7910     0.4140 C.ar  1 <1>  -0.1500 
 11 C        1.0950     2.6440    -0.8360 C.3   1 <1>   0.2090 
 12 C        0.1840     4.3410     0.8070 C.3   1 <1>   0.2090 
 13 C       -3.9760     3.5310    -1.3100 C.ar  1 <1>  -0.1500 
 14 C       -6.0040     2.6480    -0.3840 C.ar  1 <1>  -0.1500 
 15 N        1.3570     3.7570     0.1100 N.pl3 1 <1>  -0.8380 
 16 C       -5.3590     3.5180    -1.2460 C.ar  1 <1>  -0.1500 
 17 C        2.4780     4.5210    -0.1360 C.ar  1 <1>   0.4100 
 18 N        3.5960     4.0130     0.3770 N.ar  1 <1>  -0.6200 
 19 C        2.4360     5.7170    -0.8790 C.ar  1 <1>   0.0860 
 20 C        4.7070     4.6870     0.1620 C.ar  1 <1>   0.1600 
 21 C        1.2020     6.2370    -1.4100 C.2   1 <1>   0.5440 
 22 C        3.6280     6.3980    -1.0870 C.ar  1 <1>  -0.1500 
 23 C        4.7800     5.8680    -0.5540 C.ar  1 <1>  -0.1500 
 24 O        0.6260     5.6750    -2.3260 O.2   1 <1>  -0.5700 
 25 N        0.6410     7.3810    -0.8890 N.am  1 <1>  -0.6600 
 26 C        1.1070     8.0830     0.3260 C.3   1 <1>   0.1400 
 27 C       -0.6380     7.9410    -1.3750 C.3   1 <1>   0.1400 
 28 C       -0.0930     8.9080     0.7740 C.3   1 <1>  -0.1600 
 29 C       -0.8780     9.1730    -0.5090 C.3   1 <1>  -0.1600 
 30 H       -3.5840     0.2060     1.7080 H     1 <1>   0.3700 
 31 H       -1.3980     3.5440    -1.0230 H     1 <1>   0.4000 
 32 H        0.0180     0.7900    -0.8560 H     1 <1>   0.0800 
 33 H        0.8950     1.1000     0.6090 H     1 <1>   0.0800 
 34 H       -0.0400     2.8230     2.2780 H     1 <1>   0.0800 
 35 H       -1.5200     3.6480     1.9040 H     1 <1>   0.0800 
 36 H       -5.7700     1.1170     1.0810 H     1 <1>   0.1500 
 37 H        0.5690     3.0240    -1.6960 H     1 <1>   0.0800 
 38 H        2.0320     2.2330    -1.1740 H     1 <1>   0.0800 
 39 H        0.5220     5.0420     1.5510 H     1 <1>   0.0800 
 40 H       -0.4360     4.8670     0.1020 H     1 <1>   0.0800 
 41 H       -3.4760     4.2010    -1.9850 H     1 <1>   0.1500 
 42 H       -7.0790     2.6370    -0.3370 H     1 <1>   0.1500 
 43 H       -5.9320     4.1830    -1.8690 H     1 <1>   0.1500 
 44 H        5.6120     4.2750     0.5760 H     1 <1>   0.1500 
 45 H        3.6400     7.3120    -1.6540 H     1 <1>   0.1500 
 46 H        5.7270     6.3590    -0.6900 H     1 <1>   0.1500 
 47 H        1.9280     8.7300     0.0660 H     1 <1>   0.0800 
 48 H        1.4170     7.3880     1.0890 H     1 <1>   0.0800 
 49 H       -1.4180     7.2130    -1.2290 H     1 <1>   0.0800 
 50 H       -0.5710     8.1920    -2.4200 H     1 <1>   0.0800 
 51 H        0.2060     9.8160     1.2670 H     1 <1>   0.0800 
 52 H       -0.6880     8.3210     1.4510 H     1 <1>   0.0800 
 53 H       -1.9260     9.3330    -0.3250 H     1 <1>   0.0800 
 54 H       -0.4760    10.0350    -1.0120 H     1 <1>   0.0800 
@<TRIPOS>BOND
  1   1   2  2   
  2   2   3  am  
  3   2   4  1   
  4   3   5  1   
  5   3  30  1   
  6   4   6  1   
  7   4   7  1   
  8   4   8  1   
  9   5   9  ar  
 10   5  10  ar  
 11   6   9  1   
 12   6  31  1   
 13   7  11  1   
 14   7  32  1   
 15   7  33  1   
 16   8  12  1   
 17   8  34  1   
 18   8  35  1   
 19   9  13  ar  
 20  10  14  ar  
 21  10  36  1   
 22  11  15  1   
 23  11  37  1   
 24  11  38  1   
 25  12  15  1   
 26  12  39  1   
 27  12  40  1   
 28  13  16  ar  
 29  13  41  1   
 30  14  16  ar  
 31  14  42  1   
 32  15  17  1   
 33  16  43  1   
 34  17  18  ar  
 35  17  19  ar  
 36  18  20  ar  
 37  19  21  1   
 38  19  22  ar  
 39  20  23  ar  
 40  20  44  1   
 41  21  24  2   
 42  21  25  am  
 43  22  23  ar  
 44  22  45  1   
 45  23  46  1   
 46  25  26  1   
 47  25  27  1   
 48  26  28  1   
 49  26  47  1   
 50  26  48  1   
 51  27  29  1   
 52  27  49  1   
 53  27  50  1   
 54  28  29  1   
 55  28  51  1   
 56  28  52  1   
 57  29  53  1   
 58  29  54  1   
@<TRIPOS>SUBSTRUCTURE
  1 ****  12 GROUP 4 **** **** 0

# MOE 2024.06 (io_trps.svl 2023.06)
