@<TRIPOS>MOLECULE
NONAME
42 44 1 0 0 
SMALL
USER_CHARGES


@<TRIPOS>ATOM
  1 O        0.7900     0.0270     0.8480 O.3   1 <1>  -0.6800 
  2 C        1.5820     0.0990    -0.2950 C.3   1 <1>   0.2000 
  3 C        2.4840    -1.1330    -0.3950 C.3   1 <1>  -0.0800 
  4 C        2.5670     1.2670    -0.1400 C.3   1 <1>   0.1100 
  5 C        3.6960    -0.7260     0.4350 C.3   1 <1>   0.1100 
  6 C        1.8660    -2.4770     0.0340 C.3   1 <1>  -0.0170 
  7 N        3.9040     0.6860     0.1140 N.3   1 <1>  -0.8100 
  8 C        2.8670    -3.6110    -0.1170 C.ar  1 <1>  -0.1430 
  9 C        4.6230     1.4010     1.1850 C.3   1 <1>   0.2900 
 10 C        3.1660    -4.1610    -1.3480 C.ar  1 <1>  -0.1500 
 11 C        3.5330    -4.1470     0.9670 C.ar  1 <1>  -0.1500 
 12 C        4.9490     2.8310     0.7800 C.2   1 <1>   0.0060 
 13 C        4.0930    -5.1860    -1.4330 C.ar  1 <1>   0.1600 
 14 C        4.4430    -5.1730     0.7730 C.ar  1 <1>   0.1600 
 15 N        4.5720     3.8730     1.4440 N.2   1 <1>  -0.3380 
 16 N        5.6650     3.1710    -0.2980 N.pl3 1 <1>   0.0480 
 17 N        4.7400    -5.7040    -0.4020 N.ar  1 <1>  -0.6200 
 18 N        5.0430     4.9410     0.8000 N.2   1 <1>  -0.3380 
 19 C        5.6850     4.5020    -0.2260 C.2   1 <1>   0.0360 
 20 C        6.2950     2.3240    -1.3350 C.3   1 <1>   0.0960 
 21 C        7.6780     1.8470    -0.8800 C.3   1 <1>  -0.2400 
 22 H        0.0830    -0.6340     0.7330 H     1 <1>   0.4000 
 23 H        0.9390     0.2260    -1.1480 H     1 <1>   0.0800 
 24 H        2.8140    -1.2170    -1.4160 H     1 <1>   0.0800 
 25 H        2.2530     1.9190     0.6600 H     1 <1>   0.0800 
 26 H        2.6100     1.8370    -1.0510 H     1 <1>   0.0800 
 27 H        4.5660    -1.3100     0.1880 H     1 <1>   0.0800 
 28 H        3.4670    -0.8380     1.4830 H     1 <1>   0.0800 
 29 H        1.0020    -2.6860    -0.5720 H     1 <1>   0.0800 
 30 H        1.5440    -2.4280     1.0600 H     1 <1>   0.0800 
 31 H        4.0240     1.4140     2.0810 H     1 <1>   0.0800 
 32 H        5.5410     0.8870     1.4040 H     1 <1>   0.0800 
 33 H        2.6880    -3.8010    -2.2410 H     1 <1>   0.1500 
 34 H        3.3560    -3.7770     1.9600 H     1 <1>   0.1500 
 35 H        4.3140    -5.6020    -2.4010 H     1 <1>   0.1500 
 36 H        4.9530    -5.5800     1.6290 H     1 <1>   0.1500 
 37 H        6.1840     5.1230    -0.9470 H     1 <1>   0.1500 
 38 H        5.6600     1.4800    -1.5370 H     1 <1>   0.0800 
 39 H        6.3850     2.8980    -2.2400 H     1 <1>   0.0800 
 40 H        7.5940     1.2470     0.0090 H     1 <1>   0.0800 
 41 H        8.3190     2.6880    -0.6830 H     1 <1>   0.0800 
 42 H        8.1270     1.2480    -1.6520 H     1 <1>   0.0800 
@<TRIPOS>BOND
  1   1   2  1   
  2   1  22  1   
  3   2   3  1   
  4   2   4  1   
  5   2  23  1   
  6   3   5  1   
  7   3   6  1   
  8   3  24  1   
  9   4   7  1   
 10   4  25  1   
 11   4  26  1   
 12   5   7  1   
 13   5  27  1   
 14   5  28  1   
 15   6   8  1   
 16   6  29  1   
 17   6  30  1   
 18   7   9  1   
 19   8  10  ar  
 20   8  11  ar  
 21   9  12  1   
 22   9  31  1   
 23   9  32  1   
 24  10  13  ar  
 25  10  33  1   
 26  11  14  ar  
 27  11  34  1   
 28  12  15  2   
 29  12  16  1   
 30  13  17  ar  
 31  13  35  1   
 32  14  17  ar  
 33  14  36  1   
 34  15  18  1   
 35  16  19  1   
 36  16  20  1   
 37  18  19  2   
 38  19  37  1   
 39  20  21  1   
 40  20  38  1   
 41  20  39  1   
 42  21  40  1   
 43  21  41  1   
 44  21  42  1   
@<TRIPOS>SUBSTRUCTURE
  1 ****   5 GROUP 4 **** **** 0

# MOE 2024.06 (io_trps.svl 2023.06)
