@<TRIPOS>MOLECULE
NONAME
55 59 1 0 0 
SMALL
USER_CHARGES


@<TRIPOS>ATOM
  1 O       -1.7620     0.6900     2.3010 O.2   1 <1>  -0.5700 
  2 C       -2.1770     1.0350     1.2100 C.2   1 <1>   0.5440 
  3 N       -3.0110     0.1790     0.5290 N.am  1 <1>  -0.6600 
  4 C       -1.8450     2.3430     0.7000 C.ar  1 <1>   0.0860 
  5 C       -3.8360     0.5280    -0.6510 C.3   1 <1>   0.1400 
  6 C       -3.2490    -1.2280     0.9360 C.3   1 <1>   0.1400 
  7 C       -1.1750     2.5200    -0.5220 C.ar  1 <1>   0.3920 
  8 C       -2.1870     3.4800     1.4230 C.ar  1 <1>  -0.1500 
  9 C       -4.9320    -0.5350    -0.6610 C.3   1 <1>   0.2000 
 10 C       -4.2600    -1.7840    -0.0820 C.3   1 <1>  -0.0800 
 11 O       -0.8070     1.4160    -1.2070 O.3   1 <1>  -0.3630 
 12 N       -0.8680     3.7020    -1.0640 N.ar  1 <1>  -0.6200 
 13 C       -1.8620     4.6960     0.8710 C.ar  1 <1>  -0.1440 
 14 O       -5.9280    -0.1430     0.2180 O.3   1 <1>  -0.6800 
 15 C       -3.5670    -2.5950    -1.1950 C.3   1 <1>  -0.0170 
 16 C       -0.0500     1.4860    -2.3980 C.3   1 <1>   0.0400 
 17 C       -1.2210     4.7430    -0.3410 C.ar  1 <1>   0.1670 
 18 C       -2.1140     6.0770     1.4240 C.3   1 <1>  -0.0170 
 19 C       -2.9870    -3.8990    -0.6720 C.ar  1 <1>   0.1670 
 20 C       -0.9590     6.1660    -0.7620 C.3   1 <1>  -0.0170 
 21 C       -1.2960     6.9920     0.4940 C.3   1 <1>  -0.1600 
 22 N       -1.7090    -3.9440    -0.4570 N.ar  1 <1>  -0.6200 
 23 C       -3.8510    -4.9830    -0.4490 C.ar  1 <1>  -0.1500 
 24 C       -1.1870    -5.1040     0.0180 C.ar  1 <1>   0.3100 
 25 C       -3.3540    -6.1600     0.0210 C.ar  1 <1>  -0.1500 
 26 C       -1.9750    -6.2470     0.2710 C.ar  1 <1>   0.0000 
 27 C        0.1930    -5.1740     0.2690 C.ar  1 <1>  -0.1500 
 28 C       -1.3530    -7.4140     0.7600 C.ar  1 <1>  -0.1500 
 29 C        0.7790    -6.3170     0.7450 C.ar  1 <1>  -0.1500 
 30 C       -0.0040    -7.4490     0.9920 C.ar  1 <1>  -0.1500 
 31 H       -4.2410     1.5230    -0.5820 H     1 <1>   0.0800 
 32 H       -3.2330     0.4420    -1.5380 H     1 <1>   0.0800 
 33 H       -2.3210    -1.7750     0.9430 H     1 <1>   0.0800 
 34 H       -3.6660    -1.2390     1.9280 H     1 <1>   0.0800 
 35 H       -2.6840     3.3980     2.3740 H     1 <1>   0.1500 
 36 H       -5.3750    -0.6820    -1.6310 H     1 <1>   0.0800 
 37 H       -4.9810    -2.4160     0.4040 H     1 <1>   0.0800 
 38 H       -5.5080     0.1040     1.0670 H     1 <1>   0.4000 
 39 H       -2.7770    -2.0120    -1.6390 H     1 <1>   0.0800 
 40 H       -4.2750    -2.8250    -1.9700 H     1 <1>   0.0800 
 41 H        0.1360     0.4840    -2.7400 H     1 <1>   0.0800 
 42 H        0.8800     1.9840    -2.1890 H     1 <1>   0.0800 
 43 H       -0.6110     2.0330    -3.1360 H     1 <1>   0.0800 
 44 H       -3.1640     6.3070     1.3560 H     1 <1>   0.0800 
 45 H       -1.7870     6.1590     2.4460 H     1 <1>   0.0800 
 46 H        0.0670     6.2950    -1.0580 H     1 <1>   0.0800 
 47 H       -1.6100     6.4180    -1.5790 H     1 <1>   0.0800 
 48 H       -0.3780     7.2600     0.9900 H     1 <1>   0.0800 
 49 H       -1.8320     7.8910     0.2460 H     1 <1>   0.0800 
 50 H       -4.9010    -4.8710    -0.6540 H     1 <1>   0.1500 
 51 H       -3.9840    -7.0120     0.2040 H     1 <1>   0.1500 
 52 H        0.7750    -4.2920     0.0730 H     1 <1>   0.1500 
 53 H       -1.9600    -8.2800     0.9490 H     1 <1>   0.1500 
 54 H        1.8380    -6.3560     0.9320 H     1 <1>   0.1500 
 55 H        0.4690    -8.3410     1.3650 H     1 <1>   0.1500 
@<TRIPOS>BOND
  1   1   2  2   
  2   2   3  am  
  3   2   4  1   
  4   3   5  1   
  5   3   6  1   
  6   4   7  ar  
  7   4   8  ar  
  8   5   9  1   
  9   5  31  1   
 10   5  32  1   
 11   6  10  1   
 12   6  33  1   
 13   6  34  1   
 14   7  11  1   
 15   7  12  ar  
 16   8  13  ar  
 17   8  35  1   
 18   9  10  1   
 19   9  14  1   
 20   9  36  1   
 21  10  15  1   
 22  10  37  1   
 23  11  16  1   
 24  12  17  ar  
 25  13  17  ar  
 26  13  18  1   
 27  14  38  1   
 28  15  19  1   
 29  15  39  1   
 30  15  40  1   
 31  16  41  1   
 32  16  42  1   
 33  16  43  1   
 34  17  20  1   
 35  18  21  1   
 36  18  44  1   
 37  18  45  1   
 38  19  22  ar  
 39  19  23  ar  
 40  20  21  1   
 41  20  46  1   
 42  20  47  1   
 43  21  48  1   
 44  21  49  1   
 45  22  24  ar  
 46  23  25  ar  
 47  23  50  1   
 48  24  26  ar  
 49  24  27  ar  
 50  25  26  ar  
 51  25  51  1   
 52  26  28  ar  
 53  27  29  ar  
 54  27  52  1   
 55  28  30  ar  
 56  28  53  1   
 57  29  30  ar  
 58  29  54  1   
 59  30  55  1   
@<TRIPOS>SUBSTRUCTURE
  1 ****   3 GROUP 4 **** **** 0

# MOE 2024.06 (io_trps.svl 2023.06)
