@<TRIPOS>MOLECULE
NONAME
53 56 1 0 0 
SMALL
USER_CHARGES


@<TRIPOS>ATOM
  1 O       -0.9200    -0.1170     2.0520 O.2   1 <1>  -0.5700 
  2 C       -1.4370     0.4370     1.1110 C.2   1 <1>   0.5690 
  3 N       -2.0790    -0.2810     0.1290 N.am  1 <1>  -0.6600 
  4 C       -1.3600     1.9610     1.0890 C.3   1 <1>  -0.0990 
  5 C       -1.9960    -1.7710     0.1340 C.3   1 <1>   0.3200 
  6 C       -2.8760     0.3110    -0.9870 C.3   1 <1>   0.1400 
  7 C       -0.0380     2.5550     0.5430 C.3   1 <1>   0.0000 
  8 C       -3.3620    -2.3700     0.3960 C.2   1 <1>  -0.3320 
  9 C       -4.2980     0.6700    -0.5360 C.3   1 <1>   0.1200 
 10 C       -0.1250     4.1000     0.5980 C.3   1 <1>  -0.1600 
 11 C        1.1750     2.1110     1.3980 C.3   1 <1>  -0.1600 
 12 C        0.2210     2.1400    -0.9250 C.3   1 <1>  -0.1600 
 13 N       -4.2470    -2.7310    -0.5540 N.pl3 1 <1>   0.0330 
 14 C       -3.9460    -2.6510     1.5810 C.2   1 <1>   0.0770 
 15 O       -5.0250     1.0900    -1.6420 O.3   1 <1>  -0.6800 
 16 C        1.1720     4.7470     0.0740 C.3   1 <1>  -0.0800 
 17 C        2.4780     2.7480     0.8810 C.3   1 <1>  -0.0800 
 18 C        1.5230     2.7710    -1.4530 C.3   1 <1>  -0.0800 
 19 C       -5.3180    -3.2030     0.1190 C.2   1 <1>   0.0060 
 20 N       -5.1740    -3.1750     1.4020 N.2   1 <1>  -0.5650 
 21 C        2.3540     4.2810     0.9420 C.3   1 <1>  -0.1600 
 22 C        1.4060     4.3040    -1.3820 C.3   1 <1>  -0.1600 
 23 C        2.7040     2.3120    -0.5780 C.3   1 <1>  -0.1600 
 24 C       -6.5640    -3.7070    -0.5750 C.3   1 <1>  -0.0600 
 25 H       -1.4830     2.2910     2.1050 H     1 <1>   0.0800 
 26 H       -2.1860     2.3680     0.5420 H     1 <1>   0.0800 
 27 H       -1.3180    -2.1120     0.8970 H     1 <1>   0.0800 
 28 H       -1.6100    -2.1150    -0.8100 H     1 <1>   0.0800 
 29 H       -2.9320    -0.3960    -1.7950 H     1 <1>   0.0800 
 30 H       -2.3860     1.1910    -1.3570 H     1 <1>   0.0800 
 31 H       -4.2970     1.4620     0.1920 H     1 <1>   0.0800 
 32 H       -4.8020    -0.1840    -0.1220 H     1 <1>   0.0800 
 33 H       -0.2930     4.4200     1.6110 H     1 <1>   0.0800 
 34 H       -0.9550     4.4430     0.0060 H     1 <1>   0.0800 
 35 H        1.2800     1.0410     1.3670 H     1 <1>   0.0800 
 36 H        1.0210     2.3890     2.4260 H     1 <1>   0.0800 
 37 H       -0.5940     2.4620    -1.5460 H     1 <1>   0.0800 
 38 H        0.2950     1.0690    -0.9980 H     1 <1>   0.0800 
 39 H       -4.1540    -2.6540    -1.5700 H     1 <1>   0.2700 
 40 H       -3.5400    -2.4960     2.5670 H     1 <1>   0.1500 
 41 H       -4.8080     2.0130    -1.8790 H     1 <1>   0.4000 
 42 H        1.0890     5.8190     0.1190 H     1 <1>   0.0800 
 43 H        3.3050     2.4250     1.4890 H     1 <1>   0.0800 
 44 H        1.6880     2.4660    -2.4730 H     1 <1>   0.0800 
 45 H        2.2050     4.5930     1.9610 H     1 <1>   0.0800 
 46 H        3.2650     4.7340     0.5910 H     1 <1>   0.0800 
 47 H        2.3070     4.7560    -1.7590 H     1 <1>   0.0800 
 48 H        0.5910     4.6380    -2.0010 H     1 <1>   0.0800 
 49 H        2.8000     1.2410    -0.6270 H     1 <1>   0.0800 
 50 H        3.6190     2.7400    -0.9480 H     1 <1>   0.0800 
 51 H       -6.3240    -4.5420    -1.2060 H     1 <1>   0.0800 
 52 H       -6.9990    -2.9220    -1.1660 H     1 <1>   0.0800 
 53 H       -7.2830    -4.0240     0.1590 H     1 <1>   0.0800 
@<TRIPOS>BOND
  1   1   2  2   
  2   2   3  am  
  3   2   4  1   
  4   3   5  1   
  5   3   6  1   
  6   4   7  1   
  7   4  25  1   
  8   4  26  1   
  9   5   8  1   
 10   5  27  1   
 11   5  28  1   
 12   6   9  1   
 13   6  29  1   
 14   6  30  1   
 15   7  10  1   
 16   7  11  1   
 17   7  12  1   
 18   8  13  1   
 19   8  14  2   
 20   9  15  1   
 21   9  31  1   
 22   9  32  1   
 23  10  16  1   
 24  10  33  1   
 25  10  34  1   
 26  11  17  1   
 27  11  35  1   
 28  11  36  1   
 29  12  18  1   
 30  12  37  1   
 31  12  38  1   
 32  13  19  1   
 33  13  39  1   
 34  14  20  1   
 35  14  40  1   
 36  15  41  1   
 37  16  21  1   
 38  16  22  1   
 39  16  42  1   
 40  17  21  1   
 41  17  23  1   
 42  17  43  1   
 43  18  22  1   
 44  18  23  1   
 45  18  44  1   
 46  19  20  2   
 47  19  24  1   
 48  21  45  1   
 49  21  46  1   
 50  22  47  1   
 51  22  48  1   
 52  23  49  1   
 53  23  50  1   
 54  24  51  1   
 55  24  52  1   
 56  24  53  1   
@<TRIPOS>SUBSTRUCTURE
  1 ****   2 GROUP 4 **** **** 0

# MOE 2024.06 (io_trps.svl 2023.06)
