@<TRIPOS>MOLECULE
NONAME
50 52 1 0 0 
SMALL
USER_CHARGES


@<TRIPOS>ATOM
  1 O        0.0500     1.0950     0.7940 O.2   1 <1>  -0.5700 
  2 C       -0.0350     2.2020     0.3280 C.2   1 <1>   0.5690 
  3 N       -0.5810     3.2130     1.0360 N.am  1 <1>  -0.7300 
  4 C        0.4560     2.4870    -1.0900 C.3   1 <1>   0.1810 
  5 C       -0.8210     4.5690     0.4830 C.3   1 <1>   0.3640 
  6 O        0.8080     3.8420    -1.2510 O.3   1 <1>  -0.5600 
  7 C       -2.3210     4.8520     0.5010 C.ar  1 <1>  -0.1440 
  8 C       -0.2320     4.7660    -0.9420 C.3   1 <1>   0.2610 
  9 C       -3.2490     3.8770     0.1500 C.ar  1 <1>  -0.1500 
 10 C       -2.7790     6.1110     0.8640 C.ar  1 <1>  -0.1500 
 11 C        0.2340     6.2270    -1.0910 C.2   1 <1>   0.5690 
 12 C       -4.6040     4.1550     0.1690 C.ar  1 <1>  -0.1500 
 13 C       -4.1350     6.3900     0.8830 C.ar  1 <1>  -0.1500 
 14 O       -0.6090     7.0440    -1.3730 O.2   1 <1>  -0.5700 
 15 N        1.5350     6.6420    -0.8850 N.am  1 <1>  -0.6600 
 16 C       -5.0490     5.4120     0.5360 C.ar  1 <1>  -0.1500 
 17 C        1.9800     8.0160    -1.3020 C.3   1 <1>   0.1400 
 18 C        2.6420     5.7950    -0.3330 C.3   1 <1>   0.1400 
 19 C        2.6120     8.8220    -0.1260 C.3   1 <1>   0.5030 
 20 C        3.7630     6.6430     0.3110 C.3   1 <1>   0.3430 
 21 N        3.2090     7.9060     0.9120 N.4   1 <1>  -0.9590 
 22 C        1.5180     9.6220     0.5820 C.3   1 <1>  -0.2400 
 23 C        3.6710     9.7790    -0.6880 C.3   1 <1>  -0.2400 
 24 C        4.1780     8.5350     1.8680 C.3   1 <1>   0.2630 
 25 H       -1.0190     2.9910     1.9330 H     1 <1>   0.3700 
 26 H       -0.3130     2.2410    -1.8010 H     1 <1>   0.0800 
 27 H        1.3260     1.8910    -1.2960 H     1 <1>   0.0800 
 28 H       -0.3420     5.2690     1.1450 H     1 <1>   0.0800 
 29 H       -1.0130     4.6050    -1.6640 H     1 <1>   0.0800 
 30 H       -2.9300     2.8910    -0.1410 H     1 <1>   0.1500 
 31 H       -2.0890     6.8920     1.1280 H     1 <1>   0.1500 
 32 H       -5.3150     3.3930    -0.1030 H     1 <1>   0.1500 
 33 H       -4.4800     7.3700     1.1640 H     1 <1>   0.1500 
 34 H       -6.1030     5.6290     0.5500 H     1 <1>   0.1500 
 35 H        2.7070     7.9010    -2.0880 H     1 <1>   0.0800 
 36 H        1.1660     8.5760    -1.7300 H     1 <1>   0.0800 
 37 H        2.2440     5.1270     0.4120 H     1 <1>   0.0800 
 38 H        3.0590     5.1900    -1.1210 H     1 <1>   0.0800 
 39 H        4.4920     6.8930    -0.4420 H     1 <1>   0.0800 
 40 H        4.2590     6.0520     1.0640 H     1 <1>   0.0800 
 41 H        2.3860     7.6080     1.4490 H     1 <1>   0.4500 
 42 H        1.0600    10.3080    -0.1100 H     1 <1>   0.0800 
 43 H        1.9120    10.2010     1.3970 H     1 <1>   0.0800 
 44 H        0.7440     8.9690     0.9460 H     1 <1>   0.0800 
 45 H        3.2420    10.3660    -1.4820 H     1 <1>   0.0800 
 46 H        4.5060     9.2370    -1.0950 H     1 <1>   0.0800 
 47 H        4.0220    10.4710     0.0570 H     1 <1>   0.0800 
 48 H        5.0740     8.8380     1.3510 H     1 <1>   0.0800 
 49 H        4.4480     7.8350     2.6420 H     1 <1>   0.0800 
 50 H        3.7380     9.4030     2.3320 H     1 <1>   0.0800 
@<TRIPOS>BOND
  1   1   2  2   
  2   2   3  am  
  3   2   4  1   
  4   3   5  1   
  5   3  25  1   
  6   4   6  1   
  7   4  26  1   
  8   4  27  1   
  9   5   7  1   
 10   5   8  1   
 11   5  28  1   
 12   6   8  1   
 13   7   9  ar  
 14   7  10  ar  
 15   8  11  1   
 16   8  29  1   
 17   9  12  ar  
 18   9  30  1   
 19  10  13  ar  
 20  10  31  1   
 21  11  14  2   
 22  11  15  am  
 23  12  16  ar  
 24  12  32  1   
 25  13  16  ar  
 26  13  33  1   
 27  15  17  1   
 28  15  18  1   
 29  16  34  1   
 30  17  19  1   
 31  17  35  1   
 32  17  36  1   
 33  18  20  1   
 34  18  37  1   
 35  18  38  1   
 36  19  21  1   
 37  19  22  1   
 38  19  23  1   
 39  20  21  1   
 40  20  39  1   
 41  20  40  1   
 42  21  24  1   
 43  21  41  1   
 44  22  42  1   
 45  22  43  1   
 46  22  44  1   
 47  23  45  1   
 48  23  46  1   
 49  23  47  1   
 50  24  48  1   
 51  24  49  1   
 52  24  50  1   
@<TRIPOS>SUBSTRUCTURE
  1 ****  11 GROUP 4 **** **** 0

# MOE 2024.06 (io_trps.svl 2023.06)
