@<TRIPOS>MOLECULE
NONAME
47 48 1 0 0 
SMALL
USER_CHARGES


@<TRIPOS>ATOM
  1 S        0.0470    -0.2940    -0.4480 S.o2  1 <1>   1.3330 
  2 O       -0.3810    -1.1550    -1.5270 O.2   1 <1>  -0.6500 
  3 O       -0.4440    -0.5270     0.8910 O.2   1 <1>  -0.6500 
  4 N       -0.3350     1.3050    -0.8800 N.am  1 <1>  -0.8490 
  5 C        1.8430    -0.2790    -0.4050 C.3   1 <1>  -0.0550 
  6 C       -1.6220     1.7370    -0.3250 C.3   1 <1>   0.1160 
  7 C       -0.3210     1.5340    -2.3290 C.3   1 <1>   0.1160 
  8 C        2.4410     0.6800     0.6480 C.3   1 <1>  -0.0800 
  9 C        3.9340     0.8760     0.4360 C.3   1 <1>   0.2890 
 10 C        2.3810     0.0820     2.0620 C.3   1 <1>   0.1200 
 11 N        4.3390     2.1650     1.0520 N.pl3 1 <1>  -0.8690 
 12 C        4.5080    -0.2710     1.2590 C.3   1 <1>   0.1200 
 13 O        3.6600    -0.4010     2.3580 O.3   1 <1>  -0.5600 
 14 C        4.8090     3.2580     0.4420 C.ar  1 <1>   0.4100 
 15 N        4.9320     3.2410    -0.8900 N.ar  1 <1>  -0.6200 
 16 C        5.1630     4.3880     1.1820 C.ar  1 <1>  -0.1500 
 17 C        5.3970     4.3070    -1.4710 C.ar  1 <1>   0.5280 
 18 C        5.6430     5.4900     0.5390 C.ar  1 <1>   0.2180 
 19 N        5.7540     5.4250    -0.8040 N.ar  1 <1>  -0.1790 
 20 C        5.5470     4.2930    -2.9790 C.3   1 <1>  -0.0970 
 21 C        6.0500     6.7660     1.2660 C.3   1 <1>  -0.0170 
 22 C        7.5450     7.0750     1.1050 C.3   1 <1>  -0.2400 
 23 H        2.1950    -1.2750    -0.2200 H     1 <1>   0.0800 
 24 H        2.1930     0.0120    -1.3750 H     1 <1>   0.0800 
 25 H       -1.8320     2.7530    -0.6110 H     1 <1>   0.0800 
 26 H       -1.5950     1.6910     0.7510 H     1 <1>   0.0800 
 27 H       -2.4150     1.0980    -0.6780 H     1 <1>   0.0800 
 28 H       -0.4810     2.5770    -2.5400 H     1 <1>   0.0800 
 29 H       -1.0960     0.9570    -2.8090 H     1 <1>   0.0800 
 30 H        0.6290     1.2440    -2.7430 H     1 <1>   0.0800 
 31 H        1.9220     1.6220     0.6010 H     1 <1>   0.0800 
 32 H        4.2330     0.8250    -0.5970 H     1 <1>   0.0800 
 33 H        1.6820    -0.7310     2.1520 H     1 <1>   0.0800 
 34 H        2.1410     0.8380     2.7900 H     1 <1>   0.0800 
 35 H        4.2480     2.1230     2.0740 H     1 <1>   0.4000 
 36 H        5.5110    -0.0790     1.5940 H     1 <1>   0.0800 
 37 H        4.4760    -1.1930     0.7070 H     1 <1>   0.0800 
 38 H        5.0460     4.3590     2.2500 H     1 <1>   0.1500 
 39 H        6.1160     6.2230    -1.3260 H     1 <1>   0.4570 
 40 H        5.2570     3.3330    -3.3690 H     1 <1>   0.0800 
 41 H        6.5700     4.4730    -3.2570 H     1 <1>   0.0800 
 42 H        4.9160     5.0410    -3.4240 H     1 <1>   0.0800 
 43 H        5.4660     7.5940     0.9010 H     1 <1>   0.0800 
 44 H        5.8320     6.6630     2.3160 H     1 <1>   0.0800 
 45 H        7.8030     7.2660     0.0780 H     1 <1>   0.0800 
 46 H        8.1410     6.2550     1.4680 H     1 <1>   0.0800 
 47 H        7.7980     7.9500     1.6790 H     1 <1>   0.0800 
@<TRIPOS>BOND
  1   1   2  2   
  2   1   3  2   
  3   1   4  am  
  4   1   5  1   
  5   4   6  1   
  6   4   7  1   
  7   5   8  1   
  8   5  23  1   
  9   5  24  1   
 10   6  25  1   
 11   6  26  1   
 12   6  27  1   
 13   7  28  1   
 14   7  29  1   
 15   7  30  1   
 16   8   9  1   
 17   8  10  1   
 18   8  31  1   
 19   9  11  1   
 20   9  12  1   
 21   9  32  1   
 22  10  13  1   
 23  10  33  1   
 24  10  34  1   
 25  11  14  1   
 26  11  35  1   
 27  12  13  1   
 28  12  36  1   
 29  12  37  1   
 30  14  15  ar  
 31  14  16  ar  
 32  15  17  ar  
 33  16  18  ar  
 34  16  38  1   
 35  17  19  ar  
 36  17  20  1   
 37  18  19  ar  
 38  18  21  1   
 39  19  39  1   
 40  20  40  1   
 41  20  41  1   
 42  20  42  1   
 43  21  22  1   
 44  21  43  1   
 45  21  44  1   
 46  22  45  1   
 47  22  46  1   
 48  22  47  1   
@<TRIPOS>SUBSTRUCTURE
  1 ****  11 GROUP 4 **** **** 0

# MOE 2024.06 (io_trps.svl 2023.06)
