@<TRIPOS>MOLECULE
NONAME
49 52 1 0 0 
SMALL
USER_CHARGES


@<TRIPOS>ATOM
  1 O       -0.4460    -0.0310    -0.7220 O.2   1 <1>  -0.5700 
  2 C       -1.4500     0.6480    -0.8240 C.2   1 <1>   0.5440 
  3 N       -2.6760     0.0480    -0.6640 N.am  1 <1>  -0.6600 
  4 C       -1.3260     2.0690    -1.0880 C.ar  1 <1>   0.0860 
  5 C       -3.9370     0.7610    -0.3620 C.3   1 <1>   0.1400 
  6 C       -2.8330    -1.4060    -0.4420 C.3   1 <1>   0.1400 
  7 C       -0.4400     2.8500    -0.3510 C.ar  1 <1>  -0.1500 
  8 C       -2.0750     2.7040    -2.0790 C.ar  1 <1>  -0.1500 
  9 C       -4.7660    -0.2290     0.4670 C.3   1 <1>  -0.0800 
 10 C       -4.2900    -1.6130    -0.0130 C.3   1 <1>  -0.0800 
 11 C       -0.3030     4.2150    -0.5710 C.ar  1 <1>  -0.0230 
 12 C       -1.9530     4.0610    -2.3130 C.ar  1 <1>  -0.1500 
 13 C       -6.3110    -0.0160     0.4470 C.3   1 <1>   0.2800 
 14 C       -5.1740    -2.1280    -1.1600 C.3   1 <1>  -0.1600 
 15 N        0.6070     4.9820     0.2020 N.pl3 1 <1>   0.3260 
 16 C       -1.0720     4.8150    -1.5620 C.ar  1 <1>  -0.1500 
 17 O       -6.6920     0.6230    -0.7190 O.3   1 <1>  -0.6800 
 18 C       -7.0350    -1.3750     0.4580 C.3   1 <1>  -0.1600 
 19 C       -6.8080     0.8580     1.6200 C.3   1 <1>  -0.1600 
 20 C       -6.6390    -2.2970    -0.7160 C.3   1 <1>  -0.1600 
 21 C        0.4240     6.1710     0.7910 C.2   1 <1>   0.0360 
 22 C        1.8740     4.7090     0.5420 C.2   1 <1>   0.0360 
 23 C       -6.2270     2.2820     1.6840 C.3   1 <1>  -0.2400 
 24 N        1.4710     6.5770     1.4210 N.2   1 <1>  -0.3380 
 25 N        2.4040     5.6360     1.2610 N.2   1 <1>  -0.3380 
 26 H       -3.7530     1.6710     0.1800 H     1 <1>   0.0800 
 27 H       -4.4170     0.9910    -1.2960 H     1 <1>   0.0800 
 28 H       -2.5950    -1.9490    -1.3410 H     1 <1>   0.0800 
 29 H       -2.1640    -1.7150     0.3430 H     1 <1>   0.0800 
 30 H        0.1470     2.3630     0.4090 H     1 <1>   0.1500 
 31 H       -2.7550     2.1180    -2.6740 H     1 <1>   0.1500 
 32 H       -4.4330    -0.1410     1.4860 H     1 <1>   0.0800 
 33 H       -4.3230    -2.3270     0.7910 H     1 <1>   0.0800 
 34 H       -2.5440     4.5280    -3.0840 H     1 <1>   0.1500 
 35 H       -5.1350    -1.4200    -1.9710 H     1 <1>   0.0800 
 36 H       -4.7990    -3.0670    -1.5300 H     1 <1>   0.0800 
 37 H       -0.9820     5.8710    -1.7570 H     1 <1>   0.1500 
 38 H       -7.6630     0.6750    -0.7530 H     1 <1>   0.4000 
 39 H       -6.7820    -1.8750     1.3760 H     1 <1>   0.0800 
 40 H       -8.1020    -1.2350     0.4640 H     1 <1>   0.0800 
 41 H       -7.8800     0.9280     1.5710 H     1 <1>   0.0800 
 42 H       -6.5740     0.3580     2.5430 H     1 <1>   0.0800 
 43 H       -6.8120    -3.3180    -0.4240 H     1 <1>   0.0800 
 44 H       -7.2740    -2.0920    -1.5620 H     1 <1>   0.0800 
 45 H       -0.5050     6.7050     0.7340 H     1 <1>   0.1500 
 46 H        2.3720     3.8080     0.2330 H     1 <1>   0.1500 
 47 H       -6.3940     2.8040     0.7580 H     1 <1>   0.0800 
 48 H       -5.1720     2.2570     1.8850 H     1 <1>   0.0800 
 49 H       -6.7040     2.8340     2.4740 H     1 <1>   0.0800 
@<TRIPOS>BOND
  1   1   2  2   
  2   2   3  am  
  3   2   4  1   
  4   3   5  1   
  5   3   6  1   
  6   4   7  ar  
  7   4   8  ar  
  8   5   9  1   
  9   5  26  1   
 10   5  27  1   
 11   6  10  1   
 12   6  28  1   
 13   6  29  1   
 14   7  11  ar  
 15   7  30  1   
 16   8  12  ar  
 17   8  31  1   
 18   9  10  1   
 19   9  13  1   
 20   9  32  1   
 21  10  14  1   
 22  10  33  1   
 23  11  15  1   
 24  11  16  ar  
 25  12  16  ar  
 26  12  34  1   
 27  13  17  1   
 28  13  18  1   
 29  13  19  1   
 30  14  20  1   
 31  14  35  1   
 32  14  36  1   
 33  15  21  1   
 34  15  22  1   
 35  16  37  1   
 36  17  38  1   
 37  18  20  1   
 38  18  39  1   
 39  18  40  1   
 40  19  23  1   
 41  19  41  1   
 42  19  42  1   
 43  20  43  1   
 44  20  44  1   
 45  21  24  2   
 46  21  45  1   
 47  22  25  2   
 48  22  46  1   
 49  23  47  1   
 50  23  48  1   
 51  23  49  1   
 52  24  25  1   
@<TRIPOS>SUBSTRUCTURE
  1 ****   4 GROUP 4 **** **** 0

# MOE 2024.06 (io_trps.svl 2023.06)
