@<TRIPOS>MOLECULE
NONAME
43 45 1 0 0 
SMALL
USER_CHARGES


@<TRIPOS>ATOM
  1 O       -0.2200    -0.9700     1.2070 O.3   1 <1>  -0.5600 
  2 C        0.8470    -0.6120     0.3780 C.3   1 <1>   0.1200 
  3 C       -1.3330    -0.1590     0.9690 C.3   1 <1>   0.1200 
  4 C        0.5690     0.8110    -0.0980 C.3   1 <1>   0.2890 
  5 C       -0.9540     0.7920    -0.1660 C.3   1 <1>  -0.0800 
  6 N        1.0700     1.7680     0.9180 N.pl3 1 <1>  -0.8690 
  7 C       -1.6710     2.1540    -0.0980 C.3   1 <1>  -0.0170 
  8 C        1.2980     3.0930     0.6990 C.ar  1 <1>   0.4100 
  9 C       -3.1730     1.9830    -0.2640 C.ar  1 <1>  -0.1430 
 10 N        0.9470     3.8740     1.6880 N.ar  1 <1>  -0.6200 
 11 C        1.8390     3.5920    -0.4630 C.ar  1 <1>  -0.1500 
 12 C       -4.0330     2.0000     0.8160 C.ar  1 <1>  -0.1500 
 13 C       -3.7540     1.8020    -1.5030 C.ar  1 <1>  -0.1500 
 14 C        1.1410     5.1650     1.4920 C.ar  1 <1>   0.7030 
 15 C        1.9870     4.9470    -0.5560 C.ar  1 <1>   0.3930 
 16 C       -5.3920     1.8320     0.6110 C.ar  1 <1>   0.1600 
 17 C       -5.1260     1.6440    -1.5990 C.ar  1 <1>   0.1600 
 18 O        0.7710     5.9400     2.5290 O.3   1 <1>  -0.3630 
 19 N        1.6390     5.7660     0.4180 N.ar  1 <1>  -0.6200 
 20 O        2.5050     5.4510    -1.6940 O.3   1 <1>  -0.3630 
 21 N       -5.9600     1.6510    -0.5710 N.ar  1 <1>  -0.6200 
 22 C        0.9240     7.3460     2.5080 C.3   1 <1>   0.0400 
 23 C        2.7030     6.8420    -1.8530 C.3   1 <1>   0.0400 
 24 H        1.7710    -0.6890     0.9240 H     1 <1>   0.0800 
 25 H        0.8540    -1.2940    -0.4540 H     1 <1>   0.0800 
 26 H       -2.1750    -0.7790     0.7140 H     1 <1>   0.0800 
 27 H       -1.5390     0.3790     1.8780 H     1 <1>   0.0800 
 28 H        1.0210     1.0010    -1.0550 H     1 <1>   0.0800 
 29 H       -1.2330     0.3130    -1.0880 H     1 <1>   0.0800 
 30 H        0.7110     1.5750     1.8580 H     1 <1>   0.4000 
 31 H       -1.2990     2.7990    -0.8740 H     1 <1>   0.0800 
 32 H       -1.4740     2.6350     0.8440 H     1 <1>   0.0800 
 33 H        2.1430     2.9530    -1.2650 H     1 <1>   0.1500 
 34 H       -3.6590     2.1420     1.8130 H     1 <1>   0.1500 
 35 H       -3.1540     1.7830    -2.3940 H     1 <1>   0.1500 
 36 H       -6.0470     1.8480     1.4650 H     1 <1>   0.1500 
 37 H       -5.5630     1.5030    -2.5730 H     1 <1>   0.1500 
 38 H        0.5680     7.7370     3.4430 H     1 <1>   0.0800 
 39 H        0.3450     7.7470     1.6950 H     1 <1>   0.0800 
 40 H        1.9660     7.5810     2.3820 H     1 <1>   0.0800 
 41 H        3.1270     7.0150    -2.8250 H     1 <1>   0.0800 
 42 H        3.3780     7.1870    -1.0890 H     1 <1>   0.0800 
 43 H        1.7540     7.3410    -1.7690 H     1 <1>   0.0800 
@<TRIPOS>BOND
  1   1   2  1   
  2   1   3  1   
  3   2   4  1   
  4   2  24  1   
  5   2  25  1   
  6   3   5  1   
  7   3  26  1   
  8   3  27  1   
  9   4   5  1   
 10   4   6  1   
 11   4  28  1   
 12   5   7  1   
 13   5  29  1   
 14   6   8  1   
 15   6  30  1   
 16   7   9  1   
 17   7  31  1   
 18   7  32  1   
 19   8  10  ar  
 20   8  11  ar  
 21   9  12  ar  
 22   9  13  ar  
 23  10  14  ar  
 24  11  15  ar  
 25  11  33  1   
 26  12  16  ar  
 27  12  34  1   
 28  13  17  ar  
 29  13  35  1   
 30  14  18  1   
 31  14  19  ar  
 32  15  19  ar  
 33  15  20  1   
 34  16  21  ar  
 35  16  36  1   
 36  17  21  ar  
 37  17  37  1   
 38  18  22  1   
 39  20  23  1   
 40  22  38  1   
 41  22  39  1   
 42  22  40  1   
 43  23  41  1   
 44  23  42  1   
 45  23  43  1   
@<TRIPOS>SUBSTRUCTURE
  1 ****   7 GROUP 4 **** **** 0

# MOE 2024.06 (io_trps.svl 2023.06)
