@<TRIPOS>MOLECULE
NONAME
47 50 1 0 0 
SMALL
USER_CHARGES


@<TRIPOS>ATOM
  1 S       -0.7600     0.5260     0.6140 S.o2  1 <1>   1.0900 
  2 O       -1.1880     1.6950     1.3450 O.2   1 <1>  -0.6500 
  3 O        0.6360     0.2230     0.4050 O.2   1 <1>  -0.6500 
  4 C       -1.5290    -0.9310     1.2590 C.3   1 <1>  -0.0550 
  5 C       -1.5840     0.4360    -0.9690 C.3   1 <1>  -0.0550 
  6 C       -1.6790    -1.8410     0.0420 C.3   1 <1>   0.1760 
  7 C       -2.2010    -0.9670    -1.1180 C.3   1 <1>  -0.1600 
  8 N       -2.5890    -2.9810     0.3150 N.pl3 1 <1>   0.3140 
  9 N       -3.7800    -2.7890     0.9100 N.2   1 <1>  -0.7070 
 10 C       -2.4040    -4.2850    -0.0150 C.2   1 <1>  -0.3320 
 11 C       -4.3350    -3.9600     0.9410 C.2   1 <1>   0.1080 
 12 C       -3.5190    -4.9430     0.3720 C.2   1 <1>   0.0630 
 13 C       -1.1610    -4.8290    -0.7080 C.3   1 <1>  -0.0600 
 14 C       -5.7040    -4.1680     1.5490 C.3   1 <1>  -0.0590 
 15 N       -3.7530    -6.3340     0.2310 N.am  1 <1>  -0.4930 
 16 C       -4.8630    -6.9670    -0.2680 C.2   1 <1>   0.5440 
 17 O       -5.8350    -6.3190    -0.6000 O.2   1 <1>  -0.5700 
 18 C       -4.8940    -8.4030    -0.3920 C.ar  1 <1>   0.0860 
 19 C       -6.0700    -9.1170    -0.2630 C.ar  1 <1>   0.1600 
 20 C       -3.7720    -9.1680    -0.6500 C.ar  1 <1>   0.1600 
 21 N       -6.1310   -10.4290    -0.3460 N.ar  1 <1>  -0.6200 
 22 N       -3.7940   -10.4790    -0.7370 N.ar  1 <1>  -0.6200 
 23 C       -4.9810   -11.0440    -0.5750 C.ar  1 <1>   0.5880 
 24 C       -5.0300   -12.5630    -0.6720 C.3   1 <1>  -0.0680 
 25 C       -5.6070   -13.3940     0.4380 C.3   1 <1>  -0.2000 
 26 C       -4.1350   -13.4280     0.1690 C.3   1 <1>  -0.2000 
 27 H       -2.4960    -0.6800     1.6530 H     1 <1>   0.0800 
 28 H       -0.9310    -1.3870     2.0230 H     1 <1>   0.0800 
 29 H       -0.8800     0.6240    -1.7580 H     1 <1>   0.0800 
 30 H       -2.3610     1.1760    -1.0250 H     1 <1>   0.0800 
 31 H       -0.7080    -2.2230    -0.2150 H     1 <1>   0.0800 
 32 H       -1.9480    -1.4020    -2.0690 H     1 <1>   0.0800 
 33 H       -3.2730    -0.8800    -1.0480 H     1 <1>   0.0800 
 34 H       -1.0100    -4.3250    -1.6460 H     1 <1>   0.0800 
 35 H       -1.2660    -5.8800    -0.9070 H     1 <1>   0.0800 
 36 H       -0.2940    -4.6850    -0.0870 H     1 <1>   0.0800 
 37 H       -5.8770    -3.4380     2.3180 H     1 <1>   0.0800 
 38 H       -5.7790    -5.1500     1.9750 H     1 <1>   0.0800 
 39 H       -6.4530    -4.0560     0.7870 H     1 <1>   0.0800 
 40 H       -2.9710    -6.9100     0.5320 H     1 <1>   0.3700 
 41 H       -6.9890    -8.5810    -0.0840 H     1 <1>   0.1500 
 42 H       -2.8210    -8.6850    -0.7970 H     1 <1>   0.1500 
 43 H       -5.2240   -12.8830    -1.6790 H     1 <1>   0.1000 
 44 H       -6.2080   -14.2480     0.1780 H     1 <1>   0.1000 
 45 H       -5.9640   -12.8920     1.3210 H     1 <1>   0.1000 
 46 H       -3.4680   -12.9510     0.8660 H     1 <1>   0.1000 
 47 H       -3.7050   -14.3060    -0.2780 H     1 <1>   0.1000 
@<TRIPOS>BOND
  1   1   2  2   
  2   1   3  2   
  3   1   4  1   
  4   1   5  1   
  5   4   6  1   
  6   4  27  1   
  7   4  28  1   
  8   5   7  1   
  9   5  29  1   
 10   5  30  1   
 11   6   7  1   
 12   6   8  1   
 13   6  31  1   
 14   7  32  1   
 15   7  33  1   
 16   8   9  1   
 17   8  10  1   
 18   9  11  2   
 19  10  12  2   
 20  10  13  1   
 21  11  12  1   
 22  11  14  1   
 23  12  15  1   
 24  13  34  1   
 25  13  35  1   
 26  13  36  1   
 27  14  37  1   
 28  14  38  1   
 29  14  39  1   
 30  15  16  am  
 31  15  40  1   
 32  16  17  2   
 33  16  18  1   
 34  18  19  ar  
 35  18  20  ar  
 36  19  21  ar  
 37  19  41  1   
 38  20  22  ar  
 39  20  42  1   
 40  21  23  ar  
 41  22  23  ar  
 42  23  24  1   
 43  24  25  1   
 44  24  26  1   
 45  24  43  1   
 46  25  26  1   
 47  25  44  1   
 48  25  45  1   
 49  26  46  1   
 50  26  47  1   
@<TRIPOS>SUBSTRUCTURE
  1 ****  12 GROUP 4 **** **** 0

# MOE 2024.06 (io_trps.svl 2023.06)
