@<TRIPOS>MOLECULE
NONAME
49 51 1 0 0 
SMALL
USER_CHARGES


@<TRIPOS>ATOM
  1 O       -0.8890     0.9030     1.4610 O.2   1 <1>  -0.5700 
  2 C       -1.4640     1.2930     0.4570 C.2   1 <1>   0.7160 
  3 N       -2.6320     0.6350     0.0990 N.am  1 <1>  -0.6600 
  4 C       -0.8770     2.4010    -0.2930 C.2   1 <1>   0.1410 
  5 C       -3.1210    -0.5650     0.8530 C.3   1 <1>   0.1400 
  6 C       -3.4920     0.9930    -1.0640 C.3   1 <1>   0.1400 
  7 N       -1.5740     3.3900    -0.9420 N.2   1 <1>  -0.5650 
  8 C        0.4410     2.6740    -0.4660 C.2   1 <1>  -0.0400 
  9 C       -4.2830    -0.2190     1.7970 C.3   1 <1>   0.1400 
 10 C       -4.5930     1.9970    -0.6860 C.3   1 <1>  -0.1600 
 11 C       -0.6630     4.1440    -1.4290 C.2   1 <1>   0.3280 
 12 O        0.5600     3.7560    -1.1740 O.3   1 <1>  -0.2800 
 13 C        1.7090     1.9780    -0.0070 C.3   1 <1>  -0.0600 
 14 N       -5.4210     0.4370     1.0750 N.am  1 <1>  -0.6600 
 15 C       -5.1650     1.8620     0.7310 C.3   1 <1>   0.1400 
 16 C       -6.5870    -0.1860     0.6830 C.2   1 <1>   0.5690 
 17 O       -7.4640     0.4470     0.1350 O.2   1 <1>  -0.5700 
 18 C       -6.8410    -1.6800     0.9600 C.3   1 <1>   0.2610 
 19 O       -5.7550    -2.4920     0.5330 O.3   1 <1>  -0.2170 
 20 C       -8.0470    -2.3150     0.2550 C.3   1 <1>  -0.0990 
 21 N       -6.1580    -3.5780    -0.0960 N.2   1 <1>  -0.5130 
 22 C       -7.4000    -3.5540    -0.2850 C.2   1 <1>   0.3280 
 23 C       -8.2620    -4.6070    -0.9880 C.3   1 <1>  -0.0190 
 24 C       -9.1610    -5.3500     0.0120 C.3   1 <1>  -0.2400 
 25 C       -7.4150    -5.6250    -1.7690 C.3   1 <1>  -0.2400 
 26 H       -2.3220    -0.9930     1.4330 H     1 <1>   0.0800 
 27 H       -3.4390    -1.3230     0.1590 H     1 <1>   0.0800 
 28 H       -3.9610     0.0970    -1.4360 H     1 <1>   0.0800 
 29 H       -2.8940     1.3870    -1.8670 H     1 <1>   0.0800 
 30 H       -3.9190     0.4410     2.5650 H     1 <1>   0.0800 
 31 H       -4.6140    -1.1150     2.2890 H     1 <1>   0.0800 
 32 H       -5.3980     1.8970    -1.3920 H     1 <1>   0.0800 
 33 H       -4.2130     2.9950    -0.7980 H     1 <1>   0.0800 
 34 H       -0.8090     5.0380    -2.0110 H     1 <1>   0.1500 
 35 H        1.4840     1.0680     0.5180 H     1 <1>   0.0800 
 36 H        2.2600     2.6270     0.6480 H     1 <1>   0.0800 
 37 H        2.3220     1.7410    -0.8580 H     1 <1>   0.0800 
 38 H       -6.0790     2.4250     0.8040 H     1 <1>   0.0800 
 39 H       -4.4680     2.2820     1.4360 H     1 <1>   0.0800 
 40 H       -6.9320    -1.8230     2.0200 H     1 <1>   0.0800 
 41 H       -8.4210    -1.7140    -0.5530 H     1 <1>   0.0800 
 42 H       -8.8310    -2.5270     0.9550 H     1 <1>   0.0800 
 43 H       -8.8890    -4.0940    -1.6970 H     1 <1>   0.0800 
 44 H       -8.5600    -5.8460     0.7550 H     1 <1>   0.0800 
 45 H       -9.7550    -6.0890    -0.4970 H     1 <1>   0.0800 
 46 H       -9.8270    -4.6680     0.5070 H     1 <1>   0.0800 
 47 H       -6.7750    -6.1740    -1.0990 H     1 <1>   0.0800 
 48 H       -6.7950    -5.1170    -2.4870 H     1 <1>   0.0800 
 49 H       -8.0450    -6.3210    -2.2940 H     1 <1>   0.0800 
@<TRIPOS>BOND
  1   1   2  2   
  2   2   3  am  
  3   2   4  1   
  4   3   5  1   
  5   3   6  1   
  6   4   7  1   
  7   4   8  2   
  8   5   9  1   
  9   5  26  1   
 10   5  27  1   
 11   6  10  1   
 12   6  28  1   
 13   6  29  1   
 14   7  11  2   
 15   8  12  1   
 16   8  13  1   
 17   9  14  1   
 18   9  30  1   
 19   9  31  1   
 20  10  15  1   
 21  10  32  1   
 22  10  33  1   
 23  11  12  1   
 24  11  34  1   
 25  13  35  1   
 26  13  36  1   
 27  13  37  1   
 28  14  15  1   
 29  14  16  am  
 30  15  38  1   
 31  15  39  1   
 32  16  17  2   
 33  16  18  1   
 34  18  19  1   
 35  18  20  1   
 36  18  40  1   
 37  19  21  1   
 38  20  22  1   
 39  20  41  1   
 40  20  42  1   
 41  21  22  2   
 42  22  23  1   
 43  23  24  1   
 44  23  25  1   
 45  23  43  1   
 46  24  44  1   
 47  24  45  1   
 48  24  46  1   
 49  25  47  1   
 50  25  48  1   
 51  25  49  1   
@<TRIPOS>SUBSTRUCTURE
  1 ****   5 GROUP 4 **** **** 0

# MOE 2024.06 (io_trps.svl 2023.06)
