@<TRIPOS>MOLECULE
NONAME
50 54 1 0 0 
SMALL
USER_CHARGES


@<TRIPOS>ATOM
  1 O        0.2750     0.4690    -1.3230 O.2   1 <1>  -0.5700 
  2 C       -0.2570     1.5620    -1.3350 C.2   1 <1>   0.5440 
  3 N       -1.6290     1.6490    -1.4550 N.am  1 <1>  -0.6600 
  4 C        0.5600     2.7410    -1.1870 C.ar  1 <1>   0.0860 
  5 C       -2.4080     2.9270    -1.3790 C.3   1 <1>   0.1400 
  6 C       -2.4940     0.4420    -1.5760 C.3   1 <1>   0.1400 
  7 C        1.1890     3.0470     0.0210 C.ar  1 <1>   0.0000 
  8 C        0.7580     3.6650    -2.1980 C.ar  1 <1>  -0.1500 
  9 C       -3.3490     2.9250    -0.1590 C.3   1 <1>   0.1440 
 10 C       -3.4450     0.3690    -0.3750 C.3   1 <1>  -0.1600 
 11 C        1.8840     4.2250     0.1230 C.ar  1 <1>   0.3970 
 12 C        1.3390     2.4900     1.3030 C.2   1 <1>   0.1080 
 13 C        1.5070     4.8240    -1.9800 C.ar  1 <1>   0.1660 
 14 C       -4.2030     4.1790    -0.1520 C.ar  1 <1>   0.1660 
 15 C       -4.2510     1.6700    -0.1900 C.3   1 <1>  -0.1600 
 16 C       -2.5720     3.0460     1.1810 C.3   1 <1>  -0.1600 
 17 O        2.3430     4.3150     1.3590 O.3   1 <1>  -0.0190 
 18 N        2.0700     5.1340    -0.8340 N.ar  1 <1>  -0.5670 
 19 N        2.0100     3.2620     2.0720 N.2   1 <1>  -0.4100 
 20 C        0.8010     1.1410     1.7370 C.3   1 <1>  -0.0590 
 21 C        1.7000     5.8170    -3.1080 C.3   1 <1>  -0.0970 
 22 N       -4.8790     4.6420    -1.1770 N.ar  1 <1>  -0.6200 
 23 C       -4.1910     4.7920     1.0660 C.ar  1 <1>  -0.1440 
 24 C       -3.3360     4.0510     2.0610 C.3   1 <1>  -0.0160 
 25 C       -5.5420     5.7600    -0.9250 C.ar  1 <1>   0.7200 
 26 C       -4.9260     5.9440     1.2110 C.ar  1 <1>   0.1600 
 27 N       -5.6180     6.4410     0.2100 N.ar  1 <1>  -0.6200 
 28 N       -6.2490     6.2550    -1.9410 N.pl3 1 <1>  -0.9000 
 29 H       -2.9960     3.0220    -2.2760 H     1 <1>   0.0800 
 30 H       -1.7630     3.7850    -1.3270 H     1 <1>   0.0800 
 31 H       -1.8990    -0.4550    -1.6240 H     1 <1>   0.0800 
 32 H       -3.0610     0.5100    -2.4890 H     1 <1>   0.0800 
 33 H        0.3210     3.4840    -3.1630 H     1 <1>   0.1500 
 34 H       -2.8680     0.1550     0.5060 H     1 <1>   0.0800 
 35 H       -4.1240    -0.4530    -0.5180 H     1 <1>   0.0800 
 36 H       -4.9370     1.7650    -1.0140 H     1 <1>   0.0800 
 37 H       -4.8370     1.6150     0.7110 H     1 <1>   0.0800 
 38 H       -1.5930     3.4500     0.9930 H     1 <1>   0.0800 
 39 H       -2.4560     2.1030     1.6820 H     1 <1>   0.0800 
 40 H       -0.2460     1.0640     1.5140 H     1 <1>   0.0800 
 41 H        0.9430     1.0080     2.7940 H     1 <1>   0.0800 
 42 H        1.3260     0.3590     1.2180 H     1 <1>   0.0800 
 43 H        1.2170     5.4860    -4.0080 H     1 <1>   0.0800 
 44 H        2.7500     5.9380    -3.3030 H     1 <1>   0.0800 
 45 H        1.2910     6.7690    -2.8230 H     1 <1>   0.0800 
 46 H       -2.6640     4.7110     2.5820 H     1 <1>   0.0800 
 47 H       -3.9650     3.5370     2.7670 H     1 <1>   0.0800 
 48 H       -4.9480     6.4620     2.1550 H     1 <1>   0.1500 
 49 H       -6.9780     6.9120    -1.6760 H     1 <1>   0.4000 
 50 H       -6.4730     5.5930    -2.6770 H     1 <1>   0.4000 
@<TRIPOS>BOND
  1   1   2  2   
  2   2   3  am  
  3   2   4  1   
  4   3   5  1   
  5   3   6  1   
  6   4   7  ar  
  7   4   8  ar  
  8   5   9  1   
  9   5  29  1   
 10   5  30  1   
 11   6  10  1   
 12   6  31  1   
 13   6  32  1   
 14   7  11  ar  
 15   7  12  1   
 16   8  13  ar  
 17   8  33  1   
 18   9  14  1   
 19   9  15  1   
 20   9  16  1   
 21  10  15  1   
 22  10  34  1   
 23  10  35  1   
 24  11  17  1   
 25  11  18  ar  
 26  12  19  2   
 27  12  20  1   
 28  13  18  ar  
 29  13  21  1   
 30  14  22  ar  
 31  14  23  ar  
 32  15  36  1   
 33  15  37  1   
 34  16  24  1   
 35  16  38  1   
 36  16  39  1   
 37  17  19  1   
 38  20  40  1   
 39  20  41  1   
 40  20  42  1   
 41  21  43  1   
 42  21  44  1   
 43  21  45  1   
 44  22  25  ar  
 45  23  24  1   
 46  23  26  ar  
 47  24  46  1   
 48  24  47  1   
 49  25  27  ar  
 50  25  28  1   
 51  26  27  ar  
 52  26  48  1   
 53  28  49  1   
 54  28  50  1   
@<TRIPOS>SUBSTRUCTURE
  1 ****   5 GROUP 4 **** **** 0

# MOE 2024.06 (io_trps.svl 2023.06)
