@<TRIPOS>MOLECULE
NONAME
46 49 1 0 0 
SMALL
USER_CHARGES


@<TRIPOS>ATOM
  1 O        2.7440     0.0090     0.7490 O.2   1 <1>  -0.5700 
  2 C        2.8250    -0.6970    -0.2340 C.2   1 <1>   0.9370 
  3 N        1.8530    -1.7050    -0.3960 N.pl3 1 <1>  -0.5760 
  4 C        3.8830    -0.5640    -1.1820 C.2   1 <1>   0.0290 
  5 C        1.9860    -2.6210    -1.3890 C.cat 1 <1>   0.7390 
  6 C        0.7750    -1.7980     0.4570 C.2   1 <1>   0.1910 
  7 C        4.8260     0.5100    -1.0950 C.2   1 <1>   0.6160 
  8 C        3.9730    -1.5100    -2.1510 C.2   1 <1>   0.1910 
  9 N        3.0440    -2.5140    -2.2300 N.pl3 1 <1>  -0.6450 
 10 C        1.0410    -3.6440    -1.5360 C.2   1 <1>  -0.1800 
 11 C       -0.1580    -2.7900     0.3260 C.2   1 <1>  -0.1500 
 12 O        5.9550     0.3550    -1.5170 O.2   1 <1>  -0.5700 
 13 N        4.5350     1.7610    -0.6250 N.am  1 <1>  -0.6600 
 14 C       -0.0310    -3.7400    -0.6890 C.2   1 <1>  -0.1500 
 15 C        5.0140     2.1300     0.7620 C.3   1 <1>   0.2200 
 16 C        4.3060     2.8530    -1.6240 C.3   1 <1>   0.1400 
 17 C        4.1710     3.2450     1.4030 C.3   1 <1>   0.1200 
 18 C        6.5200     2.5020     0.7890 C.3   1 <1>   0.3430 
 19 C        5.0100     4.1890    -1.3180 C.3   1 <1>  -0.0800 
 20 O        4.6760     4.4980     1.0540 O.3   1 <1>  -0.5600 
 21 N        7.0690     2.8360    -0.5700 N.4   1 <1>  -0.9590 
 22 C        4.3110     4.9740    -0.1960 C.3   1 <1>   0.1200 
 23 C        6.5420     4.1240    -1.1270 C.3   1 <1>   0.3430 
 24 C        8.5600     2.8240    -0.5630 C.3   1 <1>   0.2630 
 25 H        0.6660    -1.0690     1.2490 H     1 <1>   0.1500 
 26 H        4.7690    -1.4980    -2.8850 H     1 <1>   0.1500 
 27 H        3.1300    -3.2300    -2.9630 H     1 <1>   0.4500 
 28 H        1.1620    -4.3630    -2.3260 H     1 <1>   0.1500 
 29 H       -0.9960    -2.8510     1.0010 H     1 <1>   0.1500 
 30 H       -0.7690    -4.5230    -0.7870 H     1 <1>   0.1500 
 31 H        4.8890     1.2670     1.3940 H     1 <1>   0.0800 
 32 H        4.6340     2.5130    -2.5930 H     1 <1>   0.0800 
 33 H        3.2450     3.0300    -1.6960 H     1 <1>   0.0800 
 34 H        4.2480     3.1740     2.4740 H     1 <1>   0.0800 
 35 H        3.1300     3.1700     1.1360 H     1 <1>   0.0800 
 36 H        7.0590     1.6570     1.1840 H     1 <1>   0.0800 
 37 H        6.6760     3.3270     1.4660 H     1 <1>   0.0800 
 38 H        4.8570     4.7960    -2.1930 H     1 <1>   0.0800 
 39 H        6.7360     2.0600    -1.1800 H     1 <1>   0.4500 
 40 H        3.2370     4.9390    -0.2880 H     1 <1>   0.0800 
 41 H        4.6120     6.0080    -0.2330 H     1 <1>   0.0800 
 42 H        6.8440     4.9400    -0.4900 H     1 <1>   0.0800 
 43 H        7.0000     4.2840    -2.0900 H     1 <1>   0.0800 
 44 H        8.9380     3.5940     0.0890 H     1 <1>   0.0800 
 45 H        8.9390     2.9940    -1.5570 H     1 <1>   0.0800 
 46 H        8.9230     1.8690    -0.2180 H     1 <1>   0.0800 
@<TRIPOS>BOND
  1   1   2  2   
  2   2   3  1   
  3   2   4  1   
  4   3   5  ar  
  5   3   6  1   
  6   4   7  1   
  7   4   8  2   
  8   5   9  ar  
  9   5  10  1   
 10   6  11  2   
 11   6  25  1   
 12   7  12  2   
 13   7  13  am  
 14   8   9  1   
 15   8  26  1   
 16   9  27  1   
 17  10  14  2   
 18  10  28  1   
 19  11  14  1   
 20  11  29  1   
 21  13  15  1   
 22  13  16  1   
 23  14  30  1   
 24  15  17  1   
 25  15  18  1   
 26  15  31  1   
 27  16  19  1   
 28  16  32  1   
 29  16  33  1   
 30  17  20  1   
 31  17  34  1   
 32  17  35  1   
 33  18  21  1   
 34  18  36  1   
 35  18  37  1   
 36  19  22  1   
 37  19  23  1   
 38  19  38  1   
 39  20  22  1   
 40  21  23  1   
 41  21  24  1   
 42  21  39  1   
 43  22  40  1   
 44  22  41  1   
 45  23  42  1   
 46  23  43  1   
 47  24  44  1   
 48  24  45  1   
 49  24  46  1   
@<TRIPOS>SUBSTRUCTURE
  1 ****   7 GROUP 4 **** **** 0

# MOE 2024.06 (io_trps.svl 2023.06)
