@<TRIPOS>MOLECULE
NONAME
60 62 1 0 0 
SMALL
USER_CHARGES


@<TRIPOS>ATOM
  1 O       -1.1710    -0.1700    -0.6240 O.2   1 <1>  -0.5700 
  2 C       -1.9780    -1.0120    -0.3080 C.2   1 <1>   0.5690 
  3 N       -1.6120    -2.3330    -0.2100 N.am  1 <1>  -0.6600 
  4 C       -3.4120    -0.5720    -0.0290 C.3   1 <1>  -0.0990 
  5 C       -0.1760    -2.8090    -0.3580 C.3   1 <1>   0.2200 
  6 C       -2.5720    -3.4650    -0.1880 C.3   1 <1>   0.1400 
  7 C       -3.5460     0.9170     0.3420 C.3   1 <1>  -0.1600 
  8 C        0.2150    -4.3040     0.1560 C.3   1 <1>   0.0000 
  9 C        0.8910    -1.8250     0.1800 C.3   1 <1>   0.3430 
 10 C       -2.2470    -4.3200     1.0300 C.3   1 <1>  -0.1600 
 11 C       -5.0090     1.3080     0.6080 C.3   1 <1>  -0.0990 
 12 C        1.2590    -4.3990    -1.0770 C.3   1 <1>  -0.1600 
 13 C       -0.7660    -4.1710     1.4200 C.3   1 <1>  -0.1600 
 14 C        0.5810    -5.8050     0.5810 C.3   1 <1>   0.1200 
 15 N        2.2660    -2.4340     0.1060 N.4   1 <1>  -0.9590 
 16 C       -5.1360     2.7620     1.0490 C.2   1 <1>   0.4230 
 17 C        2.3760    -3.3250    -1.0870 C.3   1 <1>   0.3430 
 18 O        0.0330    -6.6940    -0.3400 O.3   1 <1>  -0.6800 
 19 C        3.3300    -1.3970     0.1140 C.3   1 <1>   0.3430 
 20 O       -5.1610     2.9510     2.2380 O.2   1 <1>  -0.5700 
 21 C       -5.2280     3.8370     0.0770 C.ar  1 <1>   0.0860 
 22 C        3.3990    -0.7460     1.4900 C.3   1 <1>  -0.2400 
 23 C       -5.5110     5.1380     0.5040 C.ar  1 <1>  -0.1500 
 24 C       -5.0460     3.6560    -1.2990 C.ar  1 <1>  -0.1500 
 25 C       -5.6130     6.1950    -0.3810 C.ar  1 <1>  -0.1500 
 26 C       -5.1460     4.7090    -2.1910 C.ar  1 <1>  -0.1500 
 27 C       -5.4310     5.9820    -1.7340 C.ar  1 <1>  -0.1500 
 28 H       -4.0010    -0.7780    -0.9040 H     1 <1>   0.0800 
 29 H       -3.7980    -1.1530     0.7890 H     1 <1>   0.0800 
 30 H       -0.0910    -2.7030    -1.4260 H     1 <1>   0.0800 
 31 H       -3.5970    -3.1410    -0.1590 H     1 <1>   0.0800 
 32 H       -2.4360    -4.0470    -1.0850 H     1 <1>   0.0800 
 33 H       -2.9630     1.1160     1.2260 H     1 <1>   0.0800 
 34 H       -3.1470     1.5240    -0.4530 H     1 <1>   0.0800 
 35 H        0.6610    -1.5610     1.1980 H     1 <1>   0.0800 
 36 H        0.8690    -0.9310    -0.4190 H     1 <1>   0.0800 
 37 H       -2.8630    -4.0050     1.8550 H     1 <1>   0.0800 
 38 H       -2.4880    -5.3470     0.8200 H     1 <1>   0.0800 
 39 H       -5.4000     0.6890     1.3960 H     1 <1>   0.0800 
 40 H       -5.6150     1.1340    -0.2620 H     1 <1>   0.0800 
 41 H        0.7290    -4.3830    -2.0170 H     1 <1>   0.0800 
 42 H        1.8270    -5.3060    -1.2220 H     1 <1>   0.0800 
 43 H       -0.6160    -4.7760     2.2970 H     1 <1>   0.0800 
 44 H       -0.6480    -3.2060     1.8880 H     1 <1>   0.0800 
 45 H        0.2760    -6.2080     1.5280 H     1 <1>   0.0800 
 46 H        1.6460    -5.9710     0.6180 H     1 <1>   0.0800 
 47 H        2.3900    -3.0220     0.9400 H     1 <1>   0.4500 
 48 H        2.2950    -2.7370    -1.9890 H     1 <1>   0.0800 
 49 H        3.3390    -3.8100    -1.0930 H     1 <1>   0.0800 
 50 H       -0.9320    -6.7840    -0.2130 H     1 <1>   0.4000 
 51 H        4.2830    -1.8530    -0.1060 H     1 <1>   0.0800 
 52 H        3.1290    -0.6510    -0.6400 H     1 <1>   0.0800 
 53 H        3.5820    -1.4790     2.2540 H     1 <1>   0.0800 
 54 H        2.4990    -0.2020     1.7130 H     1 <1>   0.0800 
 55 H        4.2140    -0.0430     1.5040 H     1 <1>   0.0800 
 56 H       -5.6530     5.3200     1.5560 H     1 <1>   0.1500 
 57 H       -4.8170     2.6850    -1.6960 H     1 <1>   0.1500 
 58 H       -5.8330     7.1830    -0.0160 H     1 <1>   0.1500 
 59 H       -5.0000     4.5400    -3.2450 H     1 <1>   0.1500 
 60 H       -5.5100     6.8020    -2.4270 H     1 <1>   0.1500 
@<TRIPOS>BOND
  1   1   2  2   
  2   2   3  am  
  3   2   4  1   
  4   3   5  1   
  5   3   6  1   
  6   4   7  1   
  7   4  28  1   
  8   4  29  1   
  9   5   8  1   
 10   5   9  1   
 11   5  30  1   
 12   6  10  1   
 13   6  31  1   
 14   6  32  1   
 15   7  11  1   
 16   7  33  1   
 17   7  34  1   
 18   8  12  1   
 19   8  13  1   
 20   8  14  1   
 21   9  15  1   
 22   9  35  1   
 23   9  36  1   
 24  10  13  1   
 25  10  37  1   
 26  10  38  1   
 27  11  16  1   
 28  11  39  1   
 29  11  40  1   
 30  12  17  1   
 31  12  41  1   
 32  12  42  1   
 33  13  43  1   
 34  13  44  1   
 35  14  18  1   
 36  14  45  1   
 37  14  46  1   
 38  15  17  1   
 39  15  19  1   
 40  15  47  1   
 41  16  20  2   
 42  16  21  1   
 43  17  48  1   
 44  17  49  1   
 45  18  50  1   
 46  19  22  1   
 47  19  51  1   
 48  19  52  1   
 49  21  23  ar  
 50  21  24  ar  
 51  22  53  1   
 52  22  54  1   
 53  22  55  1   
 54  23  25  ar  
 55  23  56  1   
 56  24  26  ar  
 57  24  57  1   
 58  25  27  ar  
 59  25  58  1   
 60  26  27  ar  
 61  26  59  1   
 62  27  60  1   
@<TRIPOS>SUBSTRUCTURE
  1 ****   2 GROUP 4 **** **** 0

# MOE 2024.06 (io_trps.svl 2023.06)
