@<TRIPOS>MOLECULE
NONAME
23 23 1 0 0 
SMALL
USER_CHARGES


@<TRIPOS>ATOM
  1 F        0.2800    -0.2160    -1.1260 F     1 <1>  -0.1900 
  2 C        1.2370    -0.8180    -0.4690 C.ar  1 <1>   0.1900 
  3 C        1.1580    -2.1980    -0.2960 C.ar  1 <1>  -0.1790 
  4 C        2.2730    -0.0380     0.0410 C.ar  1 <1>  -0.1440 
  5 C        0.0910    -3.0080    -0.8460 C.2   1 <1>   0.9790 
  6 C        2.1730    -2.7910     0.4540 C.ar  1 <1>  -0.1500 
  7 C        3.2660    -0.6780     0.7700 C.ar  1 <1>  -0.1500 
  8 C        2.3350     1.4780    -0.1790 C.3   1 <1>   0.0630 
  9 O       -0.4300    -3.8950    -0.1460 O.co2 1 <1>  -0.9000 
 10 O       -0.2780    -2.8890    -2.0270 O.co2 1 <1>  -0.9000 
 11 C        3.2130    -2.0460     0.9780 C.ar  1 <1>  -0.1500 
 12 C        3.6020     1.8680    -0.9480 C.3   1 <1>  -0.2400 
 13 C        2.2590     2.2260     1.1570 C.3   1 <1>  -0.2400 
 14 H        2.1270    -3.8550     0.6200 H     1 <1>   0.1500 
 15 H        4.0840    -0.1180     1.1830 H     1 <1>   0.1500 
 16 H        1.4940     1.7940    -0.7710 H     1 <1>   0.0800 
 17 H        3.9820    -2.5340     1.5490 H     1 <1>   0.1500 
 18 H        4.4850     1.6380    -0.3800 H     1 <1>   0.0800 
 19 H        3.5950     2.9210    -1.1660 H     1 <1>   0.0800 
 20 H        3.6400     1.3270    -1.8770 H     1 <1>   0.0800 
 21 H        3.1090     1.9990     1.7740 H     1 <1>   0.0800 
 22 H        1.3670     1.9360     1.6820 H     1 <1>   0.0800 
 23 H        2.2280     3.2870     0.9870 H     1 <1>   0.0800 
@<TRIPOS>BOND
  1   1   2  1   
  2   2   3  ar  
  3   2   4  ar  
  4   3   5  1   
  5   3   6  ar  
  6   4   7  ar  
  7   4   8  1   
  8   5   9  ar  
  9   5  10  ar  
 10   6  11  ar  
 11   6  14  1   
 12   7  11  ar  
 13   7  15  1   
 14   8  12  1   
 15   8  13  1   
 16   8  16  1   
 17  11  17  1   
 18  12  18  1   
 19  12  19  1   
 20  12  20  1   
 21  13  21  1   
 22  13  22  1   
 23  13  23  1   
@<TRIPOS>SUBSTRUCTURE
  1 ****   2 GROUP 4 **** **** 0

# MOE 2024.06 (io_trps.svl 2023.06)
