@<TRIPOS>MOLECULE
NONAME
49 52 1 0 0 
SMALL
USER_CHARGES


@<TRIPOS>ATOM
  1 O        1.1060     0.3940     0.6810 O.2   1 <1>  -0.5700 
  2 C        1.8480    -0.5460     0.5330 C.2   1 <1>   0.5690 
  3 N        3.1820    -0.4360     0.8400 N.am  1 <1>  -0.6600 
  4 C        1.2540    -1.8220    -0.0370 C.3   1 <1>  -0.0990 
  5 C        3.6680     0.7100     1.6820 C.3   1 <1>   0.1400 
  6 C        4.2620    -1.3320     0.3330 C.3   1 <1>   0.1400 
  7 C        1.1430    -2.9200     1.0280 C.3   1 <1>  -0.0160 
  8 C        4.5720     1.7420     0.9480 C.3   1 <1>   0.4230 
  9 C        5.1410    -0.6040    -0.7100 C.3   1 <1>  -0.0800 
 10 C        0.6380    -4.2110     0.4060 C.ar  1 <1>  -0.1440 
 11 N        4.3590     1.8650    -0.5500 N.4   1 <1>  -0.9590 
 12 C        6.0650     1.5360     1.2870 C.3   1 <1>   0.1200 
 13 C        6.5480    -0.2650    -0.1900 C.3   1 <1>   0.1200 
 14 C        4.4280     0.5960    -1.3610 C.3   1 <1>   0.3430 
 15 C       -0.7200    -4.3670     0.1470 C.ar  1 <1>  -0.1500 
 16 C        1.5290    -5.2380     0.0930 C.ar  1 <1>  -0.1500 
 17 C        3.0520     2.5440    -0.8200 C.3   1 <1>   0.2630 
 18 O        6.4910     0.2210     1.1110 O.3   1 <1>  -0.5600 
 19 C       -1.1450    -5.5510    -0.4230 C.ar  1 <1>   0.0820 
 20 C        1.0830    -6.4220    -0.4800 C.ar  1 <1>  -0.1500 
 21 O       -2.3890    -5.9110    -0.7560 O.3   1 <1>  -0.3630 
 22 C       -0.2690    -6.5500    -0.7290 C.ar  1 <1>   0.0820 
 23 C       -2.2990    -7.2240    -1.3070 C.3   1 <1>   0.4000 
 24 O       -0.9200    -7.5860    -1.2680 O.3   1 <1>  -0.3620 
 25 H        0.2680    -1.6030    -0.4080 H     1 <1>   0.0800 
 26 H        1.8320    -2.1650    -0.8720 H     1 <1>   0.0800 
 27 H        2.8250     1.2420     2.0880 H     1 <1>   0.0800 
 28 H        4.1980     0.3130     2.5300 H     1 <1>   0.0800 
 29 H        4.8590    -1.6770     1.1620 H     1 <1>   0.0800 
 30 H        3.8370    -2.2090    -0.1210 H     1 <1>   0.0800 
 31 H        0.4630    -2.6030     1.8010 H     1 <1>   0.0800 
 32 H        2.0990    -3.0890     1.4900 H     1 <1>   0.0800 
 33 H        4.3280     2.6990     1.3770 H     1 <1>   0.0800 
 34 H        5.2980    -1.3100    -1.5050 H     1 <1>   0.0800 
 35 H        5.1050     2.4790    -0.8970 H     1 <1>   0.4500 
 36 H        6.2180     1.7630     2.3280 H     1 <1>   0.0800 
 37 H        6.6960     2.1910     0.7120 H     1 <1>   0.0800 
 38 H        7.0610     0.4430    -0.8180 H     1 <1>   0.0800 
 39 H        7.1380    -1.1650    -0.1500 H     1 <1>   0.0800 
 40 H        3.4240     0.2800    -1.5950 H     1 <1>   0.0800 
 41 H        4.9130     0.8150    -2.2980 H     1 <1>   0.0800 
 42 H       -1.4360    -3.5990     0.3780 H     1 <1>   0.1500 
 43 H        2.5790    -5.1240     0.2960 H     1 <1>   0.1500 
 44 H        2.2330     1.9340    -0.4780 H     1 <1>   0.0800 
 45 H        2.9280     2.7180    -1.8770 H     1 <1>   0.0800 
 46 H        3.0050     3.4920    -0.3100 H     1 <1>   0.0800 
 47 H        1.7560    -7.2230    -0.7260 H     1 <1>   0.1500 
 48 H       -2.8680    -7.9080    -0.7030 H     1 <1>   0.0800 
 49 H       -2.6410    -7.2120    -2.3260 H     1 <1>   0.0800 
@<TRIPOS>BOND
  1   1   2  2   
  2   2   3  am  
  3   2   4  1   
  4   3   5  1   
  5   3   6  1   
  6   4   7  1   
  7   4  25  1   
  8   4  26  1   
  9   5   8  1   
 10   5  27  1   
 11   5  28  1   
 12   6   9  1   
 13   6  29  1   
 14   6  30  1   
 15   7  10  1   
 16   7  31  1   
 17   7  32  1   
 18   8  11  1   
 19   8  12  1   
 20   8  33  1   
 21   9  13  1   
 22   9  14  1   
 23   9  34  1   
 24  10  15  ar  
 25  10  16  ar  
 26  11  14  1   
 27  11  17  1   
 28  11  35  1   
 29  12  18  1   
 30  12  36  1   
 31  12  37  1   
 32  13  18  1   
 33  13  38  1   
 34  13  39  1   
 35  14  40  1   
 36  14  41  1   
 37  15  19  ar  
 38  15  42  1   
 39  16  20  ar  
 40  16  43  1   
 41  17  44  1   
 42  17  45  1   
 43  17  46  1   
 44  19  21  1   
 45  19  22  ar  
 46  20  22  ar  
 47  20  47  1   
 48  21  23  1   
 49  22  24  1   
 50  23  24  1   
 51  23  48  1   
 52  23  49  1   
@<TRIPOS>SUBSTRUCTURE
  1 ****   4 GROUP 4 **** **** 0

# MOE 2024.06 (io_trps.svl 2023.06)
