@<TRIPOS>MOLECULE
NONAME
40 43 1 0 0 
SMALL
USER_CHARGES


@<TRIPOS>ATOM
  1 O       -0.0160    -0.0770    -0.2990 O.2   1 <1>  -0.5700 
  2 C        1.0740    -0.6230    -0.3270 C.2   1 <1>   0.5440 
  3 N        2.2180     0.1390    -0.3900 N.am  1 <1>  -0.4940 
  4 C        1.1820    -2.0680    -0.2490 C.ar  1 <1>   0.0860 
  5 C        2.3640     1.5340    -0.6040 C.2   1 <1>  -0.0880 
  6 C        0.1830    -2.8370     0.3810 C.ar  1 <1>  -0.1520 
  7 C        2.2610    -2.7770    -0.7670 C.ar  1 <1>  -0.1500 
  8 N        3.5060     2.2480    -0.3960 N.pl3 1 <1>   0.3140 
  9 C        1.4440     2.4180    -1.0570 C.2   1 <1>  -0.1500 
 10 N       -0.9960    -2.4310     0.9470 N.pl3 1 <1>   0.0330 
 11 C        0.2780    -4.2180     0.5160 C.ar  1 <1>   0.0000 
 12 C        2.3660    -4.1650    -0.6440 C.ar  1 <1>  -0.1500 
 13 N        3.3350     3.5540    -0.7240 N.2   1 <1>  -0.7070 
 14 C        4.7960     1.6990     0.1180 C.3   1 <1>   0.1760 
 15 C        2.1000     3.6390    -1.1100 C.2   1 <1>   0.1390 
 16 C       -1.6340    -3.5320     1.4450 C.2   1 <1>  -0.3020 
 17 C        1.3860    -4.8880    -0.0020 C.ar  1 <1>  -0.1500 
 18 C       -0.8840    -4.6330     1.2010 C.2   1 <1>  -0.1500 
 19 C        5.6560     2.6950     0.8990 C.3   1 <1>  -0.1600 
 20 C        5.7170     1.2240    -1.0070 C.3   1 <1>  -0.1600 
 21 C        7.0540     2.0790     0.8740 C.3   1 <1>  -0.1600 
 22 C        7.1370     1.2760    -0.4300 C.3   1 <1>  -0.1600 
 23 H        3.0770    -0.3870    -0.2430 H     1 <1>   0.3700 
 24 H        3.0450    -2.2610    -1.2910 H     1 <1>   0.1500 
 25 H        0.4210     2.2340    -1.3270 H     1 <1>   0.1500 
 26 H       -1.3260    -1.4550     0.9350 H     1 <1>   0.2700 
 27 H        3.2210    -4.6710    -1.0580 H     1 <1>   0.1500 
 28 H        4.5780     0.8710     0.7680 H     1 <1>   0.0800 
 29 H        1.6440     4.5590    -1.4360 H     1 <1>   0.1500 
 30 H       -2.5870    -3.4620     1.9400 H     1 <1>   0.1500 
 31 H        1.4520    -5.9560     0.1030 H     1 <1>   0.1500 
 32 H       -1.0990    -5.6550     1.4600 H     1 <1>   0.1500 
 33 H        5.2950     2.8400     1.9020 H     1 <1>   0.0800 
 34 H        5.6870     3.6420     0.3870 H     1 <1>   0.0800 
 35 H        5.6510     1.9130    -1.8340 H     1 <1>   0.0800 
 36 H        5.4600     0.2360    -1.3440 H     1 <1>   0.0800 
 37 H        7.1690     1.4130     1.7130 H     1 <1>   0.0800 
 38 H        7.8180     2.8370     0.9260 H     1 <1>   0.0800 
 39 H        7.8010     1.7570    -1.1290 H     1 <1>   0.0800 
 40 H        7.5070     0.2850    -0.2310 H     1 <1>   0.0800 
@<TRIPOS>BOND
  1   1   2  2   
  2   2   3  am  
  3   2   4  1   
  4   3   5  1   
  5   3  23  1   
  6   4   6  ar  
  7   4   7  ar  
  8   5   8  1   
  9   5   9  2   
 10   6  10  1   
 11   6  11  ar  
 12   7  12  ar  
 13   7  24  1   
 14   8  13  1   
 15   8  14  1   
 16   9  15  1   
 17   9  25  1   
 18  10  16  1   
 19  10  26  1   
 20  11  17  ar  
 21  11  18  1   
 22  12  17  ar  
 23  12  27  1   
 24  13  15  2   
 25  14  19  1   
 26  14  20  1   
 27  14  28  1   
 28  15  29  1   
 29  16  18  2   
 30  16  30  1   
 31  17  31  1   
 32  18  32  1   
 33  19  21  1   
 34  19  33  1   
 35  19  34  1   
 36  20  22  1   
 37  20  35  1   
 38  20  36  1   
 39  21  22  1   
 40  21  37  1   
 41  21  38  1   
 42  22  39  1   
 43  22  40  1   
@<TRIPOS>SUBSTRUCTURE
  1 ****   3 GROUP 4 **** **** 0

# MOE 2024.06 (io_trps.svl 2023.06)
