@<TRIPOS>MOLECULE
NONAME
52 54 1 0 0 
SMALL
USER_CHARGES


@<TRIPOS>ATOM
  1 O       -0.1040     0.4230     0.5930 O.2   1 <1>  -0.5700 
  2 C       -0.0870     1.6310     0.4490 C.2   1 <1>   0.5440 
  3 N       -1.2510     2.3420     0.6600 N.am  1 <1>  -0.6600 
  4 C        1.1440     2.2840     0.0450 C.ar  1 <1>   0.0860 
  5 C       -1.4350     3.7510     0.2050 C.3   1 <1>   0.1400 
  6 C       -2.4480     1.6570     1.2290 C.3   1 <1>   0.1400 
  7 C        1.6790     3.3430     0.7730 C.ar  1 <1>  -0.1500 
  8 C        1.8300     1.8730    -1.0930 C.ar  1 <1>  -0.1500 
  9 C       -2.8330     3.9100    -0.3900 C.3   1 <1>  -0.1600 
 10 C       -3.4560     2.6820     1.7520 C.3   1 <1>  -0.1600 
 11 C        2.8380     3.9860     0.3760 C.ar  1 <1>   0.0830 
 12 C        2.9910     2.5010    -1.5080 C.ar  1 <1>   0.0830 
 13 C       -3.9520     3.6510     0.6530 C.3   1 <1>   0.2800 
 14 O        3.2560     5.0130     1.1560 O.3   1 <1>  -0.3630 
 15 C        3.5000     3.5660    -0.7730 C.ar  1 <1>  -0.1500 
 16 O        3.5660     2.0230    -2.6400 O.3   1 <1>  -0.3630 
 17 O       -4.2380     4.8410     1.3380 O.3   1 <1>  -0.5600 
 18 C       -5.2490     3.1010     0.0100 C.3   1 <1>  -0.1600 
 19 C        4.4560     5.7040     0.8880 C.3   1 <1>   0.0400 
 20 C        4.7860     2.5380    -3.1250 C.3   1 <1>   0.0400 
 21 C       -4.9190     5.8800     0.6900 C.3   1 <1>   0.1200 
 22 C       -6.0820     4.1460    -0.7350 C.3   1 <1>   0.2800 
 23 C       -6.2570     5.3840     0.1410 C.3   1 <1>  -0.1600 
 24 O       -5.4160     4.5130    -1.8780 O.3   1 <1>  -0.6800 
 25 C       -7.4270     3.5820    -1.1870 C.3   1 <1>  -0.2400 
 26 H       -0.7040     4.0020    -0.5440 H     1 <1>   0.0800 
 27 H       -1.3130     4.4180     1.0420 H     1 <1>   0.0800 
 28 H       -2.1370     1.0120     2.0340 H     1 <1>   0.0800 
 29 H       -2.8980     1.0470     0.4650 H     1 <1>   0.0800 
 30 H        1.1820     3.6720     1.6680 H     1 <1>   0.1500 
 31 H        1.4480     1.0460    -1.6650 H     1 <1>   0.1500 
 32 H       -2.9160     3.1980    -1.1920 H     1 <1>   0.0800 
 33 H       -2.9080     4.8840    -0.8270 H     1 <1>   0.0800 
 34 H       -2.9690     3.2400     2.5330 H     1 <1>   0.0800 
 35 H       -4.2780     2.1630     2.2070 H     1 <1>   0.0800 
 36 H        4.3960     4.0590    -1.0880 H     1 <1>   0.1500 
 37 H       -5.8700     2.7090     0.7940 H     1 <1>   0.0800 
 38 H       -5.0240     2.2760    -0.6420 H     1 <1>   0.0800 
 39 H        4.5880     6.4510     1.6500 H     1 <1>   0.0800 
 40 H        4.3810     6.1760    -0.0760 H     1 <1>   0.0800 
 41 H        5.2740     5.0060     0.9150 H     1 <1>   0.0800 
 42 H        5.0520     1.9860    -4.0080 H     1 <1>   0.0800 
 43 H        5.5430     2.4090    -2.3720 H     1 <1>   0.0800 
 44 H        4.6540     3.5770    -3.3700 H     1 <1>   0.0800 
 45 H       -4.3000     6.2850    -0.0900 H     1 <1>   0.0800 
 46 H       -5.0860     6.6560     1.4170 H     1 <1>   0.0800 
 47 H       -6.7400     6.1650    -0.4170 H     1 <1>   0.0800 
 48 H       -6.8910     5.1440     0.9760 H     1 <1>   0.0800 
 49 H       -4.5200     4.8070    -1.6410 H     1 <1>   0.4000 
 50 H       -8.0100     3.2780    -0.3370 H     1 <1>   0.0800 
 51 H       -7.2780     2.7260    -1.8210 H     1 <1>   0.0800 
 52 H       -7.9800     4.3280    -1.7300 H     1 <1>   0.0800 
@<TRIPOS>BOND
  1   1   2  2   
  2   2   3  am  
  3   2   4  1   
  4   3   5  1   
  5   3   6  1   
  6   4   7  ar  
  7   4   8  ar  
  8   5   9  1   
  9   5  26  1   
 10   5  27  1   
 11   6  10  1   
 12   6  28  1   
 13   6  29  1   
 14   7  11  ar  
 15   7  30  1   
 16   8  12  ar  
 17   8  31  1   
 18   9  13  1   
 19   9  32  1   
 20   9  33  1   
 21  10  13  1   
 22  10  34  1   
 23  10  35  1   
 24  11  14  1   
 25  11  15  ar  
 26  12  15  ar  
 27  12  16  1   
 28  13  17  1   
 29  13  18  1   
 30  14  19  1   
 31  15  36  1   
 32  16  20  1   
 33  17  21  1   
 34  18  22  1   
 35  18  37  1   
 36  18  38  1   
 37  19  39  1   
 38  19  40  1   
 39  19  41  1   
 40  20  42  1   
 41  20  43  1   
 42  20  44  1   
 43  21  23  1   
 44  21  45  1   
 45  21  46  1   
 46  22  23  1   
 47  22  24  1   
 48  22  25  1   
 49  23  47  1   
 50  23  48  1   
 51  24  49  1   
 52  25  50  1   
 53  25  51  1   
 54  25  52  1   
@<TRIPOS>SUBSTRUCTURE
  1 ****   5 GROUP 4 **** **** 0

# MOE 2024.06 (io_trps.svl 2023.06)
