@<TRIPOS>MOLECULE
NONAME
54 55 1 0 0 
SMALL
USER_CHARGES


@<TRIPOS>ATOM
  1 O       -0.4780     0.3010    -1.0800 O.2   1 <1>  -0.5700 
  2 C       -1.5150     0.8920    -0.8320 C.2   1 <1>   0.6160 
  3 N       -2.6650     0.1530    -0.6340 N.am  1 <1>  -0.6600 
  4 C       -1.4850     2.3200    -0.6880 C.2   1 <1>   0.0290 
  5 C       -3.9890     0.7370    -0.2700 C.3   1 <1>   0.1400 
  6 C       -2.7230    -1.3190    -0.8790 C.3   1 <1>   0.1400 
  7 C       -2.1640     3.0870    -1.6880 C.2   1 <1>   0.6160 
  8 C       -0.8420     2.9850     0.3360 C.2   1 <1>  -0.1380 
  9 C       -4.6650    -0.0900     0.8460 C.3   1 <1>   0.2000 
 10 C       -3.4750    -2.0400     0.2600 C.3   1 <1>   0.2000 
 11 O       -2.8020     2.6130    -2.6170 O.2   1 <1>  -0.5700 
 12 N       -2.1390     4.4510    -1.6000 N.am  1 <1>  -0.5390 
 13 C       -0.8560     4.3980     0.3710 C.2   1 <1>  -0.1500 
 14 C       -0.0910     2.2770     1.4580 C.3   1 <1>  -0.1020 
 15 O       -4.7210    -1.4400     0.4740 O.3   1 <1>  -0.5600 
 16 C       -6.0980     0.3710     1.2000 C.3   1 <1>  -0.0800 
 17 C       -3.7450    -3.5200    -0.0390 C.3   1 <1>  -0.1600 
 18 C       -1.5000     5.1140    -0.5920 C.2   1 <1>  -0.0290 
 19 C       -7.0880     0.2680     0.0260 C.3   1 <1>  -0.2400 
 20 C       -6.1180     1.8000     1.7650 C.3   1 <1>  -0.2400 
 21 C       -2.4610    -4.3570    -0.1530 C.3   1 <1>  -0.1600 
 22 C       -1.5480     6.6280    -0.6170 C.3   1 <1>  -0.1020 
 23 C       -2.7880    -5.8410    -0.3580 C.3   1 <1>  -0.1600 
 24 C       -1.5090    -6.6760    -0.4750 C.3   1 <1>  -0.2400 
 25 H       -3.8730     1.7500     0.0670 H     1 <1>   0.0800 
 26 H       -4.6120     0.7470    -1.1470 H     1 <1>   0.0800 
 27 H       -3.2300    -1.4980    -1.8100 H     1 <1>   0.0800 
 28 H       -1.7310    -1.7230    -0.9610 H     1 <1>   0.0800 
 29 H       -4.0620    -0.0250     1.7350 H     1 <1>   0.0800 
 30 H       -2.9070    -1.9610     1.1710 H     1 <1>   0.0800 
 31 H       -2.6280     4.9340    -2.3540 H     1 <1>   0.3700 
 32 H       -0.3430     4.8970     1.1750 H     1 <1>   0.1500 
 33 H       -0.4110     2.6560     2.4130 H     1 <1>   0.0800 
 34 H        0.9650     2.4520     1.3530 H     1 <1>   0.0800 
 35 H       -0.2570     1.2150     1.4490 H     1 <1>   0.0800 
 36 H       -6.4460    -0.2850     1.9810 H     1 <1>   0.0800 
 37 H       -4.3480    -3.9180     0.7590 H     1 <1>   0.0800 
 38 H       -4.3070    -3.5980    -0.9540 H     1 <1>   0.0800 
 39 H       -6.8360     0.9550    -0.7610 H     1 <1>   0.0800 
 40 H       -8.0850     0.4890     0.3630 H     1 <1>   0.0800 
 41 H       -7.0860    -0.7310    -0.3750 H     1 <1>   0.0800 
 42 H       -5.8500     2.5210     1.0130 H     1 <1>   0.0800 
 43 H       -5.4340     1.8870     2.5910 H     1 <1>   0.0800 
 44 H       -7.1050     2.0400     2.1230 H     1 <1>   0.0800 
 45 H       -1.8690    -4.0130    -0.9830 H     1 <1>   0.0800 
 46 H       -1.8780    -4.2430     0.7460 H     1 <1>   0.0800 
 47 H       -1.0990     6.9950    -1.5220 H     1 <1>   0.0800 
 48 H       -1.0140     7.0390     0.2200 H     1 <1>   0.0800 
 49 H       -2.5690     6.9640    -0.5710 H     1 <1>   0.0800 
 50 H       -3.3710    -6.2020     0.4720 H     1 <1>   0.0800 
 51 H       -3.3720    -5.9610    -1.2550 H     1 <1>   0.0800 
 52 H       -0.9190    -6.5870     0.4200 H     1 <1>   0.0800 
 53 H       -0.9200    -6.3470    -1.3130 H     1 <1>   0.0800 
 54 H       -1.7590    -7.7120    -0.6190 H     1 <1>   0.0800 
@<TRIPOS>BOND
  1   1   2  2   
  2   2   3  am  
  3   2   4  1   
  4   3   5  1   
  5   3   6  1   
  6   4   7  1   
  7   4   8  2   
  8   5   9  1   
  9   5  25  1   
 10   5  26  1   
 11   6  10  1   
 12   6  27  1   
 13   6  28  1   
 14   7  11  2   
 15   7  12  am  
 16   8  13  1   
 17   8  14  1   
 18   9  15  1   
 19   9  16  1   
 20   9  29  1   
 21  10  15  1   
 22  10  17  1   
 23  10  30  1   
 24  12  18  1   
 25  12  31  1   
 26  13  18  2   
 27  13  32  1   
 28  14  33  1   
 29  14  34  1   
 30  14  35  1   
 31  16  19  1   
 32  16  20  1   
 33  16  36  1   
 34  17  21  1   
 35  17  37  1   
 36  17  38  1   
 37  18  22  1   
 38  19  39  1   
 39  19  40  1   
 40  19  41  1   
 41  20  42  1   
 42  20  43  1   
 43  20  44  1   
 44  21  23  1   
 45  21  45  1   
 46  21  46  1   
 47  22  47  1   
 48  22  48  1   
 49  22  49  1   
 50  23  24  1   
 51  23  50  1   
 52  23  51  1   
 53  24  52  1   
 54  24  53  1   
 55  24  54  1   
@<TRIPOS>SUBSTRUCTURE
  1 ****   3 GROUP 4 **** **** 0

# MOE 2024.06 (io_trps.svl 2023.06)
