@<TRIPOS>MOLECULE
NONAME
59 62 1 0 0 
SMALL
USER_CHARGES


@<TRIPOS>ATOM
  1 O        0.3140    -2.1090    -0.2270 O.3   1 <1>  -0.3630 
  2 C       -0.1960    -3.1630     0.4520 C.ar  1 <1>   0.0830 
  3 C        1.6700    -1.7390    -0.0990 C.3   1 <1>   0.1200 
  4 C        0.5780    -4.0760     1.1610 C.ar  1 <1>  -0.1500 
  5 C       -1.5710    -3.3220     0.4140 C.ar  1 <1>  -0.1500 
  6 C        1.9050    -0.4600    -0.8990 C.3   1 <1>  -0.0160 
  7 C       -0.0230    -5.1460     1.8000 C.ar  1 <1>  -0.1500 
  8 C       -2.1720    -4.3880     1.0580 C.ar  1 <1>  -0.1500 
  9 C        3.3700    -0.0650    -0.8200 C.ar  1 <1>  -0.1440 
 10 C       -1.4000    -5.3130     1.7460 C.ar  1 <1>  -0.1430 
 11 C        4.2610    -0.4730    -1.8010 C.ar  1 <1>  -0.1500 
 12 C        3.8290     0.7030     0.2400 C.ar  1 <1>  -0.1500 
 13 C       -2.0440    -6.5210     2.3940 C.3   1 <1>   0.4860 
 14 C        5.5970    -0.1200    -1.7230 C.ar  1 <1>  -0.1500 
 15 C        5.1650     1.0570     0.3190 C.ar  1 <1>  -0.1500 
 16 N       -2.2500    -7.4820     1.2960 N.4   1 <1>  -0.9590 
 17 C        6.0500     0.6450    -0.6620 C.ar  1 <1>  -0.1500 
 18 C       -3.6340    -7.6270     0.7700 C.3   1 <1>   0.3430 
 19 C       -1.6640    -8.8320     1.4040 C.3   1 <1>   0.3430 
 20 C       -3.6570    -8.9830     0.0500 C.3   1 <1>   0.2000 
 21 C       -2.2530    -9.5870     0.2090 C.3   1 <1>  -0.0800 
 22 O       -4.5810    -9.8160     0.6690 O.3   1 <1>  -0.6800 
 23 C       -1.3960    -9.4430    -1.0750 C.3   1 <1>   0.0210 
 24 C       -0.8030    -8.0620    -1.3310 C.2   1 <1>   0.1080 
 25 N       -1.4980    -6.9640    -1.3710 N.2   1 <1>  -0.7070 
 26 C        0.5500    -7.8270    -1.5430 C.2   1 <1>  -0.1500 
 27 N       -0.5930    -5.9900    -1.6280 N.pl3 1 <1>   0.3000 
 28 C        0.6530    -6.4950    -1.7280 C.2   1 <1>  -0.3320 
 29 C        1.8840    -5.6550    -2.0140 C.3   1 <1>  -0.0600 
 30 H        1.8850    -1.5740     0.9430 H     1 <1>   0.0800 
 31 H        2.2820    -2.5350    -0.4820 H     1 <1>   0.0800 
 32 H        1.6460    -3.9730     1.2210 H     1 <1>   0.1500 
 33 H       -2.1640    -2.6020    -0.1230 H     1 <1>   0.1500 
 34 H        1.6260    -0.6210    -1.9250 H     1 <1>   0.0800 
 35 H        1.2940     0.3310    -0.5000 H     1 <1>   0.0800 
 36 H        0.5970    -5.8470     2.3330 H     1 <1>   0.1500 
 37 H       -3.2440    -4.4860     1.0100 H     1 <1>   0.1500 
 38 H        3.9200    -1.0660    -2.6310 H     1 <1>   0.1500 
 39 H        3.1510     1.0300     1.0080 H     1 <1>   0.1500 
 40 H       -2.9820    -6.2520     2.8530 H     1 <1>   0.0800 
 41 H       -1.3870    -6.9320     3.1420 H     1 <1>   0.0800 
 42 H        6.2840    -0.4380    -2.4870 H     1 <1>   0.1500 
 43 H        5.5160     1.6530     1.1430 H     1 <1>   0.1500 
 44 H       -1.7490    -7.0560     0.4810 H     1 <1>   0.4500 
 45 H        7.0880     0.9210    -0.6010 H     1 <1>   0.1500 
 46 H       -4.3580    -7.6210     1.5670 H     1 <1>   0.0800 
 47 H       -3.8460    -6.8320     0.0730 H     1 <1>   0.0800 
 48 H       -0.5860    -8.8000     1.3620 H     1 <1>   0.0800 
 49 H       -1.9790    -9.2960     2.3240 H     1 <1>   0.0800 
 50 H       -3.9530    -8.8710    -0.9800 H     1 <1>   0.0800 
 51 H       -2.3190   -10.6380     0.4310 H     1 <1>   0.0800 
 52 H       -4.3040   -10.1080     1.5590 H     1 <1>   0.4000 
 53 H       -1.9800    -9.7270    -1.9340 H     1 <1>   0.0800 
 54 H       -0.5800   -10.1420    -1.0160 H     1 <1>   0.0800 
 55 H        1.3350    -8.5640    -1.5630 H     1 <1>   0.1500 
 56 H       -0.8440    -4.9950    -1.7190 H     1 <1>   0.2700 
 57 H        2.7590    -6.2800    -2.0530 H     1 <1>   0.0800 
 58 H        2.0240    -4.9180    -1.2450 H     1 <1>   0.0800 
 59 H        1.7810    -5.1560    -2.9620 H     1 <1>   0.0800 
@<TRIPOS>BOND
  1   1   2  1   
  2   1   3  1   
  3   2   4  ar  
  4   2   5  ar  
  5   3   6  1   
  6   3  30  1   
  7   3  31  1   
  8   4   7  ar  
  9   4  32  1   
 10   5   8  ar  
 11   5  33  1   
 12   6   9  1   
 13   6  34  1   
 14   6  35  1   
 15   7  10  ar  
 16   7  36  1   
 17   8  10  ar  
 18   8  37  1   
 19   9  11  ar  
 20   9  12  ar  
 21  10  13  1   
 22  11  14  ar  
 23  11  38  1   
 24  12  15  ar  
 25  12  39  1   
 26  13  16  1   
 27  13  40  1   
 28  13  41  1   
 29  14  17  ar  
 30  14  42  1   
 31  15  17  ar  
 32  15  43  1   
 33  16  18  1   
 34  16  19  1   
 35  16  44  1   
 36  17  45  1   
 37  18  20  1   
 38  18  46  1   
 39  18  47  1   
 40  19  21  1   
 41  19  48  1   
 42  19  49  1   
 43  20  21  1   
 44  20  22  1   
 45  20  50  1   
 46  21  23  1   
 47  21  51  1   
 48  22  52  1   
 49  23  24  1   
 50  23  53  1   
 51  23  54  1   
 52  24  25  2   
 53  24  26  1   
 54  25  27  1   
 55  26  28  2   
 56  26  55  1   
 57  27  28  1   
 58  27  56  1   
 59  28  29  1   
 60  29  57  1   
 61  29  58  1   
 62  29  59  1   
@<TRIPOS>SUBSTRUCTURE
  1 ****   4 GROUP 4 **** **** 0

# MOE 2024.06 (io_trps.svl 2023.06)
