@<TRIPOS>MOLECULE
NONAME
45 47 1 0 0 
SMALL
USER_CHARGES


@<TRIPOS>ATOM
  1 O       -2.8860     0.9790    -1.8040 O.2   1 <1>  -0.5700 
  2 C       -2.4580     0.7970    -0.6920 C.2   1 <1>   0.5690 
  3 N       -2.2190    -0.4430    -0.2070 N.am  1 <1>  -0.7300 
  4 C       -2.1760     1.9920     0.1880 C.3   1 <1>  -0.0990 
  5 C       -2.3950    -1.7010    -0.9680 C.3   1 <1>   0.2200 
  6 C       -0.8030     2.5870    -0.1340 C.3   1 <1>   0.0200 
  7 C       -3.6230    -2.4680    -0.4940 C.3   1 <1>  -0.0800 
  8 C       -1.2920    -2.6700    -0.5670 C.3   1 <1>   0.1200 
  9 C       -0.5360     3.8100     0.7280 C.2   1 <1>  -0.3320 
 10 C       -3.0960    -3.2580     0.7110 C.3   1 <1>   0.1200 
 11 C       -4.8740    -1.6200    -0.1990 C.3   1 <1>  -0.0160 
 12 O       -1.7000    -3.1830     0.6630 O.3   1 <1>  -0.5600 
 13 N       -1.0660     5.0400     0.5290 N.pl3 1 <1>   0.3140 
 14 C        0.2570     3.9010     1.8170 C.2   1 <1>  -0.1500 
 15 C       -6.0570    -2.5060     0.1600 C.ar  1 <1>  -0.1440 
 16 N       -0.6450     5.9090     1.4630 N.2   1 <1>  -0.7070 
 17 C       -1.9810     5.4700    -0.5370 C.3   1 <1>   0.0160 
 18 C        0.1470     5.2230     2.2270 C.2   1 <1>   0.1390 
 19 C       -6.4290    -2.7420     1.4680 C.ar  1 <1>  -0.1500 
 20 C       -6.8210    -3.1220    -0.8110 C.ar  1 <1>  -0.1500 
 21 C       -7.5110    -3.5650     1.7340 C.ar  1 <1>   0.1600 
 22 C       -7.8850    -3.9260    -0.4380 C.ar  1 <1>   0.1600 
 23 N       -8.2470    -4.1640     0.8120 N.ar  1 <1>  -0.6200 
 24 H       -1.8720    -0.5840     0.7450 H     1 <1>   0.3700 
 25 H       -2.9430     2.7240     0.0200 H     1 <1>   0.0800 
 26 H       -2.2130     1.7030     1.2220 H     1 <1>   0.0800 
 27 H       -2.4080    -1.5080    -2.0280 H     1 <1>   0.0800 
 28 H       -0.7470     2.8510    -1.1770 H     1 <1>   0.0800 
 29 H       -0.0440     1.8480     0.0550 H     1 <1>   0.0800 
 30 H       -3.8770    -3.1820    -1.2580 H     1 <1>   0.0800 
 31 H       -0.3330    -2.1940    -0.4650 H     1 <1>   0.0800 
 32 H       -1.2270    -3.4880    -1.2640 H     1 <1>   0.0800 
 33 H       -3.3930    -4.2930     0.6680 H     1 <1>   0.0800 
 34 H       -3.4140    -2.8280     1.6440 H     1 <1>   0.0800 
 35 H       -5.1190    -1.0330    -1.0670 H     1 <1>   0.0800 
 36 H       -4.6850    -0.9360     0.6090 H     1 <1>   0.0800 
 37 H        0.8540     3.1430     2.2920 H     1 <1>   0.1500 
 38 H       -1.6690     5.0450    -1.4720 H     1 <1>   0.0800 
 39 H       -1.9580     6.5420    -0.6060 H     1 <1>   0.0800 
 40 H       -2.9760     5.1480    -0.2990 H     1 <1>   0.0800 
 41 H        0.6550     5.6420     3.0790 H     1 <1>   0.1500 
 42 H       -5.8900    -2.2970     2.2830 H     1 <1>   0.1500 
 43 H       -6.5990    -2.9840    -1.8540 H     1 <1>   0.1500 
 44 H       -7.7870    -3.7380     2.7600 H     1 <1>   0.1500 
 45 H       -8.4690    -4.3980    -1.2090 H     1 <1>   0.1500 
@<TRIPOS>BOND
  1   1   2  2   
  2   2   3  am  
  3   2   4  1   
  4   3   5  1   
  5   3  24  1   
  6   4   6  1   
  7   4  25  1   
  8   4  26  1   
  9   5   7  1   
 10   5   8  1   
 11   5  27  1   
 12   6   9  1   
 13   6  28  1   
 14   6  29  1   
 15   7  10  1   
 16   7  11  1   
 17   7  30  1   
 18   8  12  1   
 19   8  31  1   
 20   8  32  1   
 21   9  13  1   
 22   9  14  2   
 23  10  12  1   
 24  10  33  1   
 25  10  34  1   
 26  11  15  1   
 27  11  35  1   
 28  11  36  1   
 29  13  16  1   
 30  13  17  1   
 31  14  18  1   
 32  14  37  1   
 33  15  19  ar  
 34  15  20  ar  
 35  16  18  2   
 36  17  38  1   
 37  17  39  1   
 38  17  40  1   
 39  18  41  1   
 40  19  21  ar  
 41  19  42  1   
 42  20  22  ar  
 43  20  43  1   
 44  21  23  ar  
 45  21  44  1   
 46  22  23  ar  
 47  22  45  1   
@<TRIPOS>SUBSTRUCTURE
  1 ****   3 GROUP 4 **** **** 0

# MOE 2024.06 (io_trps.svl 2023.06)
