@<TRIPOS>MOLECULE
NONAME
33 34 1 0 0 
SMALL
USER_CHARGES


@<TRIPOS>ATOM
  1 O        0.3570    -0.3180     1.5400 O.2   1 <1>  -0.5770 
  2 C        1.2330    -0.7630     0.8340 C.2   1 <1>   0.9950 
  3 N        2.2150     0.0680     0.4100 N.pl3 1 <1>  -0.7350 
  4 C        1.3150    -2.1240     0.4260 C.2   1 <1>  -0.2470 
  5 C        2.3640     1.3620     0.6700 C.cat 1 <1>   1.0680 
  6 N        0.3020    -2.8630    -0.1150 N.pl3 1 <1>   0.3040 
  7 C        2.3990    -2.9540     0.4630 C.2   1 <1>  -0.1620 
  8 N        1.5880     2.1000     1.4420 N.pl3 1 <1>  -0.7060 
  9 N        3.3460     2.1180     0.1750 N.pl3 1 <1>  -0.7690 
 10 N        0.7250    -4.1000    -0.4270 N.2   1 <1>  -0.7130 
 11 C       -1.1100    -2.4920    -0.4590 C.3   1 <1>   0.1640 
 12 C        1.9690    -4.1500    -0.0700 C.2   1 <1>   0.1270 
 13 C        2.0720     3.3850     1.4610 C.2   1 <1>   0.1890 
 14 C        3.1630     3.3990     0.6740 C.2   1 <1>   0.1890 
 15 C        4.4650     1.7710    -0.7430 C.3   1 <1>   0.2640 
 16 C       -1.2060    -1.1910    -1.2730 C.3   1 <1>  -0.2510 
 17 C       -2.0130    -2.4600     0.7820 C.3   1 <1>  -0.2510 
 18 H        2.8870    -0.3690    -0.2010 H     1 <1>   0.4410 
 19 H        3.3930    -2.7680     0.8310 H     1 <1>   0.1380 
 20 H        0.7660     1.7070     1.9190 H     1 <1>   0.4410 
 21 H       -1.4790    -3.2810    -1.0920 H     1 <1>   0.0680 
 22 H        2.5770    -5.0340    -0.1870 H     1 <1>   0.1380 
 23 H        1.6130     4.1840     2.0220 H     1 <1>   0.1380 
 24 H        3.8170     4.2250     0.4380 H     1 <1>   0.1380 
 25 H        4.4010     0.7460    -1.0630 H     1 <1>   0.0680 
 26 H        5.4070     1.9190    -0.2400 H     1 <1>   0.0680 
 27 H        4.4340     2.4060    -1.6120 H     1 <1>   0.0680 
 28 H       -1.0150    -0.3240    -0.6700 H     1 <1>   0.0680 
 29 H       -2.2020    -1.0960    -1.6660 H     1 <1>   0.0680 
 30 H       -0.5240    -1.2210    -2.1040 H     1 <1>   0.0680 
 31 H       -1.7520    -1.6600     1.4470 H     1 <1>   0.0680 
 32 H       -1.9420    -3.3950     1.3080 H     1 <1>   0.0680 
 33 H       -3.0360    -2.3230     0.4810 H     1 <1>   0.0680 
@<TRIPOS>BOND
  1   1   2  2   
  2   2   3  1   
  3   2   4  1   
  4   3   5  ar  
  5   3  18  1   
  6   4   6  1   
  7   4   7  2   
  8   5   8  ar  
  9   5   9  ar  
 10   6  10  1   
 11   6  11  1   
 12   7  12  1   
 13   7  19  1   
 14   8  13  1   
 15   8  20  1   
 16   9  14  1   
 17   9  15  1   
 18  10  12  2   
 19  11  16  1   
 20  11  17  1   
 21  11  21  1   
 22  12  22  1   
 23  13  14  2   
 24  13  23  1   
 25  14  24  1   
 26  15  25  1   
 27  15  26  1   
 28  15  27  1   
 29  16  28  1   
 30  16  29  1   
 31  16  30  1   
 32  17  31  1   
 33  17  32  1   
 34  17  33  1   
@<TRIPOS>SUBSTRUCTURE
  1 ****   2 GROUP 4 **** **** 0

# MOE 2024.06 (io_trps.svl 2023.06)
