@<TRIPOS>MOLECULE
NONAME
53 56 1 0 0 
SMALL
USER_CHARGES


@<TRIPOS>ATOM
  1 F       -0.9060    -3.0260     1.9420 F     1 <1>  -0.1900 
  2 C        0.0590    -3.2640     1.0900 C.ar  1 <1>   0.1900 
  3 C        0.0470    -4.4390     0.3810 C.ar  1 <1>  -0.1500 
  4 C        1.0580    -2.2980     0.9500 C.ar  1 <1>  -0.1500 
  5 C        1.0840    -4.6780    -0.5310 C.ar  1 <1>   0.0000 
  6 C        2.0840    -2.5270     0.0630 C.ar  1 <1>  -0.1500 
  7 C        2.0880    -3.7200    -0.6690 C.ar  1 <1>  -0.1520 
  8 C        1.4110    -5.7320    -1.4210 C.2   1 <1>  -0.1810 
  9 N        2.9900    -4.1780    -1.5920 N.pl3 1 <1>   0.0330 
 10 C        2.5700    -5.3950    -2.0460 C.2   1 <1>  -0.3320 
 11 C        0.5710    -6.9940    -1.6210 C.3   1 <1>   0.0820 
 12 C        3.3820    -6.1430    -3.0900 C.3   1 <1>  -0.0600 
 13 C        0.1850    -7.7080    -0.3290 C.2   1 <1>   0.5690 
 14 O        1.0580    -8.2650     0.2970 O.2   1 <1>  -0.5700 
 15 N       -1.1180    -7.7540     0.0960 N.am  1 <1>  -0.6600 
 16 C       -2.3180    -7.1990    -0.5820 C.3   1 <1>   0.1400 
 17 C       -1.4980    -8.3580     1.3950 C.3   1 <1>   0.1400 
 18 C       -3.4060    -7.2150     0.4920 C.3   1 <1>  -0.0800 
 19 C       -3.0280    -8.4190     1.3700 C.3   1 <1>  -0.0800 
 20 C       -4.8630    -7.2240    -0.0330 C.3   1 <1>   0.2800 
 21 C       -3.4940    -9.7630     0.7720 C.3   1 <1>  -0.1600 
 22 O       -4.9430    -6.3280    -1.0780 O.3   1 <1>  -0.6800 
 23 C       -5.2500    -8.5980    -0.6100 C.3   1 <1>  -0.1600 
 24 C       -5.8840    -6.7770     1.0430 C.3   1 <1>  -0.1600 
 25 C       -4.9730    -9.7450     0.3750 C.3   1 <1>  -0.1600 
 26 C       -5.7980    -5.3080     1.5000 C.3   1 <1>  -0.2400 
 27 H       -0.7330    -5.1540     0.5290 H     1 <1>   0.1500 
 28 H        1.0070    -1.3990     1.5360 H     1 <1>   0.1500 
 29 H        2.8740    -1.8090    -0.0700 H     1 <1>   0.1500 
 30 H        3.8390    -3.6830    -1.8800 H     1 <1>   0.2700 
 31 H        1.1210    -7.7000    -2.2090 H     1 <1>   0.0800 
 32 H       -0.3010    -6.7330    -2.1850 H     1 <1>   0.0800 
 33 H        2.9120    -7.0680    -3.3640 H     1 <1>   0.0800 
 34 H        4.3610    -6.3640    -2.7020 H     1 <1>   0.0800 
 35 H        3.4860    -5.5420    -3.9760 H     1 <1>   0.0800 
 36 H       -2.1510    -6.1980    -0.9400 H     1 <1>   0.0800 
 37 H       -2.5840    -7.8360    -1.4070 H     1 <1>   0.0800 
 38 H       -1.0510    -9.3310     1.5130 H     1 <1>   0.0800 
 39 H       -1.1590    -7.7140     2.1880 H     1 <1>   0.0800 
 40 H       -3.2580    -6.3260     1.0750 H     1 <1>   0.0800 
 41 H       -3.4270    -8.3110     2.3630 H     1 <1>   0.0800 
 42 H       -2.9090    -9.9930    -0.1040 H     1 <1>   0.0800 
 43 H       -3.3230   -10.5510     1.4850 H     1 <1>   0.0800 
 44 H       -5.8780    -6.2010    -1.3200 H     1 <1>   0.4000 
 45 H       -6.2920    -8.6090    -0.8750 H     1 <1>   0.0800 
 46 H       -4.6830    -8.7810    -1.5060 H     1 <1>   0.0800 
 47 H       -6.8790    -6.9530     0.6730 H     1 <1>   0.0800 
 48 H       -5.7680    -7.4010     1.9110 H     1 <1>   0.0800 
 49 H       -5.5850    -9.6410     1.2530 H     1 <1>   0.0800 
 50 H       -5.2270   -10.6820    -0.0900 H     1 <1>   0.0800 
 51 H       -5.9050    -4.6370     0.6660 H     1 <1>   0.0800 
 52 H       -4.8620    -5.1030     1.9860 H     1 <1>   0.0800 
 53 H       -6.5870    -5.0990     2.2010 H     1 <1>   0.0800 
@<TRIPOS>BOND
  1   1   2  1   
  2   2   3  ar  
  3   2   4  ar  
  4   3   5  ar  
  5   3  27  1   
  6   4   6  ar  
  7   4  28  1   
  8   5   7  ar  
  9   5   8  1   
 10   6   7  ar  
 11   6  29  1   
 12   7   9  1   
 13   8  10  2   
 14   8  11  1   
 15   9  10  1   
 16   9  30  1   
 17  10  12  1   
 18  11  13  1   
 19  11  31  1   
 20  11  32  1   
 21  12  33  1   
 22  12  34  1   
 23  12  35  1   
 24  13  14  2   
 25  13  15  am  
 26  15  16  1   
 27  15  17  1   
 28  16  18  1   
 29  16  36  1   
 30  16  37  1   
 31  17  19  1   
 32  17  38  1   
 33  17  39  1   
 34  18  19  1   
 35  18  20  1   
 36  18  40  1   
 37  19  21  1   
 38  19  41  1   
 39  20  22  1   
 40  20  23  1   
 41  20  24  1   
 42  21  25  1   
 43  21  42  1   
 44  21  43  1   
 45  22  44  1   
 46  23  25  1   
 47  23  45  1   
 48  23  46  1   
 49  24  26  1   
 50  24  47  1   
 51  24  48  1   
 52  25  49  1   
 53  25  50  1   
 54  26  51  1   
 55  26  52  1   
 56  26  53  1   
@<TRIPOS>SUBSTRUCTURE
  1 ****  15 GROUP 4 **** **** 0

# MOE 2024.06 (io_trps.svl 2023.06)
