@<TRIPOS>MOLECULE
NONAME
43 45 1 0 0 
SMALL
USER_CHARGES


@<TRIPOS>ATOM
  1 O       -0.2780     0.5740    -0.2380 O.2   1 <1>  -0.5700 
  2 C       -1.3700     1.0610    -0.4270 C.2   1 <1>   0.6300 
  3 N       -2.4720     0.2840    -0.6570 N.am  1 <1>  -0.6600 
  4 C       -1.4860     2.5740    -0.3890 C.3   1 <1>   0.0000 
  5 C       -3.8780     0.7610    -0.6700 C.3   1 <1>   0.1400 
  6 C       -2.4480    -1.1850    -0.4610 C.3   1 <1>   0.1400 
  7 C       -1.8250     3.0110     1.0210 C.2   1 <1>   0.6300 
  8 C       -0.5340     3.4160    -1.2010 C.3   1 <1>  -0.2000 
  9 C       -1.9760     3.3430    -1.5910 C.3   1 <1>  -0.2000 
 10 C       -4.6920    -0.3850    -0.0590 C.3   1 <1>   0.2000 
 11 C       -3.9160    -1.6270    -0.5100 C.3   1 <1>  -0.0800 
 12 O       -2.9120     3.4670     1.2750 O.2   1 <1>  -0.5700 
 13 N       -0.8990     2.8860     1.9890 N.am  1 <1>  -0.8000 
 14 O       -4.6600    -0.3310     1.3410 O.3   1 <1>  -0.5600 
 15 C       -4.2040    -2.8930     0.3180 C.3   1 <1>   0.0200 
 16 C       -5.4510     0.6520     1.9350 C.3   1 <1>   0.0400 
 17 C       -3.5600    -4.1450    -0.2570 C.2   1 <1>  -0.0400 
 18 O       -3.6630    -5.2640     0.4100 O.3   1 <1>  -0.0190 
 19 C       -2.8590    -4.4000    -1.3740 C.2   1 <1>  -0.1500 
 20 N       -3.0690    -6.2500    -0.1970 N.2   1 <1>  -0.4100 
 21 C       -2.5740    -5.7580    -1.2750 C.2   1 <1>   0.1080 
 22 C       -1.7890    -6.5560    -2.2920 C.3   1 <1>  -0.0590 
 23 H       -4.0080     1.6800    -0.1320 H     1 <1>   0.0800 
 24 H       -4.1780     0.9090    -1.6920 H     1 <1>   0.0800 
 25 H       -1.8560    -1.6580    -1.2250 H     1 <1>   0.0800 
 26 H       -2.0210    -1.3980     0.5050 H     1 <1>   0.0800 
 27 H       -0.1610     4.3310    -0.7750 H     1 <1>   0.1000 
 28 H        0.1990     2.9130    -1.8070 H     1 <1>   0.1000 
 29 H       -2.2380     2.8020    -2.4830 H     1 <1>   0.1000 
 30 H       -2.6050     4.2000    -1.4260 H     1 <1>   0.1000 
 31 H       -5.7170    -0.3970    -0.3890 H     1 <1>   0.0800 
 32 H       -4.1720    -1.8180    -1.5370 H     1 <1>   0.0800 
 33 H       -1.1250     3.1430     2.9490 H     1 <1>   0.3700 
 34 H       -0.0110     2.4040     1.8310 H     1 <1>   0.3700 
 35 H       -5.2670    -3.0520     0.3660 H     1 <1>   0.0800 
 36 H       -3.8510    -2.7590     1.3250 H     1 <1>   0.0800 
 37 H       -5.4350     0.4910     2.9980 H     1 <1>   0.0800 
 38 H       -6.4610     0.5690     1.5730 H     1 <1>   0.0800 
 39 H       -5.0460     1.6250     1.7210 H     1 <1>   0.0800 
 40 H       -2.5660    -3.7510    -2.1770 H     1 <1>   0.1500 
 41 H       -0.8130    -6.1260    -2.4180 H     1 <1>   0.0800 
 42 H       -2.3050    -6.5530    -3.2340 H     1 <1>   0.0800 
 43 H       -1.6810    -7.5720    -1.9560 H     1 <1>   0.0800 
@<TRIPOS>BOND
  1   1   2  2   
  2   2   3  am  
  3   2   4  1   
  4   3   5  1   
  5   3   6  1   
  6   4   7  1   
  7   4   8  1   
  8   4   9  1   
  9   5  10  1   
 10   5  23  1   
 11   5  24  1   
 12   6  11  1   
 13   6  25  1   
 14   6  26  1   
 15   7  12  2   
 16   7  13  am  
 17   8   9  1   
 18   8  27  1   
 19   8  28  1   
 20   9  29  1   
 21   9  30  1   
 22  10  11  1   
 23  10  14  1   
 24  10  31  1   
 25  11  15  1   
 26  11  32  1   
 27  13  33  1   
 28  13  34  1   
 29  14  16  1   
 30  15  17  1   
 31  15  35  1   
 32  15  36  1   
 33  16  37  1   
 34  16  38  1   
 35  16  39  1   
 36  17  18  1   
 37  17  19  2   
 38  18  20  1   
 39  19  21  1   
 40  19  40  1   
 41  20  21  2   
 42  21  22  1   
 43  22  41  1   
 44  22  42  1   
 45  22  43  1   
@<TRIPOS>SUBSTRUCTURE
  1 ****   6 GROUP 4 **** **** 0

# MOE 2024.06 (io_trps.svl 2023.06)
