@<TRIPOS>MOLECULE
NONAME
42 43 1 0 0 
SMALL
USER_CHARGES


@<TRIPOS>ATOM
  1 O        0.6040    -0.6220    -1.8180 O.2   1 <1>  -0.5700 
  2 C        1.4830    -0.9360    -1.0460 C.2   1 <1>   0.5690 
  3 N        1.3320    -1.9400    -0.1250 N.am  1 <1>  -0.6600 
  4 C        2.8180    -0.1780    -1.1370 C.3   1 <1>   0.1710 
  5 C        2.3580    -2.1820     0.9340 C.3   1 <1>   0.1400 
  6 C        0.0620    -2.7680    -0.0220 C.3   1 <1>   0.0340 
  7 N        3.7010    -0.2620     0.0680 N.3   1 <1>  -0.8100 
  8 C        3.7490    -1.6570     0.5420 C.3   1 <1>   0.1100 
  9 C        0.2060    -4.2370     0.3970 C.2   1 <1>   0.9060 
 10 C        5.0490     0.2520    -0.2170 C.3   1 <1>   0.2910 
 11 O        0.3580    -4.5040     1.5980 O.co2 1 <1>  -0.9000 
 12 O        0.1650    -5.1250    -0.4640 O.co2 1 <1>  -0.9000 
 13 C        5.0290     1.7380    -0.5420 C.2   1 <1>  -0.1810 
 14 C        5.9050     2.4210    -1.3810 C.2   1 <1>   0.1080 
 15 C        4.1860     2.6920    -0.0930 C.2   1 <1>  -0.3020 
 16 N        5.6300     3.6850    -1.4550 N.2   1 <1>  -0.7070 
 17 C        7.0580     1.8110    -2.1460 C.3   1 <1>  -0.0590 
 18 N        4.5640     3.8560    -0.6520 N.pl3 1 <1>   0.3140 
 19 C        3.9200     5.1730    -0.4710 C.3   1 <1>   0.0960 
 20 C        4.0520     5.6990     0.9700 C.3   1 <1>  -0.1600 
 21 C        5.5120     5.9180     1.3900 C.3   1 <1>  -0.2400 
 22 H        2.5920     0.8540    -1.3360 H     1 <1>   0.0800 
 23 H        3.3400    -0.5680    -1.9910 H     1 <1>   0.0800 
 24 H        2.4460    -3.2370     1.1270 H     1 <1>   0.0800 
 25 H        2.0340    -1.7090     1.8440 H     1 <1>   0.0800 
 26 H       -0.4390    -2.7610    -0.9710 H     1 <1>   0.0800 
 27 H       -0.5870    -2.3020     0.6940 H     1 <1>   0.0800 
 28 H        4.1530    -2.2930    -0.2270 H     1 <1>   0.0800 
 29 H        4.3910    -1.7240     1.4030 H     1 <1>   0.0800 
 30 H        5.4770    -0.2960    -1.0390 H     1 <1>   0.0800 
 31 H        5.6740     0.1070     0.6470 H     1 <1>   0.0800 
 32 H        3.3550     2.5930     0.5800 H     1 <1>   0.1500 
 33 H        7.6340     1.1750    -1.5010 H     1 <1>   0.0800 
 34 H        7.6940     2.5910    -2.5230 H     1 <1>   0.0800 
 35 H        6.6810     1.2400    -2.9740 H     1 <1>   0.0800 
 36 H        2.8830     5.0730    -0.7310 H     1 <1>   0.0800 
 37 H        4.3750     5.8640    -1.1560 H     1 <1>   0.0800 
 38 H        3.5780     5.0110     1.6490 H     1 <1>   0.0800 
 39 H        3.5280     6.6360     1.0400 H     1 <1>   0.0800 
 40 H        6.0530     4.9870     1.3810 H     1 <1>   0.0800 
 41 H        5.5550     6.3260     2.3850 H     1 <1>   0.0800 
 42 H        6.0000     6.6010     0.7170 H     1 <1>   0.0800 
@<TRIPOS>BOND
  1   1   2  2   
  2   2   3  am  
  3   2   4  1   
  4   3   5  1   
  5   3   6  1   
  6   4   7  1   
  7   4  22  1   
  8   4  23  1   
  9   5   8  1   
 10   5  24  1   
 11   5  25  1   
 12   6   9  1   
 13   6  26  1   
 14   6  27  1   
 15   7   8  1   
 16   7  10  1   
 17   8  28  1   
 18   8  29  1   
 19   9  11  ar  
 20   9  12  ar  
 21  10  13  1   
 22  10  30  1   
 23  10  31  1   
 24  13  14  1   
 25  13  15  2   
 26  14  16  2   
 27  14  17  1   
 28  15  18  1   
 29  15  32  1   
 30  16  18  1   
 31  17  33  1   
 32  17  34  1   
 33  17  35  1   
 34  18  19  1   
 35  19  20  1   
 36  19  36  1   
 37  19  37  1   
 38  20  21  1   
 39  20  38  1   
 40  20  39  1   
 41  21  40  1   
 42  21  41  1   
 43  21  42  1   
@<TRIPOS>SUBSTRUCTURE
  1 ****   7 GROUP 4 **** **** 0

# MOE 2024.06 (io_trps.svl 2023.06)
