@<TRIPOS>MOLECULE
NONAME
55 57 1 0 0 
SMALL
USER_CHARGES


@<TRIPOS>ATOM
  1 O        0.4000    -0.6540     0.1350 O.3   1 <1>  -0.3630 
  2 C        0.1600    -1.9820     0.0100 C.ar  1 <1>   0.0830 
  3 C        1.4620    -0.1600     0.9190 C.3   1 <1>   0.0400 
  4 C       -0.8810    -2.3640    -0.7930 C.ar  1 <1>  -0.1500 
  5 C        0.9260    -2.9670     0.6620 C.ar  1 <1>  -0.1500 
  6 C       -1.2090    -3.7190    -0.9860 C.ar  1 <1>   0.0000 
  7 C        0.6270    -4.2910     0.4910 C.ar  1 <1>  -0.1500 
  8 C       -0.4430    -4.7040    -0.3290 C.ar  1 <1>   0.0000 
  9 C       -2.2720    -4.1300    -1.8130 C.ar  1 <1>  -0.1500 
 10 C       -0.7780    -6.0590    -0.5160 C.ar  1 <1>  -0.1500 
 11 C       -2.5760    -5.4520    -1.9780 C.ar  1 <1>  -0.1500 
 12 C       -1.8270    -6.4360    -1.3150 C.ar  1 <1>  -0.1430 
 13 C       -2.1960    -7.8970    -1.4890 C.3   1 <1>   0.4860 
 14 N       -2.9400    -8.3510    -0.2790 N.4   1 <1>  -0.9590 
 15 C       -3.1730    -9.8420    -0.3070 C.3   1 <1>   0.3430 
 16 C       -4.1820    -7.5350    -0.0640 C.3   1 <1>   0.3430 
 17 C       -4.6160   -10.1970    -0.7010 C.3   1 <1>   0.2000 
 18 C       -5.1380    -8.2640     0.8830 C.3   1 <1>  -0.1600 
 19 O       -4.7040   -11.5750    -0.8060 O.3   1 <1>  -0.6800 
 20 C       -5.6540    -9.6200     0.3140 C.3   1 <1>   0.0000 
 21 C       -5.8470   -10.6090     1.5010 C.3   1 <1>   0.1200 
 22 C       -7.0300    -9.4390    -0.3940 C.3   1 <1>  -0.1600 
 23 O       -6.6890   -10.0800     2.4710 O.3   1 <1>  -0.6800 
 24 C       -7.1060    -8.3910    -1.5220 C.3   1 <1>  -0.1600 
 25 C       -8.5120    -8.3580    -2.1260 C.3   1 <1>  -0.2400 
 26 H        1.4530     0.9130     0.8550 H     1 <1>   0.0800 
 27 H        2.3900    -0.5410     0.5310 H     1 <1>   0.0800 
 28 H        1.3140    -0.4650     1.9400 H     1 <1>   0.0800 
 29 H       -1.4620    -1.6100    -1.2910 H     1 <1>   0.1500 
 30 H        1.7470    -2.6870     1.2930 H     1 <1>   0.1500 
 31 H        1.2160    -5.0410     0.9880 H     1 <1>   0.1500 
 32 H       -2.8410    -3.3690    -2.3200 H     1 <1>   0.1500 
 33 H       -0.1720    -6.7880    -0.0070 H     1 <1>   0.1500 
 34 H       -3.3910    -5.7320    -2.6250 H     1 <1>   0.1500 
 35 H       -1.2950    -8.4770    -1.6090 H     1 <1>   0.0800 
 36 H       -2.8010    -8.0210    -2.3720 H     1 <1>   0.0800 
 37 H       -2.3180    -8.1470     0.5140 H     1 <1>   0.4500 
 38 H       -2.4910   -10.3140    -0.9940 H     1 <1>   0.0800 
 39 H       -2.9930   -10.2460     0.6750 H     1 <1>   0.0800 
 40 H       -3.9210    -6.5710     0.3440 H     1 <1>   0.0800 
 41 H       -4.6790    -7.3720    -1.0060 H     1 <1>   0.0800 
 42 H       -4.7840    -9.8110    -1.6890 H     1 <1>   0.0800 
 43 H       -4.6150    -8.4160     1.8110 H     1 <1>   0.0800 
 44 H       -5.9730    -7.6220     1.1080 H     1 <1>   0.0800 
 45 H       -5.5900   -11.8500    -1.1250 H     1 <1>   0.4000 
 46 H       -4.9100   -10.8540     1.9720 H     1 <1>   0.0800 
 47 H       -6.3020   -11.5240     1.1610 H     1 <1>   0.0800 
 48 H       -7.3440   -10.3910    -0.7880 H     1 <1>   0.0800 
 49 H       -7.7660    -9.1660     0.3450 H     1 <1>   0.0800 
 50 H       -6.2350    -9.4330     3.0430 H     1 <1>   0.4000 
 51 H       -6.8890    -7.4100    -1.1380 H     1 <1>   0.0800 
 52 H       -6.4120    -8.6120    -2.3120 H     1 <1>   0.0800 
 53 H       -9.2410    -8.1090    -1.3740 H     1 <1>   0.0800 
 54 H       -8.7670    -9.3150    -2.5480 H     1 <1>   0.0800 
 55 H       -8.5650    -7.6190    -2.9060 H     1 <1>   0.0800 
@<TRIPOS>BOND
  1   1   2  1   
  2   1   3  1   
  3   2   4  ar  
  4   2   5  ar  
  5   3  26  1   
  6   3  27  1   
  7   3  28  1   
  8   4   6  ar  
  9   4  29  1   
 10   5   7  ar  
 11   5  30  1   
 12   6   8  ar  
 13   6   9  ar  
 14   7   8  ar  
 15   7  31  1   
 16   8  10  ar  
 17   9  11  ar  
 18   9  32  1   
 19  10  12  ar  
 20  10  33  1   
 21  11  12  ar  
 22  11  34  1   
 23  12  13  1   
 24  13  14  1   
 25  13  35  1   
 26  13  36  1   
 27  14  15  1   
 28  14  16  1   
 29  14  37  1   
 30  15  17  1   
 31  15  38  1   
 32  15  39  1   
 33  16  18  1   
 34  16  40  1   
 35  16  41  1   
 36  17  19  1   
 37  17  20  1   
 38  17  42  1   
 39  18  20  1   
 40  18  43  1   
 41  18  44  1   
 42  19  45  1   
 43  20  21  1   
 44  20  22  1   
 45  21  23  1   
 46  21  46  1   
 47  21  47  1   
 48  22  24  1   
 49  22  48  1   
 50  22  49  1   
 51  23  50  1   
 52  24  25  1   
 53  24  51  1   
 54  24  52  1   
 55  25  53  1   
 56  25  54  1   
 57  25  55  1   
@<TRIPOS>SUBSTRUCTURE
  1 ****  12 GROUP 4 **** **** 0

# MOE 2024.06 (io_trps.svl 2023.06)
