@<TRIPOS>MOLECULE
NONAME
48 50 1 0 0 
SMALL
USER_CHARGES


@<TRIPOS>ATOM
  1 CL      -0.7660     0.3910    -0.2910 Cl    1 <1>  -0.1770 
  2 C       -2.1050    -0.7290    -0.2370 C.ar  1 <1>   0.1770 
  3 C       -3.2410    -0.4650    -0.9770 C.ar  1 <1>  -0.1500 
  4 C       -2.0100    -1.8620     0.5460 C.ar  1 <1>  -0.1500 
  5 C       -4.3100    -1.3470    -0.9410 C.ar  1 <1>  -0.1440 
  6 C       -3.0760    -2.7420     0.5840 C.ar  1 <1>  -0.1500 
  7 C       -4.2330    -2.5030    -0.1550 C.ar  1 <1>   0.1170 
  8 C       -5.5500    -1.0370    -1.7720 C.3   1 <1>  -0.0960 
  9 N       -5.3260    -3.3820    -0.1100 N.am  1 <1>  -0.5470 
 10 C       -5.4140    -4.7200     0.1430 C.2   1 <1>   0.6900 
 11 O       -4.4240    -5.4060     0.3160 O.2   1 <1>  -0.5700 
 12 N       -6.6560    -5.2890     0.1740 N.am  1 <1>  -0.6600 
 13 C       -7.9460    -4.5690     0.2540 C.3   1 <1>   0.1400 
 14 C       -6.8530    -6.7460     0.3180 C.3   1 <1>   0.1400 
 15 C       -8.9530    -5.6010     0.7840 C.3   1 <1>  -0.0800 
 16 C       -8.3680    -6.9600     0.3540 C.3   1 <1>  -0.0800 
 17 C      -10.4460    -5.3710     0.3920 C.3   1 <1>   0.2800 
 18 C       -8.9340    -7.3940    -1.0080 C.3   1 <1>  -0.1600 
 19 O      -10.5290    -4.6580    -0.7890 O.3   1 <1>  -0.6800 
 20 C      -11.1430    -6.7200     0.1380 C.3   1 <1>  -0.1600 
 21 C      -11.2250    -4.5680     1.4570 C.3   1 <1>  -0.1600 
 22 C      -10.4630    -7.5720    -0.9560 C.3   1 <1>  -0.1600 
 23 C      -10.6900    -3.1550     1.7500 C.3   1 <1>  -0.2400 
 24 H       -3.2750     0.4280    -1.5730 H     1 <1>   0.1500 
 25 H       -1.1180    -2.0510     1.1150 H     1 <1>   0.1500 
 26 H       -3.0070    -3.6230     1.1970 H     1 <1>   0.1500 
 27 H       -5.4040    -0.1520    -2.3650 H     1 <1>   0.0800 
 28 H       -6.3950    -0.8760    -1.1280 H     1 <1>   0.0800 
 29 H       -5.7610    -1.8540    -2.4380 H     1 <1>   0.0800 
 30 H       -6.1990    -3.0020    -0.4520 H     1 <1>   0.3700 
 31 H       -7.8750    -3.7210     0.9110 H     1 <1>   0.0800 
 32 H       -8.1990    -4.2390    -0.7380 H     1 <1>   0.0800 
 33 H       -6.3870    -7.2700    -0.5000 H     1 <1>   0.0800 
 34 H       -6.4050    -7.0670     1.2430 H     1 <1>   0.0800 
 35 H       -8.8860    -5.5800     1.8570 H     1 <1>   0.0800 
 36 H       -8.6010    -7.7220     1.0780 H     1 <1>   0.0800 
 37 H       -8.6950    -6.6370    -1.7370 H     1 <1>   0.0800 
 38 H       -8.4750    -8.3120    -1.3300 H     1 <1>   0.0800 
 39 H      -11.4600    -4.6180    -1.0730 H     1 <1>   0.4000 
 40 H      -11.1240    -7.2790     1.0570 H     1 <1>   0.0800 
 41 H      -12.1790    -6.5710    -0.1120 H     1 <1>   0.0800 
 42 H      -12.2530    -4.4860     1.1490 H     1 <1>   0.0800 
 43 H      -11.2230    -5.1250     2.3780 H     1 <1>   0.0800 
 44 H      -10.6990    -8.6070    -0.7820 H     1 <1>   0.0800 
 45 H      -10.8670    -7.3080    -1.9190 H     1 <1>   0.0800 
 46 H      -10.6310    -2.5740     0.8460 H     1 <1>   0.0800 
 47 H       -9.7150    -3.1990     2.2010 H     1 <1>   0.0800 
 48 H      -11.3500    -2.6510     2.4340 H     1 <1>   0.0800 
@<TRIPOS>BOND
  1   1   2  1   
  2   2   3  ar  
  3   2   4  ar  
  4   3   5  ar  
  5   3  24  1   
  6   4   6  ar  
  7   4  25  1   
  8   5   7  ar  
  9   5   8  1   
 10   6   7  ar  
 11   6  26  1   
 12   7   9  1   
 13   8  27  1   
 14   8  28  1   
 15   8  29  1   
 16   9  10  am  
 17   9  30  1   
 18  10  11  2   
 19  10  12  am  
 20  12  13  1   
 21  12  14  1   
 22  13  15  1   
 23  13  31  1   
 24  13  32  1   
 25  14  16  1   
 26  14  33  1   
 27  14  34  1   
 28  15  16  1   
 29  15  17  1   
 30  15  35  1   
 31  16  18  1   
 32  16  36  1   
 33  17  19  1   
 34  17  20  1   
 35  17  21  1   
 36  18  22  1   
 37  18  37  1   
 38  18  38  1   
 39  19  39  1   
 40  20  22  1   
 41  20  40  1   
 42  20  41  1   
 43  21  23  1   
 44  21  42  1   
 45  21  43  1   
 46  22  44  1   
 47  22  45  1   
 48  23  46  1   
 49  23  47  1   
 50  23  48  1   
@<TRIPOS>SUBSTRUCTURE
  1 ****  12 GROUP 4 **** **** 0

# MOE 2024.06 (io_trps.svl 2023.06)
