@<TRIPOS>MOLECULE
NONAME
48 50 1 0 0 
SMALL
USER_CHARGES


@<TRIPOS>ATOM
  1 O       -0.1810     1.2440     1.5610 O.2   1 <1>  -0.5700 
  2 C        0.0570     2.3380     1.0840 C.2   1 <1>   0.5440 
  3 N       -0.9880     3.1960     0.8020 N.am  1 <1>  -0.6600 
  4 C        1.4310     2.7000     0.8230 C.ar  1 <1>   0.0860 
  5 C       -2.3940     2.8760     1.2020 C.3   1 <1>   0.1400 
  6 C       -0.8650     4.4100    -0.0530 C.3   1 <1>   0.1400 
  7 C        1.9950     3.8250     1.4130 C.ar  1 <1>   0.1600 
  8 C        2.2430     1.9540    -0.0150 C.ar  1 <1>  -0.1500 
  9 C       -3.3110     2.6860    -0.0300 C.3   1 <1>   0.0000 
 10 C       -1.7430     4.2600    -1.2980 C.3   1 <1>  -0.1600 
 11 N        3.2270     4.2630     1.2190 N.ar  1 <1>  -0.6200 
 12 C        3.5390     2.3770    -0.2300 C.ar  1 <1>  -0.1430 
 13 C       -4.7470     2.4080     0.4620 C.3   1 <1>   0.2000 
 14 C       -3.2020     3.9360    -0.9360 C.3   1 <1>  -0.1600 
 15 C       -2.9560     1.3900    -0.7800 C.3   1 <1>  -0.1600 
 16 C        3.9770     3.5390     0.4030 C.ar  1 <1>   0.1670 
 17 C        4.4370     1.5550    -1.1460 C.3   1 <1>  -0.0970 
 18 O       -5.6570     2.6460    -0.5750 O.3   1 <1>  -0.5600 
 19 C       -4.7720     0.9110     0.7990 C.3   1 <1>  -0.1600 
 20 C       -3.6460     0.2580    -0.0140 C.3   1 <1>  -0.1600 
 21 C        5.3880     4.0630     0.2030 C.3   1 <1>  -0.0970 
 22 C       -6.9600     2.9200    -0.1690 C.3   1 <1>   0.0400 
 23 H       -2.4150     1.9930     1.8170 H     1 <1>   0.0800 
 24 H       -2.7650     3.6890     1.7990 H     1 <1>   0.0800 
 25 H       -1.1810     5.2690     0.5130 H     1 <1>   0.0800 
 26 H        0.1530     4.5690    -0.3630 H     1 <1>   0.0800 
 27 H        1.3790     4.3970     2.0840 H     1 <1>   0.1500 
 28 H        1.8490     1.0640    -0.4750 H     1 <1>   0.1500 
 29 H       -1.7100     5.1720    -1.8660 H     1 <1>   0.0800 
 30 H       -1.3400     3.4780    -1.9170 H     1 <1>   0.0800 
 31 H       -5.0050     3.0290     1.3040 H     1 <1>   0.0800 
 32 H       -3.7650     3.7880    -1.8420 H     1 <1>   0.0800 
 33 H       -3.6330     4.7790    -0.4240 H     1 <1>   0.0800 
 34 H       -3.3700     1.4310    -1.7730 H     1 <1>   0.0800 
 35 H       -1.8950     1.2280    -0.8570 H     1 <1>   0.0800 
 36 H        3.9710     0.6210    -1.4050 H     1 <1>   0.0800 
 37 H        5.3690     1.3370    -0.6550 H     1 <1>   0.0800 
 38 H        4.6350     2.0980    -2.0520 H     1 <1>   0.0800 
 39 H       -4.5650     0.7810     1.8460 H     1 <1>   0.0800 
 40 H       -5.7250     0.4630     0.5790 H     1 <1>   0.0800 
 41 H       -2.9420    -0.2160     0.6500 H     1 <1>   0.0800 
 42 H       -4.0330    -0.4790    -0.6970 H     1 <1>   0.0800 
 43 H        5.6950     3.9620    -0.8200 H     1 <1>   0.0800 
 44 H        6.0650     3.5210     0.8360 H     1 <1>   0.0800 
 45 H        5.4360     5.1050     0.4640 H     1 <1>   0.0800 
 46 H       -7.5620     3.0520    -1.0500 H     1 <1>   0.0800 
 47 H       -6.9670     3.8260     0.4120 H     1 <1>   0.0800 
 48 H       -7.3400     2.0960     0.4090 H     1 <1>   0.0800 
@<TRIPOS>BOND
  1   1   2  2   
  2   2   3  am  
  3   2   4  1   
  4   3   5  1   
  5   3   6  1   
  6   4   7  ar  
  7   4   8  ar  
  8   5   9  1   
  9   5  23  1   
 10   5  24  1   
 11   6  10  1   
 12   6  25  1   
 13   6  26  1   
 14   7  11  ar  
 15   7  27  1   
 16   8  12  ar  
 17   8  28  1   
 18   9  13  1   
 19   9  14  1   
 20   9  15  1   
 21  10  14  1   
 22  10  29  1   
 23  10  30  1   
 24  11  16  ar  
 25  12  16  ar  
 26  12  17  1   
 27  13  18  1   
 28  13  19  1   
 29  13  31  1   
 30  14  32  1   
 31  14  33  1   
 32  15  20  1   
 33  15  34  1   
 34  15  35  1   
 35  16  21  1   
 36  17  36  1   
 37  17  37  1   
 38  17  38  1   
 39  18  22  1   
 40  19  20  1   
 41  19  39  1   
 42  19  40  1   
 43  20  41  1   
 44  20  42  1   
 45  21  43  1   
 46  21  44  1   
 47  21  45  1   
 48  22  46  1   
 49  22  47  1   
 50  22  48  1   
@<TRIPOS>SUBSTRUCTURE
  1 ****   3 GROUP 4 **** **** 0

# MOE 2024.06 (io_trps.svl 2023.06)
