@<TRIPOS>MOLECULE
NONAME
64 68 1 0 0 
SMALL
USER_CHARGES


@<TRIPOS>ATOM
  1 N        0.2900    -0.3810    -0.4450 N.ar  1 <1>  -0.1790 
  2 C        0.3740    -1.7100    -0.3240 C.ar  1 <1>   0.4610 
  3 C        1.3590     0.4860    -0.3080 C.ar  1 <1>   0.3610 
  4 N       -0.7330    -2.4640    -0.4690 N.pl3 1 <1>  -0.8690 
  5 C        1.6560    -2.2500    -0.0480 C.ar  1 <1>  -0.1500 
  6 C        2.6360    -0.0440    -0.0250 C.ar  1 <1>   0.0000 
  7 C        1.1750     1.8670    -0.4460 C.ar  1 <1>  -0.1500 
  8 C       -0.8350    -3.9660    -0.3340 C.3   1 <1>   0.2090 
  9 C        2.7570    -1.4620     0.1010 C.ar  1 <1>  -0.1430 
 10 C        3.7080     0.8560     0.1130 C.ar  1 <1>  -0.1500 
 11 C        2.2470     2.7090    -0.3040 C.ar  1 <1>  -0.1430 
 12 C       -2.2640    -4.5110     0.0200 C.3   1 <1>   0.5030 
 13 C        4.1160    -2.0860     0.3980 C.3   1 <1>  -0.0970 
 14 C        3.5010     2.2040    -0.0270 C.ar  1 <1>  -0.1430 
 15 C        2.2820     4.2160    -0.4120 C.3   1 <1>  -0.0170 
 16 N       -2.2670    -6.0150     0.1160 N.4   1 <1>  -0.9590 
 17 C       -3.3130    -4.0500    -1.0200 C.3   1 <1>  -0.1600 
 18 C       -2.7400    -3.9110     1.3640 C.3   1 <1>  -0.1600 
 19 C        4.5200     3.3130     0.0820 C.3   1 <1>  -0.0170 
 20 C        3.7840     4.5330    -0.4960 C.3   1 <1>  -0.1600 
 21 C       -1.8020    -6.7670    -1.1080 C.3   1 <1>   0.3430 
 22 C       -3.5370    -6.6600     0.6220 C.3   1 <1>   0.3430 
 23 C       -4.2870    -3.1090    -0.3030 C.3   1 <1>  -0.1600 
 24 C       -4.1950    -3.4800     1.1710 C.3   1 <1>  -0.1600 
 25 C       -1.6200    -8.2740    -0.7990 C.3   1 <1>   0.1100 
 26 C       -3.3020    -8.1550     0.9480 C.3   1 <1>   0.1100 
 27 N       -1.9230    -8.5830     0.6150 N.3   1 <1>  -0.8100 
 28 C       -1.7250   -10.0100     0.9050 C.3   1 <1>   0.0300 
 29 H       -0.6110     0.0380    -0.6470 H     1 <1>   0.4570 
 30 H       -1.6370    -2.0380    -0.7110 H     1 <1>   0.4000 
 31 H        1.7510    -3.3150     0.0400 H     1 <1>   0.1500 
 32 H        0.2060     2.2780    -0.6630 H     1 <1>   0.1500 
 33 H       -0.1580    -4.2960     0.4350 H     1 <1>   0.0800 
 34 H       -0.5180    -4.3930    -1.2690 H     1 <1>   0.0800 
 35 H        4.7000     0.4980     0.3280 H     1 <1>   0.1500 
 36 H        4.0510    -3.1580     0.4610 H     1 <1>   0.0800 
 37 H        4.4970    -1.7200     1.3350 H     1 <1>   0.0800 
 38 H        4.8170    -1.8410    -0.3820 H     1 <1>   0.0800 
 39 H        1.8570     4.6520     0.4760 H     1 <1>   0.0800 
 40 H        1.7560     4.5710    -1.2810 H     1 <1>   0.0800 
 41 H       -1.5900    -6.3150     0.8370 H     1 <1>   0.4500 
 42 H       -3.8730    -4.8800    -1.4100 H     1 <1>   0.0800 
 43 H       -2.8650    -3.5440    -1.8570 H     1 <1>   0.0800 
 44 H       -2.1780    -3.0250     1.5990 H     1 <1>   0.0800 
 45 H       -2.6230    -4.5810     2.1970 H     1 <1>   0.0800 
 46 H        5.4150     3.0910    -0.4730 H     1 <1>   0.0800 
 47 H        4.7640     3.4770     1.1180 H     1 <1>   0.0800 
 48 H        4.0340     5.4380     0.0280 H     1 <1>   0.0800 
 49 H        4.0580     4.6420    -1.5310 H     1 <1>   0.0800 
 50 H       -0.8590    -6.3800    -1.4530 H     1 <1>   0.0800 
 51 H       -2.5160    -6.6540    -1.9070 H     1 <1>   0.0800 
 52 H       -4.3180    -6.5730    -0.1140 H     1 <1>   0.0800 
 53 H       -3.8770    -6.1720     1.5180 H     1 <1>   0.0800 
 54 H       -5.2940    -3.2050    -0.6760 H     1 <1>   0.0800 
 55 H       -3.9740    -2.0860    -0.4320 H     1 <1>   0.0800 
 56 H       -4.4590    -2.6520     1.8090 H     1 <1>   0.0800 
 57 H       -4.8670    -4.2940     1.3820 H     1 <1>   0.0800 
 58 H       -0.6030    -8.5550    -1.0160 H     1 <1>   0.0800 
 59 H       -2.2590    -8.8500    -1.4480 H     1 <1>   0.0800 
 60 H       -4.0170    -8.7530     0.4070 H     1 <1>   0.0800 
 61 H       -3.4780    -8.3140     1.9990 H     1 <1>   0.0800 
 62 H       -0.7080   -10.2930     0.6940 H     1 <1>   0.0800 
 63 H       -2.3870   -10.6180     0.3100 H     1 <1>   0.0800 
 64 H       -1.9170   -10.2050     1.9470 H     1 <1>   0.0800 
@<TRIPOS>BOND
  1   1   2  ar  
  2   1   3  ar  
  3   1  29  1   
  4   2   4  1   
  5   2   5  ar  
  6   3   6  ar  
  7   3   7  ar  
  8   4   8  1   
  9   4  30  1   
 10   5   9  ar  
 11   5  31  1   
 12   6   9  ar  
 13   6  10  ar  
 14   7  11  ar  
 15   7  32  1   
 16   8  12  1   
 17   8  33  1   
 18   8  34  1   
 19   9  13  1   
 20  10  14  ar  
 21  10  35  1   
 22  11  14  ar  
 23  11  15  1   
 24  12  16  1   
 25  12  17  1   
 26  12  18  1   
 27  13  36  1   
 28  13  37  1   
 29  13  38  1   
 30  14  19  1   
 31  15  20  1   
 32  15  39  1   
 33  15  40  1   
 34  16  21  1   
 35  16  22  1   
 36  16  41  1   
 37  17  23  1   
 38  17  42  1   
 39  17  43  1   
 40  18  24  1   
 41  18  44  1   
 42  18  45  1   
 43  19  20  1   
 44  19  46  1   
 45  19  47  1   
 46  20  48  1   
 47  20  49  1   
 48  21  25  1   
 49  21  50  1   
 50  21  51  1   
 51  22  26  1   
 52  22  52  1   
 53  22  53  1   
 54  23  24  1   
 55  23  54  1   
 56  23  55  1   
 57  24  56  1   
 58  24  57  1   
 59  25  27  1   
 60  25  58  1   
 61  25  59  1   
 62  26  27  1   
 63  26  60  1   
 64  26  61  1   
 65  27  28  1   
 66  28  62  1   
 67  28  63  1   
 68  28  64  1   
@<TRIPOS>SUBSTRUCTURE
  1 ****   4 GROUP 4 **** **** 0

# MOE 2024.06 (io_trps.svl 2023.06)
