@<TRIPOS>MOLECULE
NONAME
52 56 1 0 0 
SMALL
USER_CHARGES


@<TRIPOS>ATOM
  1 S        0.0770     0.0660     1.1150 S.3   1 <1>  -0.0800 
  2 C       -1.0440     1.2020     0.3790 C.2   1 <1>  -0.1400 
  3 C       -1.1220    -1.2180     1.0340 C.2   1 <1>  -0.1100 
  4 C       -2.2190     0.6100     0.1250 C.2   1 <1>  -0.1810 
  5 C       -0.6790     2.6550     0.0910 C.3   1 <1>   0.4600 
  6 C       -2.2710    -0.7720     0.4890 C.2   1 <1>  -0.1500 
  7 C       -3.3400     1.4130    -0.4960 C.3   1 <1>   0.0210 
  8 O       -1.7340     3.2400    -0.6520 O.3   1 <1>  -0.5600 
  9 C        0.5700     2.7400    -0.7880 C.3   1 <1>  -0.1600 
 10 C       -0.4720     3.4470     1.3870 C.3   1 <1>  -0.1600 
 11 C       -3.0560     2.9150    -0.2930 C.3   1 <1>   0.1200 
 12 C        0.9600     4.1910    -1.0630 C.3   1 <1>   0.2090 
 13 C       -0.0830     4.8970     1.1040 C.3   1 <1>   0.2090 
 14 N        1.1170     4.9230     0.2240 N.pl3 1 <1>  -0.8380 
 15 C        2.3670     5.2290     0.7370 C.ar  1 <1>   0.4100 
 16 N        3.2960     4.2920     0.5390 N.ar  1 <1>  -0.6200 
 17 C        2.6260     6.4380     1.4180 C.ar  1 <1>   0.0860 
 18 C        4.4880     4.5120     1.0540 C.ar  1 <1>   0.1600 
 19 C        1.6360     7.4750     1.5650 C.2   1 <1>   0.5440 
 20 C        3.8910     6.6280     1.9530 C.ar  1 <1>  -0.1500 
 21 C        4.8350     5.6450     1.7660 C.ar  1 <1>  -0.1500 
 22 O        1.1520     7.6920     2.6630 O.2   1 <1>  -0.5700 
 23 N        1.2490     8.2710     0.5120 N.am  1 <1>  -0.6600 
 24 C        1.7070     8.1220    -0.8860 C.3   1 <1>   0.1400 
 25 C        0.2210     9.3240     0.6320 C.3   1 <1>   0.1400 
 26 C        0.7280     8.9600    -1.7010 C.3   1 <1>  -0.1600 
 27 C        0.2160    10.0170    -0.7260 C.3   1 <1>  -0.1600 
 28 H       -0.8350    -2.1840     1.4080 H     1 <1>   0.1500 
 29 H       -3.1570    -1.3590     0.3270 H     1 <1>   0.1500 
 30 H       -4.2760     1.1620    -0.0320 H     1 <1>   0.0800 
 31 H       -3.4070     1.1920    -1.5460 H     1 <1>   0.0800 
 32 H        0.3930     2.2240    -1.7130 H     1 <1>   0.0800 
 33 H        1.3950     2.2590    -0.2960 H     1 <1>   0.0800 
 34 H        0.3220     2.9930     1.9520 H     1 <1>   0.0800 
 35 H       -1.3550     3.4120     1.9930 H     1 <1>   0.0800 
 36 H       -3.2070     3.1890     0.7360 H     1 <1>   0.0800 
 37 H       -3.7150     3.5030    -0.9060 H     1 <1>   0.0800 
 38 H        0.1950     4.6710    -1.6490 H     1 <1>   0.0800 
 39 H        1.8790     4.2230    -1.6220 H     1 <1>   0.0800 
 40 H        0.1210     5.3890     2.0380 H     1 <1>   0.0800 
 41 H       -0.8910     5.4150     0.6170 H     1 <1>   0.0800 
 42 H        5.2310     3.7480     0.9030 H     1 <1>   0.1500 
 43 H        4.1170     7.5280     2.4980 H     1 <1>   0.1500 
 44 H        5.8280     5.7520     2.1630 H     1 <1>   0.1500 
 45 H        1.6910     7.0920    -1.1990 H     1 <1>   0.0800 
 46 H        2.7050     8.5150    -0.9730 H     1 <1>   0.0800 
 47 H        0.4640    10.0050     1.4300 H     1 <1>   0.0800 
 48 H       -0.7300     8.8610     0.8280 H     1 <1>   0.0800 
 49 H       -0.0860     8.3300    -2.0170 H     1 <1>   0.0800 
 50 H        1.1960     9.3900    -2.5690 H     1 <1>   0.0800 
 51 H        0.8990    10.8480    -0.6950 H     1 <1>   0.0800 
 52 H       -0.7630    10.3780    -0.9860 H     1 <1>   0.0800 
@<TRIPOS>BOND
  1   1   2  1   
  2   1   3  1   
  3   2   4  2   
  4   2   5  1   
  5   3   6  2   
  6   3  28  1   
  7   4   6  1   
  8   4   7  1   
  9   5   8  1   
 10   5   9  1   
 11   5  10  1   
 12   6  29  1   
 13   7  11  1   
 14   7  30  1   
 15   7  31  1   
 16   8  11  1   
 17   9  12  1   
 18   9  32  1   
 19   9  33  1   
 20  10  13  1   
 21  10  34  1   
 22  10  35  1   
 23  11  36  1   
 24  11  37  1   
 25  12  14  1   
 26  12  38  1   
 27  12  39  1   
 28  13  14  1   
 29  13  40  1   
 30  13  41  1   
 31  14  15  1   
 32  15  16  ar  
 33  15  17  ar  
 34  16  18  ar  
 35  17  19  1   
 36  17  20  ar  
 37  18  21  ar  
 38  18  42  1   
 39  19  22  2   
 40  19  23  am  
 41  20  21  ar  
 42  20  43  1   
 43  21  44  1   
 44  23  24  1   
 45  23  25  1   
 46  24  26  1   
 47  24  45  1   
 48  24  46  1   
 49  25  27  1   
 50  25  47  1   
 51  25  48  1   
 52  26  27  1   
 53  26  49  1   
 54  26  50  1   
 55  27  51  1   
 56  27  52  1   
@<TRIPOS>SUBSTRUCTURE
  1 ****  14 GROUP 4 **** **** 0

# MOE 2024.06 (io_trps.svl 2023.06)
