@<TRIPOS>MOLECULE
NONAME
53 56 1 0 0 
SMALL
USER_CHARGES


@<TRIPOS>ATOM
  1 O       -0.4730     0.3380    -0.9410 O.3   1 <1>  -0.5600 
  2 C       -0.3030     1.5190    -1.6490 C.3   1 <1>   0.1200 
  3 C       -1.8190     0.2310    -0.5790 C.3   1 <1>   0.1200 
  4 C       -1.0920     2.5120    -0.8010 C.3   1 <1>   0.4230 
  5 C       -2.3550     1.6740    -0.5780 C.3   1 <1>  -0.0800 
  6 N       -0.3660     2.6910     0.4970 N.4   1 <1>  -0.9060 
  7 C       -3.2420     2.0130     0.6400 C.3   1 <1>  -0.0170 
  8 C        0.5840     3.8240     0.6880 C.3   1 <1>   0.4230 
  9 C       -4.4890     1.1370     0.6510 C.ar  1 <1>  -0.1440 
 10 C       -0.1460     5.1680     0.6240 C.3   1 <1>  -0.1600 
 11 C        1.7420     3.8020    -0.3110 C.3   1 <1>  -0.1600 
 12 C       -5.5950     1.3760    -0.2010 C.ar  1 <1>   0.0000 
 13 C       -4.5660     0.0680     1.4970 C.ar  1 <1>  -0.1500 
 14 C        0.8290     6.3180     0.8940 C.3   1 <1>   0.3430 
 15 C        2.7110     4.9510    -0.0270 C.3   1 <1>   0.3430 
 16 C       -6.6820     0.4690    -0.1360 C.ar  1 <1>   0.3100 
 17 C       -5.6940     2.4580    -1.1080 C.ar  1 <1>  -0.1500 
 18 C       -5.6960    -0.7590     1.4910 C.ar  1 <1>   0.1600 
 19 N        1.9810     6.2540    -0.0560 N.4   1 <1>  -0.9590 
 20 N       -6.7140    -0.5880     0.7120 N.ar  1 <1>  -0.6200 
 21 C       -7.7840     0.6640    -0.9840 C.ar  1 <1>  -0.1500 
 22 C       -6.7850     2.6210    -1.9180 C.ar  1 <1>  -0.1500 
 23 C        2.9350     7.3810     0.2210 C.3   1 <1>   0.2630 
 24 C       -7.8430     1.7120    -1.8600 C.ar  1 <1>  -0.1500 
 25 H        0.7440     1.7330    -1.7430 H     1 <1>   0.0800 
 26 H       -0.7370     1.3950    -2.6290 H     1 <1>   0.0800 
 27 H       -2.3290    -0.3820    -1.3060 H     1 <1>   0.0800 
 28 H       -1.8710    -0.2410     0.3880 H     1 <1>   0.0800 
 29 H       -1.2920     3.4460    -1.3000 H     1 <1>   0.0800 
 30 H       -2.9630     1.7710    -1.4610 H     1 <1>   0.0800 
 31 H       -1.0610     2.7040     1.2490 H     1 <1>   0.4500 
 32 H        0.1250     1.7850     0.6160 H     1 <1>   0.4500 
 33 H       -3.5360     3.0480     0.6240 H     1 <1>   0.0800 
 34 H       -2.7070     1.8450     1.5580 H     1 <1>   0.0800 
 35 H        1.0090     3.7300     1.6760 H     1 <1>   0.0800 
 36 H       -0.6010     5.3190    -0.3380 H     1 <1>   0.0800 
 37 H       -0.9170     5.2000     1.3730 H     1 <1>   0.0800 
 38 H        2.2840     2.8760    -0.2230 H     1 <1>   0.0800 
 39 H        1.3890     3.9000    -1.3220 H     1 <1>   0.0800 
 40 H       -3.7790    -0.1790     2.1860 H     1 <1>   0.1500 
 41 H        1.1930     6.2560     1.9080 H     1 <1>   0.0800 
 42 H        0.3150     7.2620     0.7840 H     1 <1>   0.0800 
 43 H        3.4970     4.9540    -0.7680 H     1 <1>   0.0800 
 44 H        3.1690     4.8120     0.9400 H     1 <1>   0.0800 
 45 H       -4.9030     3.1780    -1.1690 H     1 <1>   0.1500 
 46 H       -5.7180    -1.5920     2.1740 H     1 <1>   0.1500 
 47 H        1.6260     6.4090    -1.0140 H     1 <1>   0.4500 
 48 H       -8.5890    -0.0460    -0.9180 H     1 <1>   0.1500 
 49 H       -6.8500     3.4470    -2.6070 H     1 <1>   0.1500 
 50 H        3.3540     7.2900     1.2100 H     1 <1>   0.0800 
 51 H        2.4290     8.3300     0.1490 H     1 <1>   0.0800 
 52 H        3.7430     7.3740    -0.4940 H     1 <1>   0.0800 
 53 H       -8.6950     1.8490    -2.5030 H     1 <1>   0.1500 
@<TRIPOS>BOND
  1   1   2  1   
  2   1   3  1   
  3   2   4  1   
  4   2  25  1   
  5   2  26  1   
  6   3   5  1   
  7   3  27  1   
  8   3  28  1   
  9   4   5  1   
 10   4   6  1   
 11   4  29  1   
 12   5   7  1   
 13   5  30  1   
 14   6   8  1   
 15   6  31  1   
 16   6  32  1   
 17   7   9  1   
 18   7  33  1   
 19   7  34  1   
 20   8  10  1   
 21   8  11  1   
 22   8  35  1   
 23   9  12  ar  
 24   9  13  ar  
 25  10  14  1   
 26  10  36  1   
 27  10  37  1   
 28  11  15  1   
 29  11  38  1   
 30  11  39  1   
 31  12  16  ar  
 32  12  17  ar  
 33  13  18  ar  
 34  13  40  1   
 35  14  19  1   
 36  14  41  1   
 37  14  42  1   
 38  15  19  1   
 39  15  43  1   
 40  15  44  1   
 41  16  20  ar  
 42  16  21  ar  
 43  17  22  ar  
 44  17  45  1   
 45  18  20  ar  
 46  18  46  1   
 47  19  23  1   
 48  19  47  1   
 49  21  24  ar  
 50  21  48  1   
 51  22  24  ar  
 52  22  49  1   
 53  23  50  1   
 54  23  51  1   
 55  23  52  1   
 56  24  53  1   
@<TRIPOS>SUBSTRUCTURE
  1 ****   5 GROUP 4 **** **** 0

# MOE 2024.06 (io_trps.svl 2023.06)
