@<TRIPOS>MOLECULE
NONAME
45 48 1 0 0 
SMALL
USER_CHARGES


@<TRIPOS>ATOM
  1 O       -0.7980     0.1170    -0.3050 O.2   1 <1>  -0.5700 
  2 C       -1.5680     0.7520     0.3920 C.2   1 <1>   0.7030 
  3 N       -2.7240     0.1340     0.8110 N.am  1 <1>  -0.6600 
  4 C       -1.2610     2.1300     0.7640 C.2   1 <1>   0.2770 
  5 C       -2.7850    -1.3610     0.9500 C.3   1 <1>   0.1400 
  6 C       -4.0770     0.7370     0.5840 C.3   1 <1>   0.1400 
  7 N       -0.3780     3.0180     0.1380 N.pl3 1 <1>  -0.7640 
  8 C       -1.7720     2.8170     1.8180 C.2   1 <1>   0.2000 
  9 C       -3.6290    -2.0030    -0.1660 C.3   1 <1>   0.3430 
 10 C       -4.8500    -0.0180    -0.5240 C.3   1 <1>   0.2950 
 11 C       -0.3900     4.1610     0.8100 C.cat 1 <1>   0.6500 
 12 C        0.4510     2.6820    -1.0580 C.3   1 <1>   0.2740 
 13 N       -1.2300     4.0730     1.8290 N.pl3 1 <1>  -0.7000 
 14 O       -4.8850    -1.3810    -0.2260 O.3   1 <1>  -0.5600 
 15 C       -3.8070    -3.4940     0.0980 C.ar  1 <1>  -0.1440 
 16 C       -6.3080     0.4350    -0.7090 C.3   1 <1>  -0.1950 
 17 C       -2.9000    -4.3970    -0.4400 C.ar  1 <1>  -0.1500 
 18 C       -4.8500    -3.9730     0.8800 C.ar  1 <1>  -0.1500 
 19 C       -6.7850     1.8370    -0.4710 C.3   1 <1>  -0.2000 
 20 C       -7.2470     0.7190     0.4230 C.3   1 <1>  -0.2000 
 21 C       -3.0320    -5.7540    -0.1980 C.ar  1 <1>  -0.1500 
 22 C       -4.9830    -5.3290     1.1230 C.ar  1 <1>  -0.1500 
 23 C       -4.0730    -6.2210     0.5840 C.ar  1 <1>  -0.1500 
 24 H       -1.7950    -1.7840     0.9280 H     1 <1>   0.0800 
 25 H       -3.2210    -1.6120     1.9010 H     1 <1>   0.0800 
 26 H       -4.6380     0.6920     1.5000 H     1 <1>   0.0800 
 27 H       -3.9840     1.7680     0.2960 H     1 <1>   0.0800 
 28 H       -2.4820     2.4700     2.5530 H     1 <1>   0.1500 
 29 H       -3.1430    -1.8670    -1.1170 H     1 <1>   0.0800 
 30 H       -4.3370     0.1050    -1.4630 H     1 <1>   0.0800 
 31 H        0.2010     5.0350     0.5660 H     1 <1>   0.1500 
 32 H       -0.1830     2.3540    -1.8650 H     1 <1>   0.0800 
 33 H        1.1380     1.8870    -0.8160 H     1 <1>   0.0800 
 34 H        1.0130     3.5390    -1.3850 H     1 <1>   0.0800 
 35 H       -1.4240     4.8120     2.5150 H     1 <1>   0.4500 
 36 H       -6.7400    -0.0660    -1.5600 H     1 <1>   0.1000 
 37 H       -2.0840    -4.0520    -1.0510 H     1 <1>   0.1500 
 38 H       -5.5670    -3.2880     1.3000 H     1 <1>   0.1500 
 39 H       -6.1440     2.5850    -0.0410 H     1 <1>   0.1000 
 40 H       -7.4940     2.2620    -1.1620 H     1 <1>   0.1000 
 41 H       -8.2620     0.3680     0.3360 H     1 <1>   0.1000 
 42 H       -6.8920     0.6710     1.4360 H     1 <1>   0.1000 
 43 H       -2.3250    -6.4470    -0.6190 H     1 <1>   0.1500 
 44 H       -5.7960    -5.6890     1.7290 H     1 <1>   0.1500 
 45 H       -4.1760    -7.2750     0.7720 H     1 <1>   0.1500 
@<TRIPOS>BOND
  1   1   2  2   
  2   2   3  am  
  3   2   4  1   
  4   3   5  1   
  5   3   6  1   
  6   4   7  1   
  7   4   8  2   
  8   5   9  1   
  9   5  24  1   
 10   5  25  1   
 11   6  10  1   
 12   6  26  1   
 13   6  27  1   
 14   7  11  ar  
 15   7  12  1   
 16   8  13  1   
 17   8  28  1   
 18   9  14  1   
 19   9  15  1   
 20   9  29  1   
 21  10  14  1   
 22  10  16  1   
 23  10  30  1   
 24  11  13  ar  
 25  11  31  1   
 26  12  32  1   
 27  12  33  1   
 28  12  34  1   
 29  13  35  1   
 30  15  17  ar  
 31  15  18  ar  
 32  16  19  1   
 33  16  20  1   
 34  16  36  1   
 35  17  21  ar  
 36  17  37  1   
 37  18  22  ar  
 38  18  38  1   
 39  19  20  1   
 40  19  39  1   
 41  19  40  1   
 42  20  41  1   
 43  20  42  1   
 44  21  23  ar  
 45  21  43  1   
 46  22  23  ar  
 47  22  44  1   
 48  23  45  1   
@<TRIPOS>SUBSTRUCTURE
  1 ****   3 GROUP 4 **** **** 0

# MOE 2024.06 (io_trps.svl 2023.06)
