@<TRIPOS>MOLECULE
NONAME
38 39 1 0 0 
SMALL
USER_CHARGES


@<TRIPOS>ATOM
  1 O       -2.3030     1.5800     3.0250 O.2   1 <1>  -0.5700 
  2 C       -2.7530     1.6990     1.9110 C.2   1 <1>   0.5690 
  3 N       -3.7060     0.8330     1.4360 N.am  1 <1>  -0.6600 
  4 C       -2.1890     2.8200     1.0520 C.3   1 <1>   0.0810 
  5 C       -3.8190    -0.5300     2.0220 C.3   1 <1>   0.3200 
  6 C       -4.5940     1.1040     0.2530 C.3   1 <1>   0.1400 
  7 C       -1.1680     2.2410     0.0890 C.2   1 <1>  -0.0400 
  8 C       -3.4150    -1.5490     0.9750 C.2   1 <1>  -0.3320 
  9 C       -5.9140     1.7590     0.6810 C.3   1 <1>   0.1200 
 10 O       -1.5390     1.3570    -0.7980 O.3   1 <1>  -0.0190 
 11 C        0.1530     2.4280    -0.0460 C.2   1 <1>  -0.1500 
 12 N       -2.3500    -1.4030     0.1610 N.pl3 1 <1>   0.0330 
 13 C       -3.9870    -2.7250     0.6360 C.2   1 <1>   0.0770 
 14 O       -5.6620     2.8410     1.5130 O.3   1 <1>  -0.6800 
 15 N       -0.5370     0.9240    -1.5030 N.2   1 <1>  -0.4100 
 16 C        0.4970     1.5600    -1.0790 C.2   1 <1>   0.1080 
 17 C       -2.3530    -2.4960    -0.6290 C.2   1 <1>   0.0070 
 18 N       -3.3180    -3.3170    -0.3720 N.2   1 <1>  -0.5650 
 19 C        1.8940     1.3770    -1.6280 C.3   1 <1>  -0.0590 
 20 C       -1.3200    -2.7080    -1.7130 C.3   1 <1>  -0.0600 
 21 H       -1.7070     3.5360     1.6910 H     1 <1>   0.0800 
 22 H       -2.9690     3.3300     0.5210 H     1 <1>   0.0800 
 23 H       -4.8310    -0.7050     2.3430 H     1 <1>   0.0800 
 24 H       -3.1750    -0.6330     2.8790 H     1 <1>   0.0800 
 25 H       -4.8140     0.1880    -0.2670 H     1 <1>   0.0800 
 26 H       -4.1020     1.7440    -0.4560 H     1 <1>   0.0800 
 27 H       -6.5280     1.0560     1.2160 H     1 <1>   0.0800 
 28 H       -6.4560     2.1140    -0.1790 H     1 <1>   0.0800 
 29 H        0.8190     3.0700     0.5000 H     1 <1>   0.1500 
 30 H       -1.6990    -0.6090     0.1050 H     1 <1>   0.2700 
 31 H       -4.8610    -3.1880     1.0640 H     1 <1>   0.1500 
 32 H       -5.1760     2.5290     2.3050 H     1 <1>   0.4000 
 33 H        2.2740     2.3190    -1.9800 H     1 <1>   0.0800 
 34 H        1.8810     0.6800    -2.4460 H     1 <1>   0.0800 
 35 H        2.5420     0.9990    -0.8590 H     1 <1>   0.0800 
 36 H       -1.3460    -1.8900    -2.4090 H     1 <1>   0.0800 
 37 H       -1.5270    -3.6210    -2.2410 H     1 <1>   0.0800 
 38 H       -0.3400    -2.7720    -1.2780 H     1 <1>   0.0800 
@<TRIPOS>BOND
  1   1   2  2   
  2   2   3  am  
  3   2   4  1   
  4   3   5  1   
  5   3   6  1   
  6   4   7  1   
  7   4  21  1   
  8   4  22  1   
  9   5   8  1   
 10   5  23  1   
 11   5  24  1   
 12   6   9  1   
 13   6  25  1   
 14   6  26  1   
 15   7  10  1   
 16   7  11  2   
 17   8  12  1   
 18   8  13  2   
 19   9  14  1   
 20   9  27  1   
 21   9  28  1   
 22  10  15  1   
 23  11  16  1   
 24  11  29  1   
 25  12  17  1   
 26  12  30  1   
 27  13  18  1   
 28  13  31  1   
 29  14  32  1   
 30  15  16  2   
 31  16  19  1   
 32  17  18  2   
 33  17  20  1   
 34  19  33  1   
 35  19  34  1   
 36  19  35  1   
 37  20  36  1   
 38  20  37  1   
 39  20  38  1   
@<TRIPOS>SUBSTRUCTURE
  1 ****  10 GROUP 4 **** **** 0

# MOE 2024.06 (io_trps.svl 2023.06)
