@<TRIPOS>MOLECULE
NONAME
50 52 1 0 0 
SMALL
USER_CHARGES


@<TRIPOS>ATOM
  1 O       -0.5530    -1.0380     2.1470 O.2   1 <1>  -0.5700 
  2 C       -1.2500    -1.7690     1.4870 C.2   1 <1>   0.5690 
  3 N       -2.4090    -1.4270     0.8840 N.am  1 <1>  -0.6600 
  4 C       -0.9050    -3.2120     1.2510 C.3   1 <1>  -0.0990 
  5 C       -3.0160    -2.5640     0.1640 C.3   1 <1>   0.1400 
  6 C       -3.0870    -0.1170     0.9870 C.3   1 <1>   0.1400 
  7 C       -1.9480    -3.6720     0.2280 C.3   1 <1>   0.2890 
  8 C       -2.9500     0.6450    -0.3340 C.3   1 <1>  -0.1600 
  9 N       -2.5370    -4.9760     0.6290 N.pl3 1 <1>  -0.8690 
 10 C       -3.6070     2.0270    -0.2510 C.3   1 <1>  -0.2400 
 11 C       -3.1850    -5.7850    -0.2750 C.ar  1 <1>   0.4100 
 12 N       -3.5660    -5.2390    -1.4210 N.ar  1 <1>  -0.6200 
 13 C       -3.4100    -7.1150     0.0480 C.ar  1 <1>  -0.1500 
 14 C       -4.1730    -6.0480    -2.2710 C.ar  1 <1>   0.1600 
 15 C       -4.0580    -7.9610    -0.8300 C.ar  1 <1>   0.0860 
 16 C       -4.4350    -7.3820    -2.0350 C.ar  1 <1>  -0.1500 
 17 C       -4.3070    -9.3530    -0.5130 C.2   1 <1>   0.5440 
 18 O       -3.3710   -10.0420    -0.1530 O.2   1 <1>  -0.5700 
 19 N       -5.5660    -9.9110    -0.5990 N.am  1 <1>  -0.6600 
 20 C       -5.7770   -11.3810    -0.4720 C.3   1 <1>   0.1400 
 21 C       -6.8270    -9.1160    -0.6170 C.3   1 <1>   0.1400 
 22 C       -6.5730   -11.6820     0.8020 C.3   1 <1>  -0.1600 
 23 C       -7.6350    -9.4000     0.6540 C.3   1 <1>  -0.1600 
 24 C       -7.8940   -10.9020     0.8410 C.3   1 <1>  -0.1600 
 25 H       -0.9880    -3.7390     2.1820 H     1 <1>   0.0800 
 26 H        0.0900    -3.2900     0.8570 H     1 <1>   0.0800 
 27 H       -3.2260    -2.3030    -0.8570 H     1 <1>   0.0800 
 28 H       -3.9180    -2.8730     0.6630 H     1 <1>   0.0800 
 29 H       -2.6340     0.4540     1.7810 H     1 <1>   0.0800 
 30 H       -4.1240    -0.2680     1.2290 H     1 <1>   0.0800 
 31 H       -1.4860    -3.7650    -0.7410 H     1 <1>   0.0800 
 32 H       -3.4140     0.0830    -1.1260 H     1 <1>   0.0800 
 33 H       -1.9050     0.7640    -0.5630 H     1 <1>   0.0800 
 34 H       -1.9970    -5.4690     1.3420 H     1 <1>   0.4000 
 35 H       -4.6570     1.9340    -0.0360 H     1 <1>   0.0800 
 36 H       -3.4940     2.5440    -1.1880 H     1 <1>   0.0800 
 37 H       -3.1440     2.6160     0.5220 H     1 <1>   0.0800 
 38 H       -3.0770    -7.4960     0.9940 H     1 <1>   0.1500 
 39 H       -4.4780    -5.6200    -3.2120 H     1 <1>   0.1500 
 40 H       -4.9290    -7.9800    -2.7790 H     1 <1>   0.1500 
 41 H       -4.8350   -11.9020    -0.4430 H     1 <1>   0.0800 
 42 H       -6.3200   -11.7310    -1.3330 H     1 <1>   0.0800 
 43 H       -7.4020    -9.3920    -1.4840 H     1 <1>   0.0800 
 44 H       -6.6210    -8.0620    -0.6700 H     1 <1>   0.0800 
 45 H       -5.9680   -11.4200     1.6530 H     1 <1>   0.0800 
 46 H       -6.7720   -12.7370     0.8560 H     1 <1>   0.0800 
 47 H       -8.5730    -8.8770     0.6040 H     1 <1>   0.0800 
 48 H       -7.0920    -9.0190     1.5020 H     1 <1>   0.0800 
 49 H       -8.3890   -11.0720     1.7810 H     1 <1>   0.0800 
 50 H       -8.5400   -11.2550     0.0550 H     1 <1>   0.0800 
@<TRIPOS>BOND
  1   1   2  2   
  2   2   3  am  
  3   2   4  1   
  4   3   5  1   
  5   3   6  1   
  6   4   7  1   
  7   4  25  1   
  8   4  26  1   
  9   5   7  1   
 10   5  27  1   
 11   5  28  1   
 12   6   8  1   
 13   6  29  1   
 14   6  30  1   
 15   7   9  1   
 16   7  31  1   
 17   8  10  1   
 18   8  32  1   
 19   8  33  1   
 20   9  11  1   
 21   9  34  1   
 22  10  35  1   
 23  10  36  1   
 24  10  37  1   
 25  11  12  ar  
 26  11  13  ar  
 27  12  14  ar  
 28  13  15  ar  
 29  13  38  1   
 30  14  16  ar  
 31  14  39  1   
 32  15  16  ar  
 33  15  17  1   
 34  16  40  1   
 35  17  18  2   
 36  17  19  am  
 37  19  20  1   
 38  19  21  1   
 39  20  22  1   
 40  20  41  1   
 41  20  42  1   
 42  21  23  1   
 43  21  43  1   
 44  21  44  1   
 45  22  24  1   
 46  22  45  1   
 47  22  46  1   
 48  23  24  1   
 49  23  47  1   
 50  23  48  1   
 51  24  49  1   
 52  24  50  1   
@<TRIPOS>SUBSTRUCTURE
  1 ****  11 GROUP 4 **** **** 0

# MOE 2024.06 (io_trps.svl 2023.06)
