@<TRIPOS>MOLECULE
NONAME
52 55 1 0 0 
SMALL
USER_CHARGES


@<TRIPOS>ATOM
  1 O       -1.3230     0.0530     2.2020 O.2   1 <1>  -0.5700 
  2 C       -1.8540     0.5800     1.2520 C.2   1 <1>   0.5770 
  3 N       -2.9220    -0.0260     0.6360 N.am  1 <1>  -0.6600 
  4 C       -1.2600     1.8900     0.7250 C.3   1 <1>   0.0530 
  5 C       -3.7240     0.4590    -0.5190 C.3   1 <1>   0.1400 
  6 C       -3.3510    -1.3990     1.0100 C.3   1 <1>   0.1400 
  7 C       -0.5240     2.7340     1.8160 C.3   1 <1>   0.0000 
  8 C       -2.2760     3.0690     0.6040 C.3   1 <1>   0.0000 
  9 C       -0.3860     1.5850    -0.5100 C.3   1 <1>   0.1200 
 10 C       -4.9050    -0.5090    -0.6040 C.3   1 <1>   0.2000 
 11 C       -4.3560    -1.8320    -0.0690 C.3   1 <1>  -0.0800 
 12 C       -1.2330     4.0000     1.2730 C.3   1 <1>   0.0000 
 13 O        0.0160     2.7460    -1.1700 O.3   1 <1>  -0.5600 
 14 O       -5.8910    -0.0720     0.2650 O.3   1 <1>  -0.6800 
 15 C       -3.6890    -2.6390    -1.2000 C.3   1 <1>  -0.0170 
 16 C        0.8900     2.5220    -2.2270 C.3   1 <1>   0.0400 
 17 C       -3.1380    -3.9670    -0.7080 C.ar  1 <1>   0.1670 
 18 N       -1.8570    -4.0480    -0.5180 N.ar  1 <1>  -0.6200 
 19 C       -4.0270    -5.0300    -0.4810 C.ar  1 <1>  -0.1500 
 20 C       -1.3580    -5.2250    -0.0630 C.ar  1 <1>   0.3100 
 21 C       -3.5530    -6.2240    -0.0300 C.ar  1 <1>  -0.1500 
 22 C       -2.1720    -6.3490     0.1950 C.ar  1 <1>   0.0000 
 23 C        0.0240    -5.3340     0.1640 C.ar  1 <1>  -0.1500 
 24 C       -1.5730    -7.5350     0.6660 C.ar  1 <1>  -0.1500 
 25 C        0.5860    -6.4960     0.6230 C.ar  1 <1>  -0.1500 
 26 C       -0.2230    -7.6080     0.8760 C.ar  1 <1>  -0.1500 
 27 H       -4.0710     1.4680    -0.3880 H     1 <1>   0.0800 
 28 H       -3.1320     0.3920    -1.4150 H     1 <1>   0.0800 
 29 H       -2.5000    -2.0570     1.0740 H     1 <1>   0.0800 
 30 H       -3.8280    -1.3630     1.9740 H     1 <1>   0.0800 
 31 H       -0.8420     2.5130     2.8210 H     1 <1>   0.0000 
 32 H        0.5460     2.7620     1.7090 H     1 <1>   0.0000 
 33 H       -2.5180     3.3490    -0.4060 H     1 <1>   0.0000 
 34 H       -3.1430     2.9380     1.2280 H     1 <1>   0.0000 
 35 H       -0.9350     0.9820    -1.2110 H     1 <1>   0.0800 
 36 H        0.4910     1.0440    -0.1980 H     1 <1>   0.0800 
 37 H       -5.3310    -0.5760    -1.5900 H     1 <1>   0.0800 
 38 H       -5.1420    -2.4290     0.3610 H     1 <1>   0.0800 
 39 H       -0.6360     4.5460     0.5640 H     1 <1>   0.0000 
 40 H       -1.6480     4.6230     2.0450 H     1 <1>   0.0000 
 41 H       -5.4850     0.1130     1.1370 H     1 <1>   0.4000 
 42 H       -2.8860    -2.0710    -1.6360 H     1 <1>   0.0800 
 43 H       -4.4060    -2.8340    -1.9770 H     1 <1>   0.0800 
 44 H        1.1280     3.4730    -2.6710 H     1 <1>   0.0800 
 45 H        0.4140     1.8900    -2.9560 H     1 <1>   0.0800 
 46 H        1.7890     2.0630    -1.8540 H     1 <1>   0.0800 
 47 H       -5.0760    -4.8880    -0.6660 H     1 <1>   0.1500 
 48 H       -4.2010    -7.0610     0.1550 H     1 <1>   0.1500 
 49 H        0.6270    -4.4680    -0.0350 H     1 <1>   0.1500 
 50 H       -2.2010    -8.3860     0.8600 H     1 <1>   0.1500 
 51 H        1.6470    -6.5650     0.7930 H     1 <1>   0.1500 
 52 H        0.2330    -8.5150     1.2360 H     1 <1>   0.1500 
@<TRIPOS>BOND
  1   1   2  2   
  2   2   3  am  
  3   2   4  1   
  4   3   5  1   
  5   3   6  1   
  6   4   7  1   
  7   4   8  1   
  8   4   9  1   
  9   5  10  1   
 10   5  27  1   
 11   5  28  1   
 12   6  11  1   
 13   6  29  1   
 14   6  30  1   
 15   7  12  1   
 16   7  31  1   
 17   7  32  1   
 18   8  12  1   
 19   8  33  1   
 20   8  34  1   
 21   9  13  1   
 22   9  35  1   
 23   9  36  1   
 24  10  11  1   
 25  10  14  1   
 26  10  37  1   
 27  11  15  1   
 28  11  38  1   
 29  12  39  1   
 30  12  40  1   
 31  13  16  1   
 32  14  41  1   
 33  15  17  1   
 34  15  42  1   
 35  15  43  1   
 36  16  44  1   
 37  16  45  1   
 38  16  46  1   
 39  17  18  ar  
 40  17  19  ar  
 41  18  20  ar  
 42  19  21  ar  
 43  19  47  1   
 44  20  22  ar  
 45  20  23  ar  
 46  21  22  ar  
 47  21  48  1   
 48  22  24  ar  
 49  23  25  ar  
 50  23  49  1   
 51  24  26  ar  
 52  24  50  1   
 53  25  26  ar  
 54  25  51  1   
 55  26  52  1   
@<TRIPOS>SUBSTRUCTURE
  1 ****   6 GROUP 4 **** **** 0

# MOE 2024.06 (io_trps.svl 2023.06)
