@<TRIPOS>MOLECULE
NONAME
46 48 1 0 0 
SMALL
USER_CHARGES


@<TRIPOS>ATOM
  1 S       -2.7160    -0.0330     1.2530 S.3   1 <1>  -0.0800 
  2 C       -1.8910     0.3100    -0.2540 C.2   1 <1>   0.1980 
  3 C       -1.2410     0.3130     2.1060 C.2   1 <1>  -0.1100 
  4 N       -0.6670     0.6380    -0.1180 N.2   1 <1>  -0.5650 
  5 C       -2.6980     0.1770    -1.5350 C.3   1 <1>   0.3200 
  6 C       -0.2930     0.6430     1.2150 C.2   1 <1>   0.0460 
  7 N       -3.0550    -1.2420    -1.7740 N.am  1 <1>  -0.7300 
  8 C        1.1390     1.0180     1.5210 C.3   1 <1>  -0.0590 
  9 C       -4.3180    -1.7370    -1.8180 C.2   1 <1>   0.5690 
 10 O       -5.2760    -1.0040    -1.7820 O.2   1 <1>  -0.5700 
 11 C       -4.5190    -3.2520    -1.8880 C.3   1 <1>   0.2610 
 12 O       -3.4240    -3.8600    -2.5560 O.3   1 <1>  -0.5600 
 13 C       -4.6860    -3.8070    -0.4490 C.3   1 <1>   0.3640 
 14 C       -3.5390    -5.2560    -2.6810 C.3   1 <1>   0.1810 
 15 N       -4.2800    -5.2420    -0.2890 N.am  1 <1>  -0.6600 
 16 C       -6.1080    -3.5670     0.0830 C.ar  1 <1>  -0.1430 
 17 C       -3.7520    -5.9510    -1.3350 C.2   1 <1>   0.5690 
 18 C       -4.4090    -5.8160     1.0820 C.3   1 <1>   0.0600 
 19 C       -7.2320    -4.3160    -0.2810 C.ar  1 <1>  -0.1430 
 20 C       -6.2640    -2.5220     0.9870 C.ar  1 <1>  -0.1500 
 21 O       -3.4590    -7.1200    -1.2450 O.2   1 <1>  -0.5700 
 22 C       -8.4660    -4.0050     0.2730 C.ar  1 <1>  -0.1500 
 23 C       -7.1920    -5.4840    -1.2600 C.3   1 <1>  -0.0970 
 24 C       -7.4980    -2.2210     1.5300 C.ar  1 <1>  -0.1500 
 25 C       -8.6030    -2.9660     1.1730 C.ar  1 <1>  -0.1500 
 26 H       -1.2430     0.2330     3.1770 H     1 <1>   0.1500 
 27 H       -2.1130     0.5390    -2.3610 H     1 <1>   0.0800 
 28 H       -3.5860     0.7800    -1.4590 H     1 <1>   0.0800 
 29 H       -2.2690    -1.8910    -1.8850 H     1 <1>   0.3700 
 30 H        1.3190     0.9870     2.5800 H     1 <1>   0.0800 
 31 H        1.3370     2.0110     1.1610 H     1 <1>   0.0800 
 32 H        1.8060     0.3320     1.0320 H     1 <1>   0.0800 
 33 H       -5.4050    -3.4390    -2.4650 H     1 <1>   0.0800 
 34 H       -4.0090    -3.2430     0.1700 H     1 <1>   0.0800 
 35 H       -4.3600    -5.4770    -3.3380 H     1 <1>   0.0800 
 36 H       -2.6310    -5.6200    -3.1270 H     1 <1>   0.0800 
 37 H       -3.8980    -5.1880     1.7900 H     1 <1>   0.0800 
 38 H       -3.9790    -6.8020     1.1240 H     1 <1>   0.0800 
 39 H       -5.4470    -5.8830     1.3570 H     1 <1>   0.0800 
 40 H       -5.4200    -1.9190     1.2770 H     1 <1>   0.1500 
 41 H       -9.3390    -4.5750     0.0080 H     1 <1>   0.1500 
 42 H       -8.1830    -5.7500    -1.5810 H     1 <1>   0.0800 
 43 H       -6.7550    -6.3450    -0.7880 H     1 <1>   0.0800 
 44 H       -6.6250    -5.2400    -2.1360 H     1 <1>   0.0800 
 45 H       -7.5980    -1.4060     2.2250 H     1 <1>   0.1500 
 46 H       -9.5670    -2.7370     1.5920 H     1 <1>   0.1500 
@<TRIPOS>BOND
  1   1   2  1   
  2   1   3  1   
  3   2   4  2   
  4   2   5  1   
  5   3   6  2   
  6   3  26  1   
  7   4   6  1   
  8   5   7  1   
  9   5  27  1   
 10   5  28  1   
 11   6   8  1   
 12   7   9  am  
 13   7  29  1   
 14   8  30  1   
 15   8  31  1   
 16   8  32  1   
 17   9  10  2   
 18   9  11  1   
 19  11  12  1   
 20  11  13  1   
 21  11  33  1   
 22  12  14  1   
 23  13  15  1   
 24  13  16  1   
 25  13  34  1   
 26  14  17  1   
 27  14  35  1   
 28  14  36  1   
 29  15  17  am  
 30  15  18  1   
 31  16  19  ar  
 32  16  20  ar  
 33  17  21  2   
 34  18  37  1   
 35  18  38  1   
 36  18  39  1   
 37  19  22  ar  
 38  19  23  1   
 39  20  24  ar  
 40  20  40  1   
 41  22  25  ar  
 42  22  41  1   
 43  23  42  1   
 44  23  43  1   
 45  23  44  1   
 46  24  25  ar  
 47  24  45  1   
 48  25  46  1   
@<TRIPOS>SUBSTRUCTURE
  1 ****  13 GROUP 4 **** **** 0

# MOE 2024.06 (io_trps.svl 2023.06)
