@<TRIPOS>MOLECULE
NONAME
50 53 1 0 0 
SMALL
USER_CHARGES


@<TRIPOS>ATOM
  1 O        0.9320    -0.0390    -2.3940 O.2   1 <1>  -0.5700 
  2 C        1.4820    -0.5840    -1.4550 C.2   1 <1>   0.5440 
  3 N        2.2850     0.1670    -0.6180 N.am  1 <1>  -0.6600 
  4 C        1.3300    -2.0140    -1.2890 C.ar  1 <1>   0.0860 
  5 C        3.1830    -0.4870     0.3950 C.3   1 <1>   0.1400 
  6 C        2.3690     1.6470    -0.7710 C.3   1 <1>   0.1400 
  7 C        0.6890    -2.5780    -0.1830 C.ar  1 <1>   0.0830 
  8 C        1.8300    -2.8800    -2.2640 C.ar  1 <1>  -0.1500 
  9 C        4.1740     0.4370     1.1360 C.3   1 <1>   0.1400 
 10 C        3.6070     2.0260    -1.5890 C.3   1 <1>  -0.1600 
 11 O        0.1510    -1.7700     0.7650 O.3   1 <1>  -0.3620 
 12 C        0.5910    -3.9670    -0.0530 C.ar  1 <1>   0.0830 
 13 C        1.7210    -4.2530    -2.1420 C.ar  1 <1>  -0.1500 
 14 N        5.0700     1.3000     0.2900 N.am  1 <1>  -0.6600 
 15 C        4.8770     1.2650    -1.1910 C.3   1 <1>   0.1400 
 16 C       -0.7800    -2.3370     1.6640 C.3   1 <1>   0.1200 
 17 O       -0.0020    -4.5360     1.0280 O.3   1 <1>  -0.3630 
 18 C        1.1030    -4.7990    -1.0310 C.ar  1 <1>  -0.1500 
 19 C        6.0300     2.0650     0.9160 C.2   1 <1>   0.5690 
 20 C       -0.2770    -3.7050     2.1380 C.3   1 <1>   0.1200 
 21 O        6.1720     1.9930     2.1190 O.2   1 <1>  -0.5700 
 22 C        6.9240     3.0480     0.1150 C.3   1 <1>   0.2610 
 23 O        7.8700     2.3620    -0.6610 O.3   1 <1>  -0.5600 
 24 C        7.7880     3.9920     0.9530 C.3   1 <1>  -0.1600 
 25 C        8.9990     2.0940     0.1070 C.3   1 <1>   0.1200 
 26 C        9.0880     3.2220     1.1320 C.3   1 <1>  -0.1600 
 27 H        2.5660    -0.9600     1.1380 H     1 <1>   0.0800 
 28 H        3.7460    -1.2650    -0.0920 H     1 <1>   0.0800 
 29 H        1.4870     2.0200    -1.2640 H     1 <1>   0.0800 
 30 H        2.4040     2.1110     0.1990 H     1 <1>   0.0800 
 31 H        2.3060    -2.4560    -3.1320 H     1 <1>   0.1500 
 32 H        4.7990    -0.1800     1.7590 H     1 <1>   0.0800 
 33 H        3.6170     1.0760     1.8000 H     1 <1>   0.0800 
 34 H        3.7780     3.0820    -1.4950 H     1 <1>   0.0800 
 35 H        3.4020     1.8290    -2.6260 H     1 <1>   0.0800 
 36 H        2.1140    -4.8990    -2.9090 H     1 <1>   0.1500 
 37 H        5.7200     1.6900    -1.7040 H     1 <1>   0.0800 
 38 H        4.8090     0.2430    -1.5190 H     1 <1>   0.0800 
 39 H       -0.8970    -1.6610     2.4920 H     1 <1>   0.0800 
 40 H       -1.7210    -2.4380     1.1530 H     1 <1>   0.0800 
 41 H        1.0130    -5.8650    -0.9200 H     1 <1>   0.1500 
 42 H       -1.0170    -4.1950     2.7450 H     1 <1>   0.0800 
 43 H        0.6290    -3.5950     2.7070 H     1 <1>   0.0800 
 44 H        6.2980     3.6160    -0.5480 H     1 <1>   0.0800 
 45 H        7.9670     4.8910     0.3900 H     1 <1>   0.0800 
 46 H        7.3260     4.2550     1.8890 H     1 <1>   0.0800 
 47 H        8.8570     1.1420     0.5900 H     1 <1>   0.0800 
 48 H        9.8580     2.0580    -0.5410 H     1 <1>   0.0800 
 49 H        9.1580     2.8050     2.1220 H     1 <1>   0.0800 
 50 H        9.9450     3.8460     0.9500 H     1 <1>   0.0800 
@<TRIPOS>BOND
  1   1   2  2   
  2   2   3  am  
  3   2   4  1   
  4   3   5  1   
  5   3   6  1   
  6   4   7  ar  
  7   4   8  ar  
  8   5   9  1   
  9   5  27  1   
 10   5  28  1   
 11   6  10  1   
 12   6  29  1   
 13   6  30  1   
 14   7  11  1   
 15   7  12  ar  
 16   8  13  ar  
 17   8  31  1   
 18   9  14  1   
 19   9  32  1   
 20   9  33  1   
 21  10  15  1   
 22  10  34  1   
 23  10  35  1   
 24  11  16  1   
 25  12  17  1   
 26  12  18  ar  
 27  13  18  ar  
 28  13  36  1   
 29  14  15  1   
 30  14  19  am  
 31  15  37  1   
 32  15  38  1   
 33  16  20  1   
 34  16  39  1   
 35  16  40  1   
 36  17  20  1   
 37  18  41  1   
 38  19  21  2   
 39  19  22  1   
 40  20  42  1   
 41  20  43  1   
 42  22  23  1   
 43  22  24  1   
 44  22  44  1   
 45  23  25  1   
 46  24  26  1   
 47  24  45  1   
 48  24  46  1   
 49  25  26  1   
 50  25  47  1   
 51  25  48  1   
 52  26  49  1   
 53  26  50  1   
@<TRIPOS>SUBSTRUCTURE
  1 ****   5 GROUP 4 **** **** 0

# MOE 2024.06 (io_trps.svl 2023.06)
