@<TRIPOS>MOLECULE
NONAME
39 40 1 0 0 
SMALL
USER_CHARGES


@<TRIPOS>ATOM
  1 O       -0.4630    -0.0910    -0.2620 O.2   1 <1>  -0.5700 
  2 C       -1.0570    -1.0130     0.2610 C.2   1 <1>   0.7800 
  3 O       -0.4360    -2.1660     0.5260 O.3   1 <1>  -0.4300 
  4 N       -2.3870    -0.9270     0.5900 N.am  1 <1>  -0.6600 
  5 C        0.9140    -2.4920     0.2730 C.3   1 <1>   0.2800 
  6 C       -3.1740     0.2980     0.2830 C.3   1 <1>   0.1400 
  7 C       -3.1450    -2.0630     1.1810 C.3   1 <1>   0.1400 
  8 C        1.1970    -2.4510    -1.2330 C.3   1 <1>  -0.2400 
  9 C        1.0780    -3.9270     0.7770 C.3   1 <1>  -0.2400 
 10 C        1.8420    -1.5680     1.0710 C.3   1 <1>  -0.2400 
 11 C       -4.0210     0.0960    -0.9760 C.3   1 <1>  -0.0220 
 12 C       -3.9810    -2.7690     0.1090 C.3   1 <1>  -0.0220 
 13 C       -5.2710    -0.7310    -0.7030 C.2   1 <1>  -0.0290 
 14 C       -5.2640    -2.0090    -0.2190 C.2   1 <1>  -0.1380 
 15 N       -6.4740    -0.1130    -0.9740 N.am  1 <1>  -0.5390 
 16 C       -6.5000    -2.6810    -0.0020 C.2   1 <1>  -0.1500 
 17 C       -7.6790    -0.7210    -0.7790 C.2   1 <1>   0.6160 
 18 C       -7.6720    -2.0480    -0.2770 C.2   1 <1>  -0.1360 
 19 O       -8.6980    -0.1030    -1.0410 O.2   1 <1>  -0.5700 
 20 H       -2.5060     1.1270     0.1270 H     1 <1>   0.0800 
 21 H       -3.8070     0.5440     1.1190 H     1 <1>   0.0800 
 22 H       -3.7850    -1.7020     1.9680 H     1 <1>   0.0800 
 23 H       -2.4640    -2.7710     1.6190 H     1 <1>   0.0800 
 24 H        0.4840    -3.0540    -1.7650 H     1 <1>   0.0800 
 25 H        2.1820    -2.8340    -1.4310 H     1 <1>   0.0800 
 26 H        1.1600    -1.4450    -1.6080 H     1 <1>   0.0800 
 27 H        0.4180    -4.5870     0.2450 H     1 <1>   0.0800 
 28 H        0.8570    -3.9800     1.8280 H     1 <1>   0.0800 
 29 H        2.0880    -4.2630     0.6260 H     1 <1>   0.0800 
 30 H        1.8060    -0.5630     0.6940 H     1 <1>   0.0800 
 31 H        2.8580    -1.9080     0.9870 H     1 <1>   0.0800 
 32 H        1.5660    -1.5670     2.1090 H     1 <1>   0.0800 
 33 H       -3.4280    -0.3680    -1.7440 H     1 <1>   0.0800 
 34 H       -4.3080     1.0660    -1.3390 H     1 <1>   0.0800 
 35 H       -4.2290    -3.7470     0.4790 H     1 <1>   0.0800 
 36 H       -3.3930    -2.9070    -0.7810 H     1 <1>   0.0800 
 37 H       -6.5370     0.8340    -1.3470 H     1 <1>   0.3700 
 38 H       -6.4940    -3.6880     0.3770 H     1 <1>   0.1500 
 39 H       -8.6290    -2.5090    -0.1320 H     1 <1>   0.1500 
@<TRIPOS>BOND
  1   1   2  2   
  2   2   3  1   
  3   2   4  am  
  4   3   5  1   
  5   4   6  1   
  6   4   7  1   
  7   5   8  1   
  8   5   9  1   
  9   5  10  1   
 10   6  11  1   
 11   6  20  1   
 12   6  21  1   
 13   7  12  1   
 14   7  22  1   
 15   7  23  1   
 16   8  24  1   
 17   8  25  1   
 18   8  26  1   
 19   9  27  1   
 20   9  28  1   
 21   9  29  1   
 22  10  30  1   
 23  10  31  1   
 24  10  32  1   
 25  11  13  1   
 26  11  33  1   
 27  11  34  1   
 28  12  14  1   
 29  12  35  1   
 30  12  36  1   
 31  13  14  2   
 32  13  15  1   
 33  14  16  1   
 34  15  17  am  
 35  15  37  1   
 36  16  18  2   
 37  16  38  1   
 38  17  18  1   
 39  17  19  2   
 40  18  39  1   
@<TRIPOS>SUBSTRUCTURE
  1 ****   4 GROUP 4 **** **** 0

# MOE 2024.06 (io_trps.svl 2023.06)
