@<TRIPOS>MOLECULE
NONAME
49 51 1 0 0 
SMALL
USER_CHARGES


@<TRIPOS>ATOM
  1 O        1.2810    -0.8020    -1.8880 O.2   1 <1>  -0.5700 
  2 C        2.0790    -1.2250    -1.0730 C.2   1 <1>   0.5440 
  3 N        3.2740    -0.5600    -0.8860 N.am  1 <1>  -0.6600 
  4 C        1.7440    -2.4050    -0.3100 C.ar  1 <1>   0.0860 
  5 C        4.2700    -0.9220     0.1720 C.3   1 <1>   0.1400 
  6 C        3.6150     0.6510    -1.6870 C.3   1 <1>   0.1400 
  7 C        0.9080    -2.3760     0.8030 C.ar  1 <1>  -0.1440 
  8 C        2.2820    -3.6350    -0.6810 C.ar  1 <1>   0.1600 
  9 C        4.3980     0.1780     1.2340 C.3   1 <1>   0.1400 
 10 C        3.1810     1.9100    -0.9270 C.3   1 <1>  -0.1600 
 11 C        0.6880    -3.5710     1.4570 C.ar  1 <1>  -0.1500 
 12 C        0.2550    -1.0860     1.2770 C.3   1 <1>  -0.0960 
 13 N        2.0870    -4.7870    -0.0600 N.ar  1 <1>  -0.6200 
 14 N        5.0760     1.3840     0.6740 N.am  1 <1>  -0.6600 
 15 C        4.1880     2.4400     0.1080 C.3   1 <1>   0.1400 
 16 C        1.2920    -4.7280     0.9950 C.ar  1 <1>   0.1600 
 17 C        6.4570     1.4540     0.6440 C.2   1 <1>   0.5440 
 18 O        7.0950     0.5000     1.0540 O.2   1 <1>  -0.5700 
 19 C        7.1700     2.6350     0.2070 C.ar  1 <1>   0.0860 
 20 C        7.3360     2.9730    -1.1420 C.ar  1 <1>   0.0820 
 21 C        7.7320     3.4870     1.1570 C.ar  1 <1>  -0.1500 
 22 O        6.8270     2.1980    -2.1120 O.3   1 <1>  -0.5330 
 23 C        8.0280     4.1150    -1.5130 C.ar  1 <1>  -0.1500 
 24 C        8.4220     4.6320     0.7950 C.ar  1 <1>  -0.1440 
 25 C        8.5670     4.9430    -0.5470 C.ar  1 <1>  -0.1500 
 26 C        9.0240     5.5430     1.8500 C.3   1 <1>  -0.0970 
 27 H        5.2330    -1.0900    -0.2810 H     1 <1>   0.0800 
 28 H        3.9840    -1.8330     0.6640 H     1 <1>   0.0800 
 29 H        3.0980     0.6100    -2.6300 H     1 <1>   0.0800 
 30 H        4.6710     0.6720    -1.8960 H     1 <1>   0.0800 
 31 H        2.9180    -3.6550    -1.5490 H     1 <1>   0.1500 
 32 H        4.9790    -0.2010     2.0560 H     1 <1>   0.0800 
 33 H        3.4270     0.4380     1.6140 H     1 <1>   0.0800 
 34 H        2.2330     1.7270    -0.4530 H     1 <1>   0.0800 
 35 H        3.0160     2.6940    -1.6430 H     1 <1>   0.0800 
 36 H        0.0510    -3.6170     2.3210 H     1 <1>   0.1500 
 37 H       -0.3730    -0.6880     0.4990 H     1 <1>   0.0800 
 38 H        1.0070    -0.3560     1.5170 H     1 <1>   0.0800 
 39 H       -0.3490    -1.2550     2.1500 H     1 <1>   0.0800 
 40 H        3.6550     2.9160     0.9130 H     1 <1>   0.0800 
 41 H        4.7840     3.1980    -0.3670 H     1 <1>   0.0800 
 42 H        1.1100    -5.6520     1.5190 H     1 <1>   0.1500 
 43 H        7.6210     3.2300     2.1950 H     1 <1>   0.1500 
 44 H        7.0910     2.4660    -3.0100 H     1 <1>   0.4500 
 45 H        8.1510     4.3670    -2.5500 H     1 <1>   0.1500 
 46 H        9.1040     5.8290    -0.8380 H     1 <1>   0.1500 
 47 H        8.7750     5.2050     2.8390 H     1 <1>   0.0800 
 48 H        8.6510     6.5440     1.7270 H     1 <1>   0.0800 
 49 H       10.0950     5.5560     1.7520 H     1 <1>   0.0800 
@<TRIPOS>BOND
  1   1   2  2   
  2   2   3  am  
  3   2   4  1   
  4   3   5  1   
  5   3   6  1   
  6   4   7  ar  
  7   4   8  ar  
  8   5   9  1   
  9   5  27  1   
 10   5  28  1   
 11   6  10  1   
 12   6  29  1   
 13   6  30  1   
 14   7  11  ar  
 15   7  12  1   
 16   8  13  ar  
 17   8  31  1   
 18   9  14  1   
 19   9  32  1   
 20   9  33  1   
 21  10  15  1   
 22  10  34  1   
 23  10  35  1   
 24  11  16  ar  
 25  11  36  1   
 26  12  37  1   
 27  12  38  1   
 28  12  39  1   
 29  13  16  ar  
 30  14  15  1   
 31  14  17  am  
 32  15  40  1   
 33  15  41  1   
 34  16  42  1   
 35  17  18  2   
 36  17  19  1   
 37  19  20  ar  
 38  19  21  ar  
 39  20  22  1   
 40  20  23  ar  
 41  21  24  ar  
 42  21  43  1   
 43  22  44  1   
 44  23  25  ar  
 45  23  45  1   
 46  24  25  ar  
 47  24  26  1   
 48  25  46  1   
 49  26  47  1   
 50  26  48  1   
 51  26  49  1   
@<TRIPOS>SUBSTRUCTURE
  1 ****  14 GROUP 4 **** **** 0

# MOE 2024.06 (io_trps.svl 2023.06)
