@<TRIPOS>MOLECULE
NONAME
51 53 1 0 0 
SMALL
USER_CHARGES


@<TRIPOS>ATOM
  1 O       -1.1240     0.1970     1.1360 O.2   1 <1>  -0.5700 
  2 C       -1.8120     0.9880     0.5320 C.2   1 <1>   0.5690 
  3 N       -2.8560     0.5480    -0.2370 N.am  1 <1>  -0.6600 
  4 C       -1.4960     2.4700     0.6650 C.3   1 <1>  -0.0990 
  5 C       -2.8920    -0.8760    -0.6410 C.3   1 <1>   0.1400 
  6 C       -4.2190     1.1540    -0.1690 C.3   1 <1>   0.1400 
  7 C       -0.0890     2.7950     0.1330 C.3   1 <1>  -0.1600 
  8 C       -3.8330    -1.5310     0.3760 C.3   1 <1>   0.4230 
  9 C       -5.1960     0.2240     0.6060 C.3   1 <1>  -0.1600 
 10 C        0.2460     4.2860     0.2870 C.3   1 <1>   0.0960 
 11 N       -3.4350    -2.8900     0.8930 N.4   1 <1>  -0.9590 
 12 C       -5.3520    -1.2600    -0.0390 C.3   1 <1>   0.0000 
 13 N        1.5480     4.5950    -0.3340 N.pl3 1 <1>   0.3140 
 14 C       -3.3180    -3.9100    -0.1590 C.3   1 <1>   0.3430 
 15 C       -2.1880    -2.7990     1.7200 C.3   1 <1>   0.2630 
 16 C       -5.5170    -2.7010    -0.7540 C.3   1 <1>  -0.1600 
 17 C       -6.8930    -0.9520    -0.3630 C.3   1 <1>   0.1200 
 18 N        1.6800     4.8380    -1.6300 N.2   1 <1>  -0.7070 
 19 C        2.7500     4.6840     0.2420 C.2   1 <1>   0.0360 
 20 C       -4.3450    -3.5980    -1.2280 C.3   1 <1>  -0.1600 
 21 O       -7.6090    -1.0720     0.8270 O.3   1 <1>  -0.6800 
 22 C        2.9490     5.0550    -1.7420 C.2   1 <1>   0.3660 
 23 N        3.6630     4.9750    -0.6120 N.2   1 <1>  -0.5650 
 24 H       -2.2130     3.0510     0.1180 H     1 <1>   0.0800 
 25 H       -1.5640     2.7350     1.7050 H     1 <1>   0.0800 
 26 H       -3.2740    -0.9530    -1.6430 H     1 <1>   0.0800 
 27 H       -1.9040    -1.3010    -0.6060 H     1 <1>   0.0800 
 28 H       -4.1810     2.1090     0.3250 H     1 <1>   0.0800 
 29 H       -4.5810     1.3150    -1.1710 H     1 <1>   0.0800 
 30 H       -0.0410     2.5280    -0.9100 H     1 <1>   0.0800 
 31 H        0.6400     2.2080     0.6660 H     1 <1>   0.0800 
 32 H       -3.6200    -0.9560     1.2570 H     1 <1>   0.0800 
 33 H       -4.9150     0.1830     1.6470 H     1 <1>   0.0800 
 34 H       -6.0760     0.8410     0.7020 H     1 <1>   0.0800 
 35 H        0.2840     4.5580     1.3260 H     1 <1>   0.0800 
 36 H       -0.5010     4.8850    -0.2010 H     1 <1>   0.0800 
 37 H       -4.2130    -3.1750     1.5060 H     1 <1>   0.4500 
 38 H       -2.3300    -3.8990    -0.5920 H     1 <1>   0.0800 
 39 H       -3.5000    -4.8870     0.2600 H     1 <1>   0.0800 
 40 H       -1.3560    -2.4730     1.1160 H     1 <1>   0.0800 
 41 H       -1.9500    -3.7570     2.1520 H     1 <1>   0.0800 
 42 H       -2.3200    -2.0850     2.5180 H     1 <1>   0.0800 
 43 H       -6.1480    -3.3150    -0.1280 H     1 <1>   0.0800 
 44 H       -6.0070    -2.6030    -1.7100 H     1 <1>   0.0800 
 45 H       -7.4410    -1.5780    -1.0470 H     1 <1>   0.0800 
 46 H       -7.0590     0.0280    -0.7810 H     1 <1>   0.0800 
 47 H        2.9120     4.5280     1.2930 H     1 <1>   0.1500 
 48 H       -3.8440    -3.1320    -2.0590 H     1 <1>   0.0800 
 49 H       -4.7340    -4.5290    -1.6040 H     1 <1>   0.0800 
 50 H       -8.5600    -0.8820     0.6900 H     1 <1>   0.4000 
 51 H        3.4280     5.2890    -2.6800 H     1 <1>   0.1500 
@<TRIPOS>BOND
  1   1   2  2   
  2   2   3  am  
  3   2   4  1   
  4   3   5  1   
  5   3   6  1   
  6   4   7  1   
  7   4  24  1   
  8   4  25  1   
  9   5   8  1   
 10   5  26  1   
 11   5  27  1   
 12   6   9  1   
 13   6  28  1   
 14   6  29  1   
 15   7  10  1   
 16   7  30  1   
 17   7  31  1   
 18   8  11  1   
 19   8  12  1   
 20   8  32  1   
 21   9  12  1   
 22   9  33  1   
 23   9  34  1   
 24  10  13  1   
 25  10  35  1   
 26  10  36  1   
 27  11  14  1   
 28  11  15  1   
 29  11  37  1   
 30  12  16  1   
 31  12  17  1   
 32  13  18  1   
 33  13  19  1   
 34  14  20  1   
 35  14  38  1   
 36  14  39  1   
 37  15  40  1   
 38  15  41  1   
 39  15  42  1   
 40  16  20  1   
 41  16  43  1   
 42  16  44  1   
 43  17  21  1   
 44  17  45  1   
 45  17  46  1   
 46  18  22  2   
 47  19  23  2   
 48  19  47  1   
 49  20  48  1   
 50  20  49  1   
 51  21  50  1   
 52  22  23  1   
 53  22  51  1   
@<TRIPOS>SUBSTRUCTURE
  1 ****   2 GROUP 4 **** **** 0

# MOE 2024.06 (io_trps.svl 2023.06)
