@<TRIPOS>MOLECULE
NONAME
62 64 1 0 0 
SMALL
USER_CHARGES


@<TRIPOS>ATOM
  1 CL      -1.3490    -0.6270     0.9620 Cl    1 <1>  -0.1770 
  2 C       -2.2140     0.8680     0.6850 C.ar  1 <1>   0.1770 
  3 C       -3.2310     0.8990    -0.2520 C.ar  1 <1>  -0.1440 
  4 C       -1.8750     1.9810     1.4280 C.ar  1 <1>  -0.1500 
  5 C       -3.9180     2.0870    -0.4380 C.ar  1 <1>  -0.1500 
  6 C       -3.5910    -0.3380    -1.0480 C.3   1 <1>   0.4870 
  7 C       -2.5690     3.1750     1.2480 C.ar  1 <1>   0.0820 
  8 C       -3.6080     3.2210     0.2970 C.ar  1 <1>   0.0820 
  9 N       -4.2250    -1.3260    -0.1270 N.4   1 <1>  -0.9590 
 10 O       -2.2610     4.2790     1.9850 O.3   1 <1>  -0.3620 
 11 O       -4.3930     4.2930    -0.0090 O.3   1 <1>  -0.3620 
 12 C       -4.3390    -2.6850    -0.7680 C.3   1 <1>   0.3430 
 13 C       -5.5440    -0.8150     0.3600 C.3   1 <1>   0.3430 
 14 C       -1.1390     4.3460     2.8350 C.3   1 <1>   0.1200 
 15 C       -4.1260     5.6050     0.4310 C.3   1 <1>   0.1200 
 16 C       -5.0270    -3.7490     0.1470 C.3   1 <1>   0.4230 
 17 C       -6.1540    -1.8210     1.3420 C.3   1 <1>  -0.1600 
 18 C       -1.0620     5.7620     3.3960 C.3   1 <1>  -0.2400 
 19 C       -5.1010     6.5450    -0.2710 C.3   1 <1>  -0.2400 
 20 N       -5.1180    -5.1590    -0.4350 N.4   1 <1>  -0.9590 
 21 C       -6.3710    -3.2390     0.7460 C.3   1 <1>   0.0000 
 22 C       -6.0750    -6.0580     0.2990 C.3   1 <1>   0.3430 
 23 C       -5.4280    -5.2240    -1.9050 C.3   1 <1>   0.2630 
 24 C       -6.7850    -4.1920     1.9030 C.3   1 <1>  -0.1600 
 25 C       -7.5390    -3.1900    -0.2830 C.3   1 <1>   0.1200 
 26 C       -6.2340    -5.6260     1.7580 C.3   1 <1>  -0.1600 
 27 O       -7.1590    -2.5610    -1.4610 O.3   1 <1>  -0.6800 
 28 H       -1.0770     1.8880     2.1400 H     1 <1>   0.1500 
 29 H       -4.7120     2.1640    -1.1620 H     1 <1>   0.1500 
 30 H       -2.6920    -0.7500    -1.4780 H     1 <1>   0.0800 
 31 H       -4.2670    -0.0800    -1.8480 H     1 <1>   0.0800 
 32 H       -3.5890    -1.3700     0.6850 H     1 <1>   0.4500 
 33 H       -4.9070    -2.5900    -1.6780 H     1 <1>   0.0800 
 34 H       -3.3530    -3.0360    -1.0250 H     1 <1>   0.0800 
 35 H       -5.4140     0.1340     0.8570 H     1 <1>   0.0800 
 36 H       -6.2130    -0.6640    -0.4730 H     1 <1>   0.0800 
 37 H       -1.2650     3.6310     3.6290 H     1 <1>   0.0800 
 38 H       -0.2570     4.1190     2.2600 H     1 <1>   0.0800 
 39 H       -4.2650     5.6430     1.4980 H     1 <1>   0.0800 
 40 H       -3.1090     5.8520     0.1780 H     1 <1>   0.0800 
 41 H       -4.3710    -3.8330     0.9980 H     1 <1>   0.0800 
 42 H       -5.5090    -1.8670     2.2030 H     1 <1>   0.0800 
 43 H       -7.0950    -1.4260     1.6860 H     1 <1>   0.0800 
 44 H       -1.9520     5.9880     3.9550 H     1 <1>   0.0800 
 45 H       -0.9500     6.4720     2.5960 H     1 <1>   0.0800 
 46 H       -0.2150     5.8490     4.0520 H     1 <1>   0.0800 
 47 H       -6.1130     6.2810    -0.0220 H     1 <1>   0.0800 
 48 H       -4.9650     6.4910    -1.3360 H     1 <1>   0.0800 
 49 H       -4.9220     7.5560     0.0470 H     1 <1>   0.0800 
 50 H       -4.1920    -5.5960    -0.3060 H     1 <1>   0.4500 
 51 H       -7.0440    -6.0250    -0.1730 H     1 <1>   0.0800 
 52 H       -5.7270    -7.0790     0.2580 H     1 <1>   0.0800 
 53 H       -6.3870    -4.7770    -2.1100 H     1 <1>   0.0800 
 54 H       -5.4560    -6.2510    -2.2350 H     1 <1>   0.0800 
 55 H       -4.6770    -4.7080    -2.4790 H     1 <1>   0.0800 
 56 H       -6.4440    -3.8180     2.8550 H     1 <1>   0.0800 
 57 H       -7.8610    -4.2330     1.9750 H     1 <1>   0.0800 
 58 H       -8.3770    -2.6480     0.1270 H     1 <1>   0.0800 
 59 H       -7.8810    -4.1770    -0.5390 H     1 <1>   0.0800 
 60 H       -6.9000    -6.3100     2.2560 H     1 <1>   0.0800 
 61 H       -5.2810    -5.7090     2.2520 H     1 <1>   0.0800 
 62 H       -7.9510    -2.3920    -2.0240 H     1 <1>   0.4000 
@<TRIPOS>BOND
  1   1   2  1   
  2   2   3  ar  
  3   2   4  ar  
  4   3   5  ar  
  5   3   6  1   
  6   4   7  ar  
  7   4  28  1   
  8   5   8  ar  
  9   5  29  1   
 10   6   9  1   
 11   6  30  1   
 12   6  31  1   
 13   7   8  ar  
 14   7  10  1   
 15   8  11  1   
 16   9  12  1   
 17   9  13  1   
 18   9  32  1   
 19  10  14  1   
 20  11  15  1   
 21  12  16  1   
 22  12  33  1   
 23  12  34  1   
 24  13  17  1   
 25  13  35  1   
 26  13  36  1   
 27  14  18  1   
 28  14  37  1   
 29  14  38  1   
 30  15  19  1   
 31  15  39  1   
 32  15  40  1   
 33  16  20  1   
 34  16  21  1   
 35  16  41  1   
 36  17  21  1   
 37  17  42  1   
 38  17  43  1   
 39  18  44  1   
 40  18  45  1   
 41  18  46  1   
 42  19  47  1   
 43  19  48  1   
 44  19  49  1   
 45  20  22  1   
 46  20  23  1   
 47  20  50  1   
 48  21  24  1   
 49  21  25  1   
 50  22  26  1   
 51  22  51  1   
 52  22  52  1   
 53  23  53  1   
 54  23  54  1   
 55  23  55  1   
 56  24  26  1   
 57  24  56  1   
 58  24  57  1   
 59  25  27  1   
 60  25  58  1   
 61  25  59  1   
 62  26  60  1   
 63  26  61  1   
 64  27  62  1   
@<TRIPOS>SUBSTRUCTURE
  1 ****   9 GROUP 4 **** **** 0

# MOE 2024.06 (io_trps.svl 2023.06)
