@<TRIPOS>MOLECULE
NONAME
48 50 1 0 0 
SMALL
USER_CHARGES


@<TRIPOS>ATOM
  1 O        0.2530     0.0960     3.2500 O.2   1 <1>  -0.5700 
  2 C        0.1770    -0.4140     2.1580 C.2   1 <1>   0.5690 
  3 N        0.8690     0.0200     1.0610 N.am  1 <1>  -0.4940 
  4 C       -0.7370    -1.6190     1.9890 C.3   1 <1>   0.0820 
  5 C        1.8240     1.0400     0.8350 C.2   1 <1>  -0.0880 
  6 C       -0.6910    -2.1930     0.5750 C.2   1 <1>  -0.1810 
  7 N        1.9970     2.2100     1.5120 N.pl3 1 <1>   0.3140 
  8 C        2.7520     1.0330    -0.1530 C.2   1 <1>  -0.1810 
  9 C        0.4000    -2.9500     0.0890 C.ar  1 <1>   0.0000 
 10 C       -1.5900    -2.0690    -0.4330 C.2   1 <1>  -0.3320 
 11 N        3.0000     2.9420     0.9790 N.2   1 <1>  -0.7070 
 12 C        1.2130     2.7590     2.6240 C.3   1 <1>   0.0160 
 13 C        3.4440     2.2330    -0.0090 C.2   1 <1>   0.1080 
 14 C        2.9920    -0.0510    -1.1930 C.3   1 <1>   0.0210 
 15 C        0.1090    -3.2540    -1.2350 C.ar  1 <1>  -0.1520 
 16 C        1.6060    -3.3880     0.6460 C.ar  1 <1>  -0.1500 
 17 N       -1.1160    -2.7210    -1.5380 N.pl3 1 <1>   0.0330 
 18 C       -2.9260    -1.3470    -0.4700 C.3   1 <1>  -0.0600 
 19 C        4.5890     2.7140    -0.8830 C.3   1 <1>   0.0210 
 20 C        4.0920    -1.0050    -0.7240 C.3   1 <1>  -0.2400 
 21 C        1.0030    -3.9850    -2.0200 C.ar  1 <1>  -0.1500 
 22 C        2.4870    -4.1110    -0.1250 C.ar  1 <1>  -0.1500 
 23 C        4.0700     3.5090    -2.0850 C.3   1 <1>  -0.2400 
 24 C        2.1860    -4.4090    -1.4600 C.ar  1 <1>  -0.1500 
 25 H        0.7310    -0.5980     0.2540 H     1 <1>   0.3700 
 26 H       -1.7370    -1.3200     2.2360 H     1 <1>   0.0800 
 27 H       -0.4420    -2.3760     2.6910 H     1 <1>   0.0800 
 28 H        0.1710     2.5670     2.4540 H     1 <1>   0.0800 
 29 H        1.3800     3.8180     2.6850 H     1 <1>   0.0800 
 30 H        1.5290     2.2920     3.5370 H     1 <1>   0.0800 
 31 H        3.2690     0.3970    -2.1300 H     1 <1>   0.0800 
 32 H        2.0870    -0.6090    -1.3550 H     1 <1>   0.0800 
 33 H        1.8330    -3.1540     1.6710 H     1 <1>   0.1500 
 34 H       -1.5860    -2.8040    -2.4450 H     1 <1>   0.2700 
 35 H       -3.1280    -0.8580     0.4660 H     1 <1>   0.0800 
 36 H       -3.7180    -2.0470    -0.6650 H     1 <1>   0.0800 
 37 H       -2.9210    -0.6010    -1.2450 H     1 <1>   0.0800 
 38 H        5.1670     1.8740    -1.2200 H     1 <1>   0.0800 
 39 H        5.2330     3.3390    -0.2900 H     1 <1>   0.0800 
 40 H        5.0200    -0.4780    -0.6020 H     1 <1>   0.0800 
 41 H        4.2280    -1.7940    -1.4420 H     1 <1>   0.0800 
 42 H        3.8190    -1.4390     0.2210 H     1 <1>   0.0800 
 43 H        0.7630    -4.2110    -3.0440 H     1 <1>   0.1500 
 44 H        3.4170    -4.4550     0.2910 H     1 <1>   0.1500 
 45 H        3.4270     2.8940    -2.6890 H     1 <1>   0.0800 
 46 H        4.8920     3.8550    -2.6850 H     1 <1>   0.0800 
 47 H        3.5070     4.3580    -1.7400 H     1 <1>   0.0800 
 48 H        2.8920    -4.9750    -2.0410 H     1 <1>   0.1500 
@<TRIPOS>BOND
  1   1   2  2   
  2   2   3  am  
  3   2   4  1   
  4   3   5  1   
  5   3  25  1   
  6   4   6  1   
  7   4  26  1   
  8   4  27  1   
  9   5   7  1   
 10   5   8  2   
 11   6   9  1   
 12   6  10  2   
 13   7  11  1   
 14   7  12  1   
 15   8  13  1   
 16   8  14  1   
 17   9  15  ar  
 18   9  16  ar  
 19  10  17  1   
 20  10  18  1   
 21  11  13  2   
 22  12  28  1   
 23  12  29  1   
 24  12  30  1   
 25  13  19  1   
 26  14  20  1   
 27  14  31  1   
 28  14  32  1   
 29  15  17  1   
 30  15  21  ar  
 31  16  22  ar  
 32  16  33  1   
 33  17  34  1   
 34  18  35  1   
 35  18  36  1   
 36  18  37  1   
 37  19  23  1   
 38  19  38  1   
 39  19  39  1   
 40  20  40  1   
 41  20  41  1   
 42  20  42  1   
 43  21  24  ar  
 44  21  43  1   
 45  22  24  ar  
 46  22  44  1   
 47  23  45  1   
 48  23  46  1   
 49  23  47  1   
 50  24  48  1   
@<TRIPOS>SUBSTRUCTURE
  1 ****   3 GROUP 4 **** **** 0

# MOE 2024.06 (io_trps.svl 2023.06)
