@<TRIPOS>MOLECULE
NONAME
51 53 1 0 0 
SMALL
USER_CHARGES


@<TRIPOS>ATOM
  1 F        0.7680     1.5950    -0.3780 F     1 <1>  -0.3400 
  2 C        1.7850     1.5720     0.4720 C.3   1 <1>   1.1640 
  3 F        1.8920     0.3220     0.9050 F     1 <1>  -0.3400 
  4 F        1.4140     2.3000     1.5180 F     1 <1>  -0.3400 
  5 C        3.0780     2.1120    -0.1670 C.ar  1 <1>  -0.1440 
  6 C        3.2600     3.4830    -0.3240 C.ar  1 <1>  -0.1500 
  7 C        4.0810     1.2540    -0.6050 C.ar  1 <1>  -0.1500 
  8 C        4.4200     3.9910    -0.8930 C.ar  1 <1>  -0.1440 
  9 C        5.2340     1.7530    -1.1820 C.ar  1 <1>  -0.1500 
 10 C        5.4040     3.1170    -1.3280 C.ar  1 <1>  -0.1500 
 11 C        4.6180     5.4890    -1.0370 C.3   1 <1>   0.4870 
 12 N        4.8350     6.0860     0.3120 N.4   1 <1>  -0.9590 
 13 C        4.9670     7.5830     0.2370 C.3   1 <1>   0.3430 
 14 C        6.0320     5.4990     1.0170 C.3   1 <1>   0.3430 
 15 C        6.3100     8.0300    -0.3780 C.3   1 <1>   0.1100 
 16 C        7.3690     5.9510     0.3900 C.3   1 <1>   0.1100 
 17 N        7.4680     7.4220     0.3200 N.3   1 <1>  -0.8100 
 18 C        8.7740     7.8410    -0.2460 C.3   1 <1>   0.2900 
 19 C        8.9270     9.3500    -0.2900 C.2   1 <1>  -0.0400 
 20 O        8.4590    10.0210    -1.3080 O.3   1 <1>  -0.0190 
 21 C        9.4930    10.2260     0.5540 C.2   1 <1>  -0.1500 
 22 N        8.6680    11.2970    -1.1860 N.2   1 <1>  -0.4100 
 23 C        9.2950    11.4560    -0.0720 C.2   1 <1>   0.1080 
 24 C        9.7610    12.7950     0.4900 C.3   1 <1>   0.1010 
 25 C        8.5720    13.7360     0.7210 C.3   1 <1>  -0.2400 
 26 C       10.7850    13.4490    -0.4450 C.3   1 <1>  -0.2400 
 27 H        2.4800     4.1520     0.0010 H     1 <1>   0.1500 
 28 H        3.9720     0.1850    -0.5040 H     1 <1>   0.1500 
 29 H        5.9980     1.0730    -1.5220 H     1 <1>   0.1500 
 30 H        6.3090     3.4790    -1.7870 H     1 <1>   0.1500 
 31 H        3.7450     5.9210    -1.4970 H     1 <1>   0.0800 
 32 H        5.4670     5.6840    -1.6710 H     1 <1>   0.0800 
 33 H        4.0090     5.8560     0.8770 H     1 <1>   0.4500 
 34 H        4.9100     7.9960     1.2320 H     1 <1>   0.0800 
 35 H        4.1550     8.0010    -0.3350 H     1 <1>   0.0800 
 36 H        5.9780     4.4220     1.0080 H     1 <1>   0.0800 
 37 H        6.0290     5.8140     2.0470 H     1 <1>   0.0800 
 38 H        6.3590     9.1020    -0.2880 H     1 <1>   0.0800 
 39 H        6.3390     7.7890    -1.4270 H     1 <1>   0.0800 
 40 H        7.4730     5.5250    -0.5930 H     1 <1>   0.0800 
 41 H        8.1740     5.5720     0.9980 H     1 <1>   0.0800 
 42 H        8.8950     7.4470    -1.2410 H     1 <1>   0.0800 
 43 H        9.5620     7.4420     0.3700 H     1 <1>   0.0800 
 44 H        9.9840    10.0580     1.4940 H     1 <1>   0.1500 
 45 H       10.2370    12.6160     1.4380 H     1 <1>   0.0800 
 46 H        8.0750    13.9430    -0.2100 H     1 <1>   0.0800 
 47 H        8.9040    14.6630     1.1520 H     1 <1>   0.0800 
 48 H        7.8660    13.2780     1.3900 H     1 <1>   0.0800 
 49 H       10.3390    13.6520    -1.4030 H     1 <1>   0.0800 
 50 H       11.6220    12.7900    -0.5930 H     1 <1>   0.0800 
 51 H       11.1430    14.3720    -0.0260 H     1 <1>   0.0800 
@<TRIPOS>BOND
  1   1   2  1   
  2   2   3  1   
  3   2   4  1   
  4   2   5  1   
  5   5   6  ar  
  6   5   7  ar  
  7   6   8  ar  
  8   6  27  1   
  9   7   9  ar  
 10   7  28  1   
 11   8  10  ar  
 12   8  11  1   
 13   9  10  ar  
 14   9  29  1   
 15  10  30  1   
 16  11  12  1   
 17  11  31  1   
 18  11  32  1   
 19  12  13  1   
 20  12  14  1   
 21  12  33  1   
 22  13  15  1   
 23  13  34  1   
 24  13  35  1   
 25  14  16  1   
 26  14  36  1   
 27  14  37  1   
 28  15  17  1   
 29  15  38  1   
 30  15  39  1   
 31  16  17  1   
 32  16  40  1   
 33  16  41  1   
 34  17  18  1   
 35  18  19  1   
 36  18  42  1   
 37  18  43  1   
 38  19  20  1   
 39  19  21  2   
 40  20  22  1   
 41  21  23  1   
 42  21  44  1   
 43  22  23  2   
 44  23  24  1   
 45  24  25  1   
 46  24  26  1   
 47  24  45  1   
 48  25  46  1   
 49  25  47  1   
 50  25  48  1   
 51  26  49  1   
 52  26  50  1   
 53  26  51  1   
@<TRIPOS>SUBSTRUCTURE
  1 ****  12 GROUP 4 **** **** 0

# MOE 2024.06 (io_trps.svl 2023.06)
