@<TRIPOS>MOLECULE
NONAME
38 40 1 0 0 
SMALL
USER_CHARGES


@<TRIPOS>ATOM
  1 O       -0.5320     0.3530     0.8870 O.2   1 <1>  -0.5700 
  2 C       -1.5370     0.9800     0.6170 C.2   1 <1>   0.7150 
  3 N       -2.7180     0.3020     0.4190 N.am  1 <1>  -0.6600 
  4 C       -1.4750     2.4120     0.5030 C.2   1 <1>  -0.2370 
  5 C       -3.7520     0.7530    -0.5520 C.3   1 <1>   0.1400 
  6 C       -2.8140    -1.1730     0.6030 C.3   1 <1>   0.1400 
  7 N       -2.4460     3.2510     0.9730 N.pl3 1 <1>   0.0330 
  8 C       -0.4870     3.1940    -0.0330 C.2   1 <1>  -0.1500 
  9 C       -4.7380    -0.4090    -0.6410 C.3   1 <1>   0.2000 
 10 C       -3.8630    -1.6440    -0.4120 C.3   1 <1>  -0.0800 
 11 C       -2.0740     4.5250     0.7160 C.2   1 <1>  -0.3020 
 12 C       -0.8590     4.5370     0.0890 C.2   1 <1>   0.0190 
 13 O       -5.6460    -0.2810     0.4000 O.3   1 <1>  -0.6800 
 14 C       -4.6240    -2.9130     0.0170 C.3   1 <1>   0.0200 
 15 C       -0.0920     5.6650    -0.3610 C.1   1 <1>   0.5380 
 16 C       -3.7330    -4.1410     0.1050 C.2   1 <1>  -0.0400 
 17 N        0.5120     6.5620    -0.7240 N.1   1 <1>  -0.5570 
 18 O       -4.2310    -5.2400     0.6050 O.3   1 <1>  -0.0190 
 19 C       -2.4580    -4.3910    -0.2360 C.2   1 <1>  -0.1500 
 20 N       -3.3610    -6.2080     0.6220 N.2   1 <1>  -0.4100 
 21 C       -2.2820    -5.7240     0.1210 C.2   1 <1>   0.1080 
 22 C       -1.0000    -6.5070    -0.0530 C.3   1 <1>  -0.0590 
 23 H       -4.2440     1.6560    -0.2370 H     1 <1>   0.0800 
 24 H       -3.2870     0.9130    -1.5100 H     1 <1>   0.0800 
 25 H       -1.8650    -1.6520     0.4320 H     1 <1>   0.0800 
 26 H       -3.1330    -1.3800     1.6100 H     1 <1>   0.0800 
 27 H       -3.2990     2.9470     1.4590 H     1 <1>   0.2700 
 28 H        0.4320     2.8450    -0.4750 H     1 <1>   0.1500 
 29 H       -5.2830    -0.4330    -1.5700 H     1 <1>   0.0800 
 30 H       -3.3520    -1.8520    -1.3360 H     1 <1>   0.0800 
 31 H       -2.6780     5.3730     0.9910 H     1 <1>   0.1500 
 32 H       -5.1590    -0.1940     1.2430 H     1 <1>   0.4000 
 33 H       -5.4100    -3.1140    -0.6900 H     1 <1>   0.0800 
 34 H       -5.0840    -2.7600     0.9770 H     1 <1>   0.0800 
 35 H       -1.7140    -3.7560    -0.6790 H     1 <1>   0.1500 
 36 H       -0.2070    -6.0350     0.4980 H     1 <1>   0.0800 
 37 H       -0.7350    -6.5480    -1.0930 H     1 <1>   0.0800 
 38 H       -1.1290    -7.5100     0.3140 H     1 <1>   0.0800 
@<TRIPOS>BOND
  1   1   2  2   
  2   2   3  am  
  3   2   4  1   
  4   3   5  1   
  5   3   6  1   
  6   4   7  1   
  7   4   8  2   
  8   5   9  1   
  9   5  23  1   
 10   5  24  1   
 11   6  10  1   
 12   6  25  1   
 13   6  26  1   
 14   7  11  1   
 15   7  27  1   
 16   8  12  1   
 17   8  28  1   
 18   9  10  1   
 19   9  13  1   
 20   9  29  1   
 21  10  14  1   
 22  10  30  1   
 23  11  12  2   
 24  11  31  1   
 25  12  15  1   
 26  13  32  1   
 27  14  16  1   
 28  14  33  1   
 29  14  34  1   
 30  15  17  3   
 31  16  18  1   
 32  16  19  2   
 33  18  20  1   
 34  19  21  1   
 35  19  35  1   
 36  20  21  2   
 37  21  22  1   
 38  22  36  1   
 39  22  37  1   
 40  22  38  1   
@<TRIPOS>SUBSTRUCTURE
  1 ****   3 GROUP 4 **** **** 0

# MOE 2024.06 (io_trps.svl 2023.06)
