@<TRIPOS>MOLECULE
NONAME
43 44 1 0 0 
SMALL
USER_CHARGES


@<TRIPOS>ATOM
  1 O       12.2690     3.6110     1.5360 O.2   1 <1>  -0.5700 
  2 C       11.5610     2.9840     0.7960 C.2   1 <1>   0.6590 
  3 O       12.0130     2.3950    -0.3030 O.3   1 <1>  -0.4300 
  4 C       10.0700     2.8240     1.0780 C.3   1 <1>  -0.0190 
  5 C       13.3720     2.4730    -0.6670 C.3   1 <1>   0.1200 
  6 C        9.6860     1.3480     1.2780 C.3   1 <1>  -0.1600 
  7 C        9.2120     3.4410    -0.0390 C.3   1 <1>  -0.1600 
  8 C       13.5610     1.6970    -1.9660 C.3   1 <1>  -0.2400 
  9 C        8.1810     1.1770     1.4800 C.3   1 <1>   0.3430 
 10 C        7.7210     3.2120     0.1990 C.3   1 <1>   0.3430 
 11 N        7.4310     1.7390     0.3040 N.4   1 <1>  -0.9590 
 12 C        5.9590     1.4230     0.3310 C.3   1 <1>   0.4230 
 13 C        5.7300    -0.0990     0.3960 C.3   1 <1>  -0.1600 
 14 C        5.2570     1.9900    -0.9170 C.3   1 <1>  -0.1600 
 15 C        4.2480    -0.4730     0.3080 C.3   1 <1>   0.3430 
 16 C        3.7800     1.5920    -0.9900 C.3   1 <1>   0.3430 
 17 N        3.6470     0.1160    -0.9150 N.4   1 <1>  -0.9060 
 18 H        9.8670     3.3540     1.9930 H     1 <1>   0.0800 
 19 H       13.9650     2.0480     0.1270 H     1 <1>   0.0800 
 20 H       13.6330     3.5110    -0.7940 H     1 <1>   0.0800 
 21 H       10.2010     0.9670     2.1440 H     1 <1>   0.0800 
 22 H       10.0030     0.7610     0.4340 H     1 <1>   0.0800 
 23 H        9.4890     3.0300    -0.9950 H     1 <1>   0.0800 
 24 H        9.4010     4.5010    -0.0810 H     1 <1>   0.0800 
 25 H       13.2920     0.6660    -1.8280 H     1 <1>   0.0800 
 26 H       14.5920     1.7420    -2.2660 H     1 <1>   0.0800 
 27 H       12.9610     2.1270    -2.7480 H     1 <1>   0.0800 
 28 H        7.8800     1.6810     2.3850 H     1 <1>   0.0800 
 29 H        7.9780     0.1250     1.5950 H     1 <1>   0.0800 
 30 H        7.1800     3.6490    -0.6230 H     1 <1>   0.0800 
 31 H        7.4200     3.7120     1.1060 H     1 <1>   0.0800 
 32 H        7.8440     1.3050    -0.5340 H     1 <1>   0.4500 
 33 H        5.5210     1.8750     1.2080 H     1 <1>   0.0800 
 34 H        6.0870    -0.4910     1.3310 H     1 <1>   0.0800 
 35 H        6.2610    -0.5930    -0.3990 H     1 <1>   0.0800 
 36 H        5.7520     1.6540    -1.8120 H     1 <1>   0.0800 
 37 H        5.2820     3.0640    -0.9040 H     1 <1>   0.0800 
 38 H        3.7280    -0.1070     1.1800 H     1 <1>   0.0800 
 39 H        4.1440    -1.5480     0.2890 H     1 <1>   0.0800 
 40 H        3.3500     1.9540    -1.9130 H     1 <1>   0.0800 
 41 H        3.2400     2.0470    -0.1740 H     1 <1>   0.0800 
 42 H        2.6440    -0.1310    -0.9450 H     1 <1>   0.4500 
 43 H        4.0490    -0.3230    -1.7570 H     1 <1>   0.4500 
@<TRIPOS>BOND
  1   1   2  2   
  2   2   3  1   
  3   2   4  1   
  4   3   5  1   
  5   4   6  1   
  6   4   7  1   
  7   4  18  1   
  8   5   8  1   
  9   5  19  1   
 10   5  20  1   
 11   6   9  1   
 12   6  21  1   
 13   6  22  1   
 14   7  10  1   
 15   7  23  1   
 16   7  24  1   
 17   8  25  1   
 18   8  26  1   
 19   8  27  1   
 20   9  11  1   
 21   9  28  1   
 22   9  29  1   
 23  10  11  1   
 24  10  30  1   
 25  10  31  1   
 26  11  12  1   
 27  11  32  1   
 28  12  13  1   
 29  12  14  1   
 30  12  33  1   
 31  13  15  1   
 32  13  34  1   
 33  13  35  1   
 34  14  16  1   
 35  14  36  1   
 36  14  37  1   
 37  15  17  1   
 38  15  38  1   
 39  15  39  1   
 40  16  17  1   
 41  16  40  1   
 42  16  41  1   
 43  17  42  1   
 44  17  43  1   
@<TRIPOS>SUBSTRUCTURE
  1 ****  11 GROUP 4 **** **** 0

# MOE 2024.06 (io_trps.svl 2023.06)
