@<TRIPOS>MOLECULE
NONAME
48 51 1 0 0 
SMALL
USER_CHARGES


@<TRIPOS>ATOM
  1 O       -0.6410     0.2970     0.1930 O.2   1 <1>  -0.5700 
  2 C       -1.6990     0.8120    -0.0830 C.2   1 <1>   0.5690 
  3 N       -2.7850     0.0490    -0.4270 N.am  1 <1>  -0.6600 
  4 C       -1.8200     2.3410    -0.0310 C.3   1 <1>  -0.0190 
  5 C       -4.1640     0.5320    -0.6860 C.3   1 <1>   0.1400 
  6 C       -2.7380    -1.4320    -0.4620 C.3   1 <1>   0.1400 
  7 C       -0.5250     3.1150    -0.2980 C.3   1 <1>  -0.1600 
  8 C       -2.2610     2.8700     1.3360 C.3   1 <1>  -0.1600 
  9 C       -5.0120    -0.7320    -0.8450 C.3   1 <1>   0.2000 
 10 C       -4.1860    -1.8730    -0.2510 C.3   1 <1>  -0.0800 
 11 C       -0.7890     4.5150     0.2560 C.3   1 <1>  -0.1600 
 12 C       -1.8380     4.3420     1.3620 C.3   1 <1>  -0.1600 
 13 O       -6.2160    -0.6210    -0.1680 O.3   1 <1>  -0.6800 
 14 C       -4.5210    -3.2360    -0.8780 C.3   1 <1>  -0.0170 
 15 C       -3.6660    -4.3420    -0.2860 C.ar  1 <1>   0.1670 
 16 N       -2.5340    -4.5990    -0.8670 N.ar  1 <1>  -0.6200 
 17 C       -4.1260    -5.0210     0.8540 C.ar  1 <1>  -0.1500 
 18 C       -1.7560    -5.5750    -0.3340 C.ar  1 <1>   0.3100 
 19 C       -3.3680    -6.0070     1.4070 C.ar  1 <1>  -0.1500 
 20 C       -2.1330    -6.3110     0.8100 C.ar  1 <1>   0.0000 
 21 C       -0.5220    -5.8650    -0.9380 C.ar  1 <1>  -0.1500 
 22 C       -1.2660    -7.3080     1.3010 C.ar  1 <1>  -0.1500 
 23 C        0.3070    -6.8380    -0.4460 C.ar  1 <1>  -0.1500 
 24 C       -0.0700    -7.5670     0.6870 C.ar  1 <1>  -0.1500 
 25 H       -2.5330     2.6620    -0.7670 H     1 <1>   0.0800 
 26 H       -4.5030     1.1220     0.1460 H     1 <1>   0.0800 
 27 H       -4.1880     1.1130    -1.5910 H     1 <1>   0.0800 
 28 H       -2.3740    -1.7490    -1.4250 H     1 <1>   0.0800 
 29 H       -2.0890    -1.8230     0.3040 H     1 <1>   0.0800 
 30 H        0.2870     2.6690     0.2510 H     1 <1>   0.0800 
 31 H       -0.2720     3.1300    -1.3440 H     1 <1>   0.0800 
 32 H       -3.3180     2.7520     1.4950 H     1 <1>   0.0800 
 33 H       -1.7290     2.3360     2.1060 H     1 <1>   0.0800 
 34 H       -5.2220    -0.9000    -1.8880 H     1 <1>   0.0800 
 35 H       -4.3470    -1.9200     0.8120 H     1 <1>   0.0800 
 36 H        0.1160     4.9600     0.6330 H     1 <1>   0.0800 
 37 H       -1.1880     5.1420    -0.5220 H     1 <1>   0.0800 
 38 H       -2.6840     4.9780     1.1630 H     1 <1>   0.0800 
 39 H       -1.4300     4.5990     2.3250 H     1 <1>   0.0800 
 40 H       -6.0570    -0.5090     0.7890 H     1 <1>   0.4000 
 41 H       -4.3580    -3.2000    -1.9410 H     1 <1>   0.0800 
 42 H       -5.5610    -3.4600    -0.7180 H     1 <1>   0.0800 
 43 H       -5.0770    -4.7530     1.2780 H     1 <1>   0.1500 
 44 H       -3.6870    -6.5500     2.2790 H     1 <1>   0.1500 
 45 H       -0.2510    -5.2930    -1.8060 H     1 <1>   0.1500 
 46 H       -1.5610    -7.8640     2.1720 H     1 <1>   0.1500 
 47 H        1.2510    -7.0500    -0.9190 H     1 <1>   0.1500 
 48 H        0.5920    -8.3280     1.0630 H     1 <1>   0.1500 
@<TRIPOS>BOND
  1   1   2  2   
  2   2   3  am  
  3   2   4  1   
  4   3   5  1   
  5   3   6  1   
  6   4   7  1   
  7   4   8  1   
  8   4  25  1   
  9   5   9  1   
 10   5  26  1   
 11   5  27  1   
 12   6  10  1   
 13   6  28  1   
 14   6  29  1   
 15   7  11  1   
 16   7  30  1   
 17   7  31  1   
 18   8  12  1   
 19   8  32  1   
 20   8  33  1   
 21   9  10  1   
 22   9  13  1   
 23   9  34  1   
 24  10  14  1   
 25  10  35  1   
 26  11  12  1   
 27  11  36  1   
 28  11  37  1   
 29  12  38  1   
 30  12  39  1   
 31  13  40  1   
 32  14  15  1   
 33  14  41  1   
 34  14  42  1   
 35  15  16  ar  
 36  15  17  ar  
 37  16  18  ar  
 38  17  19  ar  
 39  17  43  1   
 40  18  20  ar  
 41  18  21  ar  
 42  19  20  ar  
 43  19  44  1   
 44  20  22  ar  
 45  21  23  ar  
 46  21  45  1   
 47  22  24  ar  
 48  22  46  1   
 49  23  24  ar  
 50  23  47  1   
 51  24  48  1   
@<TRIPOS>SUBSTRUCTURE
  1 ****   6 GROUP 4 **** **** 0

# MOE 2024.06 (io_trps.svl 2023.06)
