@<TRIPOS>MOLECULE
NONAME
33 34 1 0 0 
SMALL
USER_CHARGES


@<TRIPOS>ATOM
  1 S       -0.0610    -0.0600     1.4350 S.3   1 <1>  -0.2430 
  2 C       -0.9010    -1.4160     0.6770 C.2   1 <1>   0.6410 
  3 C        1.5050    -0.5390     0.7480 C.ar  1 <1>   0.1020 
  4 N       -2.1540    -1.5730     0.8500 N.2   1 <1>  -0.6610 
  5 N        0.0200    -2.1330    -0.0310 N.pl3 1 <1>  -0.5500 
  6 C        1.3460    -1.6830    -0.0150 C.ar  1 <1>   0.1000 
  7 C        2.7090     0.1040     0.9250 C.ar  1 <1>  -0.1500 
  8 C       -2.8090    -2.6130     0.2720 C.2   1 <1>   0.9310 
  9 C        2.4630    -2.2380    -0.6540 C.ar  1 <1>   0.0860 
 10 C        3.8190    -0.4390     0.2960 C.ar  1 <1>  -0.1500 
 11 O       -2.2730    -3.4490    -0.4320 O.2   1 <1>  -0.5700 
 12 O       -4.1130    -2.6620     0.5310 O.3   1 <1>  -0.4300 
 13 C        3.6900    -1.5850    -0.4750 C.ar  1 <1>  -0.1500 
 14 C        2.3580    -3.4230    -1.4580 C.2   1 <1>   0.4240 
 15 C       -5.0490    -3.6130     0.0780 C.3   1 <1>   0.2800 
 16 O        3.2740    -3.9530    -2.0350 O.2   1 <1>  -0.5700 
 17 C       -6.3840    -3.1780     0.6820 C.3   1 <1>  -0.2400 
 18 C       -5.1490    -3.5720    -1.4520 C.3   1 <1>  -0.2400 
 19 C       -4.6870    -5.0070     0.6030 C.3   1 <1>  -0.2400 
 20 H       -0.3330    -2.9600    -0.5280 H     1 <1>   0.4000 
 21 H        2.7780     0.9920     1.5300 H     1 <1>   0.1500 
 22 H        4.7820     0.0320     0.4080 H     1 <1>   0.1500 
 23 H        4.5640    -1.9930    -0.9570 H     1 <1>   0.1500 
 24 H        1.3870    -3.8730    -1.5540 H     1 <1>   0.0600 
 25 H       -6.6430    -2.1900     0.3440 H     1 <1>   0.0800 
 26 H       -6.3250    -3.1750     1.7560 H     1 <1>   0.0800 
 27 H       -7.1680    -3.8520     0.3870 H     1 <1>   0.0800 
 28 H       -5.3330    -2.5680    -1.7880 H     1 <1>   0.0800 
 29 H       -5.9620    -4.1940    -1.7810 H     1 <1>   0.0800 
 30 H       -4.2530    -3.9430    -1.9130 H     1 <1>   0.0800 
 31 H       -4.5550    -4.9820     1.6700 H     1 <1>   0.0800 
 32 H       -3.7900    -5.3780     0.1430 H     1 <1>   0.0800 
 33 H       -5.4770    -5.7000     0.3760 H     1 <1>   0.0800 
@<TRIPOS>BOND
  1   1   2  1   
  2   1   3  1   
  3   2   4  2   
  4   2   5  1   
  5   3   6  ar  
  6   3   7  ar  
  7   4   8  1   
  8   5   6  1   
  9   5  20  1   
 10   6   9  ar  
 11   7  10  ar  
 12   7  21  1   
 13   8  11  2   
 14   8  12  1   
 15   9  13  ar  
 16   9  14  1   
 17  10  13  ar  
 18  10  22  1   
 19  12  15  1   
 20  13  23  1   
 21  14  16  2   
 22  14  24  1   
 23  15  17  1   
 24  15  18  1   
 25  15  19  1   
 26  17  25  1   
 27  17  26  1   
 28  17  27  1   
 29  18  28  1   
 30  18  29  1   
 31  18  30  1   
 32  19  31  1   
 33  19  32  1   
 34  19  33  1   
@<TRIPOS>SUBSTRUCTURE
  1 ****   5 GROUP 4 **** **** 0

# MOE 2024.06 (io_trps.svl 2023.06)
