@<TRIPOS>MOLECULE
NONAME
50 52 1 0 0 
SMALL
USER_CHARGES


@<TRIPOS>ATOM
  1 O        0.2790    -1.4260    -0.9480 O.3   1 <1>  -0.3630 
  2 C        0.0080    -2.5900    -0.3000 C.ar  1 <1>   0.0820 
  3 C        1.2260    -1.3530    -1.9910 C.3   1 <1>   0.0400 
  4 C       -0.8860    -2.5410     0.7620 C.ar  1 <1>  -0.1440 
  5 C        0.5850    -3.8050    -0.6540 C.ar  1 <1>  -0.1500 
  6 C       -1.1940    -3.7030     1.4470 C.ar  1 <1>  -0.1500 
  7 C       -1.5230    -1.2210     1.1750 C.3   1 <1>  -0.0960 
  8 C        0.2790    -4.9700     0.0320 C.ar  1 <1>  -0.1430 
  9 C       -0.6280    -4.9180     1.0870 C.ar  1 <1>  -0.1430 
 10 C        0.9590    -6.2580    -0.4160 C.3   1 <1>  -0.0970 
 11 C       -1.0440    -6.1540     1.8630 C.3   1 <1>   0.4860 
 12 N       -1.9590    -6.9570     1.0120 N.4   1 <1>  -0.9590 
 13 C       -3.1520    -6.2090     0.4900 C.3   1 <1>   0.3430 
 14 C       -2.4650    -8.2070     1.6190 C.3   1 <1>   0.3430 
 15 C       -4.3300    -7.1980     0.5500 C.3   1 <1>   0.2000 
 16 C       -3.6730    -8.5650     0.7500 C.3   1 <1>  -0.0800 
 17 O       -5.1290    -6.9190     1.6530 O.3   1 <1>  -0.6800 
 18 C       -3.2950    -9.1760    -0.6270 C.3   1 <1>  -0.0170 
 19 C       -2.0040    -9.9810    -0.6240 C.ar  1 <1>   0.1670 
 20 N       -0.8780    -9.2780    -0.6590 N.ar  1 <1>  -0.6200 
 21 C       -2.0470   -11.3740    -0.5940 C.ar  1 <1>   0.1600 
 22 C        0.1910   -10.0650    -0.6880 C.ar  1 <1>   0.1600 
 23 N       -0.9790   -12.1500    -0.5950 N.ar  1 <1>  -0.6200 
 24 C        0.1410   -11.4530    -0.6540 C.ar  1 <1>   0.1600 
 25 H        1.2820    -0.3300    -2.3180 H     1 <1>   0.0800 
 26 H        0.9010    -1.9780    -2.8030 H     1 <1>   0.0800 
 27 H        2.1830    -1.6690    -1.6160 H     1 <1>   0.0800 
 28 H        1.2800    -3.8540    -1.4710 H     1 <1>   0.1500 
 29 H       -1.8850    -3.6480     2.2700 H     1 <1>   0.1500 
 30 H       -2.1850    -1.3460     2.0110 H     1 <1>   0.0800 
 31 H       -2.0810    -0.8130     0.3510 H     1 <1>   0.0800 
 32 H       -0.7550    -0.5190     1.4480 H     1 <1>   0.0800 
 33 H        1.9090    -6.0370    -0.8730 H     1 <1>   0.0800 
 34 H        0.3500    -6.7620    -1.1440 H     1 <1>   0.0800 
 35 H        1.1480    -6.9160     0.4110 H     1 <1>   0.0800 
 36 H       -1.5430    -5.8600     2.7710 H     1 <1>   0.0800 
 37 H       -0.1720    -6.7310     2.1230 H     1 <1>   0.0800 
 38 H       -1.4030    -7.2580     0.1910 H     1 <1>   0.4500 
 39 H       -3.3700    -5.3370     1.0840 H     1 <1>   0.0800 
 40 H       -2.9680    -5.9030    -0.5270 H     1 <1>   0.0800 
 41 H       -1.7170    -8.9830     1.6240 H     1 <1>   0.0800 
 42 H       -2.7890    -8.0220     2.6300 H     1 <1>   0.0800 
 43 H       -4.9560    -7.1430    -0.3250 H     1 <1>   0.0800 
 44 H       -4.3210    -9.2510     1.2700 H     1 <1>   0.0800 
 45 H       -4.6510    -6.9500     2.5030 H     1 <1>   0.4000 
 46 H       -3.1770    -8.4020    -1.3660 H     1 <1>   0.0800 
 47 H       -4.1080    -9.7950    -0.9680 H     1 <1>   0.0800 
 48 H       -3.0010   -11.8710    -0.5680 H     1 <1>   0.1500 
 49 H        1.1570    -9.5950    -0.7410 H     1 <1>   0.1500 
 50 H        1.0640   -12.0080    -0.6780 H     1 <1>   0.1500 
@<TRIPOS>BOND
  1   1   2  1   
  2   1   3  1   
  3   2   4  ar  
  4   2   5  ar  
  5   3  25  1   
  6   3  26  1   
  7   3  27  1   
  8   4   6  ar  
  9   4   7  1   
 10   5   8  ar  
 11   5  28  1   
 12   6   9  ar  
 13   6  29  1   
 14   7  30  1   
 15   7  31  1   
 16   7  32  1   
 17   8   9  ar  
 18   8  10  1   
 19   9  11  1   
 20  10  33  1   
 21  10  34  1   
 22  10  35  1   
 23  11  12  1   
 24  11  36  1   
 25  11  37  1   
 26  12  13  1   
 27  12  14  1   
 28  12  38  1   
 29  13  15  1   
 30  13  39  1   
 31  13  40  1   
 32  14  16  1   
 33  14  41  1   
 34  14  42  1   
 35  15  16  1   
 36  15  17  1   
 37  15  43  1   
 38  16  18  1   
 39  16  44  1   
 40  17  45  1   
 41  18  19  1   
 42  18  46  1   
 43  18  47  1   
 44  19  20  ar  
 45  19  21  ar  
 46  20  22  ar  
 47  21  23  ar  
 48  21  48  1   
 49  22  24  ar  
 50  22  49  1   
 51  23  24  ar  
 52  24  50  1   
@<TRIPOS>SUBSTRUCTURE
  1 ****  12 GROUP 4 **** **** 0

# MOE 2024.06 (io_trps.svl 2023.06)
