@<TRIPOS>MOLECULE
NONAME
43 44 1 0 0 
SMALL
USER_CHARGES


@<TRIPOS>ATOM
  1 S        0.1710     0.2740    -0.9880 S.o2  1 <1>   1.3330 
  2 O        0.3900    -0.9260    -1.7650 O.2   1 <1>  -0.6500 
  3 O       -0.9140     1.1640    -1.3370 O.2   1 <1>  -0.6500 
  4 N       -0.0630    -0.1920     0.6300 N.am  1 <1>  -0.8490 
  5 C        1.7080     1.2000    -0.9500 C.3   1 <1>  -0.0550 
  6 C       -0.6580     0.8640     1.4570 C.3   1 <1>   0.1160 
  7 C       -0.8630    -1.4160     0.7410 C.3   1 <1>   0.1160 
  8 C        2.9540     0.3430    -0.6390 C.3   1 <1>  -0.0800 
  9 C        4.2830     1.0640    -0.8030 C.3   1 <1>   0.2200 
 10 C        3.0370    -0.1990     0.7940 C.3   1 <1>   0.1200 
 11 N        4.2210     2.4250    -0.2180 N.am  1 <1>  -0.7300 
 12 C        5.1730     0.2010     0.0780 C.3   1 <1>   0.1200 
 13 O        4.3800    -0.1130     1.1810 O.3   1 <1>  -0.5600 
 14 C        4.1760     3.5930    -0.9200 C.2   1 <1>   0.5440 
 15 O        4.0090     3.5300    -2.1210 O.2   1 <1>  -0.5700 
 16 C        4.2730     4.8740    -0.2510 C.ar  1 <1>   0.0860 
 17 C        5.2050     5.1830     0.7430 C.ar  1 <1>  -0.1440 
 18 C        3.3750     5.8770    -0.6150 C.ar  1 <1>   0.1600 
 19 C        5.1360     6.4450     1.3000 C.ar  1 <1>  -0.1500 
 20 C        6.2850     4.2170     1.2150 C.3   1 <1>  -0.0970 
 21 N        3.2970     7.0880    -0.0860 N.ar  1 <1>  -0.6200 
 22 C        4.1810     7.3440     0.8620 C.ar  1 <1>   0.1600 
 23 H        1.8510     1.6500    -1.9140 H     1 <1>   0.0800 
 24 H        1.6260     1.9970    -0.2380 H     1 <1>   0.0800 
 25 H       -0.7000     0.5480     2.4850 H     1 <1>   0.0800 
 26 H       -1.6560     1.0910     1.1190 H     1 <1>   0.0800 
 27 H       -0.0640     1.7600     1.4020 H     1 <1>   0.0800 
 28 H       -0.9850    -1.6910     1.7740 H     1 <1>   0.0800 
 29 H       -0.3690    -2.2280     0.2340 H     1 <1>   0.0800 
 30 H       -1.8340    -1.2700     0.2950 H     1 <1>   0.0800 
 31 H        2.9580    -0.5020    -1.3060 H     1 <1>   0.0800 
 32 H        4.6200     1.0980    -1.8260 H     1 <1>   0.0800 
 33 H        2.7200    -1.2270     0.8510 H     1 <1>   0.0800 
 34 H        2.4630     0.3950     1.4830 H     1 <1>   0.0800 
 35 H        4.2750     2.4380     0.8030 H     1 <1>   0.3700 
 36 H        6.0650     0.7100     0.4010 H     1 <1>   0.0800 
 37 H        5.4320    -0.7180    -0.4190 H     1 <1>   0.0800 
 38 H        2.6700     5.6510    -1.3980 H     1 <1>   0.1500 
 39 H        5.8210     6.7450     2.0720 H     1 <1>   0.1500 
 40 H        7.0820     4.7470     1.7070 H     1 <1>   0.0800 
 41 H        6.7090     3.6890     0.3780 H     1 <1>   0.0800 
 42 H        5.8730     3.5050     1.9070 H     1 <1>   0.0800 
 43 H        4.1440     8.3230     1.3100 H     1 <1>   0.1500 
@<TRIPOS>BOND
  1   1   2  2   
  2   1   3  2   
  3   1   4  am  
  4   1   5  1   
  5   4   6  1   
  6   4   7  1   
  7   5   8  1   
  8   5  23  1   
  9   5  24  1   
 10   6  25  1   
 11   6  26  1   
 12   6  27  1   
 13   7  28  1   
 14   7  29  1   
 15   7  30  1   
 16   8   9  1   
 17   8  10  1   
 18   8  31  1   
 19   9  11  1   
 20   9  12  1   
 21   9  32  1   
 22  10  13  1   
 23  10  33  1   
 24  10  34  1   
 25  11  14  am  
 26  11  35  1   
 27  12  13  1   
 28  12  36  1   
 29  12  37  1   
 30  14  15  2   
 31  14  16  1   
 32  16  17  ar  
 33  16  18  ar  
 34  17  19  ar  
 35  17  20  1   
 36  18  21  ar  
 37  18  38  1   
 38  19  22  ar  
 39  19  39  1   
 40  20  40  1   
 41  20  41  1   
 42  20  42  1   
 43  21  22  ar  
 44  22  43  1   
@<TRIPOS>SUBSTRUCTURE
  1 ****  11 GROUP 4 **** **** 0

# MOE 2024.06 (io_trps.svl 2023.06)
