@<TRIPOS>MOLECULE
NONAME
50 52 1 0 0 
SMALL
USER_CHARGES


@<TRIPOS>ATOM
  1 S       -0.2080    -0.0070    -0.6730 S.o2  1 <1>   1.4470 
  2 O        0.7490    -0.9810    -1.1360 O.2   1 <1>  -0.6500 
  3 O        0.2490     1.1600     0.0400 O.2   1 <1>  -0.6500 
  4 N       -0.7550     0.6130    -2.1070 N.am  1 <1>  -0.9780 
  5 C       -1.6650    -0.7960     0.0930 C.ar  1 <1>  -0.0090 
  6 C       -2.7440    -0.0860     0.6360 C.ar  1 <1>  -0.1430 
  7 C       -1.7070    -2.1830     0.1350 C.ar  1 <1>  -0.1500 
  8 C       -3.8080    -0.7740     1.2200 C.ar  1 <1>  -0.1430 
  9 C       -2.7370     1.4460     0.5960 C.3   1 <1>  -0.0970 
 10 C       -2.7650    -2.8940     0.6880 C.ar  1 <1>   0.0860 
 11 C       -3.8040    -2.1560     1.2400 C.ar  1 <1>  -0.1500 
 12 C       -4.9960    -0.0650     1.8610 C.3   1 <1>  -0.0970 
 13 C       -2.7690    -4.3450     0.6890 C.2   1 <1>   0.5440 
 14 O       -1.7770    -4.9510     1.0460 O.2   1 <1>  -0.5700 
 15 N       -3.8650    -5.0650     0.2720 N.am  1 <1>  -0.6600 
 16 C       -4.9360    -4.5340    -0.6090 C.3   1 <1>   0.1400 
 17 C       -3.8740    -6.5480     0.2690 C.3   1 <1>   0.1400 
 18 C       -5.4350    -5.7500    -1.3850 C.3   1 <1>   0.2000 
 19 C       -5.1430    -6.9490    -0.4860 C.3   1 <1>  -0.0800 
 20 O       -6.7930    -5.6680    -1.6500 O.3   1 <1>  -0.6800 
 21 C       -5.0030    -8.2640    -1.2660 C.3   1 <1>   0.0200 
 22 C       -4.6460    -9.4090    -0.3370 C.2   1 <1>  -0.0400 
 23 O       -5.4780    -9.7710     0.6020 O.3   1 <1>  -0.0190 
 24 C       -3.5640   -10.1970    -0.2570 C.2   1 <1>  -0.1500 
 25 N       -5.0090   -10.7570     1.3100 N.2   1 <1>  -0.4100 
 26 C       -3.8570   -11.0360     0.8150 C.2   1 <1>   0.1080 
 27 C       -2.9480   -12.1270     1.3350 C.3   1 <1>  -0.0590 
 28 H       -0.3990    -0.0490    -2.7930 H     1 <1>   0.4200 
 29 H       -0.1960     1.4540    -2.2200 H     1 <1>   0.4200 
 30 H       -0.8870    -2.7510    -0.2730 H     1 <1>   0.1500 
 31 H       -3.6950     1.8760     0.8120 H     1 <1>   0.0800 
 32 H       -2.4590     1.8000    -0.3790 H     1 <1>   0.0800 
 33 H       -2.0320     1.8250     1.3140 H     1 <1>   0.0800 
 34 H       -4.6160    -2.6920     1.6970 H     1 <1>   0.1500 
 35 H       -5.6530    -0.7630     2.3470 H     1 <1>   0.0800 
 36 H       -5.5610     0.4610     1.1120 H     1 <1>   0.0800 
 37 H       -4.6540     0.6360     2.6020 H     1 <1>   0.0800 
 38 H       -5.7220    -4.1230     0.0010 H     1 <1>   0.0800 
 39 H       -4.5500    -3.7850    -1.2770 H     1 <1>   0.0800 
 40 H       -2.9920    -6.9020    -0.2400 H     1 <1>   0.0800 
 41 H       -3.8760    -6.9300     1.2760 H     1 <1>   0.0800 
 42 H       -4.9090    -5.8220    -2.3220 H     1 <1>   0.0800 
 43 H       -5.9270    -7.0490     0.2440 H     1 <1>   0.0800 
 44 H       -7.3080    -5.7070    -0.8210 H     1 <1>   0.4000 
 45 H       -4.2390    -8.1670    -2.0170 H     1 <1>   0.0800 
 46 H       -5.9310    -8.4910    -1.7620 H     1 <1>   0.0800 
 47 H       -2.6700   -10.2070    -0.8520 H     1 <1>   0.1500 
 48 H       -2.7530   -12.8410     0.5560 H     1 <1>   0.0800 
 49 H       -3.4170   -12.6310     2.1610 H     1 <1>   0.0800 
 50 H       -2.0200   -11.7010     1.6680 H     1 <1>   0.0800 
@<TRIPOS>BOND
  1   1   2  2   
  2   1   3  2   
  3   1   4  am  
  4   1   5  1   
  5   4  28  1   
  6   4  29  1   
  7   5   6  ar  
  8   5   7  ar  
  9   6   8  ar  
 10   6   9  1   
 11   7  10  ar  
 12   7  30  1   
 13   8  11  ar  
 14   8  12  1   
 15   9  31  1   
 16   9  32  1   
 17   9  33  1   
 18  10  11  ar  
 19  10  13  1   
 20  11  34  1   
 21  12  35  1   
 22  12  36  1   
 23  12  37  1   
 24  13  14  2   
 25  13  15  am  
 26  15  16  1   
 27  15  17  1   
 28  16  18  1   
 29  16  38  1   
 30  16  39  1   
 31  17  19  1   
 32  17  40  1   
 33  17  41  1   
 34  18  19  1   
 35  18  20  1   
 36  18  42  1   
 37  19  21  1   
 38  19  43  1   
 39  20  44  1   
 40  21  22  1   
 41  21  45  1   
 42  21  46  1   
 43  22  23  1   
 44  22  24  2   
 45  23  25  1   
 46  24  26  1   
 47  24  47  1   
 48  25  26  2   
 49  26  27  1   
 50  27  48  1   
 51  27  49  1   
 52  27  50  1   
@<TRIPOS>SUBSTRUCTURE
  1 ****  15 GROUP 4 **** **** 0

# MOE 2024.06 (io_trps.svl 2023.06)
