@<TRIPOS>MOLECULE
NONAME
32 33 1 0 0 
SMALL
USER_CHARGES


@<TRIPOS>ATOM
  1 S       -1.3560    -0.5150    -0.4650 S.3   1 <1>  -0.0800 
  2 C       -0.5020     0.9320    -0.0620 C.2   1 <1>   0.1980 
  3 C       -0.8790    -1.1200     1.0830 C.2   1 <1>   0.1980 
  4 N        0.0360     0.8910     1.0890 N.2   1 <1>  -0.3380 
  5 C       -0.4760     2.0710    -1.0690 C.3   1 <1>   0.5230 
  6 N       -0.1790    -0.2880     1.7430 N.2   1 <1>  -0.3380 
  7 C       -1.3200    -2.5130     1.4770 C.3   1 <1>  -0.0600 
  8 N        0.5500     3.0920    -0.6820 N.4   1 <1>  -0.9590 
  9 C        0.2800     4.4330    -1.2660 C.3   1 <1>   0.5230 
 10 C        1.9460     2.6100    -0.9400 C.3   1 <1>   0.2630 
 11 C        1.1780     5.4460    -0.5950 C.2   1 <1>  -0.1400 
 12 S        2.6500     5.8740    -1.4560 S.3   1 <1>  -0.0800 
 13 C        1.0910     6.1250     0.5670 C.2   1 <1>  -0.1810 
 14 C        3.1220     6.9840    -0.1860 C.2   1 <1>  -0.1100 
 15 C        2.2030     6.9990     0.7960 C.2   1 <1>  -0.1500 
 16 C       -0.0210     6.0570     1.6000 C.3   1 <1>  -0.0590 
 17 H       -1.4550     2.5200    -1.0900 H     1 <1>   0.0800 
 18 H       -0.2590     1.6800    -2.0490 H     1 <1>   0.0800 
 19 H       -0.9350    -3.2320     0.7780 H     1 <1>   0.0800 
 20 H       -2.3930    -2.5680     1.4880 H     1 <1>   0.0800 
 21 H       -0.9500    -2.7480     2.4590 H     1 <1>   0.0800 
 22 H        0.4770     3.1960     0.3440 H     1 <1>   0.4500 
 23 H       -0.7460     4.7110    -1.0870 H     1 <1>   0.0800 
 24 H        0.4570     4.4320    -2.3300 H     1 <1>   0.0800 
 25 H        2.1240     2.5060    -1.9980 H     1 <1>   0.0800 
 26 H        2.1080     1.6560    -0.4630 H     1 <1>   0.0800 
 27 H        2.6630     3.3090    -0.5390 H     1 <1>   0.0800 
 28 H        4.0490     7.5180    -0.3090 H     1 <1>   0.1500 
 29 H        2.2630     7.6010     1.6860 H     1 <1>   0.1500 
 30 H       -0.7980     5.3800     1.2980 H     1 <1>   0.0800 
 31 H       -0.4530     7.0330     1.7350 H     1 <1>   0.0800 
 32 H        0.3760     5.7270     2.5440 H     1 <1>   0.0800 
@<TRIPOS>BOND
  1   1   2  1   
  2   1   3  1   
  3   2   4  2   
  4   2   5  1   
  5   3   6  2   
  6   3   7  1   
  7   4   6  1   
  8   5   8  1   
  9   5  17  1   
 10   5  18  1   
 11   7  19  1   
 12   7  20  1   
 13   7  21  1   
 14   8   9  1   
 15   8  10  1   
 16   8  22  1   
 17   9  11  1   
 18   9  23  1   
 19   9  24  1   
 20  10  25  1   
 21  10  26  1   
 22  10  27  1   
 23  11  12  1   
 24  11  13  2   
 25  12  14  1   
 26  13  15  1   
 27  13  16  1   
 28  14  15  2   
 29  14  28  1   
 30  15  29  1   
 31  16  30  1   
 32  16  31  1   
 33  16  32  1   
@<TRIPOS>SUBSTRUCTURE
  1 ****   8 GROUP 4 **** **** 0

# MOE 2024.06 (io_trps.svl 2023.06)
