@<TRIPOS>MOLECULE
NONAME
51 53 1 0 0 
SMALL
USER_CHARGES


@<TRIPOS>ATOM
  1 O        0.6150     3.2010     1.7450 O.2   1 <1>  -0.5700 
  2 C       -0.0360     3.4960     0.7680 C.2   1 <1>   0.5770 
  3 N        0.4670     3.2010    -0.4730 N.am  1 <1>  -0.6600 
  4 C       -1.3510     4.2590     0.9190 C.3   1 <1>   0.0530 
  5 C        1.4980     2.1190    -0.6350 C.3   1 <1>   0.1400 
  6 C        0.3540     4.1370    -1.6220 C.3   1 <1>   0.1400 
  7 C       -1.1930     5.7940     1.0840 C.3   1 <1>   0.0000 
  8 C       -2.0080     4.2580     2.3280 C.3   1 <1>   0.0000 
  9 C        2.8840     2.5470    -0.1050 C.3   1 <1>   0.3430 
 10 C        1.4220     5.2390    -1.5090 C.3   1 <1>  -0.1600 
 11 C       -2.3990     5.7340     2.0560 C.3   1 <1>   0.0000 
 12 N        2.9810     4.0340    -0.0060 N.4   1 <1>  -0.9590 
 13 C        2.8620     4.7470    -1.3070 C.3   1 <1>   0.3430 
 14 C        4.0570     4.5130     0.8770 C.3   1 <1>   0.5230 
 15 C        3.6160     5.8810     1.3230 C.2   1 <1>  -0.3320 
 16 N        4.1600     7.0650     0.9520 N.pl3 1 <1>   0.0480 
 17 C        2.5940     6.1670     2.1600 C.2   1 <1>   0.0770 
 18 C        3.4020     7.9890     1.5880 C.2   1 <1>   0.0360 
 19 C        5.3390     7.3400     0.0850 C.3   1 <1>   0.1760 
 20 N        2.4530     7.4910     2.3100 N.2   1 <1>  -0.5650 
 21 C        6.4650     7.9700     0.9110 C.3   1 <1>  -0.2400 
 22 C        4.9450     8.2460    -1.0870 C.3   1 <1>  -0.2400 
 23 H       -2.0690     4.0110     0.1550 H     1 <1>   0.0000 
 24 H        1.5770     1.8440    -1.6720 H     1 <1>   0.0800 
 25 H        1.1770     1.2420    -0.0990 H     1 <1>   0.0800 
 26 H       -0.6270     4.5830    -1.6440 H     1 <1>   0.0800 
 27 H        0.4760     3.5930    -2.5440 H     1 <1>   0.0800 
 28 H       -1.3860     6.3520     0.1850 H     1 <1>   0.0000 
 29 H       -0.2790     6.0750     1.5780 H     1 <1>   0.0000 
 30 H       -1.3090     4.1710     3.1430 H     1 <1>   0.0000 
 31 H       -2.8520     3.5960     2.4150 H     1 <1>   0.0000 
 32 H        3.6630     2.1480    -0.7330 H     1 <1>   0.0800 
 33 H        2.9990     2.1220     0.8800 H     1 <1>   0.0800 
 34 H        1.1650     5.9130    -0.7110 H     1 <1>   0.0800 
 35 H        1.3910     5.8180    -2.4150 H     1 <1>   0.0800 
 36 H       -3.3450     5.8280     1.5520 H     1 <1>   0.0000 
 37 H       -2.2990     6.3770     2.9130 H     1 <1>   0.0000 
 38 H        2.1180     4.2750     0.5130 H     1 <1>   0.4500 
 39 H        3.5170     5.6020    -1.3120 H     1 <1>   0.0800 
 40 H        3.1500     4.0970    -2.1180 H     1 <1>   0.0800 
 41 H        5.0030     4.5420     0.3610 H     1 <1>   0.0800 
 42 H        4.1420     3.8710     1.7390 H     1 <1>   0.0800 
 43 H        1.9310     5.4850     2.6720 H     1 <1>   0.1500 
 44 H        3.5890     9.0450     1.4940 H     1 <1>   0.1500 
 45 H        5.6950     6.4080    -0.3130 H     1 <1>   0.0800 
 46 H        6.1650     8.9260     1.3050 H     1 <1>   0.0800 
 47 H        7.3350     8.1200     0.2960 H     1 <1>   0.0800 
 48 H        6.7380     7.3250     1.7280 H     1 <1>   0.0800 
 49 H        4.6350     9.2150    -0.7350 H     1 <1>   0.0800 
 50 H        4.1450     7.8080    -1.6550 H     1 <1>   0.0800 
 51 H        5.7870     8.3850    -1.7420 H     1 <1>   0.0800 
@<TRIPOS>BOND
  1   1   2  2   
  2   2   3  am  
  3   2   4  1   
  4   3   5  1   
  5   3   6  1   
  6   4   7  1   
  7   4   8  1   
  8   4  23  1   
  9   5   9  1   
 10   5  24  1   
 11   5  25  1   
 12   6  10  1   
 13   6  26  1   
 14   6  27  1   
 15   7  11  1   
 16   7  28  1   
 17   7  29  1   
 18   8  11  1   
 19   8  30  1   
 20   8  31  1   
 21   9  12  1   
 22   9  32  1   
 23   9  33  1   
 24  10  13  1   
 25  10  34  1   
 26  10  35  1   
 27  11  36  1   
 28  11  37  1   
 29  12  13  1   
 30  12  14  1   
 31  12  38  1   
 32  13  39  1   
 33  13  40  1   
 34  14  15  1   
 35  14  41  1   
 36  14  42  1   
 37  15  16  1   
 38  15  17  2   
 39  16  18  1   
 40  16  19  1   
 41  17  20  1   
 42  17  43  1   
 43  18  20  2   
 44  18  44  1   
 45  19  21  1   
 46  19  22  1   
 47  19  45  1   
 48  21  46  1   
 49  21  47  1   
 50  21  48  1   
 51  22  49  1   
 52  22  50  1   
 53  22  51  1   
@<TRIPOS>SUBSTRUCTURE
  1 ****  12 GROUP 4 **** **** 0

# MOE 2024.06 (io_trps.svl 2023.06)
