@<TRIPOS>MOLECULE
NONAME
55 57 1 0 0 
SMALL
USER_CHARGES


@<TRIPOS>ATOM
  1 O       -0.8480     0.5000     1.9300 O.2   1 <1>  -0.5700 
  2 C       -1.4970     0.6580     0.9220 C.2   1 <1>   0.5690 
  3 N       -2.2280    -0.3590     0.3740 N.am  1 <1>  -0.6600 
  4 C       -1.4970     2.0340     0.2830 C.3   1 <1>  -0.0990 
  5 C       -2.1300    -1.7320     0.9570 C.3   1 <1>   0.3640 
  6 C       -3.2490    -0.2140    -0.7070 C.3   1 <1>   0.1400 
  7 C       -0.3120     2.8940     0.7460 C.3   1 <1>   0.0960 
  8 C       -0.8500    -2.4090     0.4650 C.ar  1 <1>  -0.1440 
  9 C       -3.3840    -2.5930     0.6560 C.3   1 <1>   0.2000 
 10 C       -4.6200    -0.8010    -0.2940 C.3   1 <1>   0.1200 
 11 N       -0.4000     4.2500     0.1740 N.pl3 1 <1>   0.3140 
 12 C       -0.6970    -2.8150    -0.8520 C.ar  1 <1>  -0.1500 
 13 C        0.1950    -2.6200     1.3490 C.ar  1 <1>  -0.1500 
 14 O       -4.5450    -1.7960     0.6950 O.3   1 <1>  -0.5600 
 15 C       -3.5320    -3.7450     1.6590 C.3   1 <1>   0.1200 
 16 N       -0.4410     4.4710    -1.1540 N.2   1 <1>  -0.7070 
 17 C       -0.4650     5.4070     0.8630 C.2   1 <1>  -0.3020 
 18 C        0.4580    -3.4410    -1.2920 C.ar  1 <1>   0.0820 
 19 C        1.3620    -3.2330     0.9290 C.ar  1 <1>  -0.1500 
 20 O       -4.7670    -4.3490     1.4850 O.3   1 <1>  -0.6800 
 21 C       -0.5260     5.7610    -1.2740 C.2   1 <1>   0.1390 
 22 C       -0.5460     6.4040    -0.0420 C.2   1 <1>  -0.1810 
 23 O        0.4340    -3.7970    -2.6090 O.3   1 <1>  -0.3620 
 24 C        1.5170    -3.6480    -0.3920 C.ar  1 <1>   0.0820 
 25 C       -0.6390     7.8960     0.2020 C.3   1 <1>  -0.0590 
 26 C        1.2330    -4.8410    -3.1190 C.3   1 <1>   0.0400 
 27 O        2.6780    -4.2290    -0.8150 O.3   1 <1>  -0.3630 
 28 C        3.8360    -4.2680    -0.0090 C.3   1 <1>   0.0400 
 29 H       -1.4340     1.9240    -0.7840 H     1 <1>   0.0800 
 30 H       -2.4170     2.5260     0.5370 H     1 <1>   0.0800 
 31 H       -2.0710    -1.6290     2.0270 H     1 <1>   0.0800 
 32 H       -3.3880     0.8150    -0.9840 H     1 <1>   0.0800 
 33 H       -2.8970    -0.7310    -1.5830 H     1 <1>   0.0800 
 34 H        0.6130     2.4490     0.4280 H     1 <1>   0.0800 
 35 H       -0.3060     2.9740     1.8180 H     1 <1>   0.0800 
 36 H       -3.3150    -3.0180    -0.3290 H     1 <1>   0.0800 
 37 H       -5.1130    -1.2200    -1.1540 H     1 <1>   0.0800 
 38 H       -5.2440    -0.0170     0.0970 H     1 <1>   0.0800 
 39 H       -1.4770    -2.6510    -1.5700 H     1 <1>   0.1500 
 40 H        0.1100    -2.2960     2.3730 H     1 <1>   0.1500 
 41 H       -3.4810    -3.3760     2.6690 H     1 <1>   0.0800 
 42 H       -2.7660    -4.4870     1.5140 H     1 <1>   0.0800 
 43 H       -0.4490     5.4540     1.9360 H     1 <1>   0.1500 
 44 H        2.1400    -3.3700     1.6550 H     1 <1>   0.1500 
 45 H       -5.4300    -3.6350     1.3600 H     1 <1>   0.4000 
 46 H       -0.5740     6.2640    -2.2250 H     1 <1>   0.1500 
 47 H       -1.5480     8.2810    -0.2230 H     1 <1>   0.0800 
 48 H        0.2000     8.3940    -0.2510 H     1 <1>   0.0800 
 49 H       -0.6350     8.1000     1.2570 H     1 <1>   0.0800 
 50 H        0.8420    -5.1240    -4.0800 H     1 <1>   0.0800 
 51 H        1.1920    -5.6770    -2.4430 H     1 <1>   0.0800 
 52 H        2.2410    -4.4840    -3.2280 H     1 <1>   0.0800 
 53 H        4.6340    -4.6920    -0.5910 H     1 <1>   0.0800 
 54 H        3.6430    -4.8870     0.8490 H     1 <1>   0.0800 
 55 H        4.0910    -3.2650     0.2850 H     1 <1>   0.0800 
@<TRIPOS>BOND
  1   1   2  2   
  2   2   3  am  
  3   2   4  1   
  4   3   5  1   
  5   3   6  1   
  6   4   7  1   
  7   4  29  1   
  8   4  30  1   
  9   5   8  1   
 10   5   9  1   
 11   5  31  1   
 12   6  10  1   
 13   6  32  1   
 14   6  33  1   
 15   7  11  1   
 16   7  34  1   
 17   7  35  1   
 18   8  12  ar  
 19   8  13  ar  
 20   9  14  1   
 21   9  15  1   
 22   9  36  1   
 23  10  14  1   
 24  10  37  1   
 25  10  38  1   
 26  11  16  1   
 27  11  17  1   
 28  12  18  ar  
 29  12  39  1   
 30  13  19  ar  
 31  13  40  1   
 32  15  20  1   
 33  15  41  1   
 34  15  42  1   
 35  16  21  2   
 36  17  22  2   
 37  17  43  1   
 38  18  23  1   
 39  18  24  ar  
 40  19  24  ar  
 41  19  44  1   
 42  20  45  1   
 43  21  22  1   
 44  21  46  1   
 45  22  25  1   
 46  23  26  1   
 47  24  27  1   
 48  25  47  1   
 49  25  48  1   
 50  25  49  1   
 51  26  50  1   
 52  26  51  1   
 53  26  52  1   
 54  27  28  1   
 55  28  53  1   
 56  28  54  1   
 57  28  55  1   
@<TRIPOS>SUBSTRUCTURE
  1 ****   3 GROUP 4 **** **** 0

# MOE 2024.06 (io_trps.svl 2023.06)
