@<TRIPOS>MOLECULE
NONAME
58 59 1 0 0 
SMALL
USER_CHARGES


@<TRIPOS>ATOM
  1 S       -2.2600    -1.1520     0.7630 S.3   1 <1>  -0.4600 
  2 C       -4.0470    -1.3970     1.0400 C.3   1 <1>   0.1310 
  3 C       -1.6860    -0.4330     2.3230 C.3   1 <1>   0.0700 
  4 C       -4.6860    -2.1550    -0.1230 C.2   1 <1>   0.5690 
  5 C       -0.1850    -0.1720     2.1910 C.3   1 <1>  -0.1600 
  6 O       -5.1570    -3.2470     0.1140 O.2   1 <1>  -0.5700 
  7 N       -4.7820    -1.6100    -1.3790 N.am  1 <1>  -0.6600 
  8 C        0.3880     0.4390     3.4730 C.3   1 <1>  -0.2400 
  9 C       -5.1480    -2.4470    -2.5630 C.3   1 <1>   0.1400 
 10 C       -4.6280    -0.1540    -1.6570 C.3   1 <1>   0.1400 
 11 C       -6.4570    -2.0010    -3.2420 C.3   1 <1>   0.1400 
 12 C       -5.9460     0.5820    -1.3680 C.3   1 <1>  -0.1600 
 13 N       -7.3640    -1.2440    -2.3210 N.am  1 <1>  -0.6600 
 14 C       -7.1100     0.2260    -2.3060 C.3   1 <1>   0.1400 
 15 C       -8.2340    -1.8130    -1.4220 C.2   1 <1>   0.5690 
 16 O       -8.9080    -1.1370    -0.6790 O.2   1 <1>  -0.5700 
 17 C       -8.3930    -3.3430    -1.3030 C.3   1 <1>   0.4040 
 18 N       -7.8460    -3.9710    -0.0390 N.4   1 <1>  -0.9590 
 19 C       -7.8620    -5.4640    -0.0990 C.3   1 <1>   0.3430 
 20 C       -8.4960    -3.4380     1.1900 C.3   1 <1>   0.3430 
 21 C       -7.7180    -6.1240     1.2880 C.3   1 <1>  -0.0800 
 22 C       -7.6850    -3.8560     2.4230 C.3   1 <1>  -0.1600 
 23 C       -6.9760    -5.2160     2.2810 C.3   1 <1>  -0.1600 
 24 C       -7.0040    -7.4770     1.1680 C.3   1 <1>  -0.2400 
 25 H       -4.4930    -0.4280     1.1630 H     1 <1>   0.0800 
 26 H       -4.1460    -1.9620     1.9480 H     1 <1>   0.0800 
 27 H       -1.8960    -1.1420     3.1050 H     1 <1>   0.0800 
 28 H       -2.2330     0.4790     2.4840 H     1 <1>   0.0800 
 29 H       -0.0120     0.4980     1.3670 H     1 <1>   0.0800 
 30 H        0.3190    -1.1000     1.9810 H     1 <1>   0.0800 
 31 H       -0.0890     1.3780     3.6900 H     1 <1>   0.0800 
 32 H        1.4440     0.6110     3.3560 H     1 <1>   0.0800 
 33 H        0.2420    -0.2270     4.3060 H     1 <1>   0.0800 
 34 H       -5.2430    -3.4770    -2.2680 H     1 <1>   0.0800 
 35 H       -4.3460    -2.4090    -3.2800 H     1 <1>   0.0800 
 36 H       -4.3380    -0.0060    -2.6830 H     1 <1>   0.0800 
 37 H       -3.8440     0.2570    -1.0450 H     1 <1>   0.0800 
 38 H       -6.9620    -2.8560    -3.6530 H     1 <1>   0.0800 
 39 H       -6.2060    -1.3720    -4.0790 H     1 <1>   0.0800 
 40 H       -5.7650     1.6380    -1.4590 H     1 <1>   0.0800 
 41 H       -6.2480     0.4050    -0.3520 H     1 <1>   0.0800 
 42 H       -6.8930     0.5660    -3.3040 H     1 <1>   0.0800 
 43 H       -7.9960     0.7440    -1.9800 H     1 <1>   0.0800 
 44 H       -7.9160    -3.7970    -2.1510 H     1 <1>   0.0800 
 45 H       -9.4450    -3.5580    -1.3710 H     1 <1>   0.0800 
 46 H       -6.8440    -3.6920     0.0420 H     1 <1>   0.4500 
 47 H       -7.0450    -5.7900    -0.7230 H     1 <1>   0.0800 
 48 H       -8.7790    -5.8080    -0.5480 H     1 <1>   0.0800 
 49 H       -9.4970    -3.8300     1.2640 H     1 <1>   0.0800 
 50 H       -8.5570    -2.3620     1.1610 H     1 <1>   0.0800 
 51 H       -8.7070    -6.3090     1.6730 H     1 <1>   0.0800 
 52 H       -8.3560    -3.8870     3.2630 H     1 <1>   0.0800 
 53 H       -6.9520    -3.0980     2.6370 H     1 <1>   0.0800 
 54 H       -5.9700    -5.0570     1.9270 H     1 <1>   0.0800 
 55 H       -6.9060    -5.6900     3.2460 H     1 <1>   0.0800 
 56 H       -6.0020    -7.3500     0.7950 H     1 <1>   0.0800 
 57 H       -7.5390    -8.1320     0.5030 H     1 <1>   0.0800 
 58 H       -6.9460    -7.9550     2.1310 H     1 <1>   0.0800 
@<TRIPOS>BOND
  1   1   2  1   
  2   1   3  1   
  3   2   4  1   
  4   2  25  1   
  5   2  26  1   
  6   3   5  1   
  7   3  27  1   
  8   3  28  1   
  9   4   6  2   
 10   4   7  am  
 11   5   8  1   
 12   5  29  1   
 13   5  30  1   
 14   7   9  1   
 15   7  10  1   
 16   8  31  1   
 17   8  32  1   
 18   8  33  1   
 19   9  11  1   
 20   9  34  1   
 21   9  35  1   
 22  10  12  1   
 23  10  36  1   
 24  10  37  1   
 25  11  13  1   
 26  11  38  1   
 27  11  39  1   
 28  12  14  1   
 29  12  40  1   
 30  12  41  1   
 31  13  14  1   
 32  13  15  am  
 33  14  42  1   
 34  14  43  1   
 35  15  16  2   
 36  15  17  1   
 37  17  18  1   
 38  17  44  1   
 39  17  45  1   
 40  18  19  1   
 41  18  20  1   
 42  18  46  1   
 43  19  21  1   
 44  19  47  1   
 45  19  48  1   
 46  20  22  1   
 47  20  49  1   
 48  20  50  1   
 49  21  23  1   
 50  21  24  1   
 51  21  51  1   
 52  22  23  1   
 53  22  52  1   
 54  22  53  1   
 55  23  54  1   
 56  23  55  1   
 57  24  56  1   
 58  24  57  1   
 59  24  58  1   
@<TRIPOS>SUBSTRUCTURE
  1 ****   6 GROUP 4 **** **** 0

# MOE 2024.06 (io_trps.svl 2023.06)
