@<TRIPOS>MOLECULE
NONAME
42 44 1 0 0 
SMALL
USER_CHARGES


@<TRIPOS>ATOM
  1 O       -0.8050     0.3630    -0.8570 O.2   1 <1>  -0.5700 
  2 C       -1.8010     0.9370    -0.4500 C.2   1 <1>   0.7160 
  3 N       -3.0230     0.3260    -0.6970 N.am  1 <1>  -0.6600 
  4 C       -1.6450     2.1860     0.2830 C.2   1 <1>   0.2030 
  5 C       -3.1160    -1.1260    -1.0150 C.3   1 <1>   0.1400 
  6 C       -4.3450     1.0050    -0.5840 C.3   1 <1>   0.1400 
  7 N       -2.4290     2.6720     1.2030 N.2   1 <1>  -0.4100 
  8 C       -0.5760     3.0570     0.1300 C.2   1 <1>  -0.1500 
  9 C       -3.9340    -1.8440     0.0840 C.3   1 <1>   0.4230 
 10 C       -5.1430     0.3220     0.5320 C.3   1 <1>  -0.1600 
 11 O       -1.9580     3.8080     1.6560 O.3   1 <1>  -0.0190 
 12 C       -0.8380     4.0300     1.0050 C.2   1 <1>  -0.0100 
 13 N       -3.9600    -3.3610    -0.0610 N.4   1 <1>  -0.9590 
 14 C       -5.3390    -1.2050     0.2980 C.3   1 <1>   0.0000 
 15 C       -5.0490    -4.0320     0.7230 C.3   1 <1>   0.3430 
 16 C       -3.9580    -3.8760    -1.4710 C.3   1 <1>   0.2630 
 17 C       -5.9940    -1.8220     1.5680 C.3   1 <1>  -0.1600 
 18 C       -6.2350    -1.4530    -0.9500 C.3   1 <1>   0.1200 
 19 C       -5.4320    -3.2050     1.9490 C.3   1 <1>  -0.1600 
 20 O       -7.4030    -0.7130    -0.8990 O.3   1 <1>  -0.6800 
 21 H       -3.5750    -1.2310    -1.9810 H     1 <1>   0.0800 
 22 H       -2.1330    -1.5610    -1.0590 H     1 <1>   0.0800 
 23 H       -4.2350     2.0540    -0.3740 H     1 <1>   0.0800 
 24 H       -4.8710     0.9270    -1.5210 H     1 <1>   0.0800 
 25 H        0.2500     2.9300    -0.5470 H     1 <1>   0.1500 
 26 H       -3.3990    -1.6430     0.9980 H     1 <1>   0.0800 
 27 H       -4.6150     0.4940     1.4550 H     1 <1>   0.0800 
 28 H       -6.0930     0.8190     0.6290 H     1 <1>   0.0800 
 29 H       -0.2820     4.9210     1.2350 H     1 <1>   0.1500 
 30 H       -3.0760    -3.6750     0.3660 H     1 <1>   0.4500 
 31 H       -5.9250    -4.1500     0.1050 H     1 <1>   0.0800 
 32 H       -4.7270    -5.0150     1.0310 H     1 <1>   0.0800 
 33 H       -4.8420    -3.5510    -1.9950 H     1 <1>   0.0800 
 34 H       -3.9360    -4.9540    -1.4750 H     1 <1>   0.0800 
 35 H       -3.0900    -3.5210    -2.0030 H     1 <1>   0.0800 
 36 H       -5.8550    -1.1750     2.4190 H     1 <1>   0.0800 
 37 H       -7.0590    -1.9030     1.4310 H     1 <1>   0.0800 
 38 H       -6.5170    -2.4870    -1.0350 H     1 <1>   0.0800 
 39 H       -5.7350    -1.1640    -1.8570 H     1 <1>   0.0800 
 40 H       -6.1720    -3.7400     2.5210 H     1 <1>   0.0800 
 41 H       -4.5680    -3.0930     2.5830 H     1 <1>   0.0800 
 42 H       -7.9500    -0.9320    -0.1190 H     1 <1>   0.4000 
@<TRIPOS>BOND
  1   1   2  2   
  2   2   3  am  
  3   2   4  1   
  4   3   5  1   
  5   3   6  1   
  6   4   7  2   
  7   4   8  1   
  8   5   9  1   
  9   5  21  1   
 10   5  22  1   
 11   6  10  1   
 12   6  23  1   
 13   6  24  1   
 14   7  11  1   
 15   8  12  2   
 16   8  25  1   
 17   9  13  1   
 18   9  14  1   
 19   9  26  1   
 20  10  14  1   
 21  10  27  1   
 22  10  28  1   
 23  11  12  1   
 24  12  29  1   
 25  13  15  1   
 26  13  16  1   
 27  13  30  1   
 28  14  17  1   
 29  14  18  1   
 30  15  19  1   
 31  15  31  1   
 32  15  32  1   
 33  16  33  1   
 34  16  34  1   
 35  16  35  1   
 36  17  19  1   
 37  17  36  1   
 38  17  37  1   
 39  18  20  1   
 40  18  38  1   
 41  18  39  1   
 42  19  40  1   
 43  19  41  1   
 44  20  42  1   
@<TRIPOS>SUBSTRUCTURE
  1 ****   3 GROUP 4 **** **** 0

# MOE 2024.06 (io_trps.svl 2023.06)
