@<TRIPOS>MOLECULE
NONAME
45 48 1 0 0 
SMALL
USER_CHARGES


@<TRIPOS>ATOM
  1 O        1.6170     0.2220    -0.9340 O.2   1 <1>  -0.5700 
  2 C        2.0970    -0.5310    -0.1110 C.2   1 <1>   0.9370 
  3 N        1.6580    -1.8710    -0.1240 N.pl3 1 <1>  -0.5760 
  4 C        3.0650    -0.0950     0.8420 C.2   1 <1>   0.0290 
  5 C        2.1450    -2.7520     0.7860 C.cat 1 <1>   0.7390 
  6 C        0.7330    -2.3110    -1.0470 C.2   1 <1>   0.1910 
  7 C        3.5420     1.2600     0.8800 C.2   1 <1>   0.6160 
  8 C        3.5140    -1.0220     1.7290 C.2   1 <1>   0.1910 
  9 N        3.0540    -2.3120     1.6880 N.pl3 1 <1>  -0.6450 
 10 C        1.7110    -4.0830     0.7830 C.2   1 <1>  -0.1800 
 11 C        0.2990    -3.6080    -1.0640 C.2   1 <1>  -0.1500 
 12 O        4.2790     1.5620     1.7960 O.2   1 <1>  -0.5700 
 13 N        3.2160     2.2160    -0.0540 N.am  1 <1>  -0.4940 
 14 C        0.7930    -4.5240    -0.1320 C.2   1 <1>  -0.1500 
 15 C        3.4500     3.6120    -0.0460 C.2   1 <1>  -0.0880 
 16 N        4.6260     4.2780     0.1790 N.pl3 1 <1>   0.3140 
 17 C        2.5110     4.5570    -0.2930 C.2   1 <1>  -0.1810 
 18 N        4.4330     5.6210     0.0940 N.2   1 <1>  -0.7070 
 19 C        5.9880     3.6970     0.4210 C.3   1 <1>   0.1760 
 20 C        3.1780     5.7690    -0.1870 C.2   1 <1>   0.1390 
 21 C        1.0360     4.4020    -0.6140 C.3   1 <1>  -0.0590 
 22 C        7.1270     4.7230     0.4320 C.3   1 <1>  -0.1600 
 23 C        6.4130     2.6800    -0.6520 C.3   1 <1>  -0.1600 
 24 C        8.3800     3.8950     0.1660 C.3   1 <1>  -0.1600 
 25 C        7.9310     2.8270    -0.8300 C.3   1 <1>  -0.1600 
 26 H        0.3420    -1.6130    -1.7750 H     1 <1>   0.1500 
 27 H        4.2430    -0.7740     2.4920 H     1 <1>   0.1500 
 28 H        3.4060    -2.9930     2.3720 H     1 <1>   0.4500 
 29 H        2.1080    -4.7670     1.5120 H     1 <1>   0.1500 
 30 H       -0.4240    -3.9380    -1.7920 H     1 <1>   0.1500 
 31 H        2.5170     1.9340    -0.7520 H     1 <1>   0.3700 
 32 H        0.4470    -5.5470    -0.1490 H     1 <1>   0.1500 
 33 H        5.9810     3.2180     1.3820 H     1 <1>   0.0800 
 34 H        2.7170     6.7330    -0.3200 H     1 <1>   0.1500 
 35 H        0.7380     3.3710    -0.5740 H     1 <1>   0.0800 
 36 H        0.8360     4.7830    -1.6000 H     1 <1>   0.0800 
 37 H        0.4500     4.9560     0.0970 H     1 <1>   0.0800 
 38 H        7.1800     5.2500     1.3680 H     1 <1>   0.0800 
 39 H        7.0000     5.4270    -0.3730 H     1 <1>   0.0800 
 40 H        5.9240     2.9000    -1.5860 H     1 <1>   0.0800 
 41 H        6.1660     1.6820    -0.3420 H     1 <1>   0.0800 
 42 H        8.6980     3.4250     1.0820 H     1 <1>   0.0800 
 43 H        9.1860     4.4960    -0.2190 H     1 <1>   0.0800 
 44 H        8.1430     3.1590    -1.8330 H     1 <1>   0.0800 
 45 H        8.4460     1.8970    -0.6570 H     1 <1>   0.0800 
@<TRIPOS>BOND
  1   1   2  2   
  2   2   3  1   
  3   2   4  1   
  4   3   5  ar  
  5   3   6  1   
  6   4   7  1   
  7   4   8  2   
  8   5   9  ar  
  9   5  10  1   
 10   6  11  2   
 11   6  26  1   
 12   7  12  2   
 13   7  13  am  
 14   8   9  1   
 15   8  27  1   
 16   9  28  1   
 17  10  14  2   
 18  10  29  1   
 19  11  14  1   
 20  11  30  1   
 21  13  15  1   
 22  13  31  1   
 23  14  32  1   
 24  15  16  1   
 25  15  17  2   
 26  16  18  1   
 27  16  19  1   
 28  17  20  1   
 29  17  21  1   
 30  18  20  2   
 31  19  22  1   
 32  19  23  1   
 33  19  33  1   
 34  20  34  1   
 35  21  35  1   
 36  21  36  1   
 37  21  37  1   
 38  22  24  1   
 39  22  38  1   
 40  22  39  1   
 41  23  25  1   
 42  23  40  1   
 43  23  41  1   
 44  24  25  1   
 45  24  42  1   
 46  24  43  1   
 47  25  44  1   
 48  25  45  1   
@<TRIPOS>SUBSTRUCTURE
  1 ****   7 GROUP 4 **** **** 0

# MOE 2024.06 (io_trps.svl 2023.06)
