@<TRIPOS>MOLECULE
NONAME
57 59 1 0 0 
SMALL
USER_CHARGES


@<TRIPOS>ATOM
  1 O       -1.0570    -1.2600     2.9080 O.2   1 <1>  -0.5700 
  2 C       -0.6830    -0.8920     1.8200 C.2   1 <1>   0.5690 
  3 N       -1.0930    -1.5420     0.6780 N.am  1 <1>  -0.6600 
  4 C        0.2040     0.3480     1.7690 C.3   1 <1>   0.0440 
  5 C       -0.7180    -1.1580    -0.7200 C.3   1 <1>   0.1400 
  6 C       -2.3130    -2.4100     0.7100 C.3   1 <1>   0.1400 
  7 C       -0.3510     1.4830     0.8970 C.ar  1 <1>  -0.1440 
  8 C       -1.8730    -0.3940    -1.4230 C.3   1 <1>   0.4230 
  9 C       -3.4880    -1.7510    -0.0550 C.3   1 <1>   0.3430 
 10 C       -1.6850     1.8920     0.9420 C.ar  1 <1>   0.0830 
 11 C        0.5040     2.1230     0.0100 C.ar  1 <1>  -0.1500 
 12 N       -3.1370    -0.3840    -0.5900 N.4   1 <1>  -0.9590 
 13 C       -2.1540    -0.9620    -2.8320 C.3   1 <1>   0.1200 
 14 O       -2.5860     1.2890     1.7430 O.3   1 <1>  -0.3630 
 15 C       -2.1480     2.8920     0.1070 C.ar  1 <1>  -0.1500 
 16 C        0.0410     3.1200    -0.8320 C.ar  1 <1>  -0.1500 
 17 C       -4.2160     0.3440    -1.3250 C.3   1 <1>   0.4230 
 18 O       -3.2080    -0.2760    -3.4470 O.3   1 <1>  -0.5600 
 19 C       -2.6600     1.7680     3.0690 C.3   1 <1>   0.0400 
 20 C       -1.2960     3.5030    -0.7920 C.ar  1 <1>   0.0830 
 21 C       -4.4180    -0.2570    -2.7360 C.3   1 <1>   0.1200 
 22 C       -5.5010     0.3860    -0.4860 C.3   1 <1>  -0.1600 
 23 O       -1.8380     4.4490    -1.5940 O.3   1 <1>  -0.3630 
 24 C       -6.5050     1.4250    -1.0100 C.3   1 <1>  -0.1600 
 25 C       -1.0330     5.2530    -2.4290 C.3   1 <1>   0.0400 
 26 C       -7.7330     1.5040    -0.1000 C.3   1 <1>  -0.2400 
 27 H        0.3320     0.7180     2.7700 H     1 <1>   0.0800 
 28 H        1.1740     0.0440     1.4230 H     1 <1>   0.0800 
 29 H        0.1730    -0.5570    -0.7320 H     1 <1>   0.0800 
 30 H       -0.4860    -2.0550    -1.2680 H     1 <1>   0.0800 
 31 H       -2.0830    -3.3650     0.2690 H     1 <1>   0.0800 
 32 H       -2.6210    -2.6000     1.7240 H     1 <1>   0.0800 
 33 H       -1.5460     0.6250    -1.5560 H     1 <1>   0.0800 
 34 H       -4.3260    -1.6740     0.6180 H     1 <1>   0.0800 
 35 H       -3.7820    -2.3960    -0.8650 H     1 <1>   0.0800 
 36 H        1.5460     1.8500    -0.0350 H     1 <1>   0.1500 
 37 H       -2.8980     0.1820     0.2480 H     1 <1>   0.4500 
 38 H       -2.4060    -2.0070    -2.7890 H     1 <1>   0.0800 
 39 H       -1.2870    -0.8450    -3.4580 H     1 <1>   0.0800 
 40 H       -3.1760     3.2040     0.1520 H     1 <1>   0.1500 
 41 H        0.7320     3.5890    -1.5080 H     1 <1>   0.1500 
 42 H       -3.8930     1.3640    -1.4630 H     1 <1>   0.0800 
 43 H       -3.4260     1.2180     3.5870 H     1 <1>   0.0800 
 44 H       -2.9040     2.8160     3.0520 H     1 <1>   0.0800 
 45 H       -1.7130     1.6130     3.5560 H     1 <1>   0.0800 
 46 H       -5.1080     0.3450    -3.3010 H     1 <1>   0.0800 
 47 H       -4.8050    -1.2590    -2.6840 H     1 <1>   0.0800 
 48 H       -5.9750    -0.5800    -0.4780 H     1 <1>   0.0800 
 49 H       -5.2460     0.6540     0.5250 H     1 <1>   0.0800 
 50 H       -6.0400     2.3970    -1.0520 H     1 <1>   0.0800 
 51 H       -6.8310     1.1690    -2.0040 H     1 <1>   0.0800 
 52 H       -1.6680     5.9700    -2.9170 H     1 <1>   0.0800 
 53 H       -0.5560     4.6300    -3.1650 H     1 <1>   0.0800 
 54 H       -0.3040     5.7640    -1.8250 H     1 <1>   0.0800 
 55 H       -7.4500     1.7940     0.8980 H     1 <1>   0.0800 
 56 H       -8.2370     0.5550    -0.0560 H     1 <1>   0.0800 
 57 H       -8.4240     2.2360    -0.4800 H     1 <1>   0.0800 
@<TRIPOS>BOND
  1   1   2  2   
  2   2   3  am  
  3   2   4  1   
  4   3   5  1   
  5   3   6  1   
  6   4   7  1   
  7   4  27  1   
  8   4  28  1   
  9   5   8  1   
 10   5  29  1   
 11   5  30  1   
 12   6   9  1   
 13   6  31  1   
 14   6  32  1   
 15   7  10  ar  
 16   7  11  ar  
 17   8  12  1   
 18   8  13  1   
 19   8  33  1   
 20   9  12  1   
 21   9  34  1   
 22   9  35  1   
 23  10  14  1   
 24  10  15  ar  
 25  11  16  ar  
 26  11  36  1   
 27  12  17  1   
 28  12  37  1   
 29  13  18  1   
 30  13  38  1   
 31  13  39  1   
 32  14  19  1   
 33  15  20  ar  
 34  15  40  1   
 35  16  20  ar  
 36  16  41  1   
 37  17  21  1   
 38  17  22  1   
 39  17  42  1   
 40  18  21  1   
 41  19  43  1   
 42  19  44  1   
 43  19  45  1   
 44  20  23  1   
 45  21  46  1   
 46  21  47  1   
 47  22  24  1   
 48  22  48  1   
 49  22  49  1   
 50  23  25  1   
 51  24  26  1   
 52  24  50  1   
 53  24  51  1   
 54  25  52  1   
 55  25  53  1   
 56  25  54  1   
 57  26  55  1   
 58  26  56  1   
 59  26  57  1   
@<TRIPOS>SUBSTRUCTURE
  1 ****  12 GROUP 4 **** **** 0

# MOE 2024.06 (io_trps.svl 2023.06)
