@<TRIPOS>MOLECULE
NONAME
56 59 1 0 0 
SMALL
USER_CHARGES


@<TRIPOS>ATOM
  1 O       -0.2440    -1.3740    -2.2260 O.3   1 <1>  -0.3630 
  2 C       -0.2200    -2.3330    -1.2700 C.ar  1 <1>   0.0830 
  3 C        0.7770    -0.4080    -2.3360 C.3   1 <1>   0.0400 
  4 C       -1.2610    -3.2210    -1.2400 C.ar  1 <1>  -0.1500 
  5 C        0.8120    -2.4540    -0.3240 C.ar  1 <1>  -0.1500 
  6 C       -1.3350    -4.2530    -0.2940 C.ar  1 <1>   0.3100 
  7 C        0.7680    -3.4510     0.6130 C.ar  1 <1>  -0.1500 
  8 N       -2.4050    -5.0810    -0.3460 N.ar  1 <1>  -0.6200 
  9 C       -0.2960    -4.3760     0.6600 C.ar  1 <1>   0.0000 
 10 C       -2.4740    -6.0310     0.5430 C.ar  1 <1>   0.4100 
 11 C       -0.3940    -5.4260     1.6000 C.ar  1 <1>  -0.1430 
 12 N       -3.5770    -6.8640     0.5030 N.pl3 1 <1>  -0.8380 
 13 C       -1.4830    -6.2370     1.5210 C.ar  1 <1>  -0.1500 
 14 C        0.6750    -5.6540     2.6590 C.3   1 <1>  -0.0970 
 15 C       -4.2900    -6.9930    -0.7970 C.3   1 <1>   0.2090 
 16 C       -4.4590    -6.8990     1.7000 C.3   1 <1>   0.2090 
 17 C       -5.1620    -8.2670    -0.8330 C.3   1 <1>   0.4230 
 18 C       -5.2830    -8.1910     1.6750 C.3   1 <1>  -0.1600 
 19 N       -5.8360    -8.5200    -2.1810 N.4   1 <1>  -0.9590 
 20 C       -6.1320    -8.3540     0.3820 C.3   1 <1>   0.0000 
 21 C       -6.9970    -9.4650    -2.1200 C.3   1 <1>   0.3430 
 22 C       -6.2190    -7.2830    -2.9410 C.3   1 <1>   0.2630 
 23 C       -6.8040    -9.7590     0.4030 C.3   1 <1>  -0.1600 
 24 C       -7.2060    -7.2320     0.2970 C.3   1 <1>   0.1200 
 25 C       -6.8330   -10.4570    -0.9710 C.3   1 <1>  -0.1600 
 26 O       -7.9580    -7.1550     1.4570 O.3   1 <1>  -0.6800 
 27 H        0.5360     0.2390    -3.1590 H     1 <1>   0.0800 
 28 H        1.7110    -0.9080    -2.5250 H     1 <1>   0.0800 
 29 H        0.8200     0.1600    -1.4240 H     1 <1>   0.0800 
 30 H       -2.0550    -3.1360    -1.9560 H     1 <1>   0.1500 
 31 H        1.6380    -1.7690    -0.3280 H     1 <1>   0.1500 
 32 H        1.5640    -3.5310     1.3310 H     1 <1>   0.1500 
 33 H       -1.6150    -7.0620     2.1940 H     1 <1>   0.1500 
 34 H        0.4280    -6.4990     3.2760 H     1 <1>   0.0800 
 35 H        0.7600    -4.7880     3.2900 H     1 <1>   0.0800 
 36 H        1.6240    -5.8440     2.1900 H     1 <1>   0.0800 
 37 H       -4.8820    -6.1080    -0.9430 H     1 <1>   0.0800 
 38 H       -3.5570    -7.0490    -1.5840 H     1 <1>   0.0800 
 39 H       -3.8680    -6.8670     2.6000 H     1 <1>   0.0800 
 40 H       -5.1020    -6.0340     1.7020 H     1 <1>   0.0800 
 41 H       -4.4660    -9.0760    -0.6880 H     1 <1>   0.0800 
 42 H       -4.5940    -9.0110     1.7720 H     1 <1>   0.0800 
 43 H       -5.9140    -8.2110     2.5470 H     1 <1>   0.0800 
 44 H       -5.1120    -8.9950    -2.7410 H     1 <1>   0.4500 
 45 H       -7.9100    -8.9130    -1.9670 H     1 <1>   0.0800 
 46 H       -7.0850    -9.9980    -3.0540 H     1 <1>   0.0800 
 47 H       -6.9390    -6.7050    -2.3860 H     1 <1>   0.0800 
 48 H       -6.6530    -7.5490    -3.8920 H     1 <1>   0.0800 
 49 H       -5.3530    -6.6680    -3.1270 H     1 <1>   0.0800 
 50 H       -6.2870   -10.4150     1.0840 H     1 <1>   0.0800 
 51 H       -7.8110    -9.6810     0.7760 H     1 <1>   0.0800 
 52 H       -7.8890    -7.3980    -0.5170 H     1 <1>   0.0800 
 53 H       -6.7530    -6.2660     0.1650 H     1 <1>   0.0800 
 54 H       -7.6470   -11.1610    -0.9900 H     1 <1>   0.0800 
 55 H       -5.9270   -11.0210    -1.1190 H     1 <1>   0.0800 
 56 H       -8.4650    -7.9740     1.6270 H     1 <1>   0.4000 
@<TRIPOS>BOND
  1   1   2  1   
  2   1   3  1   
  3   2   4  ar  
  4   2   5  ar  
  5   3  27  1   
  6   3  28  1   
  7   3  29  1   
  8   4   6  ar  
  9   4  30  1   
 10   5   7  ar  
 11   5  31  1   
 12   6   8  ar  
 13   6   9  ar  
 14   7   9  ar  
 15   7  32  1   
 16   8  10  ar  
 17   9  11  ar  
 18  10  12  1   
 19  10  13  ar  
 20  11  13  ar  
 21  11  14  1   
 22  12  15  1   
 23  12  16  1   
 24  13  33  1   
 25  14  34  1   
 26  14  35  1   
 27  14  36  1   
 28  15  17  1   
 29  15  37  1   
 30  15  38  1   
 31  16  18  1   
 32  16  39  1   
 33  16  40  1   
 34  17  19  1   
 35  17  20  1   
 36  17  41  1   
 37  18  20  1   
 38  18  42  1   
 39  18  43  1   
 40  19  21  1   
 41  19  22  1   
 42  19  44  1   
 43  20  23  1   
 44  20  24  1   
 45  21  25  1   
 46  21  45  1   
 47  21  46  1   
 48  22  47  1   
 49  22  48  1   
 50  22  49  1   
 51  23  25  1   
 52  23  50  1   
 53  23  51  1   
 54  24  26  1   
 55  24  52  1   
 56  24  53  1   
 57  25  54  1   
 58  25  55  1   
 59  26  56  1   
@<TRIPOS>SUBSTRUCTURE
  1 ****  10 GROUP 4 **** **** 0

# MOE 2024.06 (io_trps.svl 2023.06)
