@<TRIPOS>MOLECULE
NONAME
45 47 1 0 0 
SMALL
USER_CHARGES


@<TRIPOS>ATOM
  1 S        0.2410     0.7070    -0.5380 S.o2  1 <1>   1.3330 
  2 O        0.3120    -0.6350    -1.0700 O.2   1 <1>  -0.6500 
  3 O       -0.7940     1.6060    -0.9970 O.2   1 <1>  -0.6500 
  4 N        0.0890     0.5900     1.1510 N.am  1 <1>  -0.8490 
  5 C        1.8410     1.4820    -0.7730 C.3   1 <1>  -0.0550 
  6 C       -0.3430     1.8410     1.7840 C.3   1 <1>   0.1160 
  7 C       -0.8060    -0.5000     1.5490 C.3   1 <1>   0.1160 
  8 C        3.0420     0.5960    -0.3770 C.3   1 <1>  -0.0800 
  9 C        4.4040     1.1750    -0.7300 C.3   1 <1>   0.2200 
 10 C        3.1760     0.3120     1.1240 C.3   1 <1>   0.1200 
 11 N        4.4590     2.6220    -0.4120 N.am  1 <1>  -0.7300 
 12 C        5.2920     0.4190     0.2470 C.3   1 <1>   0.1200 
 13 O        4.5430     0.3180     1.4190 O.3   1 <1>  -0.5600 
 14 C        4.3870     3.6570    -1.3020 C.2   1 <1>   0.5440 
 15 O        4.2150     3.3800    -2.4760 O.2   1 <1>  -0.5700 
 16 C        4.4920     5.0410    -0.8470 C.ar  1 <1>   0.3960 
 17 N        4.5680     5.3140     0.4390 N.ar  1 <1>  -0.6200 
 18 C        4.5050     6.0750    -1.8220 C.ar  1 <1>   0.1600 
 19 C        4.6630     6.6320     0.7430 C.ar  1 <1>   0.3100 
 20 N        4.5920     7.3450    -1.5720 N.ar  1 <1>  -0.6200 
 21 C        4.6740     7.6430    -0.2510 C.ar  1 <1>   0.3100 
 22 C        4.7530     7.0160     2.0910 C.ar  1 <1>  -0.1500 
 23 C        4.7720     8.9840     0.1480 C.ar  1 <1>  -0.1500 
 24 C        4.8480     8.3350     2.4530 C.ar  1 <1>  -0.1500 
 25 C        4.8580     9.3300     1.4720 C.ar  1 <1>  -0.1500 
 26 H        1.9430     1.7290    -1.8130 H     1 <1>   0.0800 
 27 H        1.8710     2.4030    -0.2250 H     1 <1>   0.0800 
 28 H       -0.3390     1.7340     2.8550 H     1 <1>   0.0800 
 29 H       -1.3390     2.1020     1.4620 H     1 <1>   0.0800 
 30 H        0.3250     2.6430     1.5210 H     1 <1>   0.0800 
 31 H       -0.8710    -0.5580     2.6220 H     1 <1>   0.0800 
 32 H       -0.4260    -1.4410     1.1860 H     1 <1>   0.0800 
 33 H       -1.7900    -0.3440     1.1410 H     1 <1>   0.0800 
 34 H        2.9470    -0.3510    -0.8800 H     1 <1>   0.0800 
 35 H        4.6800     0.9990    -1.7570 H     1 <1>   0.0800 
 36 H        2.7630    -0.6470     1.3880 H     1 <1>   0.0800 
 37 H        2.7150     1.0810     1.7190 H     1 <1>   0.0800 
 38 H        4.5870     2.8410     0.5830 H     1 <1>   0.3700 
 39 H        6.2190     0.9260     0.4490 H     1 <1>   0.0800 
 40 H        5.4870    -0.5790    -0.1070 H     1 <1>   0.0800 
 41 H        4.4370     5.7740    -2.8540 H     1 <1>   0.1500 
 42 H        4.7450     6.2410     2.8350 H     1 <1>   0.1500 
 43 H        4.7780     9.7350    -0.6220 H     1 <1>   0.1500 
 44 H        4.9170     8.6190     3.4900 H     1 <1>   0.1500 
 45 H        4.9330    10.3630     1.7680 H     1 <1>   0.1500 
@<TRIPOS>BOND
  1   1   2  2   
  2   1   3  2   
  3   1   4  am  
  4   1   5  1   
  5   4   6  1   
  6   4   7  1   
  7   5   8  1   
  8   5  26  1   
  9   5  27  1   
 10   6  28  1   
 11   6  29  1   
 12   6  30  1   
 13   7  31  1   
 14   7  32  1   
 15   7  33  1   
 16   8   9  1   
 17   8  10  1   
 18   8  34  1   
 19   9  11  1   
 20   9  12  1   
 21   9  35  1   
 22  10  13  1   
 23  10  36  1   
 24  10  37  1   
 25  11  14  am  
 26  11  38  1   
 27  12  13  1   
 28  12  39  1   
 29  12  40  1   
 30  14  15  2   
 31  14  16  1   
 32  16  17  ar  
 33  16  18  ar  
 34  17  19  ar  
 35  18  20  ar  
 36  18  41  1   
 37  19  21  ar  
 38  19  22  ar  
 39  20  21  ar  
 40  21  23  ar  
 41  22  24  ar  
 42  22  42  1   
 43  23  25  ar  
 44  23  43  1   
 45  24  25  ar  
 46  24  44  1   
 47  25  45  1   
@<TRIPOS>SUBSTRUCTURE
  1 ****  11 GROUP 4 **** **** 0

# MOE 2024.06 (io_trps.svl 2023.06)
