@<TRIPOS>MOLECULE
NONAME
43 45 1 0 0 
SMALL
USER_CHARGES


@<TRIPOS>ATOM
  1 O        1.5070     1.5190    -1.2970 O.3   1 <1>  -0.0190 
  2 N        2.4270     0.6050    -1.2160 N.2   1 <1>  -0.4100 
  3 C        0.9580     1.7600    -0.1370 C.2   1 <1>  -0.0400 
  4 C        2.4580     0.2350     0.0140 C.2   1 <1>   0.1080 
  5 C        1.5300     0.9510     0.7670 C.2   1 <1>  -0.1500 
  6 C       -0.1140     2.8250    -0.0170 C.3   1 <1>   0.0200 
  7 C        3.3800    -0.8350     0.5580 C.3   1 <1>  -0.0590 
  8 C        0.3450     4.1270    -0.7040 C.3   1 <1>  -0.0800 
  9 C       -0.5520     5.3520    -0.5210 C.3   1 <1>   0.2000 
 10 C        1.7340     4.5920    -0.2460 C.3   1 <1>   0.3430 
 11 O       -0.9250     5.4710     0.8170 O.3   1 <1>  -0.6800 
 12 C        0.4010     6.5000    -0.8610 C.3   1 <1>   0.3430 
 13 N        1.7260     6.0810    -0.3140 N.4   1 <1>  -0.9590 
 14 C        1.9650     6.7130     1.0190 C.3   1 <1>   0.4860 
 15 C        2.3050     8.1870     0.8200 C.ar  1 <1>   0.1670 
 16 N        3.0910     8.4720    -0.2140 N.ar  1 <1>  -0.6200 
 17 C        1.7860     9.1350     1.6890 C.ar  1 <1>  -0.1500 
 18 C        3.3830     9.7530    -0.3830 C.ar  1 <1>   0.1670 
 19 C        2.0930    10.4650     1.4980 C.ar  1 <1>  -0.1500 
 20 C        2.9140    10.7690     0.4340 C.ar  1 <1>  -0.1500 
 21 C        4.2900    10.0800    -1.5510 C.3   1 <1>  -0.0970 
 22 H        1.3510     0.8450     1.8220 H     1 <1>   0.1500 
 23 H       -1.0160     2.4680    -0.4840 H     1 <1>   0.0800 
 24 H       -0.3170     2.9850     1.0270 H     1 <1>   0.0800 
 25 H        4.0070    -0.4240     1.3270 H     1 <1>   0.0800 
 26 H        4.0020    -1.2190    -0.2310 H     1 <1>   0.0800 
 27 H        2.8010    -1.6430     0.9660 H     1 <1>   0.0800 
 28 H        0.4180     3.9310    -1.7600 H     1 <1>   0.0800 
 29 H       -1.4350     5.3500    -1.1380 H     1 <1>   0.0800 
 30 H        2.4990     4.1730    -0.8810 H     1 <1>   0.0800 
 31 H        1.9080     4.2690     0.7680 H     1 <1>   0.0800 
 32 H       -1.7550     4.9790     0.9970 H     1 <1>   0.4000 
 33 H        0.0620     7.4360    -0.4470 H     1 <1>   0.0800 
 34 H        0.4730     6.5950    -1.9320 H     1 <1>   0.0800 
 35 H        2.4810     6.4750    -0.9050 H     1 <1>   0.4500 
 36 H        1.0970     6.6080     1.6480 H     1 <1>   0.0800 
 37 H        2.8030     6.2380     1.5010 H     1 <1>   0.0800 
 38 H        1.1510     8.8510     2.5090 H     1 <1>   0.1500 
 39 H        1.7130    11.2340     2.1500 H     1 <1>   0.1500 
 40 H        3.1860    11.7920     0.2440 H     1 <1>   0.1500 
 41 H        4.4820    11.1350    -1.6100 H     1 <1>   0.0800 
 42 H        3.8300     9.7610    -2.4680 H     1 <1>   0.0800 
 43 H        5.2270     9.5660    -1.4360 H     1 <1>   0.0800 
@<TRIPOS>BOND
  1   1   2  1   
  2   1   3  1   
  3   2   4  2   
  4   3   5  2   
  5   3   6  1   
  6   4   5  1   
  7   4   7  1   
  8   5  22  1   
  9   6   8  1   
 10   6  23  1   
 11   6  24  1   
 12   7  25  1   
 13   7  26  1   
 14   7  27  1   
 15   8   9  1   
 16   8  10  1   
 17   8  28  1   
 18   9  11  1   
 19   9  12  1   
 20   9  29  1   
 21  10  13  1   
 22  10  30  1   
 23  10  31  1   
 24  11  32  1   
 25  12  13  1   
 26  12  33  1   
 27  12  34  1   
 28  13  14  1   
 29  13  35  1   
 30  14  15  1   
 31  14  36  1   
 32  14  37  1   
 33  15  16  ar  
 34  15  17  ar  
 35  16  18  ar  
 36  17  19  ar  
 37  17  38  1   
 38  18  20  ar  
 39  18  21  1   
 40  19  20  ar  
 41  19  39  1   
 42  20  40  1   
 43  21  41  1   
 44  21  42  1   
 45  21  43  1   
@<TRIPOS>SUBSTRUCTURE
  1 ****  13 GROUP 4 **** **** 0

# MOE 2024.06 (io_trps.svl 2023.06)
