@<TRIPOS>MOLECULE
NONAME
43 45 1 0 0 
SMALL
USER_CHARGES


@<TRIPOS>ATOM
  1 S        0.9280     0.0420    -1.7110 S.o2  1 <1>   1.3330 
  2 O        1.3860    -1.2660    -2.1240 O.2   1 <1>  -0.6500 
  3 O        0.1520     0.8480    -2.6270 O.2   1 <1>  -0.6500 
  4 N       -0.0030    -0.1550    -0.3030 N.am  1 <1>  -0.8490 
  5 C        2.3550     0.9780    -1.1590 C.3   1 <1>  -0.0550 
  6 C       -0.8060     1.0270     0.0290 C.3   1 <1>   0.1160 
  7 C       -0.8690    -1.3360    -0.3770 C.3   1 <1>   0.1160 
  8 C        3.3040     0.1960    -0.2250 C.3   1 <1>  -0.0800 
  9 C        4.6000     0.9160     0.1060 C.3   1 <1>   0.2890 
 10 C        2.7330    -0.1270     1.1620 C.3   1 <1>   0.1200 
 11 N        4.3390     2.3470     0.4020 N.pl3 1 <1>  -0.8690 
 12 C        4.9900     0.2080     1.3970 C.3   1 <1>   0.1200 
 13 O        3.7890    -0.0150     2.0740 O.3   1 <1>  -0.5600 
 14 C        4.6270     3.4050    -0.4190 C.ar  1 <1>   0.4100 
 15 N        4.9980     3.1350    -1.6570 N.ar  1 <1>  -0.6200 
 16 C        4.5150     4.7180     0.0320 C.ar  1 <1>   0.0000 
 17 C        5.2580     4.1800    -2.4350 C.ar  1 <1>   0.4700 
 18 C        4.8180     5.6790    -0.9000 C.ar  1 <1>   0.2970 
 19 C        4.1360     5.2690     1.3080 C.2   1 <1>  -0.1500 
 20 N        5.1940     5.4650    -2.1430 N.ar  1 <1>  -0.5670 
 21 S        4.6330     7.2870    -0.2010 S.3   1 <1>  -0.0800 
 22 C        4.1460     6.6130     1.3580 C.2   1 <1>  -0.1400 
 23 C        3.8290     7.6010     2.4610 C.3   1 <1>  -0.0600 
 24 H        2.9160     1.2720    -2.0250 H     1 <1>   0.0800 
 25 H        2.0270     1.8770    -0.6770 H     1 <1>   0.0800 
 26 H       -1.3060     0.8810     0.9720 H     1 <1>   0.0800 
 27 H       -1.5450     1.2090    -0.7350 H     1 <1>   0.0800 
 28 H       -0.1750     1.8950     0.1120 H     1 <1>   0.0800 
 29 H       -1.4360    -1.4410     0.5320 H     1 <1>   0.0800 
 30 H       -0.2720    -2.2240    -0.5050 H     1 <1>   0.0800 
 31 H       -1.5460    -1.2520    -1.2110 H     1 <1>   0.0800 
 32 H        3.5580    -0.7370    -0.6980 H     1 <1>   0.0800 
 33 H        5.3500     0.8060    -0.6590 H     1 <1>   0.0800 
 34 H        2.3310    -1.1250     1.2080 H     1 <1>   0.0800 
 35 H        1.9780     0.5820     1.4550 H     1 <1>   0.0800 
 36 H        4.0330     2.5150     1.3640 H     1 <1>   0.4000 
 37 H        5.6520     0.7940     2.0100 H     1 <1>   0.0800 
 38 H        5.4320    -0.7500     1.1870 H     1 <1>   0.0800 
 39 H        5.5610     3.9460    -3.4420 H     1 <1>   0.1500 
 40 H        3.8770     4.6200     2.1250 H     1 <1>   0.1500 
 41 H        3.5460     7.0810     3.3580 H     1 <1>   0.0800 
 42 H        3.0190     8.2410     2.1590 H     1 <1>   0.0800 
 43 H        4.6930     8.2070     2.6680 H     1 <1>   0.0800 
@<TRIPOS>BOND
  1   1   2  2   
  2   1   3  2   
  3   1   4  am  
  4   1   5  1   
  5   4   6  1   
  6   4   7  1   
  7   5   8  1   
  8   5  24  1   
  9   5  25  1   
 10   6  26  1   
 11   6  27  1   
 12   6  28  1   
 13   7  29  1   
 14   7  30  1   
 15   7  31  1   
 16   8   9  1   
 17   8  10  1   
 18   8  32  1   
 19   9  11  1   
 20   9  12  1   
 21   9  33  1   
 22  10  13  1   
 23  10  34  1   
 24  10  35  1   
 25  11  14  1   
 26  11  36  1   
 27  12  13  1   
 28  12  37  1   
 29  12  38  1   
 30  14  15  ar  
 31  14  16  ar  
 32  15  17  ar  
 33  16  18  ar  
 34  16  19  1   
 35  17  20  ar  
 36  17  39  1   
 37  18  20  ar  
 38  18  21  1   
 39  19  22  2   
 40  19  40  1   
 41  21  22  1   
 42  22  23  1   
 43  23  41  1   
 44  23  42  1   
 45  23  43  1   
@<TRIPOS>SUBSTRUCTURE
  1 ****  11 GROUP 4 **** **** 0

# MOE 2024.06 (io_trps.svl 2023.06)
