@<TRIPOS>MOLECULE
NONAME
40 42 1 0 0 
SMALL
USER_CHARGES


@<TRIPOS>ATOM
  1 O       -1.9540     0.3570    -2.3520 O.2   1 <1>  -0.5700 
  2 C       -1.8560     0.5150    -1.1530 C.2   1 <1>   0.5440 
  3 N       -1.8270    -0.5940    -0.3570 N.am  1 <1>  -0.7300 
  4 C       -1.7820     1.8450    -0.5970 C.ar  1 <1>   0.0860 
  5 C       -1.9200    -1.9950    -0.8360 C.3   1 <1>   0.2200 
  6 C       -2.0890     2.1350     0.7200 C.ar  1 <1>   0.1600 
  7 C       -1.4030     2.9350    -1.3590 C.ar  1 <1>   0.1600 
  8 C       -3.2900    -2.5880    -0.5300 C.3   1 <1>  -0.0800 
  9 C       -1.0400    -2.8660     0.0490 C.3   1 <1>   0.1200 
 10 N       -2.0200     3.3450     1.2320 N.ar  1 <1>  -0.6200 
 11 N       -1.3220     4.1590    -0.8810 N.ar  1 <1>  -0.6200 
 12 C       -3.1450    -3.0660     0.9210 C.3   1 <1>   0.1200 
 13 C       -4.4960    -1.6630    -0.7790 C.3   1 <1>  -0.0170 
 14 O       -1.7790    -3.0400     1.2190 O.3   1 <1>  -0.5600 
 15 C       -1.6350     4.2950     0.3960 C.ar  1 <1>   0.4770 
 16 C       -5.8030    -2.3860    -0.4980 C.ar  1 <1>  -0.1430 
 17 C       -1.5480     5.6930     0.9570 C.3   1 <1>  -0.0970 
 18 C       -6.3650    -3.2510    -1.4150 C.ar  1 <1>  -0.1500 
 19 C       -6.4960    -2.2160     0.6840 C.ar  1 <1>  -0.1500 
 20 C       -7.5550    -3.8910    -1.1120 C.ar  1 <1>   0.1600 
 21 C       -7.6800    -2.9050     0.8880 C.ar  1 <1>   0.1600 
 22 N       -8.2250    -3.7410     0.0200 N.ar  1 <1>  -0.6200 
 23 H       -1.6720    -0.5330     0.6520 H     1 <1>   0.3700 
 24 H       -1.6550    -2.0670    -1.8780 H     1 <1>   0.0800 
 25 H       -2.4080     1.3460     1.3770 H     1 <1>   0.1500 
 26 H       -1.1600     2.7840    -2.3990 H     1 <1>   0.1500 
 27 H       -3.4110    -3.4640    -1.1430 H     1 <1>   0.0800 
 28 H       -0.0920    -2.4100     0.2780 H     1 <1>   0.0800 
 29 H       -0.8860    -3.8340    -0.3950 H     1 <1>   0.0800 
 30 H       -3.5130    -4.0700     1.0470 H     1 <1>   0.0800 
 31 H       -3.6420    -2.4070     1.6120 H     1 <1>   0.0800 
 32 H       -4.4840    -1.3290    -1.8020 H     1 <1>   0.0800 
 33 H       -4.4360    -0.7890    -0.1550 H     1 <1>   0.0800 
 34 H       -1.4670     5.6630     2.0280 H     1 <1>   0.0800 
 35 H       -2.4320     6.2400     0.6860 H     1 <1>   0.0800 
 36 H       -0.6870     6.1950     0.5560 H     1 <1>   0.0800 
 37 H       -5.8900    -3.4320    -2.3620 H     1 <1>   0.1500 
 38 H       -6.1290    -1.5560     1.4480 H     1 <1>   0.1500 
 39 H       -7.9790    -4.5620    -1.8390 H     1 <1>   0.1500 
 40 H       -8.2060    -2.7610     1.8160 H     1 <1>   0.1500 
@<TRIPOS>BOND
  1   1   2  2   
  2   2   3  am  
  3   2   4  1   
  4   3   5  1   
  5   3  23  1   
  6   4   6  ar  
  7   4   7  ar  
  8   5   8  1   
  9   5   9  1   
 10   5  24  1   
 11   6  10  ar  
 12   6  25  1   
 13   7  11  ar  
 14   7  26  1   
 15   8  12  1   
 16   8  13  1   
 17   8  27  1   
 18   9  14  1   
 19   9  28  1   
 20   9  29  1   
 21  10  15  ar  
 22  11  15  ar  
 23  12  14  1   
 24  12  30  1   
 25  12  31  1   
 26  13  16  1   
 27  13  32  1   
 28  13  33  1   
 29  15  17  1   
 30  16  18  ar  
 31  16  19  ar  
 32  17  34  1   
 33  17  35  1   
 34  17  36  1   
 35  18  20  ar  
 36  18  37  1   
 37  19  21  ar  
 38  19  38  1   
 39  20  22  ar  
 40  20  39  1   
 41  21  22  ar  
 42  21  40  1   
@<TRIPOS>SUBSTRUCTURE
  1 ****   3 GROUP 4 **** **** 0

# MOE 2024.06 (io_trps.svl 2023.06)
