@<TRIPOS>MOLECULE
NONAME
46 49 1 0 0 
SMALL
USER_CHARGES


@<TRIPOS>ATOM
  1 O        1.1050    -0.4140    -1.9720 O.2   1 <1>  -0.5700 
  2 C        1.5330    -0.9590    -0.9730 C.2   1 <1>   0.5440 
  3 N        2.2290    -0.2040    -0.0500 N.am  1 <1>  -0.6600 
  4 C        1.3270    -2.3840    -0.7920 C.ar  1 <1>   0.0860 
  5 C        2.2800     1.2890    -0.1220 C.3   1 <1>   0.1400 
  6 C        3.2130    -0.7740     0.9190 C.3   1 <1>   0.1400 
  7 C        0.8380    -2.9120     0.4030 C.ar  1 <1>  -0.1500 
  8 C        1.6240    -3.2870    -1.8110 C.ar  1 <1>  -0.1500 
  9 C        3.7290     1.7720    -0.2910 C.3   1 <1>   0.1200 
 10 C        4.6090    -0.1680     0.6920 C.3   1 <1>   0.1200 
 11 C        0.6910    -4.2750     0.5820 C.ar  1 <1>  -0.1500 
 12 C        1.4750    -4.6490    -1.6320 C.ar  1 <1>  -0.1500 
 13 O        4.5500     1.2300     0.7060 O.3   1 <1>  -0.5600 
 14 C        1.0150    -5.1810    -0.4290 C.ar  1 <1>   0.0860 
 15 C        0.9210    -6.6180    -0.2450 C.2   1 <1>   0.5440 
 16 O        1.9050    -7.2950    -0.4820 O.2   1 <1>  -0.5700 
 17 N       -0.2190    -7.2260     0.2150 N.am  1 <1>  -0.6600 
 18 C       -1.5130    -6.6030     0.4850 C.3   1 <1>   0.2350 
 19 C       -0.3930    -8.6710     0.3780 C.3   1 <1>   0.2350 
 20 C       -2.6040    -7.5900     0.0810 C.3   1 <1>  -0.2420 
 21 C       -1.8400    -9.0100     0.0070 C.3   1 <1>  -0.2420 
 22 C       -3.7730    -6.6090    -0.0280 C.2   1 <1>   0.9470 
 23 C       -3.2810    -8.8550    -0.2000 C.3   1 <1>  -0.2000 
 24 C       -1.6860   -10.5150    -0.2280 C.2   1 <1>   0.9470 
 25 O       -4.1040    -6.1570    -1.1310 O.co2 1 <1>  -0.9000 
 26 O       -4.3000    -6.2070     1.0190 O.co2 1 <1>  -0.9000 
 27 O       -1.5560   -10.9570    -1.3770 O.co2 1 <1>  -0.9000 
 28 O       -1.6310   -11.2630     0.7590 O.co2 1 <1>  -0.9000 
 29 H        1.6850     1.6550    -0.9400 H     1 <1>   0.0800 
 30 H        1.8760     1.7000     0.7860 H     1 <1>   0.0800 
 31 H        2.8920    -0.5550     1.9220 H     1 <1>   0.0800 
 32 H        3.2820    -1.8420     0.8140 H     1 <1>   0.0800 
 33 H        0.5710    -2.2380     1.1980 H     1 <1>   0.1500 
 34 H        1.9770    -2.9050    -2.7540 H     1 <1>   0.1500 
 35 H        3.7750     2.8430    -0.2100 H     1 <1>   0.0800 
 36 H        4.1130     1.4810    -1.2540 H     1 <1>   0.0800 
 37 H        5.0100    -0.4860    -0.2550 H     1 <1>   0.0800 
 38 H        5.2800    -0.4760     1.4730 H     1 <1>   0.0800 
 39 H        0.3230    -4.6570     1.5190 H     1 <1>   0.1500 
 40 H        1.7180    -5.3300    -2.4300 H     1 <1>   0.1500 
 41 H       -1.5880    -6.4300     1.5450 H     1 <1>   0.0800 
 42 H       -1.6140    -5.6630    -0.0340 H     1 <1>   0.0800 
 43 H        0.3170    -9.2210    -0.2190 H     1 <1>   0.0800 
 44 H       -0.2350    -8.9140     1.4140 H     1 <1>   0.0800 
 45 H       -3.6720    -9.0150    -1.1910 H     1 <1>   0.1000 
 46 H       -3.9440    -9.2520     0.5500 H     1 <1>   0.1000 
@<TRIPOS>BOND
  1   1   2  2   
  2   2   3  am  
  3   2   4  1   
  4   3   5  1   
  5   3   6  1   
  6   4   7  ar  
  7   4   8  ar  
  8   5   9  1   
  9   5  29  1   
 10   5  30  1   
 11   6  10  1   
 12   6  31  1   
 13   6  32  1   
 14   7  11  ar  
 15   7  33  1   
 16   8  12  ar  
 17   8  34  1   
 18   9  13  1   
 19   9  35  1   
 20   9  36  1   
 21  10  13  1   
 22  10  37  1   
 23  10  38  1   
 24  11  14  ar  
 25  11  39  1   
 26  12  14  ar  
 27  12  40  1   
 28  14  15  1   
 29  15  16  2   
 30  15  17  am  
 31  17  18  1   
 32  17  19  1   
 33  18  20  1   
 34  18  41  1   
 35  18  42  1   
 36  19  21  1   
 37  19  43  1   
 38  19  44  1   
 39  20  21  1   
 40  20  22  1   
 41  20  23  1   
 42  21  23  1   
 43  21  24  1   
 44  22  25  ar  
 45  22  26  ar  
 46  23  45  1   
 47  23  46  1   
 48  24  27  ar  
 49  24  28  ar  
@<TRIPOS>SUBSTRUCTURE
  1 ****  14 GROUP 4 **** **** 0

# MOE 2024.06 (io_trps.svl 2023.06)
