@<TRIPOS>MOLECULE
NONAME
48 50 1 0 0 
SMALL
USER_CHARGES


@<TRIPOS>ATOM
  1 S       -0.3450     0.3970    -0.5420 S.3   1 <1>  -0.0800 
  2 C       -0.3190    -1.3420    -0.5370 C.2   1 <1>   0.4620 
  3 C        1.3420     0.3580    -0.1460 C.2   1 <1>   0.1980 
  4 N        0.8540    -1.7990    -0.2650 N.2   1 <1>  -0.3380 
  5 N       -1.4700    -2.0570    -0.8090 N.pl3 1 <1>  -0.8220 
  6 N        1.7900    -0.8280    -0.0430 N.2   1 <1>  -0.3380 
  7 C        2.0570     1.6960     0.0230 C.3   1 <1>   0.1000 
  8 C       -2.8350    -1.4700    -0.9910 C.3   1 <1>   0.2090 
  9 C       -1.4560    -3.5520    -0.8540 C.3   1 <1>   0.2090 
 10 C        3.5790     1.5490    -0.1180 C.3   1 <1>  -0.2400 
 11 C        1.7170     2.3220     1.3820 C.3   1 <1>  -0.2400 
 12 C       -3.8740    -2.1920    -0.1060 C.3   1 <1>   0.2950 
 13 C       -2.5810    -4.1520     0.0220 C.3   1 <1>   0.2000 
 14 O       -3.8160    -3.5770    -0.3060 O.3   1 <1>  -0.5600 
 15 C       -5.3020    -1.7390    -0.4270 C.3   1 <1>  -0.1950 
 16 C       -2.7420    -5.6680    -0.1550 C.3   1 <1>  -0.1600 
 17 C       -5.8900    -0.5210     0.2150 C.3   1 <1>  -0.2000 
 18 C       -6.4040    -1.8870     0.5740 C.3   1 <1>  -0.2000 
 19 C       -1.5130    -6.4640     0.3120 C.3   1 <1>  -0.1600 
 20 C       -1.7620    -7.9730     0.2030 C.3   1 <1>  -0.1600 
 21 C       -0.5390    -8.7690     0.6660 C.3   1 <1>  -0.2400 
 22 H        1.7130     2.3550    -0.7560 H     1 <1>   0.0800 
 23 H       -2.8460    -0.4250    -0.7440 H     1 <1>   0.0800 
 24 H       -3.1240    -1.5690    -2.0220 H     1 <1>   0.0800 
 25 H       -1.5890    -3.8740    -1.8720 H     1 <1>   0.0800 
 26 H       -0.5060    -3.9230    -0.5140 H     1 <1>   0.0800 
 27 H        3.9670     0.9060     0.6520 H     1 <1>   0.0800 
 28 H        4.0590     2.5080    -0.0440 H     1 <1>   0.0800 
 29 H        3.8200     1.1180    -1.0730 H     1 <1>   0.0800 
 30 H        2.0320     1.6720     2.1790 H     1 <1>   0.0800 
 31 H        0.6560     2.4770     1.4670 H     1 <1>   0.0800 
 32 H        2.2100     3.2720     1.4920 H     1 <1>   0.0800 
 33 H       -3.6590    -1.9960     0.9300 H     1 <1>   0.0800 
 34 H       -2.3790    -3.9370     1.0570 H     1 <1>   0.0800 
 35 H       -5.5560    -1.9190    -1.4570 H     1 <1>   0.1000 
 36 H       -3.5960    -5.9810     0.4200 H     1 <1>   0.0800 
 37 H       -2.9380    -5.8830    -1.1910 H     1 <1>   0.0800 
 38 H       -5.3260     0.0180     0.9560 H     1 <1>   0.1000 
 39 H       -6.5180     0.1250    -0.3750 H     1 <1>   0.1000 
 40 H       -7.3750    -2.1920     0.2220 H     1 <1>   0.1000 
 41 H       -6.1700    -2.3010     1.5400 H     1 <1>   0.1000 
 42 H       -0.6570    -6.2080    -0.2880 H     1 <1>   0.0800 
 43 H       -1.2920    -6.2140     1.3360 H     1 <1>   0.0800 
 44 H       -2.6110    -8.2440     0.8080 H     1 <1>   0.0800 
 45 H       -1.9860    -8.2290    -0.8190 H     1 <1>   0.0800 
 46 H       -0.3100    -8.5430     1.6920 H     1 <1>   0.0800 
 47 H        0.3170    -8.5310     0.0590 H     1 <1>   0.0800 
 48 H       -0.7340    -9.8240     0.5830 H     1 <1>   0.0800 
@<TRIPOS>BOND
  1   1   2  1   
  2   1   3  1   
  3   2   4  2   
  4   2   5  1   
  5   3   6  2   
  6   3   7  1   
  7   4   6  1   
  8   5   8  1   
  9   5   9  1   
 10   7  10  1   
 11   7  11  1   
 12   7  22  1   
 13   8  12  1   
 14   8  23  1   
 15   8  24  1   
 16   9  13  1   
 17   9  25  1   
 18   9  26  1   
 19  10  27  1   
 20  10  28  1   
 21  10  29  1   
 22  11  30  1   
 23  11  31  1   
 24  11  32  1   
 25  12  14  1   
 26  12  15  1   
 27  12  33  1   
 28  13  14  1   
 29  13  16  1   
 30  13  34  1   
 31  15  17  1   
 32  15  18  1   
 33  15  35  1   
 34  16  19  1   
 35  16  36  1   
 36  16  37  1   
 37  17  18  1   
 38  17  38  1   
 39  17  39  1   
 40  18  40  1   
 41  18  41  1   
 42  19  20  1   
 43  19  42  1   
 44  19  43  1   
 45  20  21  1   
 46  20  44  1   
 47  20  45  1   
 48  21  46  1   
 49  21  47  1   
 50  21  48  1   
@<TRIPOS>SUBSTRUCTURE
  1 ****   5 GROUP 4 **** **** 0

# MOE 2024.06 (io_trps.svl 2023.06)
