@<TRIPOS>MOLECULE
NONAME
46 49 1 0 0 
SMALL
USER_CHARGES


@<TRIPOS>ATOM
  1 O       -0.6190     0.4890    -0.7140 O.2   1 <1>  -0.5700 
  2 C       -1.6190     1.0410    -0.2950 C.2   1 <1>   0.7030 
  3 N       -2.7300     0.2720    -0.0190 N.am  1 <1>  -0.6600 
  4 C       -1.5780     2.4850    -0.1160 C.2   1 <1>   0.2770 
  5 C       -4.1460     0.7130    -0.1560 C.3   1 <1>   0.1400 
  6 C       -2.6620    -1.2170    -0.0500 C.3   1 <1>   0.1400 
  7 N       -0.6210     3.3110    -0.6840 N.pl3 1 <1>  -0.7000 
  8 C       -2.3790     3.3030     0.6100 C.2   1 <1>   0.2000 
  9 C       -4.9210    -0.5500    -0.5310 C.3   1 <1>   0.2000 
 10 C       -4.1090    -1.7010     0.0520 C.3   1 <1>  -0.0800 
 11 C       -0.8460     4.5760    -0.3140 C.cat 1 <1>   0.7910 
 12 N       -1.9380     4.6020     0.4850 N.pl3 1 <1>  -0.6290 
 13 O       -6.1970    -0.5340     0.0040 O.3   1 <1>  -0.6800 
 14 C       -4.3620    -3.0420    -0.6520 C.3   1 <1>   0.0200 
 15 C       -0.1520     5.7580    -0.6220 C.2   1 <1>  -0.1410 
 16 C       -2.3840     5.7960     1.0100 C.2   1 <1>   0.2290 
 17 C       -3.4500    -4.1190    -0.0970 C.2   1 <1>  -0.0400 
 18 C       -0.5830     6.9530    -0.1100 C.2   1 <1>  -0.1380 
 19 C       -1.7240     6.9560     0.7210 C.2   1 <1>  -0.1500 
 20 O       -3.4980    -4.4220     1.1720 O.3   1 <1>  -0.0190 
 21 C       -2.5140    -4.8890    -0.6710 C.2   1 <1>  -0.1500 
 22 C        0.1230     8.2660    -0.4050 C.3   1 <1>  -0.1020 
 23 N       -2.6390    -5.3490     1.4810 N.2   1 <1>  -0.4100 
 24 C       -2.0330    -5.6520     0.3890 C.2   1 <1>   0.1080 
 25 C       -0.9460    -6.6980     0.2830 C.3   1 <1>  -0.0590 
 26 H       -4.4960     1.0890     0.7890 H     1 <1>   0.0800 
 27 H       -4.2520     1.4580    -0.9260 H     1 <1>   0.0800 
 28 H       -2.2200    -1.5340    -0.9810 H     1 <1>   0.0800 
 29 H       -2.0660    -1.5920     0.7670 H     1 <1>   0.0800 
 30 H        0.1540     2.9630    -1.2580 H     1 <1>   0.4500 
 31 H       -3.2290     3.0390     1.2170 H     1 <1>   0.1500 
 32 H       -5.0030    -0.6240    -1.6020 H     1 <1>   0.0800 
 33 H       -4.3340    -1.8040     1.1000 H     1 <1>   0.0800 
 34 H       -6.1830    -0.7400     0.9600 H     1 <1>   0.4000 
 35 H       -4.1920    -2.9450    -1.7100 H     1 <1>   0.0800 
 36 H       -5.3860    -3.3410    -0.5060 H     1 <1>   0.0800 
 37 H        0.7100     5.6920    -1.2580 H     1 <1>   0.1500 
 38 H       -3.2570     5.7820     1.6450 H     1 <1>   0.1500 
 39 H       -2.0660     7.8930     1.1270 H     1 <1>   0.1500 
 40 H       -2.1840    -4.9350    -1.6920 H     1 <1>   0.1500 
 41 H       -0.5530     8.9480    -0.8910 H     1 <1>   0.0800 
 42 H        0.9710     8.1140    -1.0480 H     1 <1>   0.0800 
 43 H        0.4670     8.7150     0.5100 H     1 <1>   0.0800 
 44 H       -0.0400    -6.2470    -0.0790 H     1 <1>   0.0800 
 45 H       -1.2510    -7.4750    -0.3930 H     1 <1>   0.0800 
 46 H       -0.7570    -7.1310     1.2490 H     1 <1>   0.0800 
@<TRIPOS>BOND
  1   1   2  2   
  2   2   3  am  
  3   2   4  1   
  4   3   5  1   
  5   3   6  1   
  6   4   7  1   
  7   4   8  2   
  8   5   9  1   
  9   5  26  1   
 10   5  27  1   
 11   6  10  1   
 12   6  28  1   
 13   6  29  1   
 14   7  11  ar  
 15   7  30  1   
 16   8  12  1   
 17   8  31  1   
 18   9  10  1   
 19   9  13  1   
 20   9  32  1   
 21  10  14  1   
 22  10  33  1   
 23  11  12  ar  
 24  11  15  1   
 25  12  16  1   
 26  13  34  1   
 27  14  17  1   
 28  14  35  1   
 29  14  36  1   
 30  15  18  2   
 31  15  37  1   
 32  16  19  2   
 33  16  38  1   
 34  17  20  1   
 35  17  21  2   
 36  18  19  1   
 37  18  22  1   
 38  19  39  1   
 39  20  23  1   
 40  21  24  1   
 41  21  40  1   
 42  22  41  1   
 43  22  42  1   
 44  22  43  1   
 45  23  24  2   
 46  24  25  1   
 47  25  44  1   
 48  25  45  1   
 49  25  46  1   
@<TRIPOS>SUBSTRUCTURE
  1 ****   3 GROUP 4 **** **** 0

# MOE 2024.06 (io_trps.svl 2023.06)
