@<TRIPOS>MOLECULE
NONAME
51 54 1 0 0 
SMALL
USER_CHARGES


@<TRIPOS>ATOM
  1 O        0.9890    -0.4380     1.0930 O.3   1 <1>  -0.5600 
  2 C        1.9790    -1.0930     0.3360 C.3   1 <1>   0.4240 
  3 C       -0.3430    -0.6970     0.7750 C.3   1 <1>   0.1200 
  4 C        1.5830    -2.5530     0.0220 C.ar  1 <1>  -0.1440 
  5 C        3.2410    -1.0540     1.2080 C.3   1 <1>  -0.1600 
  6 C        2.2100    -0.2850    -0.9510 C.3   1 <1>  -0.1600 
  7 C       -0.6500    -2.1570     1.0940 C.3   1 <1>  -0.0160 
  8 C        0.3410    -3.0570     0.3830 C.ar  1 <1>  -0.1440 
  9 C        2.4670    -3.3970    -0.6380 C.ar  1 <1>  -0.1500 
 10 C        3.6800     0.3820     1.4860 C.3   1 <1>   0.2090 
 11 C        2.6750     1.1400    -0.6500 C.3   1 <1>   0.2090 
 12 C        0.0010    -4.3700     0.0960 C.ar  1 <1>  -0.1500 
 13 C        2.1490    -4.7130    -0.9280 C.ar  1 <1>   0.0820 
 14 N        3.9120     1.0840     0.1880 N.pl3 1 <1>  -0.8380 
 15 C        0.8890    -5.2140    -0.5660 C.ar  1 <1>   0.0820 
 16 O        3.1360    -5.4080    -1.5640 O.3   1 <1>  -0.3630 
 17 C        5.0460     1.7600    -0.1310 C.ar  1 <1>   0.4100 
 18 O        0.5460    -6.4990    -0.8800 O.3   1 <1>  -0.3630 
 19 C        3.2800    -6.8010    -1.4020 C.3   1 <1>   0.0400 
 20 N        4.9330     2.8300    -0.8990 N.ar  1 <1>  -0.6200 
 21 C        6.3030     1.3340     0.3440 C.ar  1 <1>  -0.1500 
 22 C       -0.7560    -7.0030    -0.6760 C.3   1 <1>   0.0400 
 23 C        6.0240     3.5080    -1.1760 C.ar  1 <1>   0.7710 
 24 C        7.4080     2.0540     0.0350 C.ar  1 <1>   0.2110 
 25 N        7.2440     3.1590    -0.7330 N.ar  1 <1>  -0.1790 
 26 N        5.8690     4.5870    -1.9370 N.pl3 1 <1>  -0.9000 
 27 H       -0.5080    -0.4840    -0.2660 H     1 <1>   0.0800 
 28 H       -0.9580    -0.0450     1.3700 H     1 <1>   0.0800 
 29 H        4.0470    -1.5690     0.7210 H     1 <1>   0.0800 
 30 H        3.0410    -1.5620     2.1330 H     1 <1>   0.0800 
 31 H        1.3130    -0.2620    -1.5400 H     1 <1>   0.0800 
 32 H        2.9640    -0.7630    -1.5460 H     1 <1>   0.0800 
 33 H       -1.6520    -2.3830     0.7800 H     1 <1>   0.0800 
 34 H       -0.5830    -2.3120     2.1560 H     1 <1>   0.0800 
 35 H        3.4340    -3.0440    -0.9430 H     1 <1>   0.1500 
 36 H        4.5610     0.3870     2.1000 H     1 <1>   0.0800 
 37 H        2.9060     0.8990     2.0300 H     1 <1>   0.0800 
 38 H        1.9080     1.6770    -0.1170 H     1 <1>   0.0800 
 39 H        2.8590     1.6520    -1.5780 H     1 <1>   0.0800 
 40 H       -0.9670    -4.7170     0.3980 H     1 <1>   0.1500 
 41 H        4.2780    -7.0710    -1.6940 H     1 <1>   0.0800 
 42 H        2.5680    -7.2990    -2.0360 H     1 <1>   0.0800 
 43 H        3.1150    -7.0540    -0.3690 H     1 <1>   0.0800 
 44 H        6.3640     0.4380     0.9320 H     1 <1>   0.1500 
 45 H       -0.7890    -8.0070    -1.0580 H     1 <1>   0.0800 
 46 H       -1.4570    -6.3860    -1.2100 H     1 <1>   0.0800 
 47 H       -0.9680    -7.0080     0.3790 H     1 <1>   0.0800 
 48 H        8.3970     1.7800     0.3680 H     1 <1>   0.1500 
 49 H        8.0210     3.7530    -1.0050 H     1 <1>   0.4570 
 50 H        6.5690     5.2530    -2.2670 H     1 <1>   0.4000 
 51 H        4.9150     4.8080    -2.2400 H     1 <1>   0.4000 
@<TRIPOS>BOND
  1   1   2  1   
  2   1   3  1   
  3   2   4  1   
  4   2   5  1   
  5   2   6  1   
  6   3   7  1   
  7   3  27  1   
  8   3  28  1   
  9   4   8  ar  
 10   4   9  ar  
 11   5  10  1   
 12   5  29  1   
 13   5  30  1   
 14   6  11  1   
 15   6  31  1   
 16   6  32  1   
 17   7   8  1   
 18   7  33  1   
 19   7  34  1   
 20   8  12  ar  
 21   9  13  ar  
 22   9  35  1   
 23  10  14  1   
 24  10  36  1   
 25  10  37  1   
 26  11  14  1   
 27  11  38  1   
 28  11  39  1   
 29  12  15  ar  
 30  12  40  1   
 31  13  15  ar  
 32  13  16  1   
 33  14  17  1   
 34  15  18  1   
 35  16  19  1   
 36  17  20  ar  
 37  17  21  ar  
 38  18  22  1   
 39  19  41  1   
 40  19  42  1   
 41  19  43  1   
 42  20  23  ar  
 43  21  24  ar  
 44  21  44  1   
 45  22  45  1   
 46  22  46  1   
 47  22  47  1   
 48  23  25  ar  
 49  23  26  1   
 50  24  25  ar  
 51  24  48  1   
 52  25  49  1   
 53  26  50  1   
 54  26  51  1   
@<TRIPOS>SUBSTRUCTURE
  1 ****   2 GROUP 4 **** **** 0

# MOE 2024.06 (io_trps.svl 2023.06)
