@<TRIPOS>MOLECULE
NONAME
39 40 1 0 0 
SMALL
USER_CHARGES


@<TRIPOS>ATOM
  1 N        0.0300     0.2480    -0.4600 N.ar  1 <1>  -0.6200 
  2 C       -1.0090     0.7560     0.1690 C.ar  1 <1>   0.4100 
  3 C        0.9360     1.1100    -0.8710 C.ar  1 <1>   0.4760 
  4 N       -1.9710    -0.1130     0.6110 N.pl3 1 <1>  -0.8690 
  5 C       -1.1310     2.1240     0.3760 C.ar  1 <1>  -0.1430 
  6 N        0.9270     2.4230    -0.7390 N.ar  1 <1>  -0.6200 
  7 C        2.1310     0.5310    -1.5890 C.3   1 <1>  -0.0970 
  8 C       -2.2160    -1.4170    -0.0130 C.3   1 <1>   0.4330 
  9 C       -0.1210     2.9140    -0.1080 C.ar  1 <1>   0.1600 
 10 C       -2.3220     2.7420     1.1020 C.3   1 <1>  -0.0160 
 11 C       -3.7220    -1.5850    -0.1440 C.ar  1 <1>  -0.1430 
 12 C       -1.5780    -2.5010     0.8490 C.3   1 <1>  -0.2400 
 13 C       -3.5350     2.8540     0.1700 C.3   1 <1>  -0.1600 
 14 C       -4.5360    -1.6540     0.9790 C.ar  1 <1>   0.1600 
 15 C       -4.3130    -1.6560    -1.3910 C.ar  1 <1>  -0.1500 
 16 C       -4.7540     3.4250     0.9010 C.3   1 <1>  -0.2400 
 17 N       -5.8530    -1.7830     0.9580 N.ar  1 <1>  -0.6200 
 18 C       -5.6830    -1.7940    -1.4320 C.ar  1 <1>  -0.1500 
 19 C       -6.3950    -1.8520    -0.2460 C.ar  1 <1>   0.1600 
 20 H       -2.8410     0.3250     0.9110 H     1 <1>   0.4000 
 21 H        2.2330    -0.5140    -1.3620 H     1 <1>   0.0800 
 22 H        3.0230     1.0430    -1.2800 H     1 <1>   0.0800 
 23 H        2.0010     0.6530    -2.6470 H     1 <1>   0.0800 
 24 H       -1.7700    -1.4420    -0.9940 H     1 <1>   0.0800 
 25 H       -0.1610     3.9820     0.0190 H     1 <1>   0.1500 
 26 H       -2.0580     3.7210     1.4610 H     1 <1>   0.0800 
 27 H       -2.5690     2.1450     1.9630 H     1 <1>   0.0800 
 28 H       -1.9390    -2.4560     1.8590 H     1 <1>   0.0800 
 29 H       -0.5110    -2.3680     0.8540 H     1 <1>   0.0800 
 30 H       -1.8000    -3.4680     0.4390 H     1 <1>   0.0800 
 31 H       -3.7860     1.8850    -0.2270 H     1 <1>   0.0800 
 32 H       -3.2870     3.4920    -0.6620 H     1 <1>   0.0800 
 33 H       -4.0800    -1.5950     1.9530 H     1 <1>   0.1500 
 34 H       -3.7330    -1.6030    -2.2970 H     1 <1>   0.1500 
 35 H       -5.0380     2.7840     1.7180 H     1 <1>   0.0800 
 36 H       -5.5870     3.4990     0.2240 H     1 <1>   0.0800 
 37 H       -4.5400     4.4060     1.2870 H     1 <1>   0.0800 
 38 H       -6.1990    -1.8550    -2.3730 H     1 <1>   0.1500 
 39 H       -7.4660    -1.9600    -0.2910 H     1 <1>   0.1500 
@<TRIPOS>BOND
  1   1   2  ar  
  2   1   3  ar  
  3   2   4  1   
  4   2   5  ar  
  5   3   6  ar  
  6   3   7  1   
  7   4   8  1   
  8   4  20  1   
  9   5   9  ar  
 10   5  10  1   
 11   6   9  ar  
 12   7  21  1   
 13   7  22  1   
 14   7  23  1   
 15   8  11  1   
 16   8  12  1   
 17   8  24  1   
 18   9  25  1   
 19  10  13  1   
 20  10  26  1   
 21  10  27  1   
 22  11  14  ar  
 23  11  15  ar  
 24  12  28  1   
 25  12  29  1   
 26  12  30  1   
 27  13  16  1   
 28  13  31  1   
 29  13  32  1   
 30  14  17  ar  
 31  14  33  1   
 32  15  18  ar  
 33  15  34  1   
 34  16  35  1   
 35  16  36  1   
 36  16  37  1   
 37  17  19  ar  
 38  18  19  ar  
 39  18  38  1   
 40  19  39  1   
@<TRIPOS>SUBSTRUCTURE
  1 ****   4 GROUP 4 **** **** 0

# MOE 2024.06 (io_trps.svl 2023.06)
