@<TRIPOS>MOLECULE
NONAME
52 54 1 0 0 
SMALL
USER_CHARGES


@<TRIPOS>ATOM
  1 O       -1.0510    -0.5770    -1.1870 O.co2 1 <1>  -0.9000 
  2 C       -0.8220    -1.2000    -0.1340 C.2   1 <1>   1.0330 
  3 O       -1.4440    -0.8790     0.8950 O.co2 1 <1>  -0.9000 
  4 C        0.2060    -2.1870    -0.0830 C.2   1 <1>  -0.2330 
  5 C        0.0260    -3.5670    -0.1630 C.2   1 <1>   0.3720 
  6 C        1.5510    -2.0420     0.0490 C.2   1 <1>   0.0870 
  7 N        1.1550    -4.1860    -0.0940 N.2   1 <1>  -0.4100 
  8 N       -1.1990    -4.2300    -0.3040 N.pl3 1 <1>  -0.8210 
  9 O        2.0600    -3.2520     0.0360 O.3   1 <1>  -0.0190 
 10 C        2.4230    -0.8980     0.1910 C.ar  1 <1>   0.0530 
 11 C       -1.1590    -5.5640    -0.9400 C.3   1 <1>   0.2090 
 12 C       -2.0850    -4.1640     0.8880 C.3   1 <1>   0.2090 
 13 C        2.0360     0.3910    -0.1820 C.ar  1 <1>  -0.1500 
 14 C        3.7120    -1.0420     0.7130 C.ar  1 <1>  -0.1500 
 15 C       -2.5800    -5.9370    -1.3780 C.3   1 <1>  -0.1600 
 16 C       -3.5080    -4.5410     0.4670 C.3   1 <1>  -0.1600 
 17 C        2.8790     1.4770    -0.0400 C.ar  1 <1>  -0.1500 
 18 C        4.5630     0.0380     0.8570 C.ar  1 <1>  -0.1500 
 19 C       -3.5660    -5.9510    -0.1790 C.3   1 <1>   0.0610 
 20 C        4.1570     1.3080     0.4840 C.ar  1 <1>   0.0820 
 21 C       -3.1770    -7.0380     0.8580 C.2   1 <1>   0.5690 
 22 C       -5.0100    -6.2790    -0.6510 C.3   1 <1>  -0.1600 
 23 O        5.0440     2.3170     0.6560 O.3   1 <1>  -0.3630 
 24 O       -3.4030    -6.8620     2.0330 O.2   1 <1>  -0.5700 
 25 N       -2.6250    -8.2110     0.4310 N.am  1 <1>  -0.7300 
 26 C       -5.6310    -5.3510    -1.7110 C.3   1 <1>  -0.2400 
 27 C        4.7070     3.6480     0.3350 C.3   1 <1>   0.0400 
 28 C       -2.2050    -9.3340     1.3070 C.3   1 <1>   0.0600 
 29 H       -0.7600    -6.2820    -0.2430 H     1 <1>   0.0800 
 30 H       -0.5120    -5.5260    -1.7990 H     1 <1>   0.0800 
 31 H       -2.0870    -3.1700     1.2980 H     1 <1>   0.0800 
 32 H       -1.7200    -4.8330     1.6480 H     1 <1>   0.0800 
 33 H        1.0560     0.5520    -0.5950 H     1 <1>   0.1500 
 34 H        4.0480    -2.0180     1.0140 H     1 <1>   0.1500 
 35 H       -2.5670    -6.8840    -1.8810 H     1 <1>   0.0800 
 36 H       -2.8840    -5.1980    -2.0970 H     1 <1>   0.0800 
 37 H       -3.8390    -3.7870    -0.2240 H     1 <1>   0.0800 
 38 H       -4.1510    -4.4950     1.3270 H     1 <1>   0.0800 
 39 H        2.5180     2.4410    -0.3430 H     1 <1>   0.1500 
 40 H        5.5490    -0.0960     1.2610 H     1 <1>   0.1500 
 41 H       -5.6520    -6.2730     0.2140 H     1 <1>   0.0800 
 42 H       -5.0240    -7.2830    -1.0400 H     1 <1>   0.0800 
 43 H       -2.4730    -8.3440    -0.5690 H     1 <1>   0.3700 
 44 H       -5.6900    -4.3380    -1.3550 H     1 <1>   0.0800 
 45 H       -6.6310    -5.6790    -1.9330 H     1 <1>   0.0800 
 46 H       -5.0670    -5.3670    -2.6250 H     1 <1>   0.0800 
 47 H        5.5520     4.2710     0.5650 H     1 <1>   0.0800 
 48 H        3.8600     3.9450     0.9280 H     1 <1>   0.0800 
 49 H        4.4820     3.7060    -0.7150 H     1 <1>   0.0800 
 50 H       -2.4010    -9.0990     2.3400 H     1 <1>   0.0800 
 51 H       -1.1500    -9.5130     1.1880 H     1 <1>   0.0800 
 52 H       -2.7490   -10.2240     1.0450 H     1 <1>   0.0800 
@<TRIPOS>BOND
  1   1   2  ar  
  2   2   3  ar  
  3   2   4  1   
  4   4   5  1   
  5   4   6  2   
  6   5   7  2   
  7   5   8  1   
  8   6   9  1   
  9   6  10  1   
 10   7   9  1   
 11   8  11  1   
 12   8  12  1   
 13  10  13  ar  
 14  10  14  ar  
 15  11  15  1   
 16  11  29  1   
 17  11  30  1   
 18  12  16  1   
 19  12  31  1   
 20  12  32  1   
 21  13  17  ar  
 22  13  33  1   
 23  14  18  ar  
 24  14  34  1   
 25  15  19  1   
 26  15  35  1   
 27  15  36  1   
 28  16  19  1   
 29  16  37  1   
 30  16  38  1   
 31  17  20  ar  
 32  17  39  1   
 33  18  20  ar  
 34  18  40  1   
 35  19  21  1   
 36  19  22  1   
 37  20  23  1   
 38  21  24  2   
 39  21  25  am  
 40  22  26  1   
 41  22  41  1   
 42  22  42  1   
 43  23  27  1   
 44  25  28  1   
 45  25  43  1   
 46  26  44  1   
 47  26  45  1   
 48  26  46  1   
 49  27  47  1   
 50  27  48  1   
 51  27  49  1   
 52  28  50  1   
 53  28  51  1   
 54  28  52  1   
@<TRIPOS>SUBSTRUCTURE
  1 ****   5 GROUP 4 **** **** 0

# MOE 2024.06 (io_trps.svl 2023.06)
