@<TRIPOS>MOLECULE
NONAME
48 51 1 0 0 
SMALL
USER_CHARGES


@<TRIPOS>ATOM
  1 O       -0.3810     0.8410    -0.1610 O.2   1 <1>  -0.5700 
  2 C       -0.2480     2.0220    -0.3560 C.2   1 <1>   0.5690 
  3 N       -0.9210     2.9250     0.3920 N.am  1 <1>  -0.7300 
  4 C        0.6700     2.5190    -1.4780 C.3   1 <1>   0.1810 
  5 C       -0.8120     4.3910     0.2010 C.3   1 <1>   0.3640 
  6 O        1.0210     3.8810    -1.3370 O.3   1 <1>  -0.5600 
  7 C       -2.2020     5.0140     0.2620 C.ar  1 <1>  -0.1440 
  8 C       -0.0880     4.7430    -1.1220 C.3   1 <1>   0.2610 
  9 C       -2.3970     6.1840     0.9830 C.ar  1 <1>  -0.1500 
 10 C       -3.2820     4.4420    -0.3990 C.ar  1 <1>  -0.1500 
 11 C        0.3030     6.2270    -1.1090 C.2   1 <1>   0.5690 
 12 C       -3.6480     6.7710     1.0460 C.ar  1 <1>  -0.1500 
 13 C       -4.5340     5.0280    -0.3350 C.ar  1 <1>  -0.1500 
 14 O       -0.2560     6.9380    -1.9130 O.2   1 <1>  -0.5700 
 15 N        1.2150     6.7130    -0.1970 N.am  1 <1>  -0.5090 
 16 C       -4.7180     6.1930     0.3870 C.ar  1 <1>  -0.1500 
 17 C        1.0770     8.0210     0.5130 C.3   1 <1>   0.0490 
 18 C        2.4620     5.9350     0.0890 C.3   1 <1>   0.3210 
 19 C        0.0400     9.0600     0.2110 C.3   1 <1>  -0.2000 
 20 C        1.4540     9.2520    -0.2460 C.3   1 <1>  -0.2000 
 21 C        3.5940     6.7810     0.6480 C.2   1 <1>  -0.1810 
 22 C        3.9340     6.9150     1.9890 C.2   1 <1>   0.1390 
 23 C        4.4840     7.5580    -0.0060 C.2   1 <1>  -0.3020 
 24 N        4.9450     7.7090     2.1620 N.2   1 <1>  -0.7070 
 25 N        5.2850     8.1090     0.9250 N.pl3 1 <1>   0.3140 
 26 C        6.4030     9.0310     0.6960 C.3   1 <1>   0.0160 
 27 H       -1.5610     2.5930     1.1150 H     1 <1>   0.3700 
 28 H        0.1800     2.3910    -2.4260 H     1 <1>   0.0800 
 29 H        1.5780     1.9430    -1.4770 H     1 <1>   0.0800 
 30 H       -0.2330     4.7790     1.0200 H     1 <1>   0.0800 
 31 H       -0.7700     4.5980    -1.9410 H     1 <1>   0.0800 
 32 H       -1.5770     6.6550     1.4980 H     1 <1>   0.1500 
 33 H       -3.1600     3.5370    -0.9680 H     1 <1>   0.1500 
 34 H       -3.7890     7.6800     1.6040 H     1 <1>   0.1500 
 35 H       -5.3660     4.5780    -0.8490 H     1 <1>   0.1500 
 36 H       -5.6920     6.6490     0.4350 H     1 <1>   0.1500 
 37 H        1.3680     7.9490     1.5480 H     1 <1>   0.1000 
 38 H        2.2360     5.1430     0.7790 H     1 <1>   0.0800 
 39 H        2.8100     5.4910    -0.8280 H     1 <1>   0.0800 
 40 H       -0.7180     8.8940    -0.5320 H     1 <1>   0.1000 
 41 H       -0.3120     9.6870     1.0100 H     1 <1>   0.1000 
 42 H        2.0650     9.9880     0.2440 H     1 <1>   0.1000 
 43 H        1.6630     9.1650    -1.2980 H     1 <1>   0.1000 
 44 H        3.4280     6.4250     2.8040 H     1 <1>   0.1500 
 45 H        4.5840     7.7480    -1.0580 H     1 <1>   0.1500 
 46 H        6.3020     9.4850    -0.2720 H     1 <1>   0.0800 
 47 H        7.3230     8.4810     0.7500 H     1 <1>   0.0800 
 48 H        6.3900     9.7880     1.4570 H     1 <1>   0.0800 
@<TRIPOS>BOND
  1   1   2  2   
  2   2   3  am  
  3   2   4  1   
  4   3   5  1   
  5   3  27  1   
  6   4   6  1   
  7   4  28  1   
  8   4  29  1   
  9   5   7  1   
 10   5   8  1   
 11   5  30  1   
 12   6   8  1   
 13   7   9  ar  
 14   7  10  ar  
 15   8  11  1   
 16   8  31  1   
 17   9  12  ar  
 18   9  32  1   
 19  10  13  ar  
 20  10  33  1   
 21  11  14  2   
 22  11  15  am  
 23  12  16  ar  
 24  12  34  1   
 25  13  16  ar  
 26  13  35  1   
 27  15  17  1   
 28  15  18  1   
 29  16  36  1   
 30  17  19  1   
 31  17  20  1   
 32  17  37  1   
 33  18  21  1   
 34  18  38  1   
 35  18  39  1   
 36  19  20  1   
 37  19  40  1   
 38  19  41  1   
 39  20  42  1   
 40  20  43  1   
 41  21  22  1   
 42  21  23  2   
 43  22  24  2   
 44  22  44  1   
 45  23  25  1   
 46  23  45  1   
 47  24  25  1   
 48  25  26  1   
 49  26  46  1   
 50  26  47  1   
 51  26  48  1   
@<TRIPOS>SUBSTRUCTURE
  1 ****  15 GROUP 4 **** **** 0

# MOE 2024.06 (io_trps.svl 2023.06)
