@<TRIPOS>MOLECULE
NONAME
23 23 1 0 0 
SMALL
USER_CHARGES


@<TRIPOS>ATOM
  1 N        0.6070     0.0600    -0.8800 N.ar  1 <1>  -0.6200 
  2 C        1.3600    -0.5010     0.0490 C.ar  1 <1>   0.1660 
  3 C        0.5400     1.3760    -0.8590 C.ar  1 <1>   0.1600 
  4 C        2.0610     0.2140     1.0050 C.ar  1 <1>  -0.1500 
  5 C        1.4230    -2.0140     0.0230 C.3   1 <1>  -0.0960 
  6 C        1.2090     2.1900     0.0440 C.ar  1 <1>  -0.1430 
  7 C        1.9940     1.5910     1.0150 C.ar  1 <1>  -0.1500 
  8 C        1.0580     3.6910    -0.0830 C.3   1 <1>   0.5660 
  9 N        2.3580     4.2270    -0.4840 N.4   1 <1>  -0.8530 
 10 C        0.6340     4.3560     1.2200 C.3   1 <1>  -0.2400 
 11 H       -0.0880     1.8170    -1.6170 H     1 <1>   0.1500 
 12 H        2.6530    -0.3050     1.7390 H     1 <1>   0.1500 
 13 H        2.0540    -2.3930     0.8060 H     1 <1>   0.0800 
 14 H        1.8100    -2.3430    -0.9240 H     1 <1>   0.0800 
 15 H        0.4340    -2.4170     0.1490 H     1 <1>   0.0800 
 16 H        2.5350     2.1430     1.7640 H     1 <1>   0.1500 
 17 H        0.3240     3.9090    -0.8440 H     1 <1>   0.0800 
 18 H        3.0460     4.0180     0.2450 H     1 <1>   0.4500 
 19 H        2.3160     5.2380    -0.6330 H     1 <1>   0.4500 
 20 H        2.6680     3.7620    -1.3430 H     1 <1>   0.4500 
 21 H        1.3580     4.2080     2.0010 H     1 <1>   0.0800 
 22 H       -0.2970     3.9260     1.5480 H     1 <1>   0.0800 
 23 H        0.4740     5.4090     1.0760 H     1 <1>   0.0800 
@<TRIPOS>BOND
  1   1   2  ar  
  2   1   3  ar  
  3   2   4  ar  
  4   2   5  1   
  5   3   6  ar  
  6   3  11  1   
  7   4   7  ar  
  8   4  12  1   
  9   5  13  1   
 10   5  14  1   
 11   5  15  1   
 12   6   7  ar  
 13   6   8  1   
 14   7  16  1   
 15   8   9  1   
 16   8  10  1   
 17   8  17  1   
 18   9  18  1   
 19   9  19  1   
 20   9  20  1   
 21  10  21  1   
 22  10  22  1   
 23  10  23  1   
@<TRIPOS>SUBSTRUCTURE
  1 ****   6 GROUP 4 **** **** 0

# MOE 2024.06 (io_trps.svl 2023.06)
