@<TRIPOS>MOLECULE
NONAME
49 51 1 0 0 
SMALL
USER_CHARGES


@<TRIPOS>ATOM
  1 S        1.7510     0.8930     0.4680 S.3   1 <1>  -0.0800 
  2 C        1.7330     2.3170    -0.5540 C.2   1 <1>   0.1980 
  3 C        2.7760     1.7310     1.5950 C.2   1 <1>  -0.1100 
  4 N        2.4180     3.2910    -0.0930 N.2   1 <1>  -0.5650 
  5 C        0.9170     2.2230    -1.8420 C.3   1 <1>   0.1000 
  6 C        3.0150     2.9650     1.1250 C.2   1 <1>   0.0460 
  7 C        1.3530     3.2730    -2.8740 C.3   1 <1>  -0.2400 
  8 C       -0.5800     2.3780    -1.5440 C.3   1 <1>  -0.2400 
  9 C        3.8550     4.0440     1.7940 C.3   1 <1>   0.5240 
 10 N        3.1350     5.3270     1.6060 N.4   1 <1>  -0.9590 
 11 C        4.0320     6.4870     1.5140 C.3   1 <1>   0.5230 
 12 C        1.9910     5.5260     2.5420 C.3   1 <1>   0.2630 
 13 C        3.3490     7.4630     0.5900 C.2   1 <1>  -0.3320 
 14 N        3.2880     7.3800    -0.7650 N.pl3 1 <1>   0.0480 
 15 C        2.6890     8.5900     0.9380 C.2   1 <1>   0.0770 
 16 C        2.5740     8.4700    -1.1290 C.2   1 <1>   0.0360 
 17 C        3.8450     6.3940    -1.7320 C.3   1 <1>   0.2390 
 18 N        2.1970     9.2110    -0.1410 N.2   1 <1>  -0.5650 
 19 C        5.1860     5.8310    -1.2780 C.ar  1 <1>  -0.1440 
 20 C        5.3810     4.4590    -1.2140 C.ar  1 <1>  -0.1500 
 21 C        6.2260     6.6810    -0.9250 C.ar  1 <1>  -0.1500 
 22 C        6.5860     3.9420    -0.7730 C.ar  1 <1>  -0.1500 
 23 C        7.4310     6.1640    -0.4830 C.ar  1 <1>  -0.1500 
 24 C        7.6100     4.7950    -0.4010 C.ar  1 <1>  -0.1500 
 25 H        3.0790     1.1970     2.4790 H     1 <1>   0.1500 
 26 H        1.0820     1.2490    -2.2690 H     1 <1>   0.0800 
 27 H        1.1670     4.2650    -2.5030 H     1 <1>   0.0800 
 28 H        0.8070     3.1420    -3.7920 H     1 <1>   0.0800 
 29 H        2.4020     3.1690    -3.0850 H     1 <1>   0.0800 
 30 H       -0.7780     3.3390    -1.1030 H     1 <1>   0.0800 
 31 H       -0.9070     1.6140    -0.8610 H     1 <1>   0.0800 
 32 H       -1.1540     2.2880    -2.4500 H     1 <1>   0.0800 
 33 H        4.8120     4.0850     1.3000 H     1 <1>   0.0800 
 34 H        4.0060     3.8270     2.8390 H     1 <1>   0.0800 
 35 H        2.7240     5.2050     0.6650 H     1 <1>   0.4500 
 36 H        4.9920     6.2040     1.1180 H     1 <1>   0.0800 
 37 H        4.1780     6.9270     2.4880 H     1 <1>   0.0800 
 38 H        2.3430     5.6300     3.5550 H     1 <1>   0.0800 
 39 H        1.3190     4.6840     2.4900 H     1 <1>   0.0800 
 40 H        1.4430     6.4140     2.2710 H     1 <1>   0.0800 
 41 H        2.5320     9.0040     1.9220 H     1 <1>   0.1500 
 42 H        2.3480     8.6920    -2.1590 H     1 <1>   0.1500 
 43 H        3.9740     6.8780    -2.6840 H     1 <1>   0.0800 
 44 H        3.1310     5.6000    -1.8560 H     1 <1>   0.0800 
 45 H        4.6020     3.7780    -1.5150 H     1 <1>   0.1500 
 46 H        6.1070     7.7510    -0.9930 H     1 <1>   0.1500 
 47 H        6.7350     2.8760    -0.7310 H     1 <1>   0.1500 
 48 H        8.2350     6.8280    -0.2100 H     1 <1>   0.1500 
 49 H        8.5520     4.3940    -0.0640 H     1 <1>   0.1500 
@<TRIPOS>BOND
  1   1   2  1   
  2   1   3  1   
  3   2   4  2   
  4   2   5  1   
  5   3   6  2   
  6   3  25  1   
  7   4   6  1   
  8   5   7  1   
  9   5   8  1   
 10   5  26  1   
 11   6   9  1   
 12   7  27  1   
 13   7  28  1   
 14   7  29  1   
 15   8  30  1   
 16   8  31  1   
 17   8  32  1   
 18   9  10  1   
 19   9  33  1   
 20   9  34  1   
 21  10  11  1   
 22  10  12  1   
 23  10  35  1   
 24  11  13  1   
 25  11  36  1   
 26  11  37  1   
 27  12  38  1   
 28  12  39  1   
 29  12  40  1   
 30  13  14  1   
 31  13  15  2   
 32  14  16  1   
 33  14  17  1   
 34  15  18  1   
 35  15  41  1   
 36  16  18  2   
 37  16  42  1   
 38  17  19  1   
 39  17  43  1   
 40  17  44  1   
 41  19  20  ar  
 42  19  21  ar  
 43  20  22  ar  
 44  20  45  1   
 45  21  23  ar  
 46  21  46  1   
 47  22  24  ar  
 48  22  47  1   
 49  23  24  ar  
 50  23  48  1   
 51  24  49  1   
@<TRIPOS>SUBSTRUCTURE
  1 ****  10 GROUP 4 **** **** 0

# MOE 2024.06 (io_trps.svl 2023.06)
