@<TRIPOS>MOLECULE
NONAME
37 37 1 0 0 
SMALL
USER_CHARGES


@<TRIPOS>ATOM
  1 O        0.1860    -1.3790     1.6760 O.co2 1 <1>  -0.9000 
  2 C        0.0860    -1.3650     0.4370 C.2   1 <1>   0.9060 
  3 O        1.0470    -1.0390    -0.2770 O.co2 1 <1>  -0.9000 
  4 C       -1.2910    -1.6560    -0.2380 C.3   1 <1>   0.2280 
  5 N       -2.4870    -0.9800     0.3550 N.3   1 <1>  -0.9000 
  6 C       -1.6300    -3.1480    -0.3260 C.ar  1 <1>  -0.1430 
  7 C       -2.2410     0.4750     0.5350 C.3   1 <1>   0.1710 
  8 C       -2.2600    -3.6400    -1.4600 C.ar  1 <1>  -0.1500 
  9 C       -1.3330    -4.0260     0.7080 C.ar  1 <1>  -0.1500 
 10 C       -3.4800     1.2950     0.9100 C.2   1 <1>   0.6590 
 11 C       -2.5810    -4.9830    -1.5660 C.ar  1 <1>  -0.1500 
 12 C       -1.6510    -5.3700     0.6050 C.ar  1 <1>  -0.1500 
 13 O       -3.6540     1.7010     2.0330 O.2   1 <1>  -0.5700 
 14 O       -4.3280     1.5430    -0.0870 O.3   1 <1>  -0.4300 
 15 C       -2.2740    -5.8500    -0.5330 C.ar  1 <1>  -0.1500 
 16 C       -5.5520     2.2380    -0.0310 C.3   1 <1>   0.2800 
 17 C       -5.3110     3.6950     0.3780 C.3   1 <1>  -0.2400 
 18 C       -6.5180     1.5180     0.9170 C.3   1 <1>  -0.2400 
 19 C       -6.1080     2.1920    -1.4540 C.3   1 <1>  -0.2400 
 20 H       -1.1840    -1.2930    -1.2430 H     1 <1>   0.0800 
 21 H       -2.5560    -1.3850     1.2980 H     1 <1>   0.3600 
 22 H       -1.8470     0.8820    -0.3790 H     1 <1>   0.0800 
 23 H       -1.5020     0.6170     1.3050 H     1 <1>   0.0800 
 24 H       -2.5060    -2.9660    -2.2610 H     1 <1>   0.1500 
 25 H       -0.8490    -3.6620     1.5990 H     1 <1>   0.1500 
 26 H       -3.0680    -5.3480    -2.4520 H     1 <1>   0.1500 
 27 H       -1.4090    -6.0350     1.4140 H     1 <1>   0.1500 
 28 H       -2.5200    -6.8940    -0.6120 H     1 <1>   0.1500 
 29 H       -4.9750     3.7590     1.3970 H     1 <1>   0.0800 
 30 H       -6.2260     4.2540     0.3010 H     1 <1>   0.0800 
 31 H       -4.5790     4.1470    -0.2650 H     1 <1>   0.0800 
 32 H       -6.1820     1.5860     1.9350 H     1 <1>   0.0800 
 33 H       -6.6040     0.4820     0.6440 H     1 <1>   0.0800 
 34 H       -7.4920     1.9690     0.8640 H     1 <1>   0.0800 
 35 H       -5.4280     2.6710    -2.1350 H     1 <1>   0.0800 
 36 H       -7.0540     2.7010    -1.5040 H     1 <1>   0.0800 
 37 H       -6.2530     1.1720    -1.7630 H     1 <1>   0.0800 
@<TRIPOS>BOND
  1   1   2  ar  
  2   2   3  ar  
  3   2   4  1   
  4   4   5  1   
  5   4   6  1   
  6   4  20  1   
  7   5   7  1   
  8   5  21  1   
  9   6   8  ar  
 10   6   9  ar  
 11   7  10  1   
 12   7  22  1   
 13   7  23  1   
 14   8  11  ar  
 15   8  24  1   
 16   9  12  ar  
 17   9  25  1   
 18  10  13  2   
 19  10  14  1   
 20  11  15  ar  
 21  11  26  1   
 22  12  15  ar  
 23  12  27  1   
 24  14  16  1   
 25  15  28  1   
 26  16  17  1   
 27  16  18  1   
 28  16  19  1   
 29  17  29  1   
 30  17  30  1   
 31  17  31  1   
 32  18  32  1   
 33  18  33  1   
 34  18  34  1   
 35  19  35  1   
 36  19  36  1   
 37  19  37  1   
@<TRIPOS>SUBSTRUCTURE
  1 ****   5 GROUP 4 **** **** 0

# MOE 2024.06 (io_trps.svl 2023.06)
