@<TRIPOS>MOLECULE
NONAME
47 50 1 0 0 
SMALL
USER_CHARGES


@<TRIPOS>ATOM
  1 CL      -0.5540    -0.0380    -0.5240 Cl    1 <1>  -0.1770 
  2 C       -1.1370    -1.6750    -0.7130 C.ar  1 <1>   0.1770 
  3 C       -0.7040    -2.6540     0.1450 C.ar  1 <1>  -0.1500 
  4 C       -2.0420    -1.9410    -1.7480 C.ar  1 <1>  -0.1500 
  5 C       -1.1880    -3.9560    -0.0270 C.ar  1 <1>   0.0000 
  6 C       -2.5210    -3.2190    -1.9240 C.ar  1 <1>  -0.1500 
  7 C       -2.0870    -4.2250    -1.0540 C.ar  1 <1>  -0.1520 
  8 C       -0.9740    -5.1750     0.6410 C.2   1 <1>  -0.1500 
  9 N       -2.3990    -5.5560    -1.0040 N.pl3 1 <1>   0.0330 
 10 C       -1.7290    -6.1420     0.0430 C.2   1 <1>  -0.2370 
 11 C       -1.8450    -7.5420     0.3610 C.2   1 <1>   0.7150 
 12 O       -0.8850    -8.1420     0.8060 O.2   1 <1>  -0.5700 
 13 N       -3.0250    -8.2190     0.1640 N.am  1 <1>  -0.6600 
 14 C       -4.3640    -7.5890     0.2130 C.3   1 <1>   0.1400 
 15 C       -3.1320    -9.6820     0.3570 C.3   1 <1>   0.1400 
 16 C       -5.3080    -8.6650     0.7670 C.3   1 <1>  -0.0800 
 17 C       -4.6300    -9.9960     0.3910 C.3   1 <1>  -0.0800 
 18 C       -6.8060    -8.5440     0.3460 C.3   1 <1>   0.2800 
 19 C       -5.1550   -10.5190    -0.9550 C.3   1 <1>  -0.1600 
 20 O       -6.9140    -7.8920    -0.8690 O.3   1 <1>  -0.6800 
 21 C       -7.4140    -9.9440     0.1450 C.3   1 <1>  -0.1600 
 22 C       -7.6480    -7.7420     1.3620 C.3   1 <1>  -0.1600 
 23 C       -6.6680   -10.7970    -0.9040 C.3   1 <1>  -0.1600 
 24 C       -7.2040    -6.2870     1.5960 C.3   1 <1>  -0.2400 
 25 H       -0.0090    -2.4380     0.9350 H     1 <1>   0.1500 
 26 H       -2.3470    -1.1360    -2.3910 H     1 <1>   0.1500 
 27 H       -3.2160    -3.4490    -2.7120 H     1 <1>   0.1500 
 28 H       -0.3150    -5.3020     1.4820 H     1 <1>   0.1500 
 29 H       -3.0150    -6.0540    -1.6560 H     1 <1>   0.2700 
 30 H       -4.3570    -6.7140     0.8400 H     1 <1>   0.0800 
 31 H       -4.6310    -7.3070    -0.7890 H     1 <1>   0.0800 
 32 H       -2.6280   -10.2040    -0.4370 H     1 <1>   0.0800 
 33 H       -2.6770    -9.9460     1.2970 H     1 <1>   0.0800 
 34 H       -5.2590    -8.6020     1.8390 H     1 <1>   0.0800 
 35 H       -4.8180   -10.7430     1.1430 H     1 <1>   0.0800 
 36 H       -4.9620    -9.7780    -1.7130 H     1 <1>   0.0800 
 37 H       -4.6320   -11.4160    -1.2380 H     1 <1>   0.0800 
 38 H       -7.8460    -7.8970    -1.1520 H     1 <1>   0.4000 
 39 H       -7.3720   -10.4600     1.0880 H     1 <1>   0.0800 
 40 H       -8.4540    -9.8710    -0.1220 H     1 <1>   0.0800 
 41 H       -8.6740    -7.7380     1.0370 H     1 <1>   0.0800 
 42 H       -7.6270    -8.2560     2.3080 H     1 <1>   0.0800 
 43 H       -6.8360   -11.8370    -0.6820 H     1 <1>   0.0800 
 44 H       -7.0810   -10.6070    -1.8800 H     1 <1>   0.0800 
 45 H       -7.1620    -5.7450     0.6680 H     1 <1>   0.0800 
 46 H       -6.2390    -6.2510     2.0660 H     1 <1>   0.0800 
 47 H       -7.9070    -5.7920     2.2440 H     1 <1>   0.0800 
@<TRIPOS>BOND
  1   1   2  1   
  2   2   3  ar  
  3   2   4  ar  
  4   3   5  ar  
  5   3  25  1   
  6   4   6  ar  
  7   4  26  1   
  8   5   7  ar  
  9   5   8  1   
 10   6   7  ar  
 11   6  27  1   
 12   7   9  1   
 13   8  10  2   
 14   8  28  1   
 15   9  10  1   
 16   9  29  1   
 17  10  11  1   
 18  11  12  2   
 19  11  13  am  
 20  13  14  1   
 21  13  15  1   
 22  14  16  1   
 23  14  30  1   
 24  14  31  1   
 25  15  17  1   
 26  15  32  1   
 27  15  33  1   
 28  16  17  1   
 29  16  18  1   
 30  16  34  1   
 31  17  19  1   
 32  17  35  1   
 33  18  20  1   
 34  18  21  1   
 35  18  22  1   
 36  19  23  1   
 37  19  36  1   
 38  19  37  1   
 39  20  38  1   
 40  21  23  1   
 41  21  39  1   
 42  21  40  1   
 43  22  24  1   
 44  22  41  1   
 45  22  42  1   
 46  23  43  1   
 47  23  44  1   
 48  24  45  1   
 49  24  46  1   
 50  24  47  1   
@<TRIPOS>SUBSTRUCTURE
  1 ****  14 GROUP 4 **** **** 0

# MOE 2024.06 (io_trps.svl 2023.06)
