@<TRIPOS>MOLECULE
NONAME
48 49 1 0 0 
SMALL
USER_CHARGES


@<TRIPOS>ATOM
  1 S        1.8100     1.3700     0.6700 S.o2  1 <1>   1.3330 
  2 O        1.7490     2.1930     1.8570 O.2   1 <1>  -0.6500 
  3 O        0.6220     0.6760     0.2250 O.2   1 <1>  -0.6500 
  4 N        3.0130     0.2010     0.9350 N.am  1 <1>  -0.8490 
  5 C        2.4280     2.3400    -0.7070 C.3   1 <1>  -0.0550 
  6 C        4.2070     0.7360     1.6000 C.3   1 <1>   0.1160 
  7 C        2.5000    -0.9460     1.6880 C.3   1 <1>   0.1160 
  8 C        2.5180     1.5790    -2.0510 C.3   1 <1>  -0.0800 
  9 C        2.8670     2.4460    -3.2560 C.3   1 <1>   0.2200 
 10 C        3.5930     0.4840    -2.0940 C.3   1 <1>   0.1200 
 11 N        3.8910     3.4470    -2.8830 N.am  1 <1>  -0.7300 
 12 C        3.4920     1.4150    -4.1830 C.3   1 <1>   0.1200 
 13 O        4.2130     0.5680    -3.3440 O.3   1 <1>  -0.5600 
 14 C        3.6540     4.7700    -2.7050 C.2   1 <1>   0.5690 
 15 O        2.6300     5.2900    -3.0740 O.2   1 <1>  -0.5700 
 16 C        4.6830     5.5920    -1.9540 C.3   1 <1>   0.0440 
 17 C        4.7220     5.1460    -0.4970 C.ar  1 <1>  -0.1440 
 18 C        5.7850     4.4090     0.0010 C.ar  1 <1>  -0.1500 
 19 C        3.6570     5.4500     0.3370 C.ar  1 <1>  -0.1500 
 20 C        5.7870     3.9720     1.3170 C.ar  1 <1>   0.0820 
 21 C        3.6500     5.0150     1.6500 C.ar  1 <1>  -0.1500 
 22 O        6.8570     3.2450     1.7200 O.3   1 <1>  -0.3620 
 23 C        4.7110     4.2780     2.1440 C.ar  1 <1>  -0.1500 
 24 C        7.1020     3.0150     3.0910 C.3   1 <1>   0.0400 
 25 H        1.7730     3.1790    -0.8440 H     1 <1>   0.0800 
 26 H        3.3900     2.7300    -0.4470 H     1 <1>   0.0800 
 27 H        4.9510    -0.0350     1.7030 H     1 <1>   0.0800 
 28 H        3.9580     1.1170     2.5770 H     1 <1>   0.0800 
 29 H        4.6320     1.5330     1.0160 H     1 <1>   0.0800 
 30 H        3.2740    -1.6810     1.8240 H     1 <1>   0.0800 
 31 H        1.6890    -1.4080     1.1480 H     1 <1>   0.0800 
 32 H        2.1360    -0.6290     2.6510 H     1 <1>   0.0800 
 33 H        1.5680     1.1110    -2.2440 H     1 <1>   0.0800 
 34 H        2.0050     2.9230    -3.6950 H     1 <1>   0.0800 
 35 H        3.1660    -0.4980    -1.9790 H     1 <1>   0.0800 
 36 H        4.3550     0.6360    -1.3490 H     1 <1>   0.0800 
 37 H        4.7710     3.0310    -2.5700 H     1 <1>   0.3700 
 38 H        4.1500     1.8540    -4.9120 H     1 <1>   0.0800 
 39 H        2.7340     0.8300    -4.6730 H     1 <1>   0.0800 
 40 H        5.6430     5.4710    -2.4190 H     1 <1>   0.0800 
 41 H        4.4150     6.6310    -2.0080 H     1 <1>   0.0800 
 42 H        6.6260     4.1600    -0.6210 H     1 <1>   0.1500 
 43 H        2.8220     6.0200    -0.0360 H     1 <1>   0.1500 
 44 H        2.8130     5.2440     2.2880 H     1 <1>   0.1500 
 45 H        4.6740     3.9500     3.1650 H     1 <1>   0.1500 
 46 H        8.0540     2.5250     3.1830 H     1 <1>   0.0800 
 47 H        6.3260     2.3840     3.4860 H     1 <1>   0.0800 
 48 H        7.1270     3.9610     3.6040 H     1 <1>   0.0800 
@<TRIPOS>BOND
  1   1   2  2   
  2   1   3  2   
  3   1   4  am  
  4   1   5  1   
  5   4   6  1   
  6   4   7  1   
  7   5   8  1   
  8   5  25  1   
  9   5  26  1   
 10   6  27  1   
 11   6  28  1   
 12   6  29  1   
 13   7  30  1   
 14   7  31  1   
 15   7  32  1   
 16   8   9  1   
 17   8  10  1   
 18   8  33  1   
 19   9  11  1   
 20   9  12  1   
 21   9  34  1   
 22  10  13  1   
 23  10  35  1   
 24  10  36  1   
 25  11  14  am  
 26  11  37  1   
 27  12  13  1   
 28  12  38  1   
 29  12  39  1   
 30  14  15  2   
 31  14  16  1   
 32  16  17  1   
 33  16  40  1   
 34  16  41  1   
 35  17  18  ar  
 36  17  19  ar  
 37  18  20  ar  
 38  18  42  1   
 39  19  21  ar  
 40  19  43  1   
 41  20  22  1   
 42  20  23  ar  
 43  21  23  ar  
 44  21  44  1   
 45  22  24  1   
 46  23  45  1   
 47  24  46  1   
 48  24  47  1   
 49  24  48  1   
@<TRIPOS>SUBSTRUCTURE
  1 ****   5 GROUP 4 **** **** 0

# MOE 2024.06 (io_trps.svl 2023.06)
