@<TRIPOS>MOLECULE
NONAME
49 52 1 0 0 
SMALL
USER_CHARGES


@<TRIPOS>ATOM
  1 F        0.5850     1.3010     1.5510 F     1 <1>  -0.1900 
  2 C        1.2540     2.2740     0.9940 C.ar  1 <1>   0.1900 
  3 C        0.6070     3.0940     0.0880 C.ar  1 <1>  -0.1500 
  4 C        2.5830     2.4480     1.3280 C.ar  1 <1>  -0.1500 
  5 C        1.3200     4.1260    -0.4980 C.ar  1 <1>  -0.1500 
  6 C        3.2850     3.4840     0.7360 C.ar  1 <1>  -0.1500 
  7 C        2.6610     4.3360    -0.1750 C.ar  1 <1>  -0.0230 
  8 N        3.3910     5.4060    -0.7650 N.pl3 1 <1>   0.5930 
  9 N        4.4810     5.1980    -1.5370 N.2   1 <1>  -0.7070 
 10 C        3.1590     6.7350    -0.6430 C.2   1 <1>  -0.3320 
 11 C        4.8880     6.3690    -1.8940 C.2   1 <1>   0.1080 
 12 C        4.1070     7.4030    -1.3600 C.2   1 <1>  -0.0860 
 13 C        2.0230     7.3240     0.1860 C.3   1 <1>  -0.0600 
 14 C        6.0840     6.5330    -2.8080 C.3   1 <1>  -0.0590 
 15 C        4.3030     8.8220    -1.5500 C.2   1 <1>   0.7160 
 16 O        3.3550     9.5550    -1.7700 O.2   1 <1>  -0.5700 
 17 N        5.5520     9.3730    -1.4560 N.am  1 <1>  -0.5100 
 18 C        6.5520     9.0420    -0.3870 C.3   1 <1>   0.2250 
 19 C        5.8560    10.8310    -1.2770 C.3   1 <1>   0.2250 
 20 C        6.3820    10.4880     0.1290 C.3   1 <1>   0.0850 
 21 N        7.6460    11.1880     0.4370 N.pl3 1 <1>   0.4850 
 22 N        8.8320    10.5520     0.5330 N.2   1 <1>  -0.7070 
 23 C        7.7860    12.5130     0.6920 C.2   1 <1>  -0.3320 
 24 C        9.6880    11.4760     0.8340 C.2   1 <1>   0.1080 
 25 C        9.0940    12.7260     0.9480 C.2   1 <1>  -0.1500 
 26 C        6.6580    13.5330     0.6900 C.3   1 <1>  -0.0600 
 27 C       11.1570    11.1840     1.0330 C.3   1 <1>  -0.0590 
 28 H       -0.4270     2.9220    -0.1510 H     1 <1>   0.1500 
 29 H        3.0540     1.7850     2.0320 H     1 <1>   0.1500 
 30 H        0.8370     4.7700    -1.2130 H     1 <1>   0.1500 
 31 H        4.3250     3.6350     0.9730 H     1 <1>   0.1500 
 32 H        2.0330     6.9140     1.1800 H     1 <1>   0.0800 
 33 H        1.0750     7.1030    -0.2720 H     1 <1>   0.0800 
 34 H        2.1170     8.3930     0.2610 H     1 <1>   0.0800 
 35 H        6.2220     5.6380    -3.3880 H     1 <1>   0.0800 
 36 H        6.9690     6.7040    -2.2250 H     1 <1>   0.0800 
 37 H        5.9350     7.3570    -3.4810 H     1 <1>   0.0800 
 38 H        7.5050     8.8110    -0.8290 H     1 <1>   0.0000 
 39 H        6.1840     8.2940     0.2930 H     1 <1>   0.0000 
 40 H        4.9720    11.4430    -1.2690 H     1 <1>   0.0000 
 41 H        6.6140    11.1530    -1.9690 H     1 <1>   0.0000 
 42 H        5.6450    10.5910     0.9060 H     1 <1>   0.0000 
 43 H        9.5950    13.6450     1.1910 H     1 <1>   0.1500 
 44 H        5.8910    13.2460     1.3880 H     1 <1>   0.0800 
 45 H        6.2270    13.6180    -0.2920 H     1 <1>   0.0800 
 46 H        7.0340    14.4990     0.9790 H     1 <1>   0.0800 
 47 H       11.2760    10.4780     1.8330 H     1 <1>   0.0800 
 48 H       11.6900    12.0850     1.2740 H     1 <1>   0.0800 
 49 H       11.5640    10.7630     0.1320 H     1 <1>   0.0800 
@<TRIPOS>BOND
  1   1   2  1   
  2   2   3  ar  
  3   2   4  ar  
  4   3   5  ar  
  5   3  28  1   
  6   4   6  ar  
  7   4  29  1   
  8   5   7  ar  
  9   5  30  1   
 10   6   7  ar  
 11   6  31  1   
 12   7   8  1   
 13   8   9  1   
 14   8  10  1   
 15   9  11  2   
 16  10  12  2   
 17  10  13  1   
 18  11  12  1   
 19  11  14  1   
 20  12  15  1   
 21  13  32  1   
 22  13  33  1   
 23  13  34  1   
 24  14  35  1   
 25  14  36  1   
 26  14  37  1   
 27  15  16  2   
 28  15  17  am  
 29  17  18  1   
 30  17  19  1   
 31  18  20  1   
 32  18  38  1   
 33  18  39  1   
 34  19  20  1   
 35  19  40  1   
 36  19  41  1   
 37  20  21  1   
 38  20  42  1   
 39  21  22  1   
 40  21  23  1   
 41  22  24  2   
 42  23  25  2   
 43  23  26  1   
 44  24  25  1   
 45  24  27  1   
 46  25  43  1   
 47  26  44  1   
 48  26  45  1   
 49  26  46  1   
 50  27  47  1   
 51  27  48  1   
 52  27  49  1   
@<TRIPOS>SUBSTRUCTURE
  1 ****  12 GROUP 4 **** **** 0

# MOE 2024.06 (io_trps.svl 2023.06)
