@<TRIPOS>MOLECULE
NONAME
60 64 1 0 0 
SMALL
USER_CHARGES


@<TRIPOS>ATOM
  1 O        0.6850     2.0680     1.3470 O.3   1 <1>  -0.6800 
  2 C        1.3030     1.7270     0.1580 C.3   1 <1>   0.1200 
  3 C        0.9770     2.7940    -0.8920 C.3   1 <1>  -0.1600 
  4 C        1.1790     4.2280    -0.3540 C.3   1 <1>   0.4230 
  5 N       -0.1350     4.9700    -0.2760 N.4   1 <1>  -0.9590 
  6 C        2.2200     4.9910    -1.2210 C.3   1 <1>   0.2090 
  7 C        0.0530     6.4160     0.1070 C.3   1 <1>   0.3430 
  8 C       -1.0880     4.3090     0.6650 C.3   1 <1>   0.4380 
  9 N        2.4190     6.4290    -0.7880 N.pl3 1 <1>  -0.8380 
 10 C        1.1000     7.1600    -0.7600 C.3   1 <1>   0.2090 
 11 C       -2.4780     4.9050     0.4480 C.3   1 <1>  -0.1950 
 12 C        3.6330     6.9620    -0.4790 C.ar  1 <1>   0.4610 
 13 C       -3.6790     4.0120     0.4710 C.3   1 <1>  -0.2000 
 14 C       -3.2500     4.6600    -0.8130 C.3   1 <1>  -0.2000 
 15 N        3.8240     8.2860    -0.5310 N.ar  1 <1>  -0.1790 
 16 C        4.7590     6.1830    -0.1010 C.ar  1 <1>  -0.1500 
 17 C        5.0200     8.9270    -0.2570 C.ar  1 <1>   0.3610 
 18 C        5.9710     6.7360     0.1820 C.ar  1 <1>  -0.1440 
 19 C        6.1390     8.1520     0.1080 C.ar  1 <1>   0.0000 
 20 C        5.1160    10.3210    -0.3470 C.ar  1 <1>  -0.1500 
 21 C        7.1470     5.8520     0.5850 C.3   1 <1>  -0.0970 
 22 C        7.3470     8.8210     0.3770 C.ar  1 <1>  -0.1500 
 23 C        6.3120    10.9340    -0.0760 C.ar  1 <1>  -0.1440 
 24 C        7.4150    10.1870     0.2820 C.ar  1 <1>  -0.1440 
 25 C        6.6420    12.4080    -0.1070 C.3   1 <1>  -0.0170 
 26 C        8.6110    11.0740     0.5340 C.3   1 <1>  -0.0160 
 27 C        8.0020    12.4830     0.6070 C.3   1 <1>  -0.1600 
 28 H        0.8040     1.3510     2.0100 H     1 <1>   0.4000 
 29 H        0.9430     0.7590    -0.1520 H     1 <1>   0.0800 
 30 H        2.3640     1.6680     0.3390 H     1 <1>   0.0800 
 31 H       -0.0260     2.6420    -1.2510 H     1 <1>   0.0800 
 32 H        1.6250     2.6120    -1.7320 H     1 <1>   0.0800 
 33 H        1.5900     4.1550     0.6400 H     1 <1>   0.0800 
 34 H       -0.5880     4.9260    -1.1960 H     1 <1>   0.4500 
 35 H        1.8810     4.9890    -2.2430 H     1 <1>   0.0800 
 36 H        3.1450     4.4460    -1.2140 H     1 <1>   0.0800 
 37 H        0.3700     6.4700     1.1360 H     1 <1>   0.0800 
 38 H       -0.8890     6.9340     0.0310 H     1 <1>   0.0800 
 39 H       -0.7720     4.4280     1.6890 H     1 <1>   0.0800 
 40 H       -1.1370     3.2530     0.4550 H     1 <1>   0.0800 
 41 H        1.2180     8.1500    -0.3560 H     1 <1>   0.0800 
 42 H        0.7220     7.2570    -1.7650 H     1 <1>   0.0800 
 43 H       -2.6100     5.8440     0.9580 H     1 <1>   0.1000 
 44 H       -4.5850     4.3610     0.9400 H     1 <1>   0.1000 
 45 H       -3.5590     2.9460     0.5690 H     1 <1>   0.1000 
 46 H       -2.8740     4.0080    -1.5840 H     1 <1>   0.1000 
 47 H       -3.8780     5.4410    -1.2120 H     1 <1>   0.1000 
 48 H        3.0660     8.8690    -0.8620 H     1 <1>   0.4570 
 49 H        4.6470     5.1210    -0.0160 H     1 <1>   0.1500 
 50 H        4.2680    10.9200    -0.6250 H     1 <1>   0.1500 
 51 H        6.8700     4.8130     0.6040 H     1 <1>   0.0800 
 52 H        7.4960     6.1220     1.5670 H     1 <1>   0.0800 
 53 H        7.9560     5.9680    -0.1150 H     1 <1>   0.0800 
 54 H        8.2270     8.2710     0.6590 H     1 <1>   0.1500 
 55 H        5.9000    13.0000     0.3990 H     1 <1>   0.0800 
 56 H        6.7370    12.7360    -1.1280 H     1 <1>   0.0800 
 57 H        9.2930    11.0000    -0.2950 H     1 <1>   0.0800 
 58 H        9.1170    10.8140     1.4470 H     1 <1>   0.0800 
 59 H        7.8370    12.7360     1.6400 H     1 <1>   0.0800 
 60 H        8.6470    13.2230     0.1660 H     1 <1>   0.0800 
@<TRIPOS>BOND
  1   1   2  1   
  2   1  28  1   
  3   2   3  1   
  4   2  29  1   
  5   2  30  1   
  6   3   4  1   
  7   3  31  1   
  8   3  32  1   
  9   4   5  1   
 10   4   6  1   
 11   4  33  1   
 12   5   7  1   
 13   5   8  1   
 14   5  34  1   
 15   6   9  1   
 16   6  35  1   
 17   6  36  1   
 18   7  10  1   
 19   7  37  1   
 20   7  38  1   
 21   8  11  1   
 22   8  39  1   
 23   8  40  1   
 24   9  10  1   
 25   9  12  1   
 26  10  41  1   
 27  10  42  1   
 28  11  13  1   
 29  11  14  1   
 30  11  43  1   
 31  12  15  ar  
 32  12  16  ar  
 33  13  14  1   
 34  13  44  1   
 35  13  45  1   
 36  14  46  1   
 37  14  47  1   
 38  15  17  ar  
 39  15  48  1   
 40  16  18  ar  
 41  16  49  1   
 42  17  19  ar  
 43  17  20  ar  
 44  18  19  ar  
 45  18  21  1   
 46  19  22  ar  
 47  20  23  ar  
 48  20  50  1   
 49  21  51  1   
 50  21  52  1   
 51  21  53  1   
 52  22  24  ar  
 53  22  54  1   
 54  23  24  ar  
 55  23  25  1   
 56  24  26  1   
 57  25  27  1   
 58  25  55  1   
 59  25  56  1   
 60  26  27  1   
 61  26  57  1   
 62  26  58  1   
 63  27  59  1   
 64  27  60  1   
@<TRIPOS>SUBSTRUCTURE
  1 ****  12 GROUP 4 **** **** 0

# MOE 2024.06 (io_trps.svl 2023.06)
