@<TRIPOS>MOLECULE
NONAME
45 46 1 0 0 
SMALL
USER_CHARGES


@<TRIPOS>ATOM
  1 S       -0.2180    -0.1010     0.3540 S.o2  1 <1>   1.3330 
  2 O       -0.0230    -0.7930     1.6080 O.2   1 <1>  -0.6500 
  3 O       -0.9140     1.1650     0.3390 O.2   1 <1>  -0.6500 
  4 N       -1.0160    -1.1620    -0.7040 N.am  1 <1>  -0.8490 
  5 C        1.3640     0.1380    -0.4570 C.3   1 <1>  -0.0550 
  6 C       -2.4700    -0.9740    -0.6900 C.3   1 <1>   0.1160 
  7 C       -0.6930    -2.5740    -0.4680 C.3   1 <1>   0.1160 
  8 C        2.2690     1.1650     0.2530 C.3   1 <1>  -0.0800 
  9 C        3.4890     1.4940    -0.5900 C.3   1 <1>   0.2200 
 10 C        2.8950     0.6010     1.5360 C.3   1 <1>   0.1200 
 11 N        3.9840     2.8370    -0.2140 N.am  1 <1>  -0.7300 
 12 C        4.4820     0.4370    -0.1270 C.3   1 <1>   0.1200 
 13 O        4.2030     0.2210     1.2230 O.3   1 <1>  -0.5600 
 14 C        4.0250     3.9250    -1.0380 C.2   1 <1>   0.5440 
 15 O        3.6700     3.7840    -2.1910 O.2   1 <1>  -0.5700 
 16 C        4.4910     5.2110    -0.5540 C.ar  1 <1>   0.0860 
 17 C        5.0160     6.1580    -1.4340 C.ar  1 <1>  -0.1500 
 18 C        4.4350     5.5630     0.7990 C.ar  1 <1>  -0.1500 
 19 C        5.4650     7.3790    -0.9730 C.ar  1 <1>   0.1900 
 20 C        4.8880     6.7890     1.2550 C.ar  1 <1>  -0.1500 
 21 F        5.9450     8.1990    -1.8740 F     1 <1>  -0.1900 
 22 C        5.4160     7.7260     0.3820 C.ar  1 <1>   0.0820 
 23 O        5.8280     8.8900     0.9500 O.3   1 <1>  -0.3620 
 24 C        6.3710     9.9640     0.2150 C.3   1 <1>   0.0400 
 25 H        1.8750    -0.8030    -0.5330 H     1 <1>   0.0800 
 26 H        1.1710     0.4870    -1.4530 H     1 <1>   0.0800 
 27 H       -2.9410    -1.6510    -1.3820 H     1 <1>   0.0800 
 28 H       -2.7140     0.0330    -0.9870 H     1 <1>   0.0800 
 29 H       -2.8600    -1.1470     0.2990 H     1 <1>   0.0800 
 30 H       -1.1510    -3.1890    -1.2240 H     1 <1>   0.0800 
 31 H       -1.0500    -2.8850     0.5010 H     1 <1>   0.0800 
 32 H        0.3720    -2.7240    -0.5070 H     1 <1>   0.0800 
 33 H        1.6900     2.0510     0.4550 H     1 <1>   0.0800 
 34 H        3.3040     1.4400    -1.6500 H     1 <1>   0.0800 
 35 H        2.3750    -0.2560     1.9270 H     1 <1>   0.0800 
 36 H        2.9510     1.3580     2.2990 H     1 <1>   0.0800 
 37 H        4.4000     2.8790     0.7180 H     1 <1>   0.3700 
 38 H        5.5050     0.7480    -0.2430 H     1 <1>   0.0800 
 39 H        4.3220    -0.4910    -0.6470 H     1 <1>   0.0800 
 40 H        5.0710     5.9360    -2.4860 H     1 <1>   0.1500 
 41 H        4.0200     4.8710     1.5100 H     1 <1>   0.1500 
 42 H        4.8330     7.0320     2.3020 H     1 <1>   0.1500 
 43 H        6.6020    10.7570     0.9030 H     1 <1>   0.0800 
 44 H        5.6430    10.3030    -0.5010 H     1 <1>   0.0800 
 45 H        7.2700     9.6350    -0.2760 H     1 <1>   0.0800 
@<TRIPOS>BOND
  1   1   2  2   
  2   1   3  2   
  3   1   4  am  
  4   1   5  1   
  5   4   6  1   
  6   4   7  1   
  7   5   8  1   
  8   5  25  1   
  9   5  26  1   
 10   6  27  1   
 11   6  28  1   
 12   6  29  1   
 13   7  30  1   
 14   7  31  1   
 15   7  32  1   
 16   8   9  1   
 17   8  10  1   
 18   8  33  1   
 19   9  11  1   
 20   9  12  1   
 21   9  34  1   
 22  10  13  1   
 23  10  35  1   
 24  10  36  1   
 25  11  14  am  
 26  11  37  1   
 27  12  13  1   
 28  12  38  1   
 29  12  39  1   
 30  14  15  2   
 31  14  16  1   
 32  16  17  ar  
 33  16  18  ar  
 34  17  19  ar  
 35  17  40  1   
 36  18  20  ar  
 37  18  41  1   
 38  19  21  1   
 39  19  22  ar  
 40  20  22  ar  
 41  20  42  1   
 42  22  23  1   
 43  23  24  1   
 44  24  43  1   
 45  24  44  1   
 46  24  45  1   
@<TRIPOS>SUBSTRUCTURE
  1 ****  11 GROUP 4 **** **** 0

# MOE 2024.06 (io_trps.svl 2023.06)
