@<TRIPOS>MOLECULE
NONAME
58 60 1 0 0 
SMALL
USER_CHARGES


@<TRIPOS>ATOM
  1 O        0.3500     0.3120    -1.3280 O.3   1 <1>  -0.5600 
  2 C        1.4670    -0.5390    -1.2330 C.3   1 <1>   0.2000 
  3 C        0.6210     1.6630    -1.5430 C.3   1 <1>   0.1200 
  4 C        2.5200    -0.0300    -0.1950 C.3   1 <1>   0.5660 
  5 C        0.9000    -1.9170    -0.8520 C.3   1 <1>   0.1200 
  6 C        1.4020     2.2200    -0.3460 C.3   1 <1>   0.3430 
  7 N        2.6730     1.4600    -0.1470 N.4   1 <1>  -0.9590 
  8 C        3.9190    -0.5700    -0.4780 C.ar  1 <1>  -0.1430 
  9 O        1.9070    -2.7890    -0.4640 O.3   1 <1>  -0.6800 
 10 C        3.4300     1.9080     1.0480 C.3   1 <1>   0.4870 
 11 C        4.5680    -1.3150     0.4970 C.ar  1 <1>  -0.1500 
 12 C        4.5690    -0.3220    -1.6830 C.ar  1 <1>  -0.1500 
 13 C        3.7610     3.3780     0.8800 C.ar  1 <1>  -0.1430 
 14 C        5.8480    -1.7980     0.2860 C.ar  1 <1>   0.0830 
 15 C        5.8520    -0.7960    -1.8970 C.ar  1 <1>  -0.1500 
 16 C        4.5330     3.8010    -0.1970 C.ar  1 <1>   0.0830 
 17 C        3.2950     4.3050     1.7980 C.ar  1 <1>  -0.1500 
 18 O        6.3980    -2.5380     1.2770 O.3   1 <1>  -0.3620 
 19 C        6.5080    -1.5160    -0.9140 C.ar  1 <1>   0.0830 
 20 O        4.9650     2.8570    -1.0750 O.3   1 <1>  -0.3630 
 21 C        4.8260     5.1540    -0.3460 C.ar  1 <1>  -0.1500 
 22 C        3.5900     5.6470     1.6430 C.ar  1 <1>  -0.1500 
 23 C        6.5980    -3.9070     0.9960 C.3   1 <1>   0.0400 
 24 O        7.7760    -1.9140    -1.1810 O.3   1 <1>  -0.3630 
 25 C        6.0870     3.1050    -1.9000 C.3   1 <1>   0.0400 
 26 C        4.3540     6.0770     0.5710 C.ar  1 <1>  -0.1430 
 27 C        8.7960    -1.4360    -0.3300 C.3   1 <1>   0.0400 
 28 C        4.6740     7.5540     0.4120 C.3   1 <1>  -0.0970 
 29 H        1.9060    -0.6010    -2.2120 H     1 <1>   0.0800 
 30 H        1.1720     1.7740    -2.4620 H     1 <1>   0.0800 
 31 H       -0.3210     2.1750    -1.6400 H     1 <1>   0.0800 
 32 H        2.2040    -0.3840     0.7720 H     1 <1>   0.0800 
 33 H        0.3640    -2.3560    -1.6770 H     1 <1>   0.0800 
 34 H        0.2320    -1.8150    -0.0130 H     1 <1>   0.0800 
 35 H        0.7830     2.1460     0.5330 H     1 <1>   0.0800 
 36 H        1.6200     3.2620    -0.5140 H     1 <1>   0.0800 
 37 H        3.3140     1.7080    -0.9160 H     1 <1>   0.4500 
 38 H        2.2310    -3.3250    -1.2200 H     1 <1>   0.4000 
 39 H        2.8490     1.7550     1.9430 H     1 <1>   0.0800 
 40 H        4.3510     1.3530     1.1340 H     1 <1>   0.0800 
 41 H        4.0890    -1.5470     1.4320 H     1 <1>   0.1500 
 42 H        4.0970     0.2420    -2.4690 H     1 <1>   0.1500 
 43 H        6.3590    -0.6070    -2.8260 H     1 <1>   0.1500 
 44 H        2.7030     4.0000     2.6450 H     1 <1>   0.1500 
 45 H        5.4160     5.5040    -1.1720 H     1 <1>   0.1500 
 46 H        3.2270     6.3620     2.3630 H     1 <1>   0.1500 
 47 H        6.9850    -4.3790     1.8800 H     1 <1>   0.0800 
 48 H        7.3010    -4.0070     0.1890 H     1 <1>   0.0800 
 49 H        5.6540    -4.3470     0.7260 H     1 <1>   0.0800 
 50 H        6.3760     2.1810    -2.3680 H     1 <1>   0.0800 
 51 H        6.8970     3.4710    -1.2920 H     1 <1>   0.0800 
 52 H        5.8210     3.8260    -2.6530 H     1 <1>   0.0800 
 53 H        9.7440    -1.6840    -0.7710 H     1 <1>   0.0800 
 54 H        8.7100    -1.9060     0.6320 H     1 <1>   0.0800 
 55 H        8.7010    -0.3690    -0.2360 H     1 <1>   0.0800 
 56 H        3.8460     8.1550     0.7420 H     1 <1>   0.0800 
 57 H        4.8750     7.7920    -0.6170 H     1 <1>   0.0800 
 58 H        5.5390     7.8040     1.0000 H     1 <1>   0.0800 
@<TRIPOS>BOND
  1   1   2  1   
  2   1   3  1   
  3   2   4  1   
  4   2   5  1   
  5   2  29  1   
  6   3   6  1   
  7   3  30  1   
  8   3  31  1   
  9   4   7  1   
 10   4   8  1   
 11   4  32  1   
 12   5   9  1   
 13   5  33  1   
 14   5  34  1   
 15   6   7  1   
 16   6  35  1   
 17   6  36  1   
 18   7  10  1   
 19   7  37  1   
 20   8  11  ar  
 21   8  12  ar  
 22   9  38  1   
 23  10  13  1   
 24  10  39  1   
 25  10  40  1   
 26  11  14  ar  
 27  11  41  1   
 28  12  15  ar  
 29  12  42  1   
 30  13  16  ar  
 31  13  17  ar  
 32  14  18  1   
 33  14  19  ar  
 34  15  19  ar  
 35  15  43  1   
 36  16  20  1   
 37  16  21  ar  
 38  17  22  ar  
 39  17  44  1   
 40  18  23  1   
 41  19  24  1   
 42  20  25  1   
 43  21  26  ar  
 44  21  45  1   
 45  22  26  ar  
 46  22  46  1   
 47  23  47  1   
 48  23  48  1   
 49  23  49  1   
 50  24  27  1   
 51  25  50  1   
 52  25  51  1   
 53  25  52  1   
 54  26  28  1   
 55  27  53  1   
 56  27  54  1   
 57  27  55  1   
 58  28  56  1   
 59  28  57  1   
 60  28  58  1   
@<TRIPOS>SUBSTRUCTURE
  1 ****   7 GROUP 4 **** **** 0

# MOE 2024.06 (io_trps.svl 2023.06)
