@<TRIPOS>MOLECULE
NONAME
41 43 1 0 0 
SMALL
USER_CHARGES


@<TRIPOS>ATOM
  1 O        0.9560     0.5010    -0.9340 O.3   1 <1>  -0.6800 
  2 C        1.5670    -0.7440    -0.9300 C.3   1 <1>   0.2000 
  3 C        1.2230    -1.4280     0.3980 C.3   1 <1>  -0.0800 
  4 C        3.0860    -0.5140    -0.9080 C.3   1 <1>   0.3430 
  5 C        2.3730    -0.9870     1.3050 C.3   1 <1>   0.3430 
  6 C        1.0780    -2.9690     0.2830 C.3   1 <1>  -0.0170 
  7 N        3.5670    -0.9910     0.4250 N.4   1 <1>  -0.9590 
  8 C        2.3860    -3.7530     0.2190 C.ar  1 <1>   0.1670 
  9 C        4.7480    -0.2660     0.9750 C.3   1 <1>   0.3430 
 10 N        3.1550    -3.5680    -0.8120 N.ar  1 <1>  -0.6200 
 11 C        2.7150    -4.6150     1.2790 C.ar  1 <1>  -0.1500 
 12 C        6.0200    -0.5550     0.1660 C.3   1 <1>   0.1200 
 13 C        4.3210    -4.2660    -0.8760 C.ar  1 <1>   0.3100 
 14 C        3.8920    -5.2990     1.2590 C.ar  1 <1>  -0.1500 
 15 O        7.0710     0.1120     0.7700 O.3   1 <1>  -0.6800 
 16 C        4.7450    -5.1280     0.1580 C.ar  1 <1>   0.0000 
 17 C        5.1500    -4.1040    -1.9970 C.ar  1 <1>  -0.1500 
 18 C        5.9910    -5.7750     0.0410 C.ar  1 <1>  -0.1500 
 19 C        6.3570    -4.7440    -2.0920 C.ar  1 <1>  -0.1500 
 20 C        6.7830    -5.5850    -1.0590 C.ar  1 <1>  -0.1500 
 21 H        0.0030     0.4320    -1.1560 H     1 <1>   0.4000 
 22 H        1.2500    -1.2890    -1.8040 H     1 <1>   0.0800 
 23 H        0.2920    -1.0480     0.7830 H     1 <1>   0.0800 
 24 H        3.2910     0.5350    -1.0400 H     1 <1>   0.0800 
 25 H        3.5600    -1.0800    -1.6930 H     1 <1>   0.0800 
 26 H        2.4970    -1.6460     2.1490 H     1 <1>   0.0800 
 27 H        2.1850     0.0160     1.6540 H     1 <1>   0.0800 
 28 H        0.4930    -3.2120    -0.5870 H     1 <1>   0.0800 
 29 H        0.5130    -3.3160     1.1300 H     1 <1>   0.0800 
 30 H        3.8020    -1.9920     0.2740 H     1 <1>   0.4500 
 31 H        4.5590     0.7950     0.9720 H     1 <1>   0.0800 
 32 H        4.9190    -0.5800     1.9920 H     1 <1>   0.0800 
 33 H        2.0340    -4.7350     2.1040 H     1 <1>   0.1500 
 34 H        5.9310    -0.1920    -0.8430 H     1 <1>   0.0800 
 35 H        6.2460    -1.6080     0.1690 H     1 <1>   0.0800 
 36 H        4.1770    -5.9670     2.0540 H     1 <1>   0.1500 
 37 H        7.9190    -0.0520     0.3050 H     1 <1>   0.4000 
 38 H        4.8070    -3.4660    -2.7900 H     1 <1>   0.1500 
 39 H        6.3120    -6.4280     0.8330 H     1 <1>   0.1500 
 40 H        6.9880    -4.6170    -2.9570 H     1 <1>   0.1500 
 41 H        7.7340    -6.0840    -1.1470 H     1 <1>   0.1500 
@<TRIPOS>BOND
  1   1   2  1   
  2   1  21  1   
  3   2   3  1   
  4   2   4  1   
  5   2  22  1   
  6   3   5  1   
  7   3   6  1   
  8   3  23  1   
  9   4   7  1   
 10   4  24  1   
 11   4  25  1   
 12   5   7  1   
 13   5  26  1   
 14   5  27  1   
 15   6   8  1   
 16   6  28  1   
 17   6  29  1   
 18   7   9  1   
 19   7  30  1   
 20   8  10  ar  
 21   8  11  ar  
 22   9  12  1   
 23   9  31  1   
 24   9  32  1   
 25  10  13  ar  
 26  11  14  ar  
 27  11  33  1   
 28  12  15  1   
 29  12  34  1   
 30  12  35  1   
 31  13  16  ar  
 32  13  17  ar  
 33  14  16  ar  
 34  14  36  1   
 35  15  37  1   
 36  16  18  ar  
 37  17  19  ar  
 38  17  38  1   
 39  18  20  ar  
 40  18  39  1   
 41  19  20  ar  
 42  19  40  1   
 43  20  41  1   
@<TRIPOS>SUBSTRUCTURE
  1 ****  10 GROUP 4 **** **** 0

# MOE 2024.06 (io_trps.svl 2023.06)
