@<TRIPOS>MOLECULE
NONAME
54 56 1 0 0 
SMALL
USER_CHARGES


@<TRIPOS>ATOM
  1 O        2.4960    -0.7540    -0.6070 O.co2 1 <1>  -0.9000 
  2 C        2.2080     0.1150     0.2320 C.2   1 <1>   0.9060 
  3 O        1.9730    -0.1940     1.4040 O.co2 1 <1>  -0.9000 
  4 C        2.1860     1.5890    -0.2220 C.3   1 <1>  -0.1060 
  5 C        3.5030     1.8930    -0.9810 C.3   1 <1>   0.2000 
  6 C        2.1190     2.5720     0.9860 C.3   1 <1>  -0.1600 
  7 C        0.9840     1.8190    -1.1770 C.3   1 <1>  -0.0160 
  8 O        3.6610     1.0320    -2.0530 O.3   1 <1>  -0.6800 
  9 C        4.7250     1.7780    -0.0610 C.3   1 <1>   0.1400 
 10 C        3.3730     2.5250     1.8750 C.3   1 <1>   0.1400 
 11 C       -0.3760     1.9420    -0.4930 C.ar  1 <1>  -0.1440 
 12 N        4.5910     2.7740     1.0480 N.am  1 <1>  -0.6600 
 13 C       -0.9710     0.8360     0.0950 C.ar  1 <1>  -0.1500 
 14 C       -1.0350     3.1620    -0.4550 C.ar  1 <1>  -0.1500 
 15 C        5.4380     3.8240     1.3120 C.2   1 <1>   0.5690 
 16 C       -2.2060     0.9470     0.7100 C.ar  1 <1>  -0.1500 
 17 C       -2.2700     3.2760     0.1590 C.ar  1 <1>  -0.1500 
 18 O        5.2900     4.5190     2.2930 O.2   1 <1>  -0.5700 
 19 C        6.6110     4.1560     0.3720 C.3   1 <1>  -0.0190 
 20 C       -2.8580     2.1670     0.7420 C.ar  1 <1>  -0.1500 
 21 C        7.8310     3.2940     0.7580 C.3   1 <1>  -0.1600 
 22 C        6.9120     5.6740     0.3480 C.3   1 <1>  -0.1600 
 23 C        9.0860     3.4920    -0.1070 C.3   1 <1>  -0.1600 
 24 C        7.7810     6.1030    -0.8450 C.3   1 <1>  -0.1600 
 25 C        9.8020     4.8150     0.1970 C.3   1 <1>  -0.1600 
 26 C        9.2960     6.0220    -0.6060 C.3   1 <1>  -0.1600 
 27 H        3.4780     2.8890    -1.3850 H     1 <1>   0.0800 
 28 H        1.2690     2.3300     1.6000 H     1 <1>   0.0800 
 29 H        1.9880     3.5800     0.6350 H     1 <1>   0.0800 
 30 H        1.1590     2.7140    -1.7460 H     1 <1>   0.0800 
 31 H        0.9360     1.0100    -1.8860 H     1 <1>   0.0800 
 32 H        3.3100     0.1420    -1.7350 H     1 <1>   0.4000 
 33 H        5.6170     1.9320    -0.6340 H     1 <1>   0.0800 
 34 H        4.7690     0.7890     0.3640 H     1 <1>   0.0800 
 35 H        3.4570     1.5590     2.3450 H     1 <1>   0.0800 
 36 H        3.2840     3.2590     2.6560 H     1 <1>   0.0800 
 37 H       -0.4680    -0.1180     0.0820 H     1 <1>   0.1500 
 38 H       -0.5850     4.0300    -0.9030 H     1 <1>   0.1500 
 39 H       -2.6490     0.0800     1.1660 H     1 <1>   0.1500 
 40 H       -2.7730     4.2260     0.1830 H     1 <1>   0.1500 
 41 H        6.3080     3.8980    -0.6230 H     1 <1>   0.0800 
 42 H       -3.8160     2.2510     1.2220 H     1 <1>   0.1500 
 43 H        8.0750     3.4800     1.7910 H     1 <1>   0.0800 
 44 H        7.5440     2.2590     0.6940 H     1 <1>   0.0800 
 45 H        5.9690     6.1880     0.2630 H     1 <1>   0.0800 
 46 H        7.3550     5.9870     1.2780 H     1 <1>   0.0800 
 47 H        9.7660     2.6900     0.1260 H     1 <1>   0.0800 
 48 H        8.8480     3.4140    -1.1540 H     1 <1>   0.0800 
 49 H        7.5230     5.5130    -1.7080 H     1 <1>   0.0800 
 50 H        7.5450     7.1240    -1.0900 H     1 <1>   0.0800 
 51 H        9.7260     5.0290     1.2490 H     1 <1>   0.0800 
 52 H       10.8500     4.6960    -0.0170 H     1 <1>   0.0800 
 53 H        9.7820     6.0280    -1.5660 H     1 <1>   0.0800 
 54 H        9.6100     6.9140    -0.0910 H     1 <1>   0.0800 
@<TRIPOS>BOND
  1   1   2  ar  
  2   2   3  ar  
  3   2   4  1   
  4   4   5  1   
  5   4   6  1   
  6   4   7  1   
  7   5   8  1   
  8   5   9  1   
  9   5  27  1   
 10   6  10  1   
 11   6  28  1   
 12   6  29  1   
 13   7  11  1   
 14   7  30  1   
 15   7  31  1   
 16   8  32  1   
 17   9  12  1   
 18   9  33  1   
 19   9  34  1   
 20  10  12  1   
 21  10  35  1   
 22  10  36  1   
 23  11  13  ar  
 24  11  14  ar  
 25  12  15  am  
 26  13  16  ar  
 27  13  37  1   
 28  14  17  ar  
 29  14  38  1   
 30  15  18  2   
 31  15  19  1   
 32  16  20  ar  
 33  16  39  1   
 34  17  20  ar  
 35  17  40  1   
 36  19  21  1   
 37  19  22  1   
 38  19  41  1   
 39  20  42  1   
 40  21  23  1   
 41  21  43  1   
 42  21  44  1   
 43  22  24  1   
 44  22  45  1   
 45  22  46  1   
 46  23  25  1   
 47  23  47  1   
 48  23  48  1   
 49  24  26  1   
 50  24  49  1   
 51  24  50  1   
 52  25  26  1   
 53  25  51  1   
 54  25  52  1   
 55  26  53  1   
 56  26  54  1   
@<TRIPOS>SUBSTRUCTURE
  1 ****   5 GROUP 4 **** **** 0

# MOE 2024.06 (io_trps.svl 2023.06)
