@<TRIPOS>MOLECULE
NONAME
49 52 1 0 0 
SMALL
USER_CHARGES


@<TRIPOS>ATOM
  1 O        2.7660    -1.0180    -2.6320 O.2   1 <1>  -0.5700 
  2 C        2.1710    -1.4020    -1.6370 C.2   1 <1>   0.5440 
  3 N        1.8760    -0.4500    -0.6760 N.am  1 <1>  -0.6600 
  4 C        1.8450    -2.8270    -1.5180 C.ar  1 <1>   0.3960 
  5 C        2.3100     0.9610    -0.7880 C.3   1 <1>   0.1400 
  6 C        1.2730    -0.7080     0.6520 C.3   1 <1>   0.1400 
  7 N        0.7670    -3.2440    -0.8320 N.ar  1 <1>  -0.6200 
  8 C        2.6930    -3.7400    -2.1500 C.ar  1 <1>   0.1600 
  9 C        2.3070     1.4800     0.6430 C.3   1 <1>  -0.1600 
 10 C        1.2410     0.6480     1.3490 C.3   1 <1>  -0.1600 
 11 C        0.6000    -4.5560    -0.8110 C.ar  1 <1>   0.4100 
 12 N        2.5600    -5.0590    -2.1380 N.ar  1 <1>  -0.6200 
 13 N       -0.5110    -5.0200    -0.1080 N.pl3 1 <1>  -0.8380 
 14 C        1.4990    -5.4280    -1.4500 C.ar  1 <1>   0.1600 
 15 C       -1.5640    -4.0890     0.3980 C.3   1 <1>   0.2090 
 16 C       -1.1000    -6.3630    -0.3330 C.3   1 <1>   0.2090 
 17 C       -2.8410    -4.9250     0.5130 C.3   1 <1>   0.2000 
 18 C       -2.3840    -6.3820     0.4940 C.3   1 <1>  -0.0800 
 19 O       -3.5290    -4.6650     1.6900 O.3   1 <1>  -0.6800 
 20 C       -3.4560    -7.3410    -0.0470 C.3   1 <1>  -0.0170 
 21 C       -2.9200    -8.7600    -0.1560 C.ar  1 <1>  -0.1430 
 22 C       -2.7080    -9.5420     0.9620 C.ar  1 <1>  -0.1500 
 23 C       -2.6160    -9.3390    -1.3710 C.ar  1 <1>  -0.1500 
 24 C       -2.2090   -10.8250     0.8150 C.ar  1 <1>   0.1600 
 25 C       -2.1220   -10.6330    -1.4090 C.ar  1 <1>   0.1600 
 26 N       -1.9080   -11.3880    -0.3440 N.ar  1 <1>  -0.6200 
 27 H        3.2870     1.0350    -1.2350 H     1 <1>   0.0800 
 28 H        1.5960     1.4970    -1.3900 H     1 <1>   0.0800 
 29 H        0.2790    -1.1090     0.5510 H     1 <1>   0.0800 
 30 H        1.8920    -1.4020     1.1960 H     1 <1>   0.0800 
 31 H        3.5360    -3.3500    -2.6950 H     1 <1>   0.1500 
 32 H        3.2700     1.2920     1.0840 H     1 <1>   0.0800 
 33 H        2.1010     2.5350     0.6850 H     1 <1>   0.0800 
 34 H        0.2720     1.0930     1.1980 H     1 <1>   0.0800 
 35 H        1.4220     0.5590     2.4060 H     1 <1>   0.0800 
 36 H        1.3180    -6.4820    -1.3760 H     1 <1>   0.1500 
 37 H       -1.2610    -3.7030     1.3550 H     1 <1>   0.0800 
 38 H       -1.7190    -3.2750    -0.2910 H     1 <1>   0.0800 
 39 H       -1.3200    -6.4850    -1.3800 H     1 <1>   0.0800 
 40 H       -0.4280    -7.1410    -0.0100 H     1 <1>   0.0800 
 41 H       -3.4910    -4.7050    -0.3160 H     1 <1>   0.0800 
 42 H       -2.1070    -6.6810     1.4900 H     1 <1>   0.0800 
 43 H       -2.9530    -4.8300     2.4610 H     1 <1>   0.4000 
 44 H       -3.7940    -7.0060    -1.0120 H     1 <1>   0.0800 
 45 H       -4.3070    -7.3320     0.6130 H     1 <1>   0.0800 
 46 H       -2.9260    -9.1670     1.9450 H     1 <1>   0.1500 
 47 H       -2.7590    -8.8020    -2.2910 H     1 <1>   0.1500 
 48 H       -2.0490   -11.4210     1.6970 H     1 <1>   0.1500 
 49 H       -1.8910   -11.0690    -2.3660 H     1 <1>   0.1500 
@<TRIPOS>BOND
  1   1   2  2   
  2   2   3  am  
  3   2   4  1   
  4   3   5  1   
  5   3   6  1   
  6   4   7  ar  
  7   4   8  ar  
  8   5   9  1   
  9   5  27  1   
 10   5  28  1   
 11   6  10  1   
 12   6  29  1   
 13   6  30  1   
 14   7  11  ar  
 15   8  12  ar  
 16   8  31  1   
 17   9  10  1   
 18   9  32  1   
 19   9  33  1   
 20  10  34  1   
 21  10  35  1   
 22  11  13  1   
 23  11  14  ar  
 24  12  14  ar  
 25  13  15  1   
 26  13  16  1   
 27  14  36  1   
 28  15  17  1   
 29  15  37  1   
 30  15  38  1   
 31  16  18  1   
 32  16  39  1   
 33  16  40  1   
 34  17  18  1   
 35  17  19  1   
 36  17  41  1   
 37  18  20  1   
 38  18  42  1   
 39  19  43  1   
 40  20  21  1   
 41  20  44  1   
 42  20  45  1   
 43  21  22  ar  
 44  21  23  ar  
 45  22  24  ar  
 46  22  46  1   
 47  23  25  ar  
 48  23  47  1   
 49  24  26  ar  
 50  24  48  1   
 51  25  26  ar  
 52  25  49  1   
@<TRIPOS>SUBSTRUCTURE
  1 ****  13 GROUP 4 **** **** 0

# MOE 2024.06 (io_trps.svl 2023.06)
