@<TRIPOS>MOLECULE
NONAME
49 51 1 0 0 
SMALL
USER_CHARGES


@<TRIPOS>ATOM
  1 O       -0.9890    -0.2330     0.7790 O.3   1 <1>  -0.5600 
  2 C       -1.8630     0.4830     1.6140 C.3   1 <1>   0.1200 
  3 C       -1.3270    -1.5620     0.4930 C.3   1 <1>   0.1200 
  4 C       -3.0760     1.0230     0.8120 C.3   1 <1>   0.4230 
  5 C       -2.7580    -1.7230    -0.0700 C.3   1 <1>  -0.0800 
  6 N       -2.8550     0.7490    -0.6610 N.4   1 <1>  -0.9590 
  7 C       -4.4420     0.5400     1.3880 C.3   1 <1>   0.2090 
  8 C       -3.8110    -1.8930     1.0430 C.3   1 <1>   0.2090 
  9 C       -3.1520    -0.6540    -1.1060 C.3   1 <1>   0.3430 
 10 C       -3.4750     1.7600    -1.5630 C.3   1 <1>   0.2630 
 11 N       -4.8880    -0.8440     0.9850 N.pl3 1 <1>  -0.8380 
 12 C       -6.1690    -1.1650     0.6680 C.ar  1 <1>   0.4100 
 13 N       -6.3580    -2.2790    -0.0520 N.ar  1 <1>  -0.6200 
 14 C       -7.2760    -0.3970     1.0600 C.ar  1 <1>  -0.1500 
 15 C       -7.5730    -2.6420    -0.3470 C.ar  1 <1>   0.5280 
 16 C       -8.5370    -0.7990     0.7280 C.ar  1 <1>   0.2180 
 17 N       -8.6640    -1.9380     0.0190 N.ar  1 <1>  -0.1790 
 18 C       -7.7760    -3.9230    -1.1450 C.3   1 <1>  -0.0170 
 19 C       -9.7880    -0.0340     1.1280 C.3   1 <1>  -0.0970 
 20 C       -8.3700    -5.0550    -0.2900 C.3   1 <1>  -0.1600 
 21 C       -8.5520    -6.3340    -1.1140 C.3   1 <1>  -0.2400 
 22 H       -2.1510    -0.1300     2.4500 H     1 <1>   0.0800 
 23 H       -1.3080     1.3170     2.0070 H     1 <1>   0.0800 
 24 H       -0.6130    -1.9060    -0.2360 H     1 <1>   0.0800 
 25 H       -1.1860    -2.1480     1.3870 H     1 <1>   0.0800 
 26 H       -3.0560     2.0900     0.9570 H     1 <1>   0.0800 
 27 H       -2.7600    -2.6630    -0.5920 H     1 <1>   0.0800 
 28 H       -1.8210     0.8050    -0.7280 H     1 <1>   0.4500 
 29 H       -5.1780     1.2540     1.0650 H     1 <1>   0.0800 
 30 H       -4.4060     0.5930     2.4630 H     1 <1>   0.0800 
 31 H       -3.3500    -1.8660     2.0150 H     1 <1>   0.0800 
 32 H       -4.2420    -2.8770     0.9630 H     1 <1>   0.0800 
 33 H       -4.2040    -0.7540    -1.3160 H     1 <1>   0.0800 
 34 H       -2.6180    -0.8470    -2.0220 H     1 <1>   0.0800 
 35 H       -4.5490     1.7070    -1.5000 H     1 <1>   0.0800 
 36 H       -3.1800     1.5780    -2.5840 H     1 <1>   0.0800 
 37 H       -3.1570     2.7530    -1.2890 H     1 <1>   0.0800 
 38 H       -7.1280     0.4910     1.6410 H     1 <1>   0.1500 
 39 H       -9.5860    -2.2900    -0.2420 H     1 <1>   0.4570 
 40 H       -8.4150    -3.7240    -1.9880 H     1 <1>   0.0800 
 41 H       -6.8250    -4.2440    -1.5350 H     1 <1>   0.0800 
 42 H       -9.5300     0.8490     1.6880 H     1 <1>   0.0800 
 43 H      -10.4230    -0.6450     1.7460 H     1 <1>   0.0800 
 44 H      -10.3390     0.2730     0.2560 H     1 <1>   0.0800 
 45 H       -7.7080    -5.2660     0.5350 H     1 <1>   0.0800 
 46 H       -9.3240    -4.7680     0.1160 H     1 <1>   0.0800 
 47 H       -7.6080    -6.6730    -1.5050 H     1 <1>   0.0800 
 48 H       -9.2280    -6.1710    -1.9360 H     1 <1>   0.0800 
 49 H       -8.9570    -7.1160    -0.4950 H     1 <1>   0.0800 
@<TRIPOS>BOND
  1   1   2  1   
  2   1   3  1   
  3   2   4  1   
  4   2  22  1   
  5   2  23  1   
  6   3   5  1   
  7   3  24  1   
  8   3  25  1   
  9   4   6  1   
 10   4   7  1   
 11   4  26  1   
 12   5   8  1   
 13   5   9  1   
 14   5  27  1   
 15   6   9  1   
 16   6  10  1   
 17   6  28  1   
 18   7  11  1   
 19   7  29  1   
 20   7  30  1   
 21   8  11  1   
 22   8  31  1   
 23   8  32  1   
 24   9  33  1   
 25   9  34  1   
 26  10  35  1   
 27  10  36  1   
 28  10  37  1   
 29  11  12  1   
 30  12  13  ar  
 31  12  14  ar  
 32  13  15  ar  
 33  14  16  ar  
 34  14  38  1   
 35  15  17  ar  
 36  15  18  1   
 37  16  17  ar  
 38  16  19  1   
 39  17  39  1   
 40  18  20  1   
 41  18  40  1   
 42  18  41  1   
 43  19  42  1   
 44  19  43  1   
 45  19  44  1   
 46  20  21  1   
 47  20  45  1   
 48  20  46  1   
 49  21  47  1   
 50  21  48  1   
 51  21  49  1   
@<TRIPOS>SUBSTRUCTURE
  1 ****  12 GROUP 4 **** **** 0

# MOE 2024.06 (io_trps.svl 2023.06)
