@<TRIPOS>MOLECULE
NONAME
50 52 1 0 0 
SMALL
USER_CHARGES


@<TRIPOS>ATOM
  1 O        1.5740    -0.6380     2.4720 O.co2 1 <1>  -0.9000 
  2 C        1.7810    -0.9850     1.3070 C.2   1 <1>   0.9060 
  3 O        1.5520    -2.1340     0.9060 O.co2 1 <1>  -0.9000 
  4 C        2.4130     0.0020     0.3230 C.3   1 <1>  -0.1060 
  5 C        3.6640    -0.7030    -0.2440 C.3   1 <1>   0.2000 
  6 C        2.9180     1.2750     1.0610 C.3   1 <1>  -0.1600 
  7 C        1.3830     0.3300    -0.8090 C.3   1 <1>  -0.0160 
  8 O        3.2860    -1.7670    -1.0370 O.3   1 <1>  -0.6800 
  9 C        4.5460     0.2260    -1.0930 C.3   1 <1>   0.3430 
 10 C        3.6800     2.2130     0.1390 C.3   1 <1>   0.3430 
 11 C        0.4950     1.5460    -0.5590 C.ar  1 <1>  -0.1440 
 12 N        4.8870     1.5080    -0.3870 N.4   1 <1>  -0.9590 
 13 C       -0.3620     1.5730     0.5310 C.ar  1 <1>  -0.1500 
 14 C        0.5300     2.6340    -1.4200 C.ar  1 <1>  -0.1500 
 15 C        5.7130     2.3960    -1.2360 C.3   1 <1>   0.5240 
 16 C       -1.1570     2.6800     0.7700 C.ar  1 <1>  -0.1500 
 17 C       -0.2660     3.7420    -1.1830 C.ar  1 <1>  -0.1500 
 18 C        6.2140     3.5250    -0.3670 C.2   1 <1>  -0.1810 
 19 C       -1.1080     3.7670    -0.0850 C.ar  1 <1>  -0.1500 
 20 C        5.7230     4.8290    -0.3610 C.2   1 <1>   0.1080 
 21 C        7.1900     3.5130     0.5710 C.2   1 <1>  -0.3320 
 22 N        6.3250     5.5650     0.5130 N.2   1 <1>  -0.7070 
 23 C        4.6200     5.3980    -1.2280 C.3   1 <1>  -0.0590 
 24 N        7.2370     4.7620     1.0850 N.pl3 1 <1>   0.3000 
 25 C        8.1140     2.4000     1.0400 C.3   1 <1>  -0.0600 
 26 H        4.2460    -1.1100     0.5670 H     1 <1>   0.0800 
 27 H        3.5540     0.9910     1.8830 H     1 <1>   0.0800 
 28 H        2.0940     1.8050     1.5030 H     1 <1>   0.0800 
 29 H        1.8950     0.4800    -1.7400 H     1 <1>   0.0800 
 30 H        0.7430    -0.5230    -0.9640 H     1 <1>   0.0800 
 31 H        2.5920    -2.2650    -0.5040 H     1 <1>   0.4000 
 32 H        4.0130     0.4500    -2.0000 H     1 <1>   0.0800 
 33 H        5.4480    -0.3040    -1.3500 H     1 <1>   0.0800 
 34 H        3.9730     3.0910     0.6930 H     1 <1>   0.0800 
 35 H        3.0390     2.5190    -0.6710 H     1 <1>   0.0800 
 36 H        5.4580     1.2900     0.4380 H     1 <1>   0.4500 
 37 H       -0.4080     0.7320     1.2060 H     1 <1>   0.1500 
 38 H        1.1670     2.6250    -2.2850 H     1 <1>   0.1500 
 39 H        6.5560     1.8530    -1.6300 H     1 <1>   0.0800 
 40 H        5.1330     2.7800    -2.0580 H     1 <1>   0.0800 
 41 H       -1.8110     2.6890     1.6240 H     1 <1>   0.1500 
 42 H       -0.2370     4.5830    -1.8530 H     1 <1>   0.1500 
 43 H       -1.7280     4.6260     0.1030 H     1 <1>   0.1500 
 44 H        4.5980     4.9240    -2.1900 H     1 <1>   0.0800 
 45 H        4.7900     6.4510    -1.3740 H     1 <1>   0.0800 
 46 H        3.6710     5.2750    -0.7400 H     1 <1>   0.0800 
 47 H        7.8740     5.1010     1.8190 H     1 <1>   0.2700 
 48 H        7.9490     1.4970     0.4790 H     1 <1>   0.0800 
 49 H        7.9480     2.1930     2.0830 H     1 <1>   0.0800 
 50 H        9.1410     2.6940     0.9080 H     1 <1>   0.0800 
@<TRIPOS>BOND
  1   1   2  ar  
  2   2   3  ar  
  3   2   4  1   
  4   4   5  1   
  5   4   6  1   
  6   4   7  1   
  7   5   8  1   
  8   5   9  1   
  9   5  26  1   
 10   6  10  1   
 11   6  27  1   
 12   6  28  1   
 13   7  11  1   
 14   7  29  1   
 15   7  30  1   
 16   8  31  1   
 17   9  12  1   
 18   9  32  1   
 19   9  33  1   
 20  10  12  1   
 21  10  34  1   
 22  10  35  1   
 23  11  13  ar  
 24  11  14  ar  
 25  12  15  1   
 26  12  36  1   
 27  13  16  ar  
 28  13  37  1   
 29  14  17  ar  
 30  14  38  1   
 31  15  18  1   
 32  15  39  1   
 33  15  40  1   
 34  16  19  ar  
 35  16  41  1   
 36  17  19  ar  
 37  17  42  1   
 38  18  20  1   
 39  18  21  2   
 40  19  43  1   
 41  20  22  2   
 42  20  23  1   
 43  21  24  1   
 44  21  25  1   
 45  22  24  1   
 46  23  44  1   
 47  23  45  1   
 48  23  46  1   
 49  24  47  1   
 50  25  48  1   
 51  25  49  1   
 52  25  50  1   
@<TRIPOS>SUBSTRUCTURE
  1 ****  10 GROUP 4 **** **** 0

# MOE 2024.06 (io_trps.svl 2023.06)
