@<TRIPOS>MOLECULE
NONAME
54 56 1 0 0 
SMALL
USER_CHARGES


@<TRIPOS>ATOM
  1 O       -0.3450    -0.7570     1.4230 O.3   1 <1>  -0.5600 
  2 C       -0.2940    -1.9240     0.6330 C.3   1 <1>   0.2800 
  3 C       -1.5670    -0.0950     1.6060 C.3   1 <1>   0.1200 
  4 C       -1.7110    -2.3400     0.1290 C.3   1 <1>   0.2000 
  5 C        0.2980    -3.0140     1.5560 C.3   1 <1>  -0.1600 
  6 C        0.6760    -1.5880    -0.5210 C.3   1 <1>  -0.1600 
  7 C       -2.2170     0.1570     0.2430 C.3   1 <1>  -0.1600 
  8 O       -1.6680    -3.4540    -0.7210 O.3   1 <1>  -0.6800 
  9 C       -2.5210    -1.1630    -0.4890 C.3   1 <1>   0.2800 
 10 C        1.1930    -3.9870     0.7890 C.3   1 <1>   0.2090 
 11 C        2.1300    -1.8060    -0.1120 C.3   1 <1>   0.2090 
 12 O       -3.8560    -1.4560    -0.2840 O.3   1 <1>  -0.6800 
 13 C       -2.3800    -0.9840    -2.0080 C.3   1 <1>  -0.2400 
 14 N        2.3570    -3.2650     0.1680 N.pl3 1 <1>  -0.8380 
 15 C        3.5680    -3.8430    -0.0700 C.ar  1 <1>   0.4610 
 16 N        3.6160    -5.1500    -0.3620 N.ar  1 <1>  -0.1790 
 17 C        4.7800    -3.1870    -0.0570 C.ar  1 <1>  -0.1500 
 18 C        4.7730    -5.7850    -0.6260 C.ar  1 <1>   0.7710 
 19 C        5.9330    -3.8920    -0.3310 C.ar  1 <1>   0.3920 
 20 N        5.9400    -5.1930    -0.6160 N.ar  1 <1>  -0.6200 
 21 N        4.7670    -7.0860    -0.9220 N.pl3 1 <1>  -0.9000 
 22 O        7.0830    -3.2200    -0.3040 O.3   1 <1>  -0.3620 
 23 C        8.3570    -3.7900    -0.5200 C.3   1 <1>   0.2000 
 24 C        8.8570    -4.3880     0.7960 C.3   1 <1>  -0.2400 
 25 C        9.2760    -2.6710    -1.0040 C.3   1 <1>  -0.2400 
 26 H       -2.1970    -0.6950     2.2410 H     1 <1>   0.0800 
 27 H       -1.3610     0.8360     2.1050 H     1 <1>   0.0800 
 28 H       -2.2560    -2.6670     0.9980 H     1 <1>   0.0800 
 29 H        0.8870    -2.5610     2.3350 H     1 <1>   0.0800 
 30 H       -0.4920    -3.5660     2.0320 H     1 <1>   0.0800 
 31 H        0.4800    -2.2090    -1.3760 H     1 <1>   0.0800 
 32 H        0.5400    -0.5670    -0.8270 H     1 <1>   0.0800 
 33 H       -1.5280     0.7500    -0.3310 H     1 <1>   0.0800 
 34 H       -3.1110     0.7420     0.3680 H     1 <1>   0.0800 
 35 H       -2.5860    -3.6390    -1.0120 H     1 <1>   0.4000 
 36 H        0.6130    -4.4670     0.0180 H     1 <1>   0.0800 
 37 H        1.5480    -4.7400     1.4730 H     1 <1>   0.0800 
 38 H        2.3490    -1.2250     0.7700 H     1 <1>   0.0800 
 39 H        2.7750    -1.4750    -0.9090 H     1 <1>   0.0800 
 40 H       -4.4110    -0.7770    -0.7120 H     1 <1>   0.4000 
 41 H       -1.3570    -0.8000    -2.2730 H     1 <1>   0.0800 
 42 H       -2.9620    -0.1460    -2.3460 H     1 <1>   0.0800 
 43 H       -2.7040    -1.8660    -2.5310 H     1 <1>   0.0800 
 44 H        2.7450    -5.6500    -0.4500 H     1 <1>   0.4570 
 45 H        4.8430    -2.1410     0.1720 H     1 <1>   0.1500 
 46 H        3.9710    -7.7230    -0.9770 H     1 <1>   0.4000 
 47 H        5.6690    -7.5300    -1.1210 H     1 <1>   0.4000 
 48 H        8.2810    -4.5470    -1.2830 H     1 <1>   0.0800 
 49 H        8.9020    -3.6310     1.5590 H     1 <1>   0.0800 
 50 H        9.8420    -4.7960     0.6600 H     1 <1>   0.0800 
 51 H        8.2080    -5.1820     1.1170 H     1 <1>   0.0800 
 52 H        9.3440    -1.8930    -0.2650 H     1 <1>   0.0800 
 53 H        8.9010    -2.2580    -1.9240 H     1 <1>   0.0800 
 54 H       10.2620    -3.0580    -1.1860 H     1 <1>   0.0800 
@<TRIPOS>BOND
  1   1   2  1   
  2   1   3  1   
  3   2   4  1   
  4   2   5  1   
  5   2   6  1   
  6   3   7  1   
  7   3  26  1   
  8   3  27  1   
  9   4   8  1   
 10   4   9  1   
 11   4  28  1   
 12   5  10  1   
 13   5  29  1   
 14   5  30  1   
 15   6  11  1   
 16   6  31  1   
 17   6  32  1   
 18   7   9  1   
 19   7  33  1   
 20   7  34  1   
 21   8  35  1   
 22   9  12  1   
 23   9  13  1   
 24  10  14  1   
 25  10  36  1   
 26  10  37  1   
 27  11  14  1   
 28  11  38  1   
 29  11  39  1   
 30  12  40  1   
 31  13  41  1   
 32  13  42  1   
 33  13  43  1   
 34  14  15  1   
 35  15  16  ar  
 36  15  17  ar  
 37  16  18  ar  
 38  16  44  1   
 39  17  19  ar  
 40  17  45  1   
 41  18  20  ar  
 42  18  21  1   
 43  19  20  ar  
 44  19  22  1   
 45  21  46  1   
 46  21  47  1   
 47  22  23  1   
 48  23  24  1   
 49  23  25  1   
 50  23  48  1   
 51  24  49  1   
 52  24  50  1   
 53  24  51  1   
 54  25  52  1   
 55  25  53  1   
 56  25  54  1   
@<TRIPOS>SUBSTRUCTURE
  1 ****  14 GROUP 4 **** **** 0

# MOE 2024.06 (io_trps.svl 2023.06)
