@<TRIPOS>MOLECULE
NONAME
55 58 1 0 0 
SMALL
USER_CHARGES


@<TRIPOS>ATOM
  1 O       -0.3200     0.0650     1.0130 O.2   1 <1>  -0.5700 
  2 C       -1.2710     0.6700     0.5770 C.2   1 <1>   0.5690 
  3 N       -2.3460     0.0260     0.0250 N.am  1 <1>  -0.6600 
  4 C       -1.2470     2.1860     0.6520 C.3   1 <1>  -0.0990 
  5 C       -3.5930     0.6770    -0.4910 C.3   1 <1>   0.1400 
  6 C       -2.3920    -1.4670    -0.0800 C.3   1 <1>   0.1400 
  7 C        0.0860     2.7310     1.1810 C.3   1 <1>   0.0960 
  8 C       -4.8460     0.0710     0.1700 C.3   1 <1>   0.1900 
  9 C       -3.6790    -2.0280     0.5480 C.3   1 <1>   0.1100 
 10 N        0.0620     4.2070     1.1670 N.pl3 1 <1>   0.0480 
 11 N       -4.8860    -1.3980    -0.0320 N.3   1 <1>  -0.8100 
 12 C       -6.1220     0.7290    -0.3920 C.3   1 <1>   0.1200 
 13 C        0.4400     5.0640     0.1840 C.2   1 <1>   0.0060 
 14 C       -0.4150     4.9970     2.1450 C.2   1 <1>  -0.3020 
 15 C       -6.1320    -1.9550     0.5490 C.3   1 <1>   0.3330 
 16 O       -7.2580     0.1800     0.2090 O.3   1 <1>  -0.5600 
 17 N        0.2300     6.3070     0.4740 N.2   1 <1>  -0.5650 
 18 C        1.0500     4.6280    -1.1390 C.3   1 <1>   0.0200 
 19 C       -0.3030     6.2690     1.7080 C.2   1 <1>   0.0770 
 20 C       -6.2690    -3.4450     0.2340 C.ar  1 <1>  -0.1440 
 21 C       -7.3710    -1.2050     0.0120 C.3   1 <1>   0.1200 
 22 C        2.5510     4.3550    -0.9960 C.3   1 <1>  -0.2400 
 23 C       -6.0650    -3.9230    -1.0530 C.ar  1 <1>  -0.1500 
 24 C       -6.6060    -4.3400     1.2400 C.ar  1 <1>  -0.1500 
 25 C       -6.1960    -5.2720    -1.3320 C.ar  1 <1>  -0.1500 
 26 C       -6.7370    -5.6900     0.9630 C.ar  1 <1>  -0.1500 
 27 C       -6.5330    -6.1570    -0.3230 C.ar  1 <1>  -0.1500 
 28 H       -1.4170     2.5760    -0.3340 H     1 <1>   0.0800 
 29 H       -2.0400     2.5070     1.3020 H     1 <1>   0.0800 
 30 H       -3.5810     1.7350    -0.3070 H     1 <1>   0.0800 
 31 H       -3.6500     0.5250    -1.5550 H     1 <1>   0.0800 
 32 H       -2.3570    -1.7480    -1.1180 H     1 <1>   0.0800 
 33 H       -1.5420    -1.9090     0.4090 H     1 <1>   0.0800 
 34 H        0.8980     2.3820     0.5700 H     1 <1>   0.0800 
 35 H        0.2520     2.3940     2.1880 H     1 <1>   0.0800 
 36 H       -4.8020     0.2860     1.2240 H     1 <1>   0.0800 
 37 H       -3.6510    -1.8670     1.6120 H     1 <1>   0.0800 
 38 H       -3.7020    -3.0900     0.3740 H     1 <1>   0.0800 
 39 H       -6.1900     0.5820    -1.4560 H     1 <1>   0.0800 
 40 H       -6.1230     1.7840    -0.1830 H     1 <1>   0.0800 
 41 H       -0.7990     4.6250     3.0770 H     1 <1>   0.1500 
 42 H       -6.1080    -1.8260     1.6170 H     1 <1>   0.0800 
 43 H        0.5470     3.7530    -1.5080 H     1 <1>   0.0800 
 44 H        0.9060     5.4150    -1.8580 H     1 <1>   0.0800 
 45 H       -0.5820     7.1730     2.2220 H     1 <1>   0.1500 
 46 H       -8.2530    -1.5410     0.5260 H     1 <1>   0.0800 
 47 H       -7.4940    -1.3940    -1.0400 H     1 <1>   0.0800 
 48 H        2.7300     3.5630    -0.2920 H     1 <1>   0.0800 
 49 H        3.0470     5.2430    -0.6460 H     1 <1>   0.0800 
 50 H        2.9690     4.0780    -1.9470 H     1 <1>   0.0800 
 51 H       -5.7960    -3.2380    -1.8390 H     1 <1>   0.1500 
 52 H       -6.7680    -3.9920     2.2450 H     1 <1>   0.1500 
 53 H       -6.0350    -5.6320    -2.3330 H     1 <1>   0.1500 
 54 H       -6.9990    -6.3770     1.7480 H     1 <1>   0.1500 
 55 H       -6.6360    -7.2060    -0.5390 H     1 <1>   0.1500 
@<TRIPOS>BOND
  1   1   2  2   
  2   2   3  am  
  3   2   4  1   
  4   3   5  1   
  5   3   6  1   
  6   4   7  1   
  7   4  28  1   
  8   4  29  1   
  9   5   8  1   
 10   5  30  1   
 11   5  31  1   
 12   6   9  1   
 13   6  32  1   
 14   6  33  1   
 15   7  10  1   
 16   7  34  1   
 17   7  35  1   
 18   8  11  1   
 19   8  12  1   
 20   8  36  1   
 21   9  11  1   
 22   9  37  1   
 23   9  38  1   
 24  10  13  1   
 25  10  14  1   
 26  11  15  1   
 27  12  16  1   
 28  12  39  1   
 29  12  40  1   
 30  13  17  2   
 31  13  18  1   
 32  14  19  2   
 33  14  41  1   
 34  15  20  1   
 35  15  21  1   
 36  15  42  1   
 37  16  21  1   
 38  17  19  1   
 39  18  22  1   
 40  18  43  1   
 41  18  44  1   
 42  19  45  1   
 43  20  23  ar  
 44  20  24  ar  
 45  21  46  1   
 46  21  47  1   
 47  22  48  1   
 48  22  49  1   
 49  22  50  1   
 50  23  25  ar  
 51  23  51  1   
 52  24  26  ar  
 53  24  52  1   
 54  25  27  ar  
 55  25  53  1   
 56  26  27  ar  
 57  26  54  1   
 58  27  55  1   
@<TRIPOS>SUBSTRUCTURE
  1 ****   3 GROUP 4 **** **** 0

# MOE 2024.06 (io_trps.svl 2023.06)
