@<TRIPOS>MOLECULE
NONAME
54 57 1 0 0 
SMALL
USER_CHARGES


@<TRIPOS>ATOM
  1 S        1.3740    -2.9310     1.9640 S.3   1 <1>  -0.0800 
  2 C       -0.1160    -2.4190     1.1730 C.2   1 <1>   0.2930 
  3 C        2.0050    -1.3230     1.8520 C.2   1 <1>  -0.1100 
  4 N       -0.0840    -1.1560     0.8770 N.2   1 <1>  -0.5650 
  5 C       -1.1370    -3.4420     0.9550 C.2   1 <1>   0.7150 
  6 C        1.0940    -0.5410     1.2520 C.2   1 <1>   0.0460 
  7 O       -0.8160    -4.6210     0.9960 O.2   1 <1>  -0.5700 
  8 N       -2.4740    -3.1720     0.6910 N.am  1 <1>  -0.6600 
  9 C        1.2230     0.9500     0.9440 C.3   1 <1>   0.1010 
 10 C       -3.1330    -1.8400     0.8580 C.3   1 <1>   0.1400 
 11 C       -3.3980    -4.2690     0.2610 C.3   1 <1>   0.1400 
 12 C        1.3250     1.1770    -0.5700 C.3   1 <1>  -0.2400 
 13 C        2.4250     1.5950     1.6480 C.3   1 <1>  -0.2400 
 14 C       -3.7440    -1.3530    -0.4760 C.3   1 <1>   0.1430 
 15 C       -4.6970    -3.7300    -0.3660 C.3   1 <1>  -0.1600 
 16 C       -4.7000    -0.2240    -0.1330 C.ar  1 <1>   0.1670 
 17 C       -4.4200    -2.5100    -1.2600 C.3   1 <1>  -0.1600 
 18 C       -2.6980    -0.6220    -1.3570 C.3   1 <1>  -0.1600 
 19 N       -5.8960    -0.3690     0.3810 N.ar  1 <1>  -0.6200 
 20 C       -4.1510     0.9930    -0.4040 C.ar  1 <1>  -0.1440 
 21 C       -2.7590     0.8650    -0.9710 C.3   1 <1>  -0.0160 
 22 C       -6.5560     0.7680     0.6160 C.ar  1 <1>   0.7200 
 23 C       -4.9030     2.1070    -0.1300 C.ar  1 <1>   0.1600 
 24 N       -6.1080     2.0060     0.3800 N.ar  1 <1>  -0.6200 
 25 N       -7.8220     0.6520     1.1570 N.pl3 1 <1>  -0.8380 
 26 C       -8.5620    -0.6390     1.1680 C.3   1 <1>   0.1290 
 27 C       -8.5420     1.8180     1.7380 C.3   1 <1>   0.1290 
 28 H        2.9870    -1.1390     2.2450 H     1 <1>   0.1500 
 29 H        0.3300     1.4340     1.3030 H     1 <1>   0.0800 
 30 H       -2.4690    -1.1000     1.2580 H     1 <1>   0.0800 
 31 H       -3.9250    -1.9530     1.5780 H     1 <1>   0.0800 
 32 H       -3.6290    -4.8910     1.1090 H     1 <1>   0.0800 
 33 H       -2.8870    -4.8790    -0.4660 H     1 <1>   0.0800 
 34 H        2.2010     0.6900    -0.9610 H     1 <1>   0.0800 
 35 H        1.3820     2.2280    -0.7910 H     1 <1>   0.0800 
 36 H        0.4610     0.7690    -1.0640 H     1 <1>   0.0800 
 37 H        3.3470     1.1650     1.2970 H     1 <1>   0.0800 
 38 H        2.3530     1.4480     2.7110 H     1 <1>   0.0800 
 39 H        2.4450     2.6520     1.4540 H     1 <1>   0.0800 
 40 H       -5.3860    -3.4550     0.4150 H     1 <1>   0.0800 
 41 H       -5.1620    -4.5100    -0.9410 H     1 <1>   0.0800 
 42 H       -3.7720    -2.8340    -2.0550 H     1 <1>   0.0800 
 43 H       -5.3370    -2.1650    -1.7080 H     1 <1>   0.0800 
 44 H       -2.9870    -0.7000    -2.3900 H     1 <1>   0.0800 
 45 H       -1.7110    -1.0330    -1.2510 H     1 <1>   0.0800 
 46 H       -2.6090     1.5040    -1.8240 H     1 <1>   0.0800 
 47 H       -2.0330     1.0880    -0.2080 H     1 <1>   0.0800 
 48 H       -4.5130     3.0900    -0.3280 H     1 <1>   0.1500 
 49 H       -8.2570    -1.2560     0.3410 H     1 <1>   0.0800 
 50 H       -9.6200    -0.4610     1.0850 H     1 <1>   0.0800 
 51 H       -8.3590    -1.1610     2.0870 H     1 <1>   0.0800 
 52 H       -7.8440     2.5350     2.1350 H     1 <1>   0.0800 
 53 H       -9.1860     1.4960     2.5380 H     1 <1>   0.0800 
 54 H       -9.1320     2.2930     0.9740 H     1 <1>   0.0800 
@<TRIPOS>BOND
  1   1   2  1   
  2   1   3  1   
  3   2   4  2   
  4   2   5  1   
  5   3   6  2   
  6   3  28  1   
  7   4   6  1   
  8   5   7  2   
  9   5   8  am  
 10   6   9  1   
 11   8  10  1   
 12   8  11  1   
 13   9  12  1   
 14   9  13  1   
 15   9  29  1   
 16  10  14  1   
 17  10  30  1   
 18  10  31  1   
 19  11  15  1   
 20  11  32  1   
 21  11  33  1   
 22  12  34  1   
 23  12  35  1   
 24  12  36  1   
 25  13  37  1   
 26  13  38  1   
 27  13  39  1   
 28  14  16  1   
 29  14  17  1   
 30  14  18  1   
 31  15  17  1   
 32  15  40  1   
 33  15  41  1   
 34  16  19  ar  
 35  16  20  ar  
 36  17  42  1   
 37  17  43  1   
 38  18  21  1   
 39  18  44  1   
 40  18  45  1   
 41  19  22  ar  
 42  20  21  1   
 43  20  23  ar  
 44  21  46  1   
 45  21  47  1   
 46  22  24  ar  
 47  22  25  1   
 48  23  24  ar  
 49  23  48  1   
 50  25  26  1   
 51  25  27  1   
 52  26  49  1   
 53  26  50  1   
 54  26  51  1   
 55  27  52  1   
 56  27  53  1   
 57  27  54  1   
@<TRIPOS>SUBSTRUCTURE
  1 ****  10 GROUP 4 **** **** 0

# MOE 2024.06 (io_trps.svl 2023.06)
