@<TRIPOS>MOLECULE
NONAME
54 56 1 0 0 
SMALL
USER_CHARGES


@<TRIPOS>ATOM
  1 O        0.0530    -2.4010    -2.6070 O.3   1 <1>  -0.6800 
  2 C        0.9010    -2.5680    -1.5250 C.3   1 <1>   0.1200 
  3 C        1.1390    -1.2070    -0.8040 C.3   1 <1>   0.0000 
  4 C        2.2490    -1.3440     0.2790 C.3   1 <1>   0.4230 
  5 C        1.5950    -0.1250    -1.8270 C.3   1 <1>  -0.1600 
  6 C       -0.1760    -0.7180    -0.1280 C.3   1 <1>  -0.1600 
  7 N        1.8920    -2.3000     1.4130 N.4   1 <1>  -0.9590 
  8 C        3.6420    -1.5830    -0.3590 C.3   1 <1>   0.2090 
  9 C        2.9680    -0.4050    -2.4490 C.3   1 <1>   0.2090 
 10 C       -0.2570    -1.0310     1.3790 C.3   1 <1>  -0.1600 
 11 C        0.4240    -2.3510     1.7280 C.3   1 <1>   0.3430 
 12 C        2.4290    -3.6960     1.2910 C.3   1 <1>   0.2630 
 13 N        3.9730    -0.4880    -1.3420 N.pl3 1 <1>  -0.8380 
 14 C        4.9710     0.4100    -1.0950 C.ar  1 <1>   0.7710 
 15 N        5.5030     0.4380     0.1150 N.ar  1 <1>  -0.6200 
 16 N        5.3820     1.2440    -2.0680 N.ar  1 <1>  -0.1790 
 17 C        6.4360     1.3350     0.3740 C.ar  1 <1>   0.4100 
 18 C        6.3610     2.1540    -1.8540 C.ar  1 <1>   0.2110 
 19 N        6.9090     1.3520     1.6450 N.pl3 1 <1>  -0.8380 
 20 C        6.9190     2.2220    -0.6210 C.ar  1 <1>  -0.1440 
 21 C        6.8650     2.5600     2.5160 C.3   1 <1>   0.1290 
 22 C        7.3230     0.1050     2.3470 C.3   1 <1>   0.1290 
 23 C        8.0590     3.2020    -0.3460 C.3   1 <1>  -0.0970 
 24 H       -0.1890    -3.2540    -3.0260 H     1 <1>   0.4000 
 25 H        0.4400    -3.2810    -0.8650 H     1 <1>   0.0800 
 26 H        1.8140    -2.9890    -1.9050 H     1 <1>   0.0800 
 27 H        2.3190    -0.3670     0.7300 H     1 <1>   0.0800 
 28 H        1.6430     0.8360    -1.3450 H     1 <1>   0.0800 
 29 H        0.8680    -0.0310    -2.6160 H     1 <1>   0.0800 
 30 H       -0.2920     0.3470    -0.2410 H     1 <1>   0.0800 
 31 H       -1.0250    -1.1580    -0.6240 H     1 <1>   0.0800 
 32 H        2.3330    -1.8880     2.2490 H     1 <1>   0.4500 
 33 H        3.6600    -2.5220    -0.8820 H     1 <1>   0.0800 
 34 H        4.3780    -1.6410     0.4230 H     1 <1>   0.0800 
 35 H        3.1990     0.3830    -3.1440 H     1 <1>   0.0800 
 36 H        2.9480    -1.3310    -3.0010 H     1 <1>   0.0800 
 37 H       -1.2930    -1.0780     1.6700 H     1 <1>   0.0800 
 38 H        0.1930    -0.2370     1.9500 H     1 <1>   0.0800 
 39 H       -0.0460    -3.1370     1.1590 H     1 <1>   0.0800 
 40 H        0.2800    -2.5710     2.7740 H     1 <1>   0.0800 
 41 H        2.0250    -4.1830     0.4190 H     1 <1>   0.0800 
 42 H        2.1590    -4.2750     2.1600 H     1 <1>   0.0800 
 43 H        3.5040    -3.6850     1.2170 H     1 <1>   0.0800 
 44 H        4.9520     1.1250    -2.9770 H     1 <1>   0.4570 
 45 H        6.6710     2.7870    -2.6710 H     1 <1>   0.1500 
 46 H        6.3580     2.3300     3.4380 H     1 <1>   0.0800 
 47 H        6.3320     3.3580     2.0280 H     1 <1>   0.0800 
 48 H        7.8650     2.8870     2.7410 H     1 <1>   0.0800 
 49 H        8.2890     0.2460     2.8000 H     1 <1>   0.0800 
 50 H        7.3870    -0.7140     1.6520 H     1 <1>   0.0800 
 51 H        6.6070    -0.1390     3.1120 H     1 <1>   0.0800 
 52 H        8.4750     3.5880    -1.2600 H     1 <1>   0.0800 
 53 H        8.8480     2.7070     0.1940 H     1 <1>   0.0800 
 54 H        7.7100     4.0320     0.2410 H     1 <1>   0.0800 
@<TRIPOS>BOND
  1   1   2  1   
  2   1  24  1   
  3   2   3  1   
  4   2  25  1   
  5   2  26  1   
  6   3   4  1   
  7   3   5  1   
  8   3   6  1   
  9   4   7  1   
 10   4   8  1   
 11   4  27  1   
 12   5   9  1   
 13   5  28  1   
 14   5  29  1   
 15   6  10  1   
 16   6  30  1   
 17   6  31  1   
 18   7  11  1   
 19   7  12  1   
 20   7  32  1   
 21   8  13  1   
 22   8  33  1   
 23   8  34  1   
 24   9  13  1   
 25   9  35  1   
 26   9  36  1   
 27  10  11  1   
 28  10  37  1   
 29  10  38  1   
 30  11  39  1   
 31  11  40  1   
 32  12  41  1   
 33  12  42  1   
 34  12  43  1   
 35  13  14  1   
 36  14  15  ar  
 37  14  16  ar  
 38  15  17  ar  
 39  16  18  ar  
 40  16  44  1   
 41  17  19  1   
 42  17  20  ar  
 43  18  20  ar  
 44  18  45  1   
 45  19  21  1   
 46  19  22  1   
 47  20  23  1   
 48  21  46  1   
 49  21  47  1   
 50  21  48  1   
 51  22  49  1   
 52  22  50  1   
 53  22  51  1   
 54  23  52  1   
 55  23  53  1   
 56  23  54  1   
@<TRIPOS>SUBSTRUCTURE
  1 ****  13 GROUP 4 **** **** 0

# MOE 2024.06 (io_trps.svl 2023.06)
