@<TRIPOS>MOLECULE
NONAME
48 51 1 0 0 
SMALL
USER_CHARGES


@<TRIPOS>ATOM
  1 F        1.3890     0.9930    -1.0900 F     1 <1>  -0.1900 
  2 C        2.3720     0.1730    -0.8370 C.ar  1 <1>   0.1900 
  3 C        3.4730     0.6280    -0.1670 C.ar  1 <1>  -0.1500 
  4 C        2.2510    -1.1470    -1.2690 C.ar  1 <1>  -0.1500 
  5 C        4.5440    -0.2510     0.1020 C.ar  1 <1>   0.0000 
  6 C        3.2790    -2.0130    -1.0050 C.ar  1 <1>  -0.1500 
  7 C        4.4370    -1.5980    -0.3200 C.ar  1 <1>   0.3100 
  8 C        5.7270     0.1390     0.7740 C.ar  1 <1>   0.0860 
  9 N        5.4040    -2.5170    -0.0950 N.ar  1 <1>  -0.6200 
 10 C        5.9600     1.5020     1.1880 C.2   1 <1>   0.5440 
 11 C        6.6650    -0.8340     0.9980 C.ar  1 <1>  -0.1500 
 12 C        6.4620    -2.1400     0.5490 C.ar  1 <1>   0.1660 
 13 O        5.8850     1.7820     2.3690 O.2   1 <1>  -0.5700 
 14 N        6.3080     2.5000     0.2900 N.am  1 <1>  -0.6600 
 15 C        7.5200    -3.1920     0.8090 C.3   1 <1>  -0.0970 
 16 C        6.6490     3.8620     0.8190 C.3   1 <1>   0.1400 
 17 C        6.6990     2.1870    -1.1220 C.3   1 <1>   0.1400 
 18 C        8.1740     4.1010     0.9920 C.3   1 <1>   0.4230 
 19 C        8.1510     2.5710    -1.4860 C.3   1 <1>  -0.0800 
 20 N        8.8330     4.6700    -0.2410 N.4   1 <1>  -0.9590 
 21 C        8.9750     2.8690     1.4990 C.3   1 <1>   0.1200 
 22 C        9.2570     1.8340    -0.6970 C.3   1 <1>   0.1200 
 23 C        8.3400     4.0900    -1.5260 C.3   1 <1>   0.3430 
 24 C        8.7470     6.1640    -0.2710 C.3   1 <1>   0.2630 
 25 O        8.9750     1.7340     0.6640 O.3   1 <1>  -0.5600 
 26 H        3.5130     1.6520     0.1560 H     1 <1>   0.1500 
 27 H        1.3630    -1.4550    -1.7920 H     1 <1>   0.1500 
 28 H        3.2290    -3.0410    -1.3150 H     1 <1>   0.1500 
 29 H        7.5720    -0.5860     1.5210 H     1 <1>   0.1500 
 30 H        8.3540    -2.7840     1.3490 H     1 <1>   0.0800 
 31 H        7.8700    -3.5880    -0.1270 H     1 <1>   0.0800 
 32 H        7.0940    -3.9930     1.3840 H     1 <1>   0.0800 
 33 H        6.2190     4.6130     0.1810 H     1 <1>   0.0800 
 34 H        6.1880     3.9950     1.7820 H     1 <1>   0.0800 
 35 H        6.5800     1.1360    -1.3160 H     1 <1>   0.0800 
 36 H        6.0160     2.6990    -1.7800 H     1 <1>   0.0800 
 37 H        8.2670     4.8430     1.7670 H     1 <1>   0.0800 
 38 H        8.2700     2.2580    -2.5080 H     1 <1>   0.0800 
 39 H        9.8250     4.4090    -0.1600 H     1 <1>   0.4500 
 40 H        8.5520     2.5500     2.4370 H     1 <1>   0.0800 
 41 H        9.9980     3.1410     1.6840 H     1 <1>   0.0800 
 42 H       10.2230     2.2920    -0.8220 H     1 <1>   0.0800 
 43 H        9.3250     0.8220    -1.0580 H     1 <1>   0.0800 
 44 H        7.4010     4.5460    -1.7950 H     1 <1>   0.0800 
 45 H        9.0480     4.3270    -2.3040 H     1 <1>   0.0800 
 46 H        7.7200     6.4810    -0.3470 H     1 <1>   0.0800 
 47 H        9.2910     6.5540    -1.1170 H     1 <1>   0.0800 
 48 H        9.1710     6.5830     0.6280 H     1 <1>   0.0800 
@<TRIPOS>BOND
  1   1   2  1   
  2   2   3  ar  
  3   2   4  ar  
  4   3   5  ar  
  5   3  26  1   
  6   4   6  ar  
  7   4  27  1   
  8   5   7  ar  
  9   5   8  ar  
 10   6   7  ar  
 11   6  28  1   
 12   7   9  ar  
 13   8  10  1   
 14   8  11  ar  
 15   9  12  ar  
 16  10  13  2   
 17  10  14  am  
 18  11  12  ar  
 19  11  29  1   
 20  12  15  1   
 21  14  16  1   
 22  14  17  1   
 23  15  30  1   
 24  15  31  1   
 25  15  32  1   
 26  16  18  1   
 27  16  33  1   
 28  16  34  1   
 29  17  19  1   
 30  17  35  1   
 31  17  36  1   
 32  18  20  1   
 33  18  21  1   
 34  18  37  1   
 35  19  22  1   
 36  19  23  1   
 37  19  38  1   
 38  20  23  1   
 39  20  24  1   
 40  20  39  1   
 41  21  25  1   
 42  21  40  1   
 43  21  41  1   
 44  22  25  1   
 45  22  42  1   
 46  22  43  1   
 47  23  44  1   
 48  23  45  1   
 49  24  46  1   
 50  24  47  1   
 51  24  48  1   
@<TRIPOS>SUBSTRUCTURE
  1 ****  10 GROUP 4 **** **** 0

# MOE 2024.06 (io_trps.svl 2023.06)
