@<TRIPOS>MOLECULE
NONAME
52 53 1 0 0 
SMALL
USER_CHARGES


@<TRIPOS>ATOM
  1 O       -1.6510    -0.7530     0.7950 O.2   1 <1>  -0.5700 
  2 C       -2.5630     0.0030     0.5110 C.2   1 <1>   0.5440 
  3 N       -2.5880     1.2620     1.0830 N.am  1 <1>  -0.6600 
  4 C       -3.5880    -0.4540    -0.3960 C.ar  1 <1>   0.0860 
  5 C       -3.8220     2.0840     1.2200 C.3   1 <1>   0.0600 
  6 C       -1.4030     1.8050     1.8040 C.3   1 <1>   0.0600 
  7 C       -4.1270    -1.7300    -0.2570 C.ar  1 <1>   0.1600 
  8 C       -4.0820     0.3230    -1.4400 C.ar  1 <1>  -0.1500 
  9 N       -5.0820    -2.2590    -1.0050 N.ar  1 <1>  -0.6200 
 10 C       -5.0680    -0.2110    -2.2340 C.ar  1 <1>  -0.1500 
 11 C       -5.5410    -1.4960    -1.9880 C.ar  1 <1>   0.4100 
 12 N       -6.5390    -2.0240    -2.7630 N.pl3 1 <1>  -0.8690 
 13 C       -6.8260    -3.4840    -2.8750 C.3   1 <1>   0.2090 
 14 C       -7.9060    -3.9180    -1.8640 C.3   1 <1>   0.2000 
 15 O       -7.5450    -3.5030    -0.5810 O.3   1 <1>  -0.6800 
 16 C       -8.1100    -5.4480    -1.8400 C.3   1 <1>   0.3430 
 17 N       -8.6640    -5.8720    -0.5180 N.4   1 <1>  -0.9590 
 18 C       -8.1920    -7.2240    -0.1240 C.3   1 <1>   0.3430 
 19 C      -10.1320    -5.6490    -0.4250 C.3   1 <1>   0.3430 
 20 C       -8.4740    -7.5290     1.3490 C.3   1 <1>  -0.1600 
 21 C      -10.5070    -5.2920     1.0130 C.3   1 <1>  -0.1600 
 22 C       -9.9610    -7.7690     1.6440 C.3   1 <1>  -0.1600 
 23 C      -10.7630    -6.4930     1.9390 C.3   1 <1>  -0.1600 
 24 H       -4.6980     1.5060     0.9850 H     1 <1>   0.0800 
 25 H       -3.7680     2.9320     0.5590 H     1 <1>   0.0800 
 26 H       -3.9140     2.4350     2.2330 H     1 <1>   0.0800 
 27 H       -0.5090     1.2830     1.5090 H     1 <1>   0.0800 
 28 H       -1.5390     1.6830     2.8650 H     1 <1>   0.0800 
 29 H       -1.2810     2.8490     1.5760 H     1 <1>   0.0800 
 30 H       -3.7310    -2.3440     0.5360 H     1 <1>   0.1500 
 31 H       -3.6920     1.3110    -1.6130 H     1 <1>   0.1500 
 32 H       -5.4790     0.3560    -3.0480 H     1 <1>   0.1500 
 33 H       -6.8320    -1.4600    -3.5660 H     1 <1>   0.4000 
 34 H       -5.9190    -4.0420    -2.7040 H     1 <1>   0.0800 
 35 H       -7.1570    -3.6990    -3.8760 H     1 <1>   0.0800 
 36 H       -8.8320    -3.4290    -2.1110 H     1 <1>   0.0800 
 37 H       -6.7950    -2.8490    -0.6820 H     1 <1>   0.4000 
 38 H       -7.1470    -5.9100    -1.9850 H     1 <1>   0.0800 
 39 H       -8.7520    -5.7590    -2.6470 H     1 <1>   0.0800 
 40 H       -8.2330    -5.1770     0.1260 H     1 <1>   0.4500 
 41 H       -7.1270    -7.2830    -0.2810 H     1 <1>   0.0800 
 42 H       -8.6610    -7.9720    -0.7420 H     1 <1>   0.0800 
 43 H      -10.6780    -6.5160    -0.7580 H     1 <1>   0.0800 
 44 H      -10.4020    -4.8150    -1.0530 H     1 <1>   0.0800 
 45 H       -8.0690    -6.7610     1.9850 H     1 <1>   0.0800 
 46 H       -7.9470    -8.4380     1.5850 H     1 <1>   0.0800 
 47 H      -11.4090    -4.7070     0.9870 H     1 <1>   0.0800 
 48 H       -9.7460    -4.6580     1.4340 H     1 <1>   0.0800 
 49 H      -10.0400    -8.4070     2.5100 H     1 <1>   0.0800 
 50 H      -10.4130    -8.3060     0.8270 H     1 <1>   0.0800 
 51 H      -11.8090    -6.7470     1.8970 H     1 <1>   0.0800 
 52 H      -10.5640    -6.1830     2.9520 H     1 <1>   0.0800 
@<TRIPOS>BOND
  1   1   2  2   
  2   2   3  am  
  3   2   4  1   
  4   3   5  1   
  5   3   6  1   
  6   4   7  ar  
  7   4   8  ar  
  8   5  24  1   
  9   5  25  1   
 10   5  26  1   
 11   6  27  1   
 12   6  28  1   
 13   6  29  1   
 14   7   9  ar  
 15   7  30  1   
 16   8  10  ar  
 17   8  31  1   
 18   9  11  ar  
 19  10  11  ar  
 20  10  32  1   
 21  11  12  1   
 22  12  13  1   
 23  12  33  1   
 24  13  14  1   
 25  13  34  1   
 26  13  35  1   
 27  14  15  1   
 28  14  16  1   
 29  14  36  1   
 30  15  37  1   
 31  16  17  1   
 32  16  38  1   
 33  16  39  1   
 34  17  18  1   
 35  17  19  1   
 36  17  40  1   
 37  18  20  1   
 38  18  41  1   
 39  18  42  1   
 40  19  21  1   
 41  19  43  1   
 42  19  44  1   
 43  20  22  1   
 44  20  45  1   
 45  20  46  1   
 46  21  23  1   
 47  21  47  1   
 48  21  48  1   
 49  22  23  1   
 50  22  49  1   
 51  22  50  1   
 52  23  51  1   
 53  23  52  1   
@<TRIPOS>SUBSTRUCTURE
  1 ****   9 GROUP 4 **** **** 0

# MOE 2024.06 (io_trps.svl 2023.06)
