@<TRIPOS>MOLECULE
NONAME
53 55 1 0 0 
SMALL
USER_CHARGES


@<TRIPOS>ATOM
  1 O       -2.0940     2.0740     1.0120 O.2   1 <1>  -0.5700 
  2 C       -1.2210     2.9010     1.0630 C.2   1 <1>   0.5690 
  3 N       -1.3730     4.1050     0.4610 N.am  1 <1>  -0.7300 
  4 C        0.0950     2.5870     1.7970 C.3   1 <1>   0.1810 
  5 C       -0.3660     5.1760     0.5740 C.3   1 <1>   0.3640 
  6 O        0.9240     3.7220     1.9970 O.3   1 <1>  -0.5600 
  7 C       -0.4320     6.0790    -0.6570 C.ar  1 <1>  -0.1440 
  8 C        1.0210     4.5590     0.8570 C.3   1 <1>   0.2610 
  9 C        0.1150     5.6960    -1.8750 C.ar  1 <1>  -0.1500 
 10 C       -1.0650     7.3110    -0.5630 C.ar  1 <1>  -0.1500 
 11 C        2.0460     5.6720     1.0560 C.2   1 <1>   0.5690 
 12 C        0.0360     6.5330    -2.9750 C.ar  1 <1>  -0.1500 
 13 C       -1.1500     8.1470    -1.6640 C.ar  1 <1>  -0.1500 
 14 O        2.6970     6.0290     0.1030 O.2   1 <1>  -0.5700 
 15 N        2.1650     6.2620     2.2830 N.am  1 <1>  -0.7300 
 16 C       -0.5980     7.7580    -2.8710 C.ar  1 <1>  -0.1500 
 17 C        3.1140     7.3170     2.7390 C.3   1 <1>   0.1400 
 18 C        3.4300     8.3740     1.6690 C.3   1 <1>  -0.1600 
 19 C        2.1620     8.9400     1.0230 C.3   1 <1>   0.3430 
 20 N        2.4890     9.6270    -0.2550 N.4   1 <1>  -0.9590 
 21 C        1.4480    10.6310    -0.6030 C.3   1 <1>   0.3430 
 22 C        2.6460     8.6220    -1.3540 C.3   1 <1>   0.3430 
 23 C        1.8730    11.3970    -1.8580 C.3   1 <1>  -0.1600 
 24 C        3.0860     9.3260    -2.6390 C.3   1 <1>  -0.1600 
 25 C        2.1230    10.4520    -3.0400 C.3   1 <1>  -0.1600 
 26 H       -2.2390     4.3060    -0.0430 H     1 <1>   0.3700 
 27 H        0.6500     1.8620     1.2290 H     1 <1>   0.0800 
 28 H       -0.1270     2.1680     2.7610 H     1 <1>   0.0800 
 29 H       -0.6260     5.7720     1.4310 H     1 <1>   0.0800 
 30 H        1.3400     3.9560     0.0270 H     1 <1>   0.0800 
 31 H        0.5990     4.7410    -1.9870 H     1 <1>   0.1500 
 32 H       -1.5140     7.6230     0.3650 H     1 <1>   0.1500 
 33 H        0.4580     6.2240    -3.9160 H     1 <1>   0.1500 
 34 H       -1.6610     9.0910    -1.5880 H     1 <1>   0.1500 
 35 H        1.7300     5.7340     3.0520 H     1 <1>   0.3700 
 36 H       -0.6750     8.3970    -3.7340 H     1 <1>   0.1500 
 37 H        2.6880     7.8060     3.5990 H     1 <1>   0.0800 
 38 H        4.0310     6.8450     3.0560 H     1 <1>   0.0800 
 39 H        4.0740     7.9240     0.9370 H     1 <1>   0.0800 
 40 H        3.9810     9.1730     2.1310 H     1 <1>   0.0800 
 41 H        1.6980     9.6290     1.7100 H     1 <1>   0.0800 
 42 H        1.4630     8.1450     0.8240 H     1 <1>   0.0800 
 43 H        3.3850    10.1170    -0.1530 H     1 <1>   0.4500 
 44 H        0.5100    10.1320    -0.7870 H     1 <1>   0.0800 
 45 H        1.3140    11.3240     0.2120 H     1 <1>   0.0800 
 46 H        3.3830     7.8840    -1.0840 H     1 <1>   0.0800 
 47 H        1.7110     8.1100    -1.5190 H     1 <1>   0.0800 
 48 H        1.1000    12.0980    -2.1210 H     1 <1>   0.0800 
 49 H        2.7630    11.9640    -1.6460 H     1 <1>   0.0800 
 50 H        4.0770     9.7220    -2.5030 H     1 <1>   0.0800 
 51 H        3.1370     8.6010    -3.4330 H     1 <1>   0.0800 
 52 H        2.5280    11.0020    -3.8720 H     1 <1>   0.0800 
 53 H        1.1870    10.0230    -3.3570 H     1 <1>   0.0800 
@<TRIPOS>BOND
  1   1   2  2   
  2   2   3  am  
  3   2   4  1   
  4   3   5  1   
  5   3  26  1   
  6   4   6  1   
  7   4  27  1   
  8   4  28  1   
  9   5   7  1   
 10   5   8  1   
 11   5  29  1   
 12   6   8  1   
 13   7   9  ar  
 14   7  10  ar  
 15   8  11  1   
 16   8  30  1   
 17   9  12  ar  
 18   9  31  1   
 19  10  13  ar  
 20  10  32  1   
 21  11  14  2   
 22  11  15  am  
 23  12  16  ar  
 24  12  33  1   
 25  13  16  ar  
 26  13  34  1   
 27  15  17  1   
 28  15  35  1   
 29  16  36  1   
 30  17  18  1   
 31  17  37  1   
 32  17  38  1   
 33  18  19  1   
 34  18  39  1   
 35  18  40  1   
 36  19  20  1   
 37  19  41  1   
 38  19  42  1   
 39  20  21  1   
 40  20  22  1   
 41  20  43  1   
 42  21  23  1   
 43  21  44  1   
 44  21  45  1   
 45  22  24  1   
 46  22  46  1   
 47  22  47  1   
 48  23  25  1   
 49  23  48  1   
 50  23  49  1   
 51  24  25  1   
 52  24  50  1   
 53  24  51  1   
 54  25  52  1   
 55  25  53  1   
@<TRIPOS>SUBSTRUCTURE
  1 ****   7 GROUP 4 **** **** 0

# MOE 2024.06 (io_trps.svl 2023.06)
