@<TRIPOS>MOLECULE
NONAME
48 50 1 0 0 
SMALL
USER_CHARGES


@<TRIPOS>ATOM
  1 O       -0.4600     0.1690    -0.3130 O.2   1 <1>  -0.5700 
  2 C       -1.3910     0.8480     0.0850 C.2   1 <1>   0.7150 
  3 N       -2.5630     0.1970     0.4230 N.am  1 <1>  -0.6600 
  4 C       -1.2440     2.2870     0.1710 C.2   1 <1>   0.0550 
  5 C       -2.6230    -1.2850     0.6320 C.3   1 <1>   0.1400 
  6 C       -3.9120     0.8400     0.3910 C.3   1 <1>   0.1400 
  7 O       -1.9200     2.9910     1.0720 O.3   1 <1>  -0.2800 
  8 C       -0.4700     3.1370    -0.5390 C.2   1 <1>   0.0460 
  9 C       -3.6470    -1.9360    -0.3130 C.3   1 <1>   0.3440 
 10 C       -4.8850     0.0640    -0.5270 C.3   1 <1>   0.2000 
 11 C       -1.5030     4.2170     0.8360 C.2   1 <1>   0.2980 
 12 N       -0.6510     4.3780    -0.1040 N.2   1 <1>  -0.5650 
 13 C        0.4990     2.8820    -1.6760 C.3   1 <1>  -0.0590 
 14 O       -4.8870    -1.2930    -0.1790 O.3   1 <1>  -0.5600 
 15 C       -3.8010    -3.4220     0.0010 C.ar  1 <1>  -0.1440 
 16 C       -6.3400     0.5830    -0.4480 C.3   1 <1>  -0.0800 
 17 C       -2.0610     5.3290     1.6910 C.3   1 <1>  -0.0600 
 18 C       -4.7160    -3.8730     0.9430 C.ar  1 <1>  -0.1500 
 19 C       -3.0020    -4.3460    -0.6580 C.ar  1 <1>  -0.1500 
 20 C       -7.2790    -0.2320    -1.3530 C.3   1 <1>  -0.2400 
 21 C       -6.4520     2.0680    -0.8350 C.3   1 <1>  -0.2400 
 22 C       -4.8300    -5.2240     1.2220 C.ar  1 <1>  -0.1500 
 23 C       -3.1150    -5.6980    -0.3800 C.ar  1 <1>  -0.1500 
 24 C       -4.0290    -6.1380     0.5610 C.ar  1 <1>  -0.1500 
 25 H       -1.6600    -1.7370     0.4710 H     1 <1>   0.0800 
 26 H       -2.9100    -1.4870     1.6480 H     1 <1>   0.0800 
 27 H       -4.3110     0.8750     1.3900 H     1 <1>   0.0800 
 28 H       -3.8320     1.8480     0.0280 H     1 <1>   0.0800 
 29 H       -3.3220    -1.8220    -1.3320 H     1 <1>   0.0800 
 30 H       -4.5460     0.1420    -1.5460 H     1 <1>   0.0800 
 31 H        0.4990     1.8480    -1.9670 H     1 <1>   0.0800 
 32 H        1.4910     3.1560    -1.3690 H     1 <1>   0.0800 
 33 H        0.2220     3.4800    -2.5260 H     1 <1>   0.0800 
 34 H       -6.6770     0.4770     0.5700 H     1 <1>   0.0800 
 35 H       -1.6330     6.2680     1.3930 H     1 <1>   0.0800 
 36 H       -1.8220     5.1450     2.7220 H     1 <1>   0.0800 
 37 H       -3.1270     5.3750     1.5750 H     1 <1>   0.0800 
 38 H       -5.3460    -3.1700     1.4600 H     1 <1>   0.1500 
 39 H       -2.2860    -4.0190    -1.3920 H     1 <1>   0.1500 
 40 H       -6.9640    -0.1720    -2.3800 H     1 <1>   0.0800 
 41 H       -8.2880     0.1340    -1.2790 H     1 <1>   0.0800 
 42 H       -7.2810    -1.2680    -1.0590 H     1 <1>   0.0800 
 43 H       -6.0610     2.2330    -1.8240 H     1 <1>   0.0800 
 44 H       -5.9190     2.6930    -0.1410 H     1 <1>   0.0800 
 45 H       -7.4830     2.3770    -0.8220 H     1 <1>   0.0800 
 46 H       -5.5430    -5.5630     1.9530 H     1 <1>   0.1500 
 47 H       -2.4920    -6.4070    -0.8960 H     1 <1>   0.1500 
 48 H       -4.1170    -7.1880     0.7770 H     1 <1>   0.1500 
@<TRIPOS>BOND
  1   1   2  2   
  2   2   3  am  
  3   2   4  1   
  4   3   5  1   
  5   3   6  1   
  6   4   7  1   
  7   4   8  2   
  8   5   9  1   
  9   5  25  1   
 10   5  26  1   
 11   6  10  1   
 12   6  27  1   
 13   6  28  1   
 14   7  11  1   
 15   8  12  1   
 16   8  13  1   
 17   9  14  1   
 18   9  15  1   
 19   9  29  1   
 20  10  14  1   
 21  10  16  1   
 22  10  30  1   
 23  11  12  2   
 24  11  17  1   
 25  13  31  1   
 26  13  32  1   
 27  13  33  1   
 28  15  18  ar  
 29  15  19  ar  
 30  16  20  1   
 31  16  21  1   
 32  16  34  1   
 33  17  35  1   
 34  17  36  1   
 35  17  37  1   
 36  18  22  ar  
 37  18  38  1   
 38  19  23  ar  
 39  19  39  1   
 40  20  40  1   
 41  20  41  1   
 42  20  42  1   
 43  21  43  1   
 44  21  44  1   
 45  21  45  1   
 46  22  24  ar  
 47  22  46  1   
 48  23  24  ar  
 49  23  47  1   
 50  24  48  1   
@<TRIPOS>SUBSTRUCTURE
  1 ****   3 GROUP 4 **** **** 0

# MOE 2024.06 (io_trps.svl 2023.06)
