@<TRIPOS>MOLECULE
NONAME
44 45 1 0 0 
SMALL
USER_CHARGES


@<TRIPOS>ATOM
  1 S        0.3840     0.0100    -0.6120 S.o2  1 <1>   1.3330 
  2 O        0.4410    -1.4330    -0.5510 O.2   1 <1>  -0.6500 
  3 O        0.1660     0.6620    -1.8830 O.2   1 <1>  -0.6500 
  4 N       -0.8270     0.5250     0.4600 N.am  1 <1>  -0.8490 
  5 C        1.8690     0.7330     0.0870 C.3   1 <1>  -0.0550 
  6 C       -2.1410     0.5930    -0.1870 C.3   1 <1>   0.1160 
  7 C       -0.9130    -0.2980     1.6720 C.3   1 <1>   0.1160 
  8 C        3.1520     0.4120    -0.7180 C.3   1 <1>  -0.0800 
  9 C        4.3760     1.2270    -0.3070 C.3   1 <1>   0.2200 
 10 C        3.6440    -0.9900    -0.3660 C.3   1 <1>   0.1200 
 11 N        4.0670     2.6520    -0.0060 N.am  1 <1>  -0.7300 
 12 C        4.9250     0.4340     0.8860 C.3   1 <1>   0.1200 
 13 O        4.3230    -0.8300     0.8360 O.3   1 <1>  -0.5600 
 14 C        4.9550     3.5470     0.5210 C.2   1 <1>   0.5440 
 15 O        6.0470     3.1570     0.8720 O.2   1 <1>  -0.5700 
 16 C        4.5860     4.9440     0.6610 C.ar  1 <1>   0.0860 
 17 C        5.3420     6.0150     0.1530 C.ar  1 <1>  -0.1440 
 18 C        3.4060     5.2380     1.3480 C.ar  1 <1>  -0.1500 
 19 C        4.8990     7.3200     0.3580 C.ar  1 <1>  -0.1500 
 20 C        6.6450     5.7690    -0.6320 C.3   1 <1>   1.1630 
 21 C        2.9760     6.5360     1.5370 C.ar  1 <1>  -0.1500 
 22 C        3.7260     7.5810     1.0410 C.ar  1 <1>  -0.1500 
 23 F        7.6660     5.4440     0.1470 F     1 <1>  -0.3400 
 24 F        7.0390     6.8460    -1.3030 F     1 <1>  -0.3400 
 25 F        6.5280     4.8150    -1.5480 F     1 <1>  -0.3400 
 26 H        1.7150     1.7920     0.1150 H     1 <1>   0.0800 
 27 H        1.9930     0.4020     1.1000 H     1 <1>   0.0800 
 28 H       -2.8850     0.9350     0.5120 H     1 <1>   0.0800 
 29 H       -2.4250    -0.3780    -0.5610 H     1 <1>   0.0800 
 30 H       -2.1110     1.2850    -1.0120 H     1 <1>   0.0800 
 31 H       -1.6360     0.1200     2.3520 H     1 <1>   0.0800 
 32 H        0.0410    -0.3310     2.1700 H     1 <1>   0.0800 
 33 H       -1.2070    -1.3050     1.4240 H     1 <1>   0.0800 
 34 H        2.9700     0.5010    -1.7750 H     1 <1>   0.0800 
 35 H        5.1120     1.1960    -1.0930 H     1 <1>   0.0800 
 36 H        4.3480    -1.3500    -1.0980 H     1 <1>   0.0800 
 37 H        2.8620    -1.7160    -0.2350 H     1 <1>   0.0800 
 38 H        3.2440     3.0230    -0.4820 H     1 <1>   0.3700 
 39 H        4.6600     0.8910     1.8230 H     1 <1>   0.0800 
 40 H        5.9920     0.3150     0.8190 H     1 <1>   0.0800 
 41 H        2.8190     4.4310     1.7520 H     1 <1>   0.1500 
 42 H        5.4630     8.1610    -0.0130 H     1 <1>   0.1500 
 43 H        2.0620     6.7340     2.0720 H     1 <1>   0.1500 
 44 H        3.3990     8.5980     1.1880 H     1 <1>   0.1500 
@<TRIPOS>BOND
  1   1   2  2   
  2   1   3  2   
  3   1   4  am  
  4   1   5  1   
  5   4   6  1   
  6   4   7  1   
  7   5   8  1   
  8   5  26  1   
  9   5  27  1   
 10   6  28  1   
 11   6  29  1   
 12   6  30  1   
 13   7  31  1   
 14   7  32  1   
 15   7  33  1   
 16   8   9  1   
 17   8  10  1   
 18   8  34  1   
 19   9  11  1   
 20   9  12  1   
 21   9  35  1   
 22  10  13  1   
 23  10  36  1   
 24  10  37  1   
 25  11  14  am  
 26  11  38  1   
 27  12  13  1   
 28  12  39  1   
 29  12  40  1   
 30  14  15  2   
 31  14  16  1   
 32  16  17  ar  
 33  16  18  ar  
 34  17  19  ar  
 35  17  20  1   
 36  18  21  ar  
 37  18  41  1   
 38  19  22  ar  
 39  19  42  1   
 40  20  23  1   
 41  20  24  1   
 42  20  25  1   
 43  21  22  ar  
 44  21  43  1   
 45  22  44  1   
@<TRIPOS>SUBSTRUCTURE
  1 ****  11 GROUP 4 **** **** 0

# MOE 2024.06 (io_trps.svl 2023.06)
