@<TRIPOS>MOLECULE
NONAME
49 52 1 0 0 
SMALL
USER_CHARGES


@<TRIPOS>ATOM
  1 O        1.3670    -0.2030     1.8660 O.3   1 <1>  -0.6840 
  2 C        1.5550    -0.0490     0.4980 C.3   1 <1>   0.1930 
  3 C        2.3880    -1.2050    -0.0530 C.3   1 <1>  -0.0880 
  4 C        2.4500     1.1720     0.2780 C.3   1 <1>   0.1600 
  5 C        3.8270    -0.8150     0.2830 C.3   1 <1>   0.1600 
  6 C        2.0150    -2.6190     0.4360 C.3   1 <1>   0.0130 
  7 N        3.8510     0.6720     0.3340 N.pl3 1 <1>  -0.5960 
  8 C        2.9610    -3.6860    -0.0900 C.2   1 <1>   0.1000 
  9 C        4.9840     1.3890     0.4690 C.cat 1 <1>   1.0690 
 10 N        3.5990    -3.6000    -1.2180 N.2   1 <1>  -0.7100 
 11 C        3.2410    -4.8720     0.5790 C.2   1 <1>  -0.1570 
 12 N        6.1550     0.7870     0.6670 N.pl3 1 <1>  -0.7040 
 13 N        5.1730     2.7270     0.4560 N.pl3 1 <1>  -0.7670 
 14 N        4.2950    -4.7510    -1.3050 N.pl3 1 <1>   0.2930 
 15 C        4.0990    -5.5340    -0.2240 C.2   1 <1>  -0.3380 
 16 C        7.1460     1.7330     0.7860 C.ar  1 <1>   0.3030 
 17 C        6.5320     2.9620     0.6550 C.ar  1 <1>   0.3030 
 18 C        4.2420     3.8090     0.0300 C.3   1 <1>   0.3480 
 19 C        4.7490    -6.8910    -0.0280 C.3   1 <1>  -0.0680 
 20 C        8.5150     1.6240     0.9910 C.ar  1 <1>  -0.1170 
 21 C        7.2850     4.1300     0.7280 C.ar  1 <1>  -0.1170 
 22 C        4.2610     4.0060    -1.4980 C.3   1 <1>   0.1120 
 23 C        9.2620     2.7850     1.0630 C.ar  1 <1>  -0.1570 
 24 C        8.6490     4.0320     0.9310 C.ar  1 <1>  -0.1570 
 25 O        3.9750     2.8110    -2.1530 O.3   1 <1>  -0.6840 
 26 H        0.7110    -0.9040     2.0470 H     1 <1>   0.3940 
 27 H        0.5930     0.0530     0.0250 H     1 <1>   0.0720 
 28 H        2.2980    -1.1920    -1.1270 H     1 <1>   0.0720 
 29 H        2.2580     1.9100     1.0360 H     1 <1>   0.0720 
 30 H        2.2580     1.5800    -0.6980 H     1 <1>   0.0720 
 31 H        4.5050    -1.1910    -0.4660 H     1 <1>   0.0720 
 32 H        4.0950    -1.2080     1.2490 H     1 <1>   0.0720 
 33 H        1.0190    -2.8580     0.1080 H     1 <1>   0.0720 
 34 H        2.0330    -2.6610     1.5100 H     1 <1>   0.0720 
 35 H        2.8410    -5.1770     1.5300 H     1 <1>   0.1430 
 36 H        6.2690    -0.2210     0.7090 H     1 <1>   0.4450 
 37 H        4.8860    -4.9780    -2.1140 H     1 <1>   0.2630 
 38 H        3.2400     3.6080     0.3530 H     1 <1>   0.0720 
 39 H        4.5330     4.7310     0.5020 H     1 <1>   0.0720 
 40 H        4.4340    -7.3200     0.9070 H     1 <1>   0.0720 
 41 H        5.8200    -6.7950    -0.0170 H     1 <1>   0.0720 
 42 H        4.4640    -7.5570    -0.8220 H     1 <1>   0.0720 
 43 H        8.9770     0.6580     1.0910 H     1 <1>   0.1430 
 44 H        6.8190     5.0930     0.6290 H     1 <1>   0.1430 
 45 H        5.2310     4.3430    -1.8190 H     1 <1>   0.0720 
 46 H        3.5230     4.7330    -1.7880 H     1 <1>   0.0720 
 47 H       10.3280     2.7340     1.2210 H     1 <1>   0.1430 
 48 H        9.2530     4.9230     0.9910 H     1 <1>   0.1430 
 49 H        4.0120     2.9270    -3.1270 H     1 <1>   0.3940 
@<TRIPOS>BOND
  1   1   2  1   
  2   1  26  1   
  3   2   3  1   
  4   2   4  1   
  5   2  27  1   
  6   3   5  1   
  7   3   6  1   
  8   3  28  1   
  9   4   7  1   
 10   4  29  1   
 11   4  30  1   
 12   5   7  1   
 13   5  31  1   
 14   5  32  1   
 15   6   8  1   
 16   6  33  1   
 17   6  34  1   
 18   7   9  ar  
 19   8  10  2   
 20   8  11  1   
 21   9  12  ar  
 22   9  13  ar  
 23  10  14  1   
 24  11  15  2   
 25  11  35  1   
 26  12  16  1   
 27  12  36  1   
 28  13  17  1   
 29  13  18  1   
 30  14  15  1   
 31  14  37  1   
 32  15  19  1   
 33  16  17  ar  
 34  16  20  ar  
 35  17  21  ar  
 36  18  22  1   
 37  18  38  1   
 38  18  39  1   
 39  19  40  1   
 40  19  41  1   
 41  19  42  1   
 42  20  23  ar  
 43  20  43  1   
 44  21  24  ar  
 45  21  44  1   
 46  22  25  1   
 47  22  45  1   
 48  22  46  1   
 49  23  24  ar  
 50  23  47  1   
 51  24  48  1   
 52  25  49  1   
@<TRIPOS>SUBSTRUCTURE
  1 ****   7 GROUP 4 **** **** 0

# MOE 2024.06 (io_trps.svl 2023.06)
