@<TRIPOS>MOLECULE
NONAME
48 50 1 0 0 
SMALL
USER_CHARGES


@<TRIPOS>ATOM
  1 F       -0.1310     0.9540     0.3780 F     1 <1>  -0.1900 
  2 C       -1.4340     1.0720     0.4070 C.ar  1 <1>   0.1900 
  3 C       -2.0870     2.2100    -0.0790 C.ar  1 <1>   0.0830 
  4 C       -2.1350     0.0110     0.9460 C.ar  1 <1>  -0.1500 
  5 O       -1.5100     3.3160    -0.6300 O.3   1 <1>  -0.3630 
  6 C       -3.4700     2.2400     0.0000 C.ar  1 <1>  -0.1500 
  7 C       -3.5150     0.0730     1.0090 C.ar  1 <1>  -0.1500 
  8 C       -0.1190     3.4380    -0.8340 C.3   1 <1>   0.0400 
  9 C       -4.2130     1.1850     0.5340 C.ar  1 <1>   0.0530 
 10 C       -5.6510     1.2670     0.6030 C.2   1 <1>   0.0870 
 11 O       -6.2130     2.4080     0.9130 O.3   1 <1>  -0.0190 
 12 C       -6.6580     0.3680     0.4170 C.2   1 <1>  -0.0860 
 13 N       -7.5160     2.3430     0.9570 N.2   1 <1>  -0.4100 
 14 C       -7.8120     1.1270     0.6610 C.2   1 <1>   0.3720 
 15 C       -6.6300    -1.0150     0.0460 C.2   1 <1>   0.7160 
 16 N       -9.1340     0.6550     0.5810 N.pl3 1 <1>  -0.8210 
 17 O       -5.6450    -1.5290    -0.4480 O.2   1 <1>  -0.5700 
 18 N       -7.7290    -1.7870     0.2330 N.am  1 <1>  -0.7300 
 19 C      -10.0850     1.2900     1.5380 C.3   1 <1>   0.1290 
 20 C       -9.6780     0.6570    -0.8090 C.3   1 <1>   0.1290 
 21 C       -8.0280    -3.0270    -0.5290 C.3   1 <1>   0.2810 
 22 C       -9.4660    -3.0440    -1.0380 C.2   1 <1>   0.5690 
 23 C       -7.9920    -4.2320     0.4220 C.3   1 <1>  -0.1600 
 24 O       -9.8680    -2.3590    -1.9510 O.2   1 <1>  -0.5700 
 25 N      -10.2230    -3.8980    -0.3050 N.am  1 <1>  -0.6600 
 26 C       -9.4540    -4.5480     0.7690 C.3   1 <1>   0.1400 
 27 C      -11.6760    -4.1450    -0.4660 C.3   1 <1>   0.0600 
 28 H       -1.6060    -0.8520     1.3100 H     1 <1>   0.1500 
 29 H       -3.9840     3.1090    -0.3690 H     1 <1>   0.1500 
 30 H       -4.0590    -0.7530     1.4310 H     1 <1>   0.1500 
 31 H        0.0680     4.3860    -1.3050 H     1 <1>   0.0800 
 32 H        0.2120     2.6410    -1.4750 H     1 <1>   0.0800 
 33 H        0.3790     3.4010     0.1190 H     1 <1>   0.0800 
 34 H       -8.5650    -1.2470     0.5090 H     1 <1>   0.3700 
 35 H       -9.6520     1.3090     2.5240 H     1 <1>   0.0800 
 36 H      -11.0020     0.7290     1.5720 H     1 <1>   0.0800 
 37 H      -10.2970     2.3010     1.2340 H     1 <1>   0.0800 
 38 H       -8.9620     0.2320    -1.4920 H     1 <1>   0.0800 
 39 H       -9.8960     1.6640    -1.1200 H     1 <1>   0.0800 
 40 H      -10.5780     0.0680    -0.8540 H     1 <1>   0.0800 
 41 H       -7.3390    -3.1500    -1.3460 H     1 <1>   0.0800 
 42 H       -7.3940    -4.0520     1.2980 H     1 <1>   0.0800 
 43 H       -7.5800    -5.0740    -0.1040 H     1 <1>   0.0800 
 44 H       -9.7250    -4.1130     1.7170 H     1 <1>   0.0800 
 45 H       -9.6340    -5.6100     0.7860 H     1 <1>   0.0800 
 46 H      -12.0580    -3.5660    -1.2900 H     1 <1>   0.0800 
 47 H      -12.1970    -3.8620     0.4310 H     1 <1>   0.0800 
 48 H      -11.8480    -5.1880    -0.6660 H     1 <1>   0.0800 
@<TRIPOS>BOND
  1   1   2  1   
  2   2   3  ar  
  3   2   4  ar  
  4   3   5  1   
  5   3   6  ar  
  6   4   7  ar  
  7   4  28  1   
  8   5   8  1   
  9   6   9  ar  
 10   6  29  1   
 11   7   9  ar  
 12   7  30  1   
 13   8  31  1   
 14   8  32  1   
 15   8  33  1   
 16   9  10  1   
 17  10  11  1   
 18  10  12  2   
 19  11  13  1   
 20  12  14  1   
 21  12  15  1   
 22  13  14  2   
 23  14  16  1   
 24  15  17  2   
 25  15  18  am  
 26  16  19  1   
 27  16  20  1   
 28  18  21  1   
 29  18  34  1   
 30  19  35  1   
 31  19  36  1   
 32  19  37  1   
 33  20  38  1   
 34  20  39  1   
 35  20  40  1   
 36  21  22  1   
 37  21  23  1   
 38  21  41  1   
 39  22  24  2   
 40  22  25  am  
 41  23  26  1   
 42  23  42  1   
 43  23  43  1   
 44  25  26  1   
 45  25  27  1   
 46  26  44  1   
 47  26  45  1   
 48  27  46  1   
 49  27  47  1   
 50  27  48  1   
@<TRIPOS>SUBSTRUCTURE
  1 ****  12 GROUP 4 **** **** 0

# MOE 2024.06 (io_trps.svl 2023.06)
