@<TRIPOS>MOLECULE
NONAME
37 39 1 0 0 
SMALL
USER_CHARGES


@<TRIPOS>ATOM
  1 O       -0.4860     0.4050    -0.5680 O.2   1 <1>  -0.5700 
  2 C       -1.4580     0.9890    -0.1280 C.2   1 <1>   0.7150 
  3 N       -2.5890     0.2650     0.1770 N.am  1 <1>  -0.6600 
  4 C       -1.4220     2.4130     0.0620 C.2   1 <1>  -0.2370 
  5 C       -3.9610     0.8020    -0.0170 C.3   1 <1>   0.1400 
  6 C       -2.6010    -1.2180     0.0850 C.3   1 <1>   0.1400 
  7 N       -2.0340     3.0490     1.1070 N.pl3 1 <1>   0.0330 
  8 C       -0.7950     3.3730    -0.6880 C.2   1 <1>  -0.1500 
  9 C       -4.7870    -0.3920    -0.4920 C.3   1 <1>   0.2000 
 10 C       -4.0770    -1.6180     0.0720 C.3   1 <1>  -0.0800 
 11 C       -1.8080     4.3790     0.9980 C.2   1 <1>  -0.3020 
 12 C       -1.0440     4.6120    -0.1020 C.2   1 <1>  -0.1500 
 13 O       -6.0900    -0.3330    -0.0240 O.3   1 <1>  -0.6800 
 14 C       -4.3590    -2.8990    -0.7260 C.3   1 <1>   0.0200 
 15 C       -3.5640    -4.0660    -0.1730 C.2   1 <1>  -0.0400 
 16 O       -3.7600    -4.4650     1.0560 O.3   1 <1>  -0.0190 
 17 C       -2.6130    -4.8420    -0.7130 C.2   1 <1>  -0.1500 
 18 N       -2.9860    -5.4630     1.3690 N.2   1 <1>  -0.4100 
 19 C       -2.2850    -5.7130     0.3220 C.2   1 <1>   0.1080 
 20 C       -1.2450    -6.8080     0.2370 C.3   1 <1>  -0.0590 
 21 H       -4.3330     1.1700     0.9220 H     1 <1>   0.0800 
 22 H       -3.9660     1.5870    -0.7550 H     1 <1>   0.0800 
 23 H       -2.1160    -1.5210    -0.8290 H     1 <1>   0.0800 
 24 H       -2.0810    -1.6560     0.9210 H     1 <1>   0.0800 
 25 H       -2.5530     2.5760     1.8550 H     1 <1>   0.2700 
 26 H       -0.2070     3.2090    -1.5760 H     1 <1>   0.1500 
 27 H       -4.8130    -0.4090    -1.5690 H     1 <1>   0.0800 
 28 H       -4.3740    -1.7650     1.0970 H     1 <1>   0.0800 
 29 H       -2.1910     5.0950     1.7050 H     1 <1>   0.1500 
 30 H       -0.6850     5.5590    -0.4680 H     1 <1>   0.1500 
 31 H       -6.1140    -0.4400     0.9470 H     1 <1>   0.4000 
 32 H       -4.1010    -2.7540    -1.7600 H     1 <1>   0.0800 
 33 H       -5.4090    -3.1340    -0.6740 H     1 <1>   0.0800 
 34 H       -2.1810    -4.8250    -1.6960 H     1 <1>   0.1500 
 35 H       -1.5030    -7.4970    -0.5460 H     1 <1>   0.0800 
 36 H       -1.1970    -7.3420     1.1690 H     1 <1>   0.0800 
 37 H       -0.2810    -6.3800     0.0310 H     1 <1>   0.0800 
@<TRIPOS>BOND
  1   1   2  2   
  2   2   3  am  
  3   2   4  1   
  4   3   5  1   
  5   3   6  1   
  6   4   7  1   
  7   4   8  2   
  8   5   9  1   
  9   5  21  1   
 10   5  22  1   
 11   6  10  1   
 12   6  23  1   
 13   6  24  1   
 14   7  11  1   
 15   7  25  1   
 16   8  12  1   
 17   8  26  1   
 18   9  10  1   
 19   9  13  1   
 20   9  27  1   
 21  10  14  1   
 22  10  28  1   
 23  11  12  2   
 24  11  29  1   
 25  12  30  1   
 26  13  31  1   
 27  14  15  1   
 28  14  32  1   
 29  14  33  1   
 30  15  16  1   
 31  15  17  2   
 32  16  18  1   
 33  17  19  1   
 34  17  34  1   
 35  18  19  2   
 36  19  20  1   
 37  20  35  1   
 38  20  36  1   
 39  20  37  1   
@<TRIPOS>SUBSTRUCTURE
  1 ****   6 GROUP 4 **** **** 0

# MOE 2024.06 (io_trps.svl 2023.06)
