@<TRIPOS>MOLECULE
NONAME
42 44 1 0 0 
SMALL
USER_CHARGES


@<TRIPOS>ATOM
  1 S        0.3890     0.7550     0.4690 S.3   1 <1>  -0.0800 
  2 C        1.7900     1.2650    -0.4360 C.2   1 <1>  -0.1400 
  3 C        1.0170    -0.8760     0.4740 C.2   1 <1>   0.2280 
  4 C        2.5760     0.1930    -0.6470 C.2   1 <1>   0.0460 
  5 C        1.8680     2.7320    -0.8030 C.3   1 <1>   0.0200 
  6 N        2.1320    -1.0070    -0.1230 N.2   1 <1>  -0.5650 
  7 C        3.8930     0.1290    -1.3920 C.3   1 <1>  -0.0590 
  8 C        1.9650     3.5650     0.4800 C.3   1 <1>   0.3430 
  9 N        2.0870     5.0350     0.2110 N.4   1 <1>  -0.9590 
 10 C        2.4640     5.7670     1.4580 C.3   1 <1>   0.4810 
 11 C        0.8400     5.6130    -0.3910 C.3   1 <1>   0.2630 
 12 C        2.9350     7.1690     1.0810 C.2   1 <1>  -0.0380 
 13 N        4.1320     7.3080     0.4010 N.pl3 1 <1>  -0.5840 
 14 C        2.2060     8.2800     1.3800 C.2   1 <1>  -0.1360 
 15 C        4.5700     8.5860     0.0120 C.2   1 <1>  -0.0680 
 16 C        2.6120     9.5970     1.0100 C.2   1 <1>   0.5650 
 17 N        3.8390     9.7150     0.3040 N.pl3 1 <1>   0.5610 
 18 C        5.6760     8.9840    -0.6560 C.2   1 <1>  -0.1500 
 19 O        1.8990    10.5490     1.2900 O.2   1 <1>  -0.5700 
 20 N        4.4860    10.8180    -0.1920 N.2   1 <1>  -0.7070 
 21 C        5.5630    10.3670    -0.7490 C.2   1 <1>   0.1080 
 22 C        6.5630    11.2810    -1.4190 C.3   1 <1>  -0.0590 
 23 H        0.4320    -1.6310     0.9700 H     1 <1>   0.1500 
 24 H        0.9850     2.9860    -1.3610 H     1 <1>   0.0800 
 25 H        2.7320     2.9030    -1.4190 H     1 <1>   0.0800 
 26 H        4.1740     1.0880    -1.7800 H     1 <1>   0.0800 
 27 H        3.8060    -0.5630    -2.2110 H     1 <1>   0.0800 
 28 H        4.6640    -0.2220    -0.7310 H     1 <1>   0.0800 
 29 H        2.8270     3.2250     1.0320 H     1 <1>   0.0800 
 30 H        1.0940     3.3770     1.0870 H     1 <1>   0.0800 
 31 H        2.8580     5.1990    -0.4530 H     1 <1>   0.4500 
 32 H        3.2630     5.2540     1.9690 H     1 <1>   0.0800 
 33 H        1.6180     5.8260     2.1240 H     1 <1>   0.0800 
 34 H        0.0020     5.4810     0.2750 H     1 <1>   0.0800 
 35 H        0.6130     5.1320    -1.3290 H     1 <1>   0.0800 
 36 H        0.9670     6.6680    -0.5790 H     1 <1>   0.0800 
 37 H        4.8040     6.5380     0.2640 H     1 <1>   0.4000 
 38 H        1.2740     8.2330     1.9140 H     1 <1>   0.1500 
 39 H        6.4840     8.3920    -1.0450 H     1 <1>   0.1500 
 40 H        7.3870    10.7180    -1.8150 H     1 <1>   0.0800 
 41 H        6.9330    11.9920    -0.7030 H     1 <1>   0.0800 
 42 H        6.0830    11.8140    -2.2190 H     1 <1>   0.0800 
@<TRIPOS>BOND
  1   1   2  1   
  2   1   3  1   
  3   2   4  2   
  4   2   5  1   
  5   3   6  2   
  6   3  23  1   
  7   4   6  1   
  8   4   7  1   
  9   5   8  1   
 10   5  24  1   
 11   5  25  1   
 12   7  26  1   
 13   7  27  1   
 14   7  28  1   
 15   8   9  1   
 16   8  29  1   
 17   8  30  1   
 18   9  10  1   
 19   9  11  1   
 20   9  31  1   
 21  10  12  1   
 22  10  32  1   
 23  10  33  1   
 24  11  34  1   
 25  11  35  1   
 26  11  36  1   
 27  12  13  1   
 28  12  14  2   
 29  13  15  1   
 30  13  37  1   
 31  14  16  1   
 32  14  38  1   
 33  15  17  1   
 34  15  18  2   
 35  16  17  1   
 36  16  19  2   
 37  17  20  1   
 38  18  21  1   
 39  18  39  1   
 40  20  21  2   
 41  21  22  1   
 42  22  40  1   
 43  22  41  1   
 44  22  42  1   
@<TRIPOS>SUBSTRUCTURE
  1 ****   9 GROUP 4 **** **** 0

# MOE 2024.06 (io_trps.svl 2023.06)
