@<TRIPOS>MOLECULE
NONAME
50 52 1 0 0 
SMALL
USER_CHARGES


@<TRIPOS>ATOM
  1 F       -0.5820    -1.1910     1.1150 F     1 <1>  -0.3400 
  2 C       -0.2410    -1.7640    -0.0290 C.3   1 <1>   1.1640 
  3 F        0.9300    -1.2460    -0.3770 F     1 <1>  -0.3400 
  4 F       -1.1170    -1.3580    -0.9370 F     1 <1>  -0.3400 
  5 C       -0.1960    -3.3010     0.0840 C.ar  1 <1>  -0.1440 
  6 C        0.9430    -4.0380    -0.1660 C.ar  1 <1>  -0.1500 
  7 C       -1.3570    -3.9910     0.4560 C.ar  1 <1>  -0.1500 
  8 C        0.9570    -5.4370    -0.0560 C.ar  1 <1>   0.3610 
  9 C       -1.3630    -5.3570     0.5690 C.ar  1 <1>  -0.1500 
 10 N        2.1060    -6.1520    -0.3140 N.ar  1 <1>  -0.1790 
 11 C       -0.2110    -6.1270     0.3200 C.ar  1 <1>   0.0000 
 12 C        2.1560    -7.4930    -0.2230 C.ar  1 <1>   0.2180 
 13 C       -0.1740    -7.5530     0.4240 C.ar  1 <1>   0.1000 
 14 C        1.0340    -8.1930     0.1410 C.ar  1 <1>  -0.1500 
 15 C        3.4720    -8.1910    -0.5280 C.3   1 <1>  -0.0970 
 16 N       -1.2740    -8.2450     0.7890 N.pl3 1 <1>  -0.8690 
 17 C       -1.4680    -9.7140     0.8840 C.3   1 <1>   0.2090 
 18 C       -2.9630   -10.0420     0.8020 C.3   1 <1>  -0.0800 
 19 C       -3.2330   -11.5570     0.8640 C.3   1 <1>   0.1400 
 20 C       -3.6340    -9.5490    -0.4990 C.3   1 <1>  -0.0990 
 21 N       -4.3060   -11.7680    -0.1180 N.am  1 <1>  -0.6600 
 22 C       -4.5480   -10.6780    -0.8780 C.2   1 <1>   0.5690 
 23 C       -4.9460   -13.0990    -0.2910 C.3   1 <1>   0.1400 
 24 O       -5.3770   -10.5910    -1.7490 O.2   1 <1>  -0.5700 
 25 C       -6.4200   -13.0460     0.1080 C.3   1 <1>   0.1200 
 26 O       -6.9190   -14.3480     0.1330 O.3   1 <1>  -0.5600 
 27 C       -8.2840   -14.4190     0.3920 C.3   1 <1>   0.0400 
 28 H        1.8510    -3.5340    -0.4540 H     1 <1>   0.1500 
 29 H       -2.2620    -3.4350     0.6560 H     1 <1>   0.1500 
 30 H       -2.2770    -5.8460     0.8560 H     1 <1>   0.1500 
 31 H        2.9420    -5.6280    -0.5820 H     1 <1>   0.4570 
 32 H        1.0840    -9.2630     0.2180 H     1 <1>   0.1500 
 33 H        3.7820    -7.9860    -1.5370 H     1 <1>   0.0800 
 34 H        3.3700    -9.2570    -0.4210 H     1 <1>   0.0800 
 35 H        4.2390    -7.8600     0.1500 H     1 <1>   0.0800 
 36 H       -2.1300    -7.7350     1.0380 H     1 <1>   0.4000 
 37 H       -1.0680   -10.0670     1.8200 H     1 <1>   0.0800 
 38 H       -0.9490   -10.2040     0.0770 H     1 <1>   0.0800 
 39 H       -3.4640    -9.5970     1.6440 H     1 <1>   0.0800 
 40 H       -3.5530   -11.8600     1.8470 H     1 <1>   0.0800 
 41 H       -2.3690   -12.1290     0.5680 H     1 <1>   0.0800 
 42 H       -2.9220    -9.4070    -1.2910 H     1 <1>   0.0800 
 43 H       -4.1960    -8.6460    -0.3450 H     1 <1>   0.0800 
 44 H       -4.4370   -13.8250     0.3180 H     1 <1>   0.0800 
 45 H       -4.8710   -13.3930    -1.3230 H     1 <1>   0.0800 
 46 H       -6.9760   -12.4700    -0.6130 H     1 <1>   0.0800 
 47 H       -6.5280   -12.6220     1.0910 H     1 <1>   0.0800 
 48 H       -8.5690   -15.4560     0.3980 H     1 <1>   0.0800 
 49 H       -8.8200   -13.9000    -0.3830 H     1 <1>   0.0800 
 50 H       -8.4870   -13.9810     1.3540 H     1 <1>   0.0800 
@<TRIPOS>BOND
  1   1   2  1   
  2   2   3  1   
  3   2   4  1   
  4   2   5  1   
  5   5   6  ar  
  6   5   7  ar  
  7   6   8  ar  
  8   6  28  1   
  9   7   9  ar  
 10   7  29  1   
 11   8  10  ar  
 12   8  11  ar  
 13   9  11  ar  
 14   9  30  1   
 15  10  12  ar  
 16  10  31  1   
 17  11  13  ar  
 18  12  14  ar  
 19  12  15  1   
 20  13  14  ar  
 21  13  16  1   
 22  14  32  1   
 23  15  33  1   
 24  15  34  1   
 25  15  35  1   
 26  16  17  1   
 27  16  36  1   
 28  17  18  1   
 29  17  37  1   
 30  17  38  1   
 31  18  19  1   
 32  18  20  1   
 33  18  39  1   
 34  19  21  1   
 35  19  40  1   
 36  19  41  1   
 37  20  22  1   
 38  20  42  1   
 39  20  43  1   
 40  21  22  am  
 41  21  23  1   
 42  22  24  2   
 43  23  25  1   
 44  23  44  1   
 45  23  45  1   
 46  25  26  1   
 47  25  46  1   
 48  25  47  1   
 49  26  27  1   
 50  27  48  1   
 51  27  49  1   
 52  27  50  1   
@<TRIPOS>SUBSTRUCTURE
  1 ****  16 GROUP 4 **** **** 0

# MOE 2024.06 (io_trps.svl 2023.06)
