@<TRIPOS>MOLECULE
NONAME
52 55 1 0 0 
SMALL
USER_CHARGES


@<TRIPOS>ATOM
  1 O       -1.4230     0.1540     2.9080 O.2   1 <1>  -0.5700 
  2 C       -1.8350     0.7990     1.9720 C.2   1 <1>   0.5690 
  3 N       -2.5360     0.1980     0.9580 N.am  1 <1>  -0.6600 
  4 C       -1.5850     2.3050     1.9760 C.3   1 <1>   0.1810 
  5 C       -3.0460     0.8580    -0.2710 C.3   1 <1>   0.1400 
  6 C       -2.7400    -1.2680     0.8810 C.3   1 <1>   0.1400 
  7 O       -0.9540     2.7320     0.7770 O.3   1 <1>  -0.3620 
  8 C       -3.9500    -0.1910    -0.9140 C.3   1 <1>   0.2000 
  9 C       -3.2880    -1.5220    -0.5310 C.3   1 <1>  -0.0800 
 10 C       -0.7140     4.0460     0.5280 C.ar  1 <1>   0.0820 
 11 O       -5.2010    -0.1030    -0.3190 O.3   1 <1>  -0.6800 
 12 C       -4.2130    -2.7530    -0.6390 C.3   1 <1>  -0.0170 
 13 C       -0.1520     4.3760    -0.7030 C.ar  1 <1>  -0.1440 
 14 C       -1.0090     5.0550     1.4430 C.ar  1 <1>  -0.1500 
 15 C       -3.5650    -4.1250    -0.4110 C.ar  1 <1>  -0.1440 
 16 C        0.1010     5.7040    -1.0070 C.ar  1 <1>  -0.1500 
 17 C        0.1910     3.2950    -1.7170 C.3   1 <1>  -0.0970 
 18 C       -0.7520     6.3770     1.1290 C.ar  1 <1>  -0.1500 
 19 C       -4.3840    -5.2770    -0.3040 C.ar  1 <1>   0.0000 
 20 C       -2.2140    -4.3180    -0.3140 C.ar  1 <1>  -0.1500 
 21 C       -0.1980     6.7030    -0.0960 C.ar  1 <1>  -0.1500 
 22 C       -3.7520    -6.5260    -0.0790 C.ar  1 <1>   0.3100 
 23 C       -5.7950    -5.2660    -0.4130 C.ar  1 <1>  -0.1500 
 24 C       -1.6910    -5.5980    -0.0950 C.ar  1 <1>   0.1600 
 25 N       -2.4080    -6.6680     0.0240 N.ar  1 <1>  -0.6200 
 26 C       -4.5430    -7.6800     0.0400 C.ar  1 <1>  -0.1500 
 27 C       -6.5370    -6.4100    -0.2940 C.ar  1 <1>  -0.1500 
 28 C       -5.9060    -7.6340    -0.0630 C.ar  1 <1>  -0.1500 
 29 H       -0.9430     2.5580     2.8000 H     1 <1>   0.0800 
 30 H       -2.5230     2.8190     2.0690 H     1 <1>   0.0800 
 31 H       -3.5770     1.7690    -0.0540 H     1 <1>   0.0800 
 32 H       -2.2150     1.0730    -0.9210 H     1 <1>   0.0800 
 33 H       -1.8130    -1.7870     1.0560 H     1 <1>   0.0800 
 34 H       -3.4540    -1.5620     1.6320 H     1 <1>   0.0800 
 35 H       -4.0650    -0.0580    -1.9760 H     1 <1>   0.0800 
 36 H       -2.4540    -1.6540    -1.1960 H     1 <1>   0.0800 
 37 H       -5.0840    -0.0730     0.6520 H     1 <1>   0.4000 
 38 H       -4.6620    -2.7560    -1.6170 H     1 <1>   0.0800 
 39 H       -5.0060    -2.6370     0.0790 H     1 <1>   0.0800 
 40 H       -1.4340     4.8390     2.4040 H     1 <1>   0.1500 
 41 H        0.5330     5.9710    -1.9550 H     1 <1>   0.1500 
 42 H        0.7190     3.7050    -2.5590 H     1 <1>   0.0800 
 43 H       -0.7110     2.8290    -2.0700 H     1 <1>   0.0800 
 44 H        0.8130     2.5470    -1.2580 H     1 <1>   0.0800 
 45 H       -0.9800     7.1550     1.8360 H     1 <1>   0.1500 
 46 H       -1.5030    -3.5200    -0.3990 H     1 <1>   0.1500 
 47 H        0.0020     7.7310    -0.3410 H     1 <1>   0.1500 
 48 H       -6.3070    -4.3410    -0.5970 H     1 <1>   0.1500 
 49 H       -0.6220    -5.6970    -0.0210 H     1 <1>   0.1500 
 50 H       -4.0340    -8.6100     0.2150 H     1 <1>   0.1500 
 51 H       -7.6100    -6.3830    -0.3780 H     1 <1>   0.1500 
 52 H       -6.5000    -8.5270     0.0300 H     1 <1>   0.1500 
@<TRIPOS>BOND
  1   1   2  2   
  2   2   3  am  
  3   2   4  1   
  4   3   5  1   
  5   3   6  1   
  6   4   7  1   
  7   4  29  1   
  8   4  30  1   
  9   5   8  1   
 10   5  31  1   
 11   5  32  1   
 12   6   9  1   
 13   6  33  1   
 14   6  34  1   
 15   7  10  1   
 16   8   9  1   
 17   8  11  1   
 18   8  35  1   
 19   9  12  1   
 20   9  36  1   
 21  10  13  ar  
 22  10  14  ar  
 23  11  37  1   
 24  12  15  1   
 25  12  38  1   
 26  12  39  1   
 27  13  16  ar  
 28  13  17  1   
 29  14  18  ar  
 30  14  40  1   
 31  15  19  ar  
 32  15  20  ar  
 33  16  21  ar  
 34  16  41  1   
 35  17  42  1   
 36  17  43  1   
 37  17  44  1   
 38  18  21  ar  
 39  18  45  1   
 40  19  22  ar  
 41  19  23  ar  
 42  20  24  ar  
 43  20  46  1   
 44  21  47  1   
 45  22  25  ar  
 46  22  26  ar  
 47  23  27  ar  
 48  23  48  1   
 49  24  25  ar  
 50  24  49  1   
 51  26  28  ar  
 52  26  50  1   
 53  27  28  ar  
 54  27  51  1   
 55  28  52  1   
@<TRIPOS>SUBSTRUCTURE
  1 ****   6 GROUP 4 **** **** 0

# MOE 2024.06 (io_trps.svl 2023.06)
