@<TRIPOS>MOLECULE
NONAME
57 61 1 0 0 
SMALL
USER_CHARGES


@<TRIPOS>ATOM
  1 N       -0.2320     0.0370    -0.5630 N.ar  1 <1>  -0.1790 
  2 C       -0.2870    -1.2750    -0.8000 C.ar  1 <1>   0.4610 
  3 C        0.9250     0.7600    -0.3440 C.ar  1 <1>   0.3610 
  4 N       -1.4860    -1.8620    -1.0200 N.pl3 1 <1>  -0.8380 
  5 C        0.9580    -1.9600    -0.8120 C.ar  1 <1>  -0.1500 
  6 C        2.1620     0.0840    -0.3650 C.ar  1 <1>   0.0000 
  7 C        0.8700     2.1400    -0.1110 C.ar  1 <1>  -0.1500 
  8 C       -1.6700    -3.2440    -1.6020 C.3   1 <1>   0.2090 
  9 C       -2.8440    -1.2720    -0.7190 C.3   1 <1>   0.2090 
 10 C        2.1450    -1.3230    -0.6070 C.ar  1 <1>  -0.1430 
 11 C        3.3300     0.8360    -0.1450 C.ar  1 <1>  -0.1500 
 12 C        2.0330     2.8360     0.0990 C.ar  1 <1>  -0.1430 
 13 C       -2.4930    -4.1450    -0.6650 C.3   1 <1>   0.1100 
 14 C       -3.6660    -2.1960     0.2030 C.3   1 <1>   0.1100 
 15 C        3.4520    -2.1080    -0.6290 C.3   1 <1>  -0.0970 
 16 C        3.2500     2.1860     0.0810 C.ar  1 <1>  -0.1430 
 17 C        2.2110     4.3120     0.3690 C.3   1 <1>  -0.0170 
 18 N       -3.8070    -3.5400    -0.3760 N.3   1 <1>  -0.8100 
 19 C        4.3830     3.1510     0.3380 C.3   1 <1>  -0.0170 
 20 C        3.6680     4.4140     0.8460 C.3   1 <1>  -0.1600 
 21 C       -4.6900    -4.4120     0.4430 C.3   1 <1>   0.2530 
 22 C       -4.9170    -5.8110    -0.1540 C.ar  1 <1>   0.1670 
 23 N       -5.6970    -5.8460    -1.2290 N.ar  1 <1>  -0.6200 
 24 C       -4.3380    -6.9480     0.4170 C.ar  1 <1>  -0.1430 
 25 C       -5.9060    -7.0340    -1.7650 C.ar  1 <1>   0.1600 
 26 C       -4.5740    -8.1790    -0.1630 C.ar  1 <1>  -0.1500 
 27 C       -3.4590    -6.8990     1.6620 C.3   1 <1>  -0.0970 
 28 C       -5.3760    -8.2140    -1.2810 C.ar  1 <1>  -0.1500 
 29 H       -1.1080     0.5410    -0.5980 H     1 <1>   0.4570 
 30 H        0.9550    -3.0180    -0.9740 H     1 <1>   0.1500 
 31 H       -0.0690     2.6610    -0.0940 H     1 <1>   0.1500 
 32 H       -0.7370    -3.7240    -1.8220 H     1 <1>   0.0800 
 33 H       -2.2030    -3.1620    -2.5350 H     1 <1>   0.0800 
 34 H       -3.3880    -1.1420    -1.6410 H     1 <1>   0.0800 
 35 H       -2.7630    -0.3130    -0.2430 H     1 <1>   0.0800 
 36 H        4.2950     0.3620    -0.1520 H     1 <1>   0.1500 
 37 H       -1.9480    -4.3070     0.2490 H     1 <1>   0.0800 
 38 H       -2.6340    -5.0950    -1.1510 H     1 <1>   0.0800 
 39 H       -4.6440    -1.7680     0.3400 H     1 <1>   0.0800 
 40 H       -3.1880    -2.2600     1.1660 H     1 <1>   0.0800 
 41 H        3.2770    -3.1530    -0.8190 H     1 <1>   0.0800 
 42 H        3.9540    -2.0210     0.3180 H     1 <1>   0.0800 
 43 H        4.0980    -1.7330    -1.4030 H     1 <1>   0.0800 
 44 H        1.5260     4.6720     1.1170 H     1 <1>   0.0800 
 45 H        2.0770     4.8660    -0.5450 H     1 <1>   0.0800 
 46 H        4.8970     3.3540    -0.5850 H     1 <1>   0.0800 
 47 H        5.0770     2.7690     1.0660 H     1 <1>   0.0800 
 48 H        3.6820     4.4090     1.9220 H     1 <1>   0.0800 
 49 H        4.1450     5.3130     0.4950 H     1 <1>   0.0800 
 50 H       -5.6550    -3.9420     0.5200 H     1 <1>   0.0800 
 51 H       -4.2940    -4.4860     1.4370 H     1 <1>   0.0800 
 52 H       -6.5350    -7.0680    -2.6380 H     1 <1>   0.1500 
 53 H       -4.1530    -9.0860     0.2350 H     1 <1>   0.1500 
 54 H       -2.6390    -6.2210     1.5180 H     1 <1>   0.0800 
 55 H       -3.0520    -7.8700     1.8840 H     1 <1>   0.0800 
 56 H       -4.0390    -6.5790     2.5090 H     1 <1>   0.0800 
 57 H       -5.5910    -9.1440    -1.7730 H     1 <1>   0.1500 
@<TRIPOS>BOND
  1   1   2  ar  
  2   1   3  ar  
  3   1  29  1   
  4   2   4  1   
  5   2   5  ar  
  6   3   6  ar  
  7   3   7  ar  
  8   4   8  1   
  9   4   9  1   
 10   5  10  ar  
 11   5  30  1   
 12   6  10  ar  
 13   6  11  ar  
 14   7  12  ar  
 15   7  31  1   
 16   8  13  1   
 17   8  32  1   
 18   8  33  1   
 19   9  14  1   
 20   9  34  1   
 21   9  35  1   
 22  10  15  1   
 23  11  16  ar  
 24  11  36  1   
 25  12  16  ar  
 26  12  17  1   
 27  13  18  1   
 28  13  37  1   
 29  13  38  1   
 30  14  18  1   
 31  14  39  1   
 32  14  40  1   
 33  15  41  1   
 34  15  42  1   
 35  15  43  1   
 36  16  19  1   
 37  17  20  1   
 38  17  44  1   
 39  17  45  1   
 40  18  21  1   
 41  19  20  1   
 42  19  46  1   
 43  19  47  1   
 44  20  48  1   
 45  20  49  1   
 46  21  22  1   
 47  21  50  1   
 48  21  51  1   
 49  22  23  ar  
 50  22  24  ar  
 51  23  25  ar  
 52  24  26  ar  
 53  24  27  1   
 54  25  28  ar  
 55  25  52  1   
 56  26  28  ar  
 57  26  53  1   
 58  27  54  1   
 59  27  55  1   
 60  27  56  1   
 61  28  57  1   
@<TRIPOS>SUBSTRUCTURE
  1 ****   4 GROUP 4 **** **** 0

# MOE 2024.06 (io_trps.svl 2023.06)
