@<TRIPOS>MOLECULE
NONAME
52 55 1 0 0 
SMALL
USER_CHARGES


@<TRIPOS>ATOM
  1 S       -0.8500     0.5840    -1.3690 S.o2  1 <1>   1.5760 
  2 O       -0.4650     0.0480    -2.6550 O.2   1 <1>  -0.6500 
  3 O       -1.7800     1.6880    -1.2790 O.2   1 <1>  -0.6500 
  4 N       -1.4160    -0.6910    -0.4180 N.am  1 <1>  -0.8490 
  5 N        0.5410     1.0090    -0.5120 N.am  1 <1>  -0.8490 
  6 C       -2.8130    -0.9970    -0.7720 C.3   1 <1>   0.1960 
  7 C       -0.5480    -1.8630    -0.5420 C.3   1 <1>   0.1960 
  8 C        1.3840     1.9020    -1.3070 C.3   1 <1>   0.1960 
  9 C        0.2110     1.6130     0.7830 C.3   1 <1>   0.1960 
 10 C       -3.4860    -2.0300     0.1500 C.3   1 <1>   0.2090 
 11 C       -0.7200    -2.7840     0.6670 C.3   1 <1>  -0.1600 
 12 C        2.7050     2.1750    -0.5790 C.3   1 <1>  -0.1600 
 13 C        1.4890     1.8630     1.5900 C.3   1 <1>  -0.1600 
 14 N       -3.0400    -3.4340    -0.1290 N.pl3 1 <1>  -0.8220 
 15 C       -1.7490    -3.8980     0.4610 C.3   1 <1>   0.2090 
 16 C        2.4670     2.7570     0.8190 C.3   1 <1>  -0.1600 
 17 C       -3.6710    -4.1520    -1.1700 C.2   1 <1>   0.2710 
 18 N       -4.3440    -3.5840    -2.1090 N.2   1 <1>  -0.3380 
 19 N       -3.6890    -5.4890    -1.3670 N.pl3 1 <1>   0.5930 
 20 N       -4.7640    -4.5600    -2.9090 N.2   1 <1>   0.0000 
 21 N       -4.3810    -5.7030    -2.4850 N.2   1 <1>  -0.4180 
 22 C       -3.1730    -6.5400    -0.5590 C.ar  1 <1>  -0.0230 
 23 C       -3.5170    -6.6360     0.7870 C.ar  1 <1>  -0.1500 
 24 C       -2.3080    -7.4880    -1.0980 C.ar  1 <1>  -0.1500 
 25 C       -2.9980    -7.6460     1.5770 C.ar  1 <1>  -0.1500 
 26 C       -1.7900    -8.4980    -0.3080 C.ar  1 <1>  -0.1500 
 27 C       -2.1330    -8.5770     1.0300 C.ar  1 <1>  -0.1500 
 28 H       -2.8740    -1.3300    -1.7950 H     1 <1>   0.0800 
 29 H       -3.3910    -0.0920    -0.6950 H     1 <1>   0.0800 
 30 H        0.4810    -1.5400    -0.5570 H     1 <1>   0.0800 
 31 H       -0.7370    -2.3840    -1.4670 H     1 <1>   0.0800 
 32 H        0.8640     2.8290    -1.4910 H     1 <1>   0.0800 
 33 H        1.6010     1.4440    -2.2580 H     1 <1>   0.0800 
 34 H       -0.4300     0.9500     1.3400 H     1 <1>   0.0800 
 35 H       -0.3160     2.5410     0.6340 H     1 <1>   0.0800 
 36 H       -4.5500    -1.9760    -0.0080 H     1 <1>   0.0800 
 37 H       -3.3030    -1.7760     1.1780 H     1 <1>   0.0800 
 38 H       -0.9560    -2.2070     1.5420 H     1 <1>   0.0800 
 39 H        0.2240    -3.2610     0.8580 H     1 <1>   0.0800 
 40 H        3.2980     2.8580    -1.1610 H     1 <1>   0.0800 
 41 H        3.2500     1.2500    -0.5010 H     1 <1>   0.0800 
 42 H        1.9510     0.9160     1.8060 H     1 <1>   0.0800 
 43 H        1.2340     2.3280     2.5260 H     1 <1>   0.0800 
 44 H       -1.9470    -4.3710     1.4080 H     1 <1>   0.0800 
 45 H       -1.3120    -4.6360    -0.1890 H     1 <1>   0.0800 
 46 H        2.0520     3.7460     0.7280 H     1 <1>   0.0800 
 47 H        3.3990     2.8310     1.3520 H     1 <1>   0.0800 
 48 H       -4.1910    -5.9150     1.2190 H     1 <1>   0.1500 
 49 H       -2.0420    -7.4370    -2.1410 H     1 <1>   0.1500 
 50 H       -3.2700    -7.7120     2.6170 H     1 <1>   0.1500 
 51 H       -1.1210    -9.2260    -0.7350 H     1 <1>   0.1500 
 52 H       -1.7300    -9.3640     1.6440 H     1 <1>   0.1500 
@<TRIPOS>BOND
  1   1   2  2   
  2   1   3  2   
  3   1   4  am  
  4   1   5  am  
  5   4   6  1   
  6   4   7  1   
  7   5   8  1   
  8   5   9  1   
  9   6  10  1   
 10   6  28  1   
 11   6  29  1   
 12   7  11  1   
 13   7  30  1   
 14   7  31  1   
 15   8  12  1   
 16   8  32  1   
 17   8  33  1   
 18   9  13  1   
 19   9  34  1   
 20   9  35  1   
 21  10  14  1   
 22  10  36  1   
 23  10  37  1   
 24  11  15  1   
 25  11  38  1   
 26  11  39  1   
 27  12  16  1   
 28  12  40  1   
 29  12  41  1   
 30  13  16  1   
 31  13  42  1   
 32  13  43  1   
 33  14  15  1   
 34  14  17  1   
 35  15  44  1   
 36  15  45  1   
 37  16  46  1   
 38  16  47  1   
 39  17  18  2   
 40  17  19  1   
 41  18  20  1   
 42  19  21  1   
 43  19  22  1   
 44  20  21  2   
 45  22  23  ar  
 46  22  24  ar  
 47  23  25  ar  
 48  23  48  1   
 49  24  26  ar  
 50  24  49  1   
 51  25  27  ar  
 52  25  50  1   
 53  26  27  ar  
 54  26  51  1   
 55  27  52  1   
@<TRIPOS>SUBSTRUCTURE
  1 ****   7 GROUP 4 **** **** 0

# MOE 2024.06 (io_trps.svl 2023.06)
