@<TRIPOS>MOLECULE
NONAME
52 54 1 0 0 
SMALL
USER_CHARGES


@<TRIPOS>ATOM
  1 O       -1.5570     1.1440     2.7210 O.2   1 <1>  -0.5700 
  2 C       -1.8640     1.5300     1.6100 C.2   1 <1>   0.5440 
  3 N       -2.7670     0.7760     0.8780 N.am  1 <1>  -0.6600 
  4 C       -1.2740     2.7630     1.1140 C.ar  1 <1>   0.0860 
  5 C       -3.5830     1.2960    -0.2700 C.3   1 <1>   0.2200 
  6 C       -2.8130    -0.7010     1.1240 C.3   1 <1>   0.0600 
  7 C       -0.4720     2.8360    -0.0350 C.ar  1 <1>  -0.1440 
  8 C       -1.5320     3.9410     1.8170 C.ar  1 <1>  -0.1500 
  9 C       -4.0870     2.7260    -0.0650 C.3   1 <1>  -0.1600 
 10 C       -4.8870     0.5160    -0.4590 C.3   1 <1>  -0.1600 
 11 C       -0.0210     4.0790    -0.4690 C.ar  1 <1>   0.0820 
 12 C       -0.0720     1.5760    -0.8060 C.3   1 <1>  -0.0970 
 13 C       -1.0640     5.1670     1.3840 C.ar  1 <1>  -0.1500 
 14 C       -5.3290     2.8730    -0.9530 C.3   1 <1>  -0.0800 
 15 C       -5.8310     1.4490    -1.2270 C.3   1 <1>  -0.0800 
 16 O        0.7170     4.1980    -1.5840 O.3   1 <1>  -0.5320 
 17 C       -0.3130     5.2360     0.2290 C.ar  1 <1>  -0.1500 
 18 C       -6.4810     3.6210    -0.2700 C.3   1 <1>  -0.1600 
 19 C       -7.2790     1.3940    -0.7240 C.3   1 <1>  -0.1600 
 20 C       -7.3550     2.5110     0.3120 C.3   1 <1>   0.4230 
 21 N       -8.7570     2.9180     0.6350 N.4   1 <1>  -0.9590 
 22 C       -9.5350     3.5070    -0.5050 C.3   1 <1>   0.2630 
 23 C       -8.7720     3.8510     1.8050 C.3   1 <1>   0.2630 
 24 H       -3.0050     1.2440    -1.1770 H     1 <1>   0.0800 
 25 H       -2.8040    -1.2360     0.1910 H     1 <1>   0.0800 
 26 H       -3.6990    -0.9530     1.6780 H     1 <1>   0.0800 
 27 H       -1.9570    -1.0170     1.6960 H     1 <1>   0.0800 
 28 H       -2.1130     3.8840     2.7220 H     1 <1>   0.1500 
 29 H       -4.3420     2.8620     0.9710 H     1 <1>   0.0800 
 30 H       -3.3490     3.4530    -0.3550 H     1 <1>   0.0800 
 31 H       -4.7250    -0.3980    -1.0030 H     1 <1>   0.0800 
 32 H       -5.3030     0.2920     0.5070 H     1 <1>   0.0800 
 33 H       -0.2500     0.6830    -0.2350 H     1 <1>   0.0800 
 34 H        0.9790     1.5950    -1.0320 H     1 <1>   0.0800 
 35 H       -0.6280     1.5120    -1.7240 H     1 <1>   0.0800 
 36 H       -1.2810     6.0610     1.9430 H     1 <1>   0.1500 
 37 H       -5.0550     3.3550    -1.8780 H     1 <1>   0.0800 
 38 H       -5.7780     1.2300    -2.2820 H     1 <1>   0.0800 
 39 H        0.9100     3.3420    -2.0020 H     1 <1>   0.4500 
 40 H        0.0560     6.1800    -0.1310 H     1 <1>   0.1500 
 41 H       -7.0080     4.1750    -1.0250 H     1 <1>   0.0800 
 42 H       -6.1260     4.2990     0.4860 H     1 <1>   0.0800 
 43 H       -7.5230     0.4350    -0.3040 H     1 <1>   0.0800 
 44 H       -7.9260     1.5940    -1.5580 H     1 <1>   0.0800 
 45 H       -6.8730     2.1520     1.2080 H     1 <1>   0.0800 
 46 H       -9.2400     2.0540     0.9230 H     1 <1>   0.4500 
 47 H       -9.0830     4.4280    -0.8350 H     1 <1>   0.0800 
 48 H      -10.5460     3.7150    -0.1960 H     1 <1>   0.0800 
 49 H       -9.5690     2.8220    -1.3360 H     1 <1>   0.0800 
 50 H       -8.2780     4.7750     1.5530 H     1 <1>   0.0800 
 51 H       -8.2640     3.4060     2.6450 H     1 <1>   0.0800 
 52 H       -9.7870     4.0710     2.0950 H     1 <1>   0.0800 
@<TRIPOS>BOND
  1   1   2  2   
  2   2   3  am  
  3   2   4  1   
  4   3   5  1   
  5   3   6  1   
  6   4   7  ar  
  7   4   8  ar  
  8   5   9  1   
  9   5  10  1   
 10   5  24  1   
 11   6  25  1   
 12   6  26  1   
 13   6  27  1   
 14   7  11  ar  
 15   7  12  1   
 16   8  13  ar  
 17   8  28  1   
 18   9  14  1   
 19   9  29  1   
 20   9  30  1   
 21  10  15  1   
 22  10  31  1   
 23  10  32  1   
 24  11  16  1   
 25  11  17  ar  
 26  12  33  1   
 27  12  34  1   
 28  12  35  1   
 29  13  17  ar  
 30  13  36  1   
 31  14  15  1   
 32  14  18  1   
 33  14  37  1   
 34  15  19  1   
 35  15  38  1   
 36  16  39  1   
 37  17  40  1   
 38  18  20  1   
 39  18  41  1   
 40  18  42  1   
 41  19  20  1   
 42  19  43  1   
 43  19  44  1   
 44  20  21  1   
 45  20  45  1   
 46  21  22  1   
 47  21  23  1   
 48  21  46  1   
 49  22  47  1   
 50  22  48  1   
 51  22  49  1   
 52  23  50  1   
 53  23  51  1   
 54  23  52  1   
@<TRIPOS>SUBSTRUCTURE
  1 ****   9 GROUP 4 **** **** 0

# MOE 2024.06 (io_trps.svl 2023.06)
