@<TRIPOS>MOLECULE
NONAME
37 39 1 0 0 
SMALL
USER_CHARGES


@<TRIPOS>ATOM
  1 O        0.4570    -0.1970     0.4590 O.3   1 <1>  -0.6800 
  2 C        1.6100    -0.3110    -0.3070 C.3   1 <1>   0.2000 
  3 C        2.4310    -1.5200     0.1320 C.3   1 <1>  -0.0800 
  4 C        2.5300     0.8880    -0.1030 C.3   1 <1>   0.2090 
  5 C        3.8830    -1.1310    -0.1660 C.3   1 <1>   0.2090 
  6 C        2.0000    -2.8180    -0.5680 C.3   1 <1>   0.0210 
  7 N        3.8990     0.3510    -0.3000 N.pl3 1 <1>  -0.8380 
  8 C        2.7910    -4.0030    -0.0570 C.2   1 <1>   0.1080 
  9 C        5.0590     1.0830    -0.0760 C.ar  1 <1>   0.4100 
 10 N        2.4930    -4.6140     1.0470 N.2   1 <1>  -0.7070 
 11 C        3.9000    -4.5600    -0.6850 C.2   1 <1>  -0.1500 
 12 N        6.1980     0.3960    -0.0570 N.ar  1 <1>  -0.6200 
 13 C        5.0210     2.4690     0.1010 C.ar  1 <1>  -0.1500 
 14 N        3.4170    -5.5870     1.1560 N.pl3 1 <1>   0.3000 
 15 C        4.2800    -5.5750     0.1180 C.2   1 <1>  -0.3320 
 16 C        7.3030     1.0910     0.1480 C.ar  1 <1>   0.1600 
 17 C        6.1780     3.1800     0.3130 C.ar  1 <1>  -0.1500 
 18 C        5.4350    -6.5460    -0.0420 C.3   1 <1>  -0.0600 
 19 C        7.3530     2.4590     0.3370 C.ar  1 <1>  -0.1500 
 20 H       -0.0020    -1.0570     0.5140 H     1 <1>   0.4000 
 21 H        1.3330    -0.3810    -1.3450 H     1 <1>   0.0800 
 22 H        2.3460    -1.6400     1.1990 H     1 <1>   0.0800 
 23 H        2.4360     1.2650     0.9010 H     1 <1>   0.0800 
 24 H        2.3170     1.6600    -0.8220 H     1 <1>   0.0800 
 25 H        4.2240    -1.5610    -1.0910 H     1 <1>   0.0800 
 26 H        4.5320    -1.4550     0.6310 H     1 <1>   0.0800 
 27 H        2.1340    -2.7310    -1.6310 H     1 <1>   0.0800 
 28 H        0.9580    -3.0040    -0.3780 H     1 <1>   0.0800 
 29 H        4.3400    -4.2300    -1.6090 H     1 <1>   0.1500 
 30 H        4.0840     2.9850     0.0690 H     1 <1>   0.1500 
 31 H        3.4310    -6.2410     1.9480 H     1 <1>   0.2700 
 32 H        8.2250     0.5350     0.1650 H     1 <1>   0.1500 
 33 H        6.1700     4.2470     0.4530 H     1 <1>   0.1500 
 34 H        5.9760    -6.3300    -0.9470 H     1 <1>   0.0800 
 35 H        5.0680    -7.5560    -0.0960 H     1 <1>   0.0800 
 36 H        6.1110    -6.4610     0.7890 H     1 <1>   0.0800 
 37 H        8.2950     2.9510     0.4980 H     1 <1>   0.1500 
@<TRIPOS>BOND
  1   1   2  1   
  2   1  20  1   
  3   2   3  1   
  4   2   4  1   
  5   2  21  1   
  6   3   5  1   
  7   3   6  1   
  8   3  22  1   
  9   4   7  1   
 10   4  23  1   
 11   4  24  1   
 12   5   7  1   
 13   5  25  1   
 14   5  26  1   
 15   6   8  1   
 16   6  27  1   
 17   6  28  1   
 18   7   9  1   
 19   8  10  2   
 20   8  11  1   
 21   9  12  ar  
 22   9  13  ar  
 23  10  14  1   
 24  11  15  2   
 25  11  29  1   
 26  12  16  ar  
 27  13  17  ar  
 28  13  30  1   
 29  14  15  1   
 30  14  31  1   
 31  15  18  1   
 32  16  19  ar  
 33  16  32  1   
 34  17  19  ar  
 35  17  33  1   
 36  18  34  1   
 37  18  35  1   
 38  18  36  1   
 39  19  37  1   
@<TRIPOS>SUBSTRUCTURE
  1 ****   5 GROUP 4 **** **** 0

# MOE 2024.06 (io_trps.svl 2023.06)
