@<TRIPOS>MOLECULE
NONAME
45 47 1 0 0 
SMALL
USER_CHARGES


@<TRIPOS>ATOM
  1 S        0.1940    -0.1510     1.6940 S.o2  1 <1>   1.4470 
  2 O       -0.4290     0.8240     2.5630 O.2   1 <1>  -0.6500 
  3 O        1.0120    -1.1930     2.2780 O.2   1 <1>  -0.6500 
  4 N        1.1910     0.6960     0.6150 N.am  1 <1>  -0.8490 
  5 C       -1.0670    -0.8770     0.6080 C.ar  1 <1>  -0.0090 
  6 C        1.9860     1.7450     1.2910 C.3   1 <1>   0.1960 
  7 C        2.0040    -0.2050    -0.2190 C.3   1 <1>   0.1960 
  8 C       -1.6020    -2.1320     0.8730 C.ar  1 <1>  -0.1500 
  9 C       -1.5370    -0.1950    -0.5090 C.ar  1 <1>  -0.1500 
 10 C        2.6820     2.7680     0.3530 C.3   1 <1>   0.2200 
 11 C        2.6610     0.4770    -1.4350 C.3   1 <1>  -0.0190 
 12 C       -2.5640    -2.6910     0.0490 C.ar  1 <1>  -0.1500 
 13 C       -2.4970    -0.7490    -1.3380 C.ar  1 <1>  -0.1500 
 14 N        2.0400     2.8600    -0.9980 N.am  1 <1>  -0.6600 
 15 C        4.1970     2.5110     0.2250 C.3   1 <1>   0.1200 
 16 C        1.9810     1.7750    -1.8310 C.2   1 <1>   0.5690 
 17 C        4.1740     0.6780    -1.2740 C.3   1 <1>   0.1200 
 18 C       -3.0150    -2.0030    -1.0650 C.ar  1 <1>  -0.1430 
 19 C        1.3210     4.1280    -1.3000 C.3   1 <1>   0.0600 
 20 O        4.5020     1.1680    -0.0110 O.3   1 <1>  -0.5600 
 21 O        1.4190     1.8120    -2.9020 O.2   1 <1>  -0.5700 
 22 C       -4.0710    -2.6120    -1.9730 C.3   1 <1>  -0.0170 
 23 C       -5.4720    -2.2030    -1.5150 C.3   1 <1>  -0.2400 
 24 H        1.3290     2.3200     1.9200 H     1 <1>   0.0800 
 25 H        2.7110     1.2860     1.9420 H     1 <1>   0.0800 
 26 H        2.7540    -0.6890     0.3870 H     1 <1>   0.0800 
 27 H        1.3620    -0.9800    -0.6020 H     1 <1>   0.0800 
 28 H       -1.2600    -2.6800     1.7350 H     1 <1>   0.1500 
 29 H       -1.1460     0.7830    -0.7370 H     1 <1>   0.1500 
 30 H        2.5910     3.7310     0.8230 H     1 <1>   0.0800 
 31 H        2.5460    -0.1930    -2.2670 H     1 <1>   0.0800 
 32 H       -2.9610    -3.6650     0.2790 H     1 <1>   0.1500 
 33 H       -2.8380    -0.1970    -2.1960 H     1 <1>   0.1500 
 34 H        4.6740     2.7710     1.1530 H     1 <1>   0.0800 
 35 H        4.6260     3.1170    -0.5540 H     1 <1>   0.0800 
 36 H        4.5640     1.3420    -2.0270 H     1 <1>   0.0800 
 37 H        4.6710    -0.2720    -1.3730 H     1 <1>   0.0800 
 38 H        2.0040     4.9580    -1.2480 H     1 <1>   0.0800 
 39 H        0.5270     4.2720    -0.5880 H     1 <1>   0.0800 
 40 H        0.8940     4.0980    -2.2880 H     1 <1>   0.0800 
 41 H       -3.9110    -2.2830    -2.9850 H     1 <1>   0.0800 
 42 H       -3.9860    -3.6850    -1.9620 H     1 <1>   0.0800 
 43 H       -5.5720    -1.1320    -1.5390 H     1 <1>   0.0800 
 44 H       -5.6470    -2.5420    -0.5100 H     1 <1>   0.0800 
 45 H       -6.2140    -2.6350    -2.1620 H     1 <1>   0.0800 
@<TRIPOS>BOND
  1   1   2  2   
  2   1   3  2   
  3   1   4  am  
  4   1   5  1   
  5   4   6  1   
  6   4   7  1   
  7   5   8  ar  
  8   5   9  ar  
  9   6  10  1   
 10   6  24  1   
 11   6  25  1   
 12   7  11  1   
 13   7  26  1   
 14   7  27  1   
 15   8  12  ar  
 16   8  28  1   
 17   9  13  ar  
 18   9  29  1   
 19  10  14  1   
 20  10  15  1   
 21  10  30  1   
 22  11  16  1   
 23  11  17  1   
 24  11  31  1   
 25  12  18  ar  
 26  12  32  1   
 27  13  18  ar  
 28  13  33  1   
 29  14  16  am  
 30  14  19  1   
 31  15  20  1   
 32  15  34  1   
 33  15  35  1   
 34  16  21  2   
 35  17  20  1   
 36  17  36  1   
 37  17  37  1   
 38  18  22  1   
 39  19  38  1   
 40  19  39  1   
 41  19  40  1   
 42  22  23  1   
 43  22  41  1   
 44  22  42  1   
 45  23  43  1   
 46  23  44  1   
 47  23  45  1   
@<TRIPOS>SUBSTRUCTURE
  1 ****   4 GROUP 4 **** **** 0

# MOE 2024.06 (io_trps.svl 2023.06)
