@<TRIPOS>MOLECULE
NONAME
40 42 1 0 0 
SMALL
USER_CHARGES


@<TRIPOS>ATOM
  1 O        0.1760    -0.1250     0.1470 O.3   1 <1>  -0.5600 
  2 C        1.3590    -0.6790    -0.3800 C.3   1 <1>   0.2000 
  3 C        0.0510     1.2600     0.0210 C.3   1 <1>   0.1200 
  4 C        2.6180    -0.0040     0.2300 C.3   1 <1>   0.5660 
  5 C        1.3640    -2.1870    -0.0840 C.3   1 <1>   0.1200 
  6 C        1.2030     1.9620     0.7600 C.3   1 <1>   0.3430 
  7 N        2.5390     1.4940     0.2630 N.4   1 <1>  -0.9590 
  8 C        3.8740    -0.3910    -0.5410 C.ar  1 <1>  -0.1440 
  9 O        1.6560    -2.4130     1.2600 O.3   1 <1>  -0.6800 
 10 C        3.6660     2.0660     1.0370 C.3   1 <1>   0.4380 
 11 C        4.8390    -1.1630     0.0890 C.ar  1 <1>  -0.1500 
 12 C        4.0800     0.0160    -1.8550 C.ar  1 <1>  -0.1500 
 13 C        3.8150     3.5310     0.6330 C.3   1 <1>  -0.1950 
 14 C        6.0000    -1.5130    -0.5770 C.ar  1 <1>  -0.1500 
 15 C        5.2420    -0.3350    -2.5190 C.ar  1 <1>  -0.1500 
 16 C        4.3490     3.9120    -0.7140 C.3   1 <1>  -0.2000 
 17 C        5.1750     4.1420     0.5180 C.3   1 <1>  -0.2000 
 18 C        6.2020    -1.0980    -1.8800 C.ar  1 <1>  -0.1500 
 19 H        1.3350    -0.5360    -1.4450 H     1 <1>   0.0800 
 20 H        0.0360     1.5180    -1.0230 H     1 <1>   0.0800 
 21 H       -0.8930     1.5410     0.4580 H     1 <1>   0.0800 
 22 H        2.7140    -0.3650     1.2410 H     1 <1>   0.0800 
 23 H        2.1150    -2.6870    -0.6720 H     1 <1>   0.0800 
 24 H        0.4000    -2.6130    -0.3080 H     1 <1>   0.0800 
 25 H        1.1090     1.7500     1.8120 H     1 <1>   0.0800 
 26 H        1.1140     3.0270     0.6260 H     1 <1>   0.0800 
 27 H        2.6720     1.8130    -0.7000 H     1 <1>   0.4500 
 28 H        1.4290    -3.3330     1.5110 H     1 <1>   0.4000 
 29 H        3.4960     1.9750     2.0980 H     1 <1>   0.0800 
 30 H        4.5800     1.5490     0.7900 H     1 <1>   0.0800 
 31 H        4.6980    -1.5050     1.1020 H     1 <1>   0.1500 
 32 H        3.3510     0.6030    -2.3850 H     1 <1>   0.1500 
 33 H        3.0670     4.1620     1.0820 H     1 <1>   0.1000 
 34 H        6.7470    -2.1130    -0.0840 H     1 <1>   0.1500 
 35 H        5.4040    -0.0210    -3.5370 H     1 <1>   0.1500 
 36 H        4.7020     3.1640    -1.4050 H     1 <1>   0.1000 
 37 H        3.9490     4.7760    -1.2190 H     1 <1>   0.1000 
 38 H        5.3250     5.1570     0.8490 H     1 <1>   0.1000 
 39 H        6.0560     3.5370     0.6570 H     1 <1>   0.1000 
 40 H        7.1070    -1.3720    -2.3980 H     1 <1>   0.1500 
@<TRIPOS>BOND
  1   1   2  1   
  2   1   3  1   
  3   2   4  1   
  4   2   5  1   
  5   2  19  1   
  6   3   6  1   
  7   3  20  1   
  8   3  21  1   
  9   4   7  1   
 10   4   8  1   
 11   4  22  1   
 12   5   9  1   
 13   5  23  1   
 14   5  24  1   
 15   6   7  1   
 16   6  25  1   
 17   6  26  1   
 18   7  10  1   
 19   7  27  1   
 20   8  11  ar  
 21   8  12  ar  
 22   9  28  1   
 23  10  13  1   
 24  10  29  1   
 25  10  30  1   
 26  11  14  ar  
 27  11  31  1   
 28  12  15  ar  
 29  12  32  1   
 30  13  16  1   
 31  13  17  1   
 32  13  33  1   
 33  14  18  ar  
 34  14  34  1   
 35  15  18  ar  
 36  15  35  1   
 37  16  17  1   
 38  16  36  1   
 39  16  37  1   
 40  17  38  1   
 41  17  39  1   
 42  18  40  1   
@<TRIPOS>SUBSTRUCTURE
  1 ****   4 GROUP 4 **** **** 0

# MOE 2024.06 (io_trps.svl 2023.06)
