@<TRIPOS>MOLECULE
NONAME
34 35 1 0 0 
SMALL
USER_CHARGES


@<TRIPOS>ATOM
  1 F       -0.2020     0.3880    -0.0460 F     1 <1>  -0.1900 
  2 C       -1.3300     0.9900    -0.3580 C.ar  1 <1>   0.1900 
  3 C       -1.3770     2.3780    -0.5120 C.ar  1 <1>   0.4100 
  4 C       -2.4770     0.2500    -0.5180 C.ar  1 <1>   0.1660 
  5 N       -2.5320     2.9600    -0.7960 N.ar  1 <1>  -0.6200 
  6 N       -0.2770     3.2180    -0.3900 N.pl3 1 <1>  -0.8380 
  7 N       -3.6250     0.8410    -0.8120 N.ar  1 <1>  -0.6200 
  8 C       -2.5060    -1.2670    -0.3690 C.3   1 <1>  -0.0170 
  9 C       -3.5750     2.1580    -0.9290 C.ar  1 <1>   0.4700 
 10 C       -0.4670     4.6500    -0.0200 C.3   1 <1>   0.3900 
 11 C        1.0280     2.8800    -1.0280 C.3   1 <1>   0.1290 
 12 C       -3.0230    -1.6850     1.0130 C.3   1 <1>  -0.2400 
 13 C        0.7480     5.1770     0.7270 C.2   1 <1>  -0.1810 
 14 C        1.5840     6.2060     0.4520 C.2   1 <1>  -0.3320 
 15 C        1.2310     4.6360     1.9130 C.2   1 <1>   0.1390 
 16 N        2.4940     6.2350     1.4500 N.pl3 1 <1>   0.3000 
 17 C        1.5910     7.1870    -0.7080 C.3   1 <1>  -0.0600 
 18 N        2.2770     5.2650     2.3550 N.2   1 <1>  -0.7070 
 19 H       -1.5230    -1.6770    -0.5210 H     1 <1>   0.0800 
 20 H       -3.1470    -1.6790    -1.1290 H     1 <1>   0.0800 
 21 H       -4.5090     2.6410    -1.1630 H     1 <1>   0.1500 
 22 H       -1.3320     4.7500     0.6130 H     1 <1>   0.0800 
 23 H       -0.6360     5.2240    -0.9120 H     1 <1>   0.0800 
 24 H        0.9250     2.0250    -1.6730 H     1 <1>   0.0800 
 25 H        1.7560     2.6610    -0.2660 H     1 <1>   0.0800 
 26 H        1.3780     3.7100    -1.6170 H     1 <1>   0.0800 
 27 H       -2.3830    -1.2920     1.7830 H     1 <1>   0.0800 
 28 H       -3.0440    -2.7570     1.0930 H     1 <1>   0.0800 
 29 H       -4.0190    -1.3060     1.1640 H     1 <1>   0.0800 
 30 H        0.7910     3.7870     2.4100 H     1 <1>   0.1500 
 31 H        3.2700     6.9010     1.5430 H     1 <1>   0.2700 
 32 H        0.7880     6.9760    -1.3910 H     1 <1>   0.0800 
 33 H        2.5200     7.1170    -1.2460 H     1 <1>   0.0800 
 34 H        1.4730     8.1920    -0.3440 H     1 <1>   0.0800 
@<TRIPOS>BOND
  1   1   2  1   
  2   2   3  ar  
  3   2   4  ar  
  4   3   5  ar  
  5   3   6  1   
  6   4   7  ar  
  7   4   8  1   
  8   5   9  ar  
  9   6  10  1   
 10   6  11  1   
 11   7   9  ar  
 12   8  12  1   
 13   8  19  1   
 14   8  20  1   
 15   9  21  1   
 16  10  13  1   
 17  10  22  1   
 18  10  23  1   
 19  11  24  1   
 20  11  25  1   
 21  11  26  1   
 22  12  27  1   
 23  12  28  1   
 24  12  29  1   
 25  13  14  2   
 26  13  15  1   
 27  14  16  1   
 28  14  17  1   
 29  15  18  2   
 30  15  30  1   
 31  16  18  1   
 32  16  31  1   
 33  17  32  1   
 34  17  33  1   
 35  17  34  1   
@<TRIPOS>SUBSTRUCTURE
  1 ****   6 GROUP 4 **** **** 0

# MOE 2024.06 (io_trps.svl 2023.06)
