@<TRIPOS>MOLECULE
NONAME
47 49 1 0 0 
SMALL
USER_CHARGES


@<TRIPOS>ATOM
  1 O       -1.0450     0.3530    -2.5180 O.2   1 <1>  -0.5700 
  2 C       -1.5170     1.0740    -1.6700 C.2   1 <1>   0.5690 
  3 N       -2.4150     0.5910    -0.7530 N.am  1 <1>  -0.6600 
  4 C       -1.1170     2.5480    -1.6880 C.3   1 <1>   0.1810 
  5 C       -3.0620     1.3630     0.3380 C.3   1 <1>   0.1400 
  6 C       -2.7880    -0.8400    -0.6790 C.3   1 <1>   0.1400 
  7 O       -0.6280     2.9740    -0.4240 O.3   1 <1>  -0.3630 
  8 C       -4.0060     0.3690     1.0130 C.3   1 <1>   0.2000 
  9 C       -3.4380    -1.0140     0.6950 C.3   1 <1>  -0.0800 
 10 C       -0.3630     4.2800    -0.1800 C.ar  1 <1>   0.0820 
 11 O       -4.0560     0.5600     2.3840 O.3   1 <1>  -0.6800 
 12 C       -4.4990    -2.1230     0.7430 C.3   1 <1>  -0.0170 
 13 C       -0.1000     4.6280     1.1340 C.ar  1 <1>  -0.1500 
 14 C       -0.3470     5.2640    -1.1660 C.ar  1 <1>  -0.1500 
 15 C       -3.8900    -3.4770     0.4130 C.ar  1 <1>  -0.1440 
 16 C        0.1680     5.9400     1.4810 C.ar  1 <1>   0.0820 
 17 C       -0.0780     6.5780    -0.8250 C.ar  1 <1>  -0.1500 
 18 C       -3.2190    -4.2180     1.3640 C.ar  1 <1>  -0.1500 
 19 C       -3.9720    -4.0340    -0.8470 C.ar  1 <1>  -0.1500 
 20 O        0.4080     6.1890     2.7930 O.3   1 <1>  -0.3620 
 21 C        0.1780     6.9210     0.4920 C.ar  1 <1>  -0.1500 
 22 C       -2.6750    -5.4440     1.0190 C.ar  1 <1>   0.1600 
 23 C       -3.3920    -5.2690    -1.0880 C.ar  1 <1>   0.1600 
 24 C        0.6920     7.4920     3.2530 C.3   1 <1>   0.0400 
 25 N       -2.7440    -5.9870    -0.1850 N.ar  1 <1>  -0.6200 
 26 H       -1.9740     3.1430    -1.9410 H     1 <1>   0.0800 
 27 H       -0.3390     2.6970    -2.4140 H     1 <1>   0.0800 
 28 H       -2.3090     1.7020     1.0290 H     1 <1>   0.0800 
 29 H       -3.6060     2.2010    -0.0610 H     1 <1>   0.0800 
 30 H       -3.4860    -1.0570    -1.4690 H     1 <1>   0.0800 
 31 H       -1.9210    -1.4710    -0.7880 H     1 <1>   0.0800 
 32 H       -5.0010     0.4840     0.6170 H     1 <1>   0.0800 
 33 H       -2.6490    -1.2430     1.3900 H     1 <1>   0.0800 
 34 H       -3.1630     0.4810     2.7720 H     1 <1>   0.4000 
 35 H       -5.2930    -1.9040     0.0500 H     1 <1>   0.0800 
 36 H       -4.9320    -2.1590     1.7280 H     1 <1>   0.0800 
 37 H       -0.1040     3.8710     1.8960 H     1 <1>   0.1500 
 38 H       -0.5350     5.0290    -2.1960 H     1 <1>   0.1500 
 39 H       -0.0660     7.3380    -1.5870 H     1 <1>   0.1500 
 40 H       -3.1130    -3.8540     2.3700 H     1 <1>   0.1500 
 41 H       -4.4800    -3.5240    -1.6450 H     1 <1>   0.1500 
 42 H        0.3830     7.9480     0.7270 H     1 <1>   0.1500 
 43 H       -2.1540    -6.0080     1.7740 H     1 <1>   0.1500 
 44 H       -3.4640    -5.6870    -2.0780 H     1 <1>   0.1500 
 45 H        0.8450     7.4440     4.3160 H     1 <1>   0.0800 
 46 H       -0.1460     8.1300     3.0330 H     1 <1>   0.0800 
 47 H        1.5850     7.8460     2.7700 H     1 <1>   0.0800 
@<TRIPOS>BOND
  1   1   2  2   
  2   2   3  am  
  3   2   4  1   
  4   3   5  1   
  5   3   6  1   
  6   4   7  1   
  7   4  26  1   
  8   4  27  1   
  9   5   8  1   
 10   5  28  1   
 11   5  29  1   
 12   6   9  1   
 13   6  30  1   
 14   6  31  1   
 15   7  10  1   
 16   8   9  1   
 17   8  11  1   
 18   8  32  1   
 19   9  12  1   
 20   9  33  1   
 21  10  13  ar  
 22  10  14  ar  
 23  11  34  1   
 24  12  15  1   
 25  12  35  1   
 26  12  36  1   
 27  13  16  ar  
 28  13  37  1   
 29  14  17  ar  
 30  14  38  1   
 31  15  18  ar  
 32  15  19  ar  
 33  16  20  1   
 34  16  21  ar  
 35  17  21  ar  
 36  17  39  1   
 37  18  22  ar  
 38  18  40  1   
 39  19  23  ar  
 40  19  41  1   
 41  20  24  1   
 42  21  42  1   
 43  22  25  ar  
 44  22  43  1   
 45  23  25  ar  
 46  23  44  1   
 47  24  45  1   
 48  24  46  1   
 49  24  47  1   
@<TRIPOS>SUBSTRUCTURE
  1 ****   3 GROUP 4 **** **** 0

# MOE 2024.06 (io_trps.svl 2023.06)
