@<TRIPOS>MOLECULE
NONAME
51 53 1 0 0 
SMALL
USER_CHARGES


@<TRIPOS>ATOM
  1 F        0.0410    -1.2550     0.9030 F     1 <1>  -0.1900 
  2 C       -1.2230    -1.5910     0.8970 C.ar  1 <1>   0.1900 
  3 C       -1.6370    -2.7110     0.1860 C.ar  1 <1>  -0.1440 
  4 C       -2.0890    -0.7900     1.6140 C.ar  1 <1>  -0.1500 
  5 C       -2.9980    -3.0300     0.2010 C.ar  1 <1>   0.1170 
  6 C       -0.6290    -3.5660    -0.5860 C.3   1 <1>  -0.0960 
  7 C       -3.4320    -1.1120     1.6230 C.ar  1 <1>  -0.1500 
  8 N       -3.4580    -4.1430    -0.5270 N.am  1 <1>  -0.5470 
  9 C       -3.8760    -2.2180     0.9210 C.ar  1 <1>  -0.1500 
 10 C       -4.5350    -4.9610    -0.2910 C.2   1 <1>   0.5690 
 11 O       -5.2800    -4.8370     0.6520 O.2   1 <1>  -0.5700 
 12 C       -4.8420    -6.1320    -1.2340 C.3   1 <1>   0.4040 
 13 N       -5.5560    -7.2530    -0.5220 N.4   1 <1>  -0.8520 
 14 C       -4.6230    -8.1450     0.2010 C.3   1 <1>   0.2960 
 15 C       -6.5110    -7.9610    -1.4110 C.3   1 <1>   0.5240 
 16 C       -3.7390    -9.1350     0.8870 C.3   1 <1>  -0.2000 
 17 C       -5.2120    -9.1720     1.1140 C.3   1 <1>  -0.2000 
 18 C       -7.7430    -8.3270    -0.6160 C.2   1 <1>  -0.1810 
 19 C       -8.5690    -7.4570     0.0950 C.2   1 <1>   0.1080 
 20 C       -8.2980    -9.5490    -0.4390 C.2   1 <1>  -0.3320 
 21 N       -9.5330    -8.0830     0.6810 N.2   1 <1>  -0.7070 
 22 C       -8.4520    -5.9520     0.2290 C.3   1 <1>  -0.0590 
 23 N       -9.3780    -9.3730     0.3550 N.pl3 1 <1>   0.3140 
 24 C       -7.8800   -10.9090    -0.9840 C.3   1 <1>  -0.0600 
 25 C      -10.3220   -10.3910     0.8360 C.3   1 <1>   0.0160 
 26 H       -1.7170     0.0650     2.1500 H     1 <1>   0.1500 
 27 H        0.3850    -3.2940    -0.3510 H     1 <1>   0.0800 
 28 H       -0.7690    -3.4350    -1.6440 H     1 <1>   0.0800 
 29 H       -0.7470    -4.6040    -0.3330 H     1 <1>   0.0800 
 30 H       -4.1290    -0.5020     2.1740 H     1 <1>   0.1500 
 31 H       -2.8450    -4.3700    -1.3090 H     1 <1>   0.3700 
 32 H       -4.9280    -2.4390     0.9370 H     1 <1>   0.1500 
 33 H       -3.9290    -6.4970    -1.6710 H     1 <1>   0.0800 
 34 H       -5.4680    -5.7500    -2.0220 H     1 <1>   0.0800 
 35 H       -6.1390    -6.8010     0.2070 H     1 <1>   0.4500 
 36 H       -4.0700    -7.3180     0.6200 H     1 <1>   0.1000 
 37 H       -6.0540    -8.8460    -1.8200 H     1 <1>   0.0800 
 38 H       -6.8120    -7.3210    -2.2230 H     1 <1>   0.0800 
 39 H       -3.1080    -8.8080     1.6970 H     1 <1>   0.1000 
 40 H       -3.2830    -9.9200     0.3080 H     1 <1>   0.1000 
 41 H       -5.7470   -10.0160     0.7190 H     1 <1>   0.1000 
 42 H       -5.6130    -8.8420     2.0580 H     1 <1>   0.1000 
 43 H       -7.9720    -5.5170    -0.6260 H     1 <1>   0.0800 
 44 H       -7.9070    -5.7040     1.1220 H     1 <1>   0.0800 
 45 H       -9.4370    -5.5280     0.3120 H     1 <1>   0.0800 
 46 H       -6.9940   -10.8340    -1.5860 H     1 <1>   0.0800 
 47 H       -8.6680   -11.3190    -1.5930 H     1 <1>   0.0800 
 48 H       -7.6840   -11.5900    -0.1740 H     1 <1>   0.0800 
 49 H       -9.7900   -11.1220     1.4150 H     1 <1>   0.0800 
 50 H      -10.7970   -10.8590    -0.0050 H     1 <1>   0.0800 
 51 H      -11.0660    -9.9190     1.4510 H     1 <1>   0.0800 
@<TRIPOS>BOND
  1   1   2  1   
  2   2   3  ar  
  3   2   4  ar  
  4   3   5  ar  
  5   3   6  1   
  6   4   7  ar  
  7   4  26  1   
  8   5   8  1   
  9   5   9  ar  
 10   6  27  1   
 11   6  28  1   
 12   6  29  1   
 13   7   9  ar  
 14   7  30  1   
 15   8  10  am  
 16   8  31  1   
 17   9  32  1   
 18  10  11  2   
 19  10  12  1   
 20  12  13  1   
 21  12  33  1   
 22  12  34  1   
 23  13  14  1   
 24  13  15  1   
 25  13  35  1   
 26  14  16  1   
 27  14  17  1   
 28  14  36  1   
 29  15  18  1   
 30  15  37  1   
 31  15  38  1   
 32  16  17  1   
 33  16  39  1   
 34  16  40  1   
 35  17  41  1   
 36  17  42  1   
 37  18  19  1   
 38  18  20  2   
 39  19  21  2   
 40  19  22  1   
 41  20  23  1   
 42  20  24  1   
 43  21  23  1   
 44  22  43  1   
 45  22  44  1   
 46  22  45  1   
 47  23  25  1   
 48  24  46  1   
 49  24  47  1   
 50  24  48  1   
 51  25  49  1   
 52  25  50  1   
 53  25  51  1   
@<TRIPOS>SUBSTRUCTURE
  1 ****  11 GROUP 4 **** **** 0

# MOE 2024.06 (io_trps.svl 2023.06)
