@<TRIPOS>MOLECULE
NONAME
50 53 1 0 0 
SMALL
USER_CHARGES


@<TRIPOS>ATOM
  1 O       -1.3190    -0.5820     1.2040 O.2   1 <1>  -0.5700 
  2 C       -2.0290     0.2420     0.6590 C.2   1 <1>   0.5440 
  3 N       -1.5080     1.4900     0.3900 N.am  1 <1>  -0.6600 
  4 C       -3.3810    -0.1230     0.3030 C.ar  1 <1>   0.0860 
  5 C       -0.2390     1.9680     1.0210 C.3   1 <1>   0.1400 
  6 C       -1.9470     2.3450    -0.7550 C.3   1 <1>   0.1400 
  7 C       -3.6540    -1.3860    -0.2170 C.ar  1 <1>   0.1600 
  8 C       -4.4660     0.7330     0.4650 C.ar  1 <1>  -0.1500 
  9 C        0.8290     2.2380    -0.0490 C.3   1 <1>   0.1200 
 10 C       -0.7750     2.6070    -1.7180 C.3   1 <1>   0.1200 
 11 N       -4.8400    -1.8340    -0.5930 N.ar  1 <1>  -0.6200 
 12 C       -5.7070     0.2830     0.0860 C.ar  1 <1>  -0.1500 
 13 O        0.3340     3.1090    -1.0290 O.3   1 <1>  -0.5600 
 14 C       -5.8590    -0.9970    -0.4390 C.ar  1 <1>   0.4100 
 15 N       -7.1020    -1.4370    -0.8090 N.pl3 1 <1>  -0.8690 
 16 C       -7.3850    -2.8030    -1.3360 C.3   1 <1>   0.2090 
 17 C       -7.4200    -3.8380    -0.2060 C.3   1 <1>   0.2090 
 18 N       -7.6750    -5.2020    -0.7600 N.pl3 1 <1>  -0.8380 
 19 C       -8.4320    -6.0850    -0.0040 C.ar  1 <1>   0.1000 
 20 C       -6.4530    -5.9260    -1.2280 C.3   1 <1>   0.2090 
 21 C       -7.8550    -7.3310     0.0930 C.ar  1 <1>  -0.1430 
 22 C       -9.6480    -5.8410     0.6190 C.ar  1 <1>  -0.1500 
 23 C       -6.5580    -7.3550    -0.6700 C.3   1 <1>  -0.0170 
 24 C       -8.4530    -8.3500     0.8090 C.ar  1 <1>  -0.1500 
 25 C      -10.2600    -6.8520     1.3430 C.ar  1 <1>  -0.1500 
 26 C       -9.6640    -8.1030     1.4400 C.ar  1 <1>  -0.1500 
 27 H        0.1350     1.2440     1.7240 H     1 <1>   0.0800 
 28 H       -0.4350     2.8770     1.5610 H     1 <1>   0.0800 
 29 H       -2.3100     3.2850    -0.3770 H     1 <1>   0.0800 
 30 H       -2.7430     1.8720    -1.3010 H     1 <1>   0.0800 
 31 H       -2.8240    -2.0640    -0.3270 H     1 <1>   0.1500 
 32 H       -4.3270     1.7150     0.8830 H     1 <1>   0.1500 
 33 H        1.1310     1.3180    -0.5210 H     1 <1>   0.0800 
 34 H        1.6930     2.6990     0.3950 H     1 <1>   0.0800 
 35 H       -1.0580     3.3350    -2.4580 H     1 <1>   0.0800 
 36 H       -0.4870     1.6990    -2.2200 H     1 <1>   0.0800 
 37 H       -6.5730     0.9090     0.1910 H     1 <1>   0.1500 
 38 H       -7.9190    -0.8780    -0.5600 H     1 <1>   0.4000 
 39 H       -6.6200    -3.0770    -2.0420 H     1 <1>   0.0800 
 40 H       -8.3320    -2.8020    -1.8450 H     1 <1>   0.0800 
 41 H       -8.1970    -3.5730     0.4870 H     1 <1>   0.0800 
 42 H       -6.4820    -3.8290     0.3210 H     1 <1>   0.0800 
 43 H       -5.5590    -5.4470    -0.8680 H     1 <1>   0.0800 
 44 H       -6.4400    -5.9420    -2.3040 H     1 <1>   0.0800 
 45 H      -10.1070    -4.8760     0.5290 H     1 <1>   0.1500 
 46 H       -5.7320    -7.5700    -0.0180 H     1 <1>   0.0800 
 47 H       -6.5940    -8.0730    -1.4680 H     1 <1>   0.0800 
 48 H       -7.9890    -9.3170     0.8780 H     1 <1>   0.1500 
 49 H      -11.2010    -6.6680     1.8290 H     1 <1>   0.1500 
 50 H      -10.1440    -8.8840     2.0030 H     1 <1>   0.1500 
@<TRIPOS>BOND
  1   1   2  2   
  2   2   3  am  
  3   2   4  1   
  4   3   5  1   
  5   3   6  1   
  6   4   7  ar  
  7   4   8  ar  
  8   5   9  1   
  9   5  27  1   
 10   5  28  1   
 11   6  10  1   
 12   6  29  1   
 13   6  30  1   
 14   7  11  ar  
 15   7  31  1   
 16   8  12  ar  
 17   8  32  1   
 18   9  13  1   
 19   9  33  1   
 20   9  34  1   
 21  10  13  1   
 22  10  35  1   
 23  10  36  1   
 24  11  14  ar  
 25  12  14  ar  
 26  12  37  1   
 27  14  15  1   
 28  15  16  1   
 29  15  38  1   
 30  16  17  1   
 31  16  39  1   
 32  16  40  1   
 33  17  18  1   
 34  17  41  1   
 35  17  42  1   
 36  18  19  1   
 37  18  20  1   
 38  19  21  ar  
 39  19  22  ar  
 40  20  23  1   
 41  20  43  1   
 42  20  44  1   
 43  21  23  1   
 44  21  24  ar  
 45  22  25  ar  
 46  22  45  1   
 47  23  46  1   
 48  23  47  1   
 49  24  26  ar  
 50  24  48  1   
 51  25  26  ar  
 52  25  49  1   
 53  26  50  1   
@<TRIPOS>SUBSTRUCTURE
  1 ****  11 GROUP 4 **** **** 0

# MOE 2024.06 (io_trps.svl 2023.06)
