@<TRIPOS>MOLECULE
NONAME
46 48 1 0 0 
SMALL
USER_CHARGES


@<TRIPOS>ATOM
  1 O       -0.3490    -0.0410    -2.3850 O.2   1 <1>  -0.5700 
  2 C       -1.1220     0.6470    -1.7590 C.2   1 <1>   0.5690 
  3 N       -2.1070     0.0860    -0.9820 N.am  1 <1>  -0.6600 
  4 C       -0.9580     2.1460    -1.8920 C.3   1 <1>   0.1570 
  5 C       -2.1910    -1.3950    -0.7760 C.3   1 <1>   0.1400 
  6 C       -3.1070     0.8450    -0.1640 C.3   1 <1>   0.1400 
  7 N       -0.5320     2.7240    -0.6120 N.pl3 1 <1>   0.3140 
  8 C       -3.6440    -1.8960    -0.8540 C.3   1 <1>   0.3440 
  9 C       -4.5160     0.2170    -0.2670 C.3   1 <1>   0.2000 
 10 N       -1.2950     3.6140     0.0540 N.2   1 <1>  -0.7070 
 11 C        0.6180     2.4790     0.0500 C.2   1 <1>  -0.3020 
 12 O       -4.4580    -1.1530     0.0140 O.3   1 <1>  -0.5600 
 13 C       -3.7220    -3.3750    -0.4860 C.ar  1 <1>  -0.1440 
 14 C       -5.5620     0.8560     0.6770 C.3   1 <1>  -0.0800 
 15 C       -0.6110     3.9110     1.1170 C.2   1 <1>   0.1390 
 16 C        0.5980     3.2300     1.1710 C.2   1 <1>  -0.1500 
 17 C       -3.6470    -4.3360    -1.4840 C.ar  1 <1>  -0.1500 
 18 C       -3.8510    -3.7840     0.8350 C.ar  1 <1>  -0.1500 
 19 C       -5.7910     2.3420     0.3580 C.3   1 <1>  -0.2400 
 20 C       -5.2270     0.6960     2.1700 C.3   1 <1>  -0.2400 
 21 C       -3.7000    -5.6830    -1.1680 C.ar  1 <1>  -0.1500 
 22 C       -3.9040    -5.1300     1.1520 C.ar  1 <1>  -0.1500 
 23 C       -3.8280    -6.0810     0.1500 C.ar  1 <1>  -0.1500 
 24 H       -1.8850     2.5930    -2.1930 H     1 <1>   0.0800 
 25 H       -0.2120     2.3640    -2.6300 H     1 <1>   0.0800 
 26 H       -1.6050    -1.9150    -1.5130 H     1 <1>   0.0800 
 27 H       -1.7900    -1.6400     0.1920 H     1 <1>   0.0800 
 28 H       -2.7820     0.8480     0.8610 H     1 <1>   0.0800 
 29 H       -3.1670     1.8650    -0.4910 H     1 <1>   0.0800 
 30 H       -4.0180    -1.7610    -1.8540 H     1 <1>   0.0800 
 31 H       -4.8680     0.3250    -1.2780 H     1 <1>   0.0800 
 32 H        1.3680     1.7970    -0.3090 H     1 <1>   0.1500 
 33 H       -6.4920     0.3440     0.4940 H     1 <1>   0.0800 
 34 H       -0.9510     4.6080     1.8660 H     1 <1>   0.1500 
 35 H        1.3360     3.3050     1.9490 H     1 <1>   0.1500 
 36 H       -3.5460    -4.0430    -2.5140 H     1 <1>   0.1500 
 37 H       -3.9150    -3.0510     1.6200 H     1 <1>   0.1500 
 38 H       -4.9190     2.9300     0.5870 H     1 <1>   0.0800 
 39 H       -6.6120     2.7210     0.9420 H     1 <1>   0.0800 
 40 H       -6.0340     2.4710    -0.6820 H     1 <1>   0.0800 
 41 H       -4.3430     1.2490     2.4340 H     1 <1>   0.0800 
 42 H       -5.0690    -0.3410     2.4090 H     1 <1>   0.0800 
 43 H       -6.0420     1.0560     2.7720 H     1 <1>   0.0800 
 44 H       -3.6420    -6.4220    -1.9490 H     1 <1>   0.1500 
 45 H       -4.0070    -5.4360     2.1790 H     1 <1>   0.1500 
 46 H       -3.8700    -7.1280     0.3970 H     1 <1>   0.1500 
@<TRIPOS>BOND
  1   1   2  2   
  2   2   3  am  
  3   2   4  1   
  4   3   5  1   
  5   3   6  1   
  6   4   7  1   
  7   4  24  1   
  8   4  25  1   
  9   5   8  1   
 10   5  26  1   
 11   5  27  1   
 12   6   9  1   
 13   6  28  1   
 14   6  29  1   
 15   7  10  1   
 16   7  11  1   
 17   8  12  1   
 18   8  13  1   
 19   8  30  1   
 20   9  12  1   
 21   9  14  1   
 22   9  31  1   
 23  10  15  2   
 24  11  16  2   
 25  11  32  1   
 26  13  17  ar  
 27  13  18  ar  
 28  14  19  1   
 29  14  20  1   
 30  14  33  1   
 31  15  16  1   
 32  15  34  1   
 33  16  35  1   
 34  17  21  ar  
 35  17  36  1   
 36  18  22  ar  
 37  18  37  1   
 38  19  38  1   
 39  19  39  1   
 40  19  40  1   
 41  20  41  1   
 42  20  42  1   
 43  20  43  1   
 44  21  23  ar  
 45  21  44  1   
 46  22  23  ar  
 47  22  45  1   
 48  23  46  1   
@<TRIPOS>SUBSTRUCTURE
  1 ****   3 GROUP 4 **** **** 0

# MOE 2024.06 (io_trps.svl 2023.06)
