@<TRIPOS>MOLECULE
NONAME
60 64 1 0 0 
SMALL
USER_CHARGES


@<TRIPOS>ATOM
  1 O       -0.0050    -1.1430     0.1600 O.3   1 <1>  -0.3630 
  2 C       -0.5900    -2.3560     0.3330 C.ar  1 <1>   0.0820 
  3 C       -0.3670    -0.1060     1.0470 C.3   1 <1>   0.1200 
  4 C       -1.9220    -2.5250     0.7350 C.ar  1 <1>   0.0820 
  5 C        0.2070    -3.4660     0.1160 C.ar  1 <1>  -0.1500 
  6 C       -1.6400     0.5850     0.5530 C.3   1 <1>  -0.1600 
  7 O       -2.8020    -1.5020     0.9010 O.3   1 <1>  -0.3630 
  8 C       -2.4110    -3.7990     0.9620 C.ar  1 <1>  -0.1500 
  9 C       -0.2940    -4.7470     0.3260 C.ar  1 <1>   0.0820 
 10 C       -2.6950    -0.3930     0.0330 C.3   1 <1>   0.1200 
 11 C       -1.6070    -4.9110     0.7590 C.ar  1 <1>  -0.1440 
 12 O        0.4440    -5.8740     0.1200 O.3   1 <1>  -0.3630 
 13 C       -2.1620    -6.2980     1.0040 C.3   1 <1>   0.4860 
 14 C        1.8460    -5.7910    -0.0570 C.3   1 <1>   0.0400 
 15 N       -2.1240    -7.0370    -0.2820 N.4   1 <1>  -0.9590 
 16 C       -3.0020    -6.4550    -1.3510 C.3   1 <1>   0.3430 
 17 C       -2.4210    -8.4910    -0.1660 C.3   1 <1>   0.3430 
 18 C       -3.9280    -7.5890    -1.8080 C.3   1 <1>   0.2000 
 19 C       -3.1510    -8.8580    -1.4580 C.3   1 <1>  -0.0800 
 20 O       -5.1120    -7.5340    -1.0790 O.3   1 <1>  -0.6800 
 21 C       -3.9660   -10.1670    -1.3850 C.3   1 <1>  -0.0170 
 22 C       -3.0960   -11.2790    -0.8080 C.ar  1 <1>  -0.1440 
 23 C       -3.0490   -11.5880     0.5750 C.ar  1 <1>   0.0000 
 24 C       -2.2920   -11.9980    -1.6440 C.ar  1 <1>  -0.1500 
 25 C       -2.1200   -12.5730     0.9920 C.ar  1 <1>   0.3100 
 26 C       -3.8570   -10.9830     1.5680 C.ar  1 <1>  -0.1500 
 27 C       -1.4310   -12.9740    -1.1290 C.ar  1 <1>   0.1600 
 28 N       -1.3220   -13.2500     0.1310 N.ar  1 <1>  -0.6200 
 29 C       -2.0070   -12.8680     2.3600 C.ar  1 <1>  -0.1500 
 30 C       -3.7260   -11.2990     2.8930 C.ar  1 <1>  -0.1500 
 31 C       -2.7850   -12.2480     3.2980 C.ar  1 <1>  -0.1500 
 32 H       -0.5120    -0.5310     2.0260 H     1 <1>   0.0800 
 33 H        0.4490     0.5930     1.0900 H     1 <1>   0.0800 
 34 H        1.2150    -3.2940    -0.2100 H     1 <1>   0.1500 
 35 H       -2.0570     1.1620     1.3590 H     1 <1>   0.0800 
 36 H       -1.3870     1.2740    -0.2320 H     1 <1>   0.0800 
 37 H       -3.4310    -3.8960     1.2920 H     1 <1>   0.1500 
 38 H       -2.4370    -0.7530    -0.9490 H     1 <1>   0.0800 
 39 H       -3.6580     0.0840    -0.0150 H     1 <1>   0.0800 
 40 H       -3.1700    -6.2380     1.3780 H     1 <1>   0.0800 
 41 H       -1.5460    -6.7980     1.7350 H     1 <1>   0.0800 
 42 H        2.2440    -6.7900    -0.0940 H     1 <1>   0.0800 
 43 H        2.2750    -5.2610     0.7760 H     1 <1>   0.0800 
 44 H        2.0570    -5.2820    -0.9810 H     1 <1>   0.0800 
 45 H       -1.1410    -6.9160    -0.5870 H     1 <1>   0.4500 
 46 H       -3.5740    -5.6120    -0.9980 H     1 <1>   0.0800 
 47 H       -2.3890    -6.1380    -2.1790 H     1 <1>   0.0800 
 48 H       -1.5220    -9.0750    -0.0410 H     1 <1>   0.0800 
 49 H       -3.0720    -8.6670     0.6740 H     1 <1>   0.0800 
 50 H       -4.1770    -7.5190    -2.8540 H     1 <1>   0.0800 
 51 H       -2.3920    -8.9970    -2.2090 H     1 <1>   0.0800 
 52 H       -4.9710    -7.5920    -0.1170 H     1 <1>   0.4000 
 53 H       -4.2780   -10.4370    -2.3800 H     1 <1>   0.0800 
 54 H       -4.8670   -10.0540    -0.8130 H     1 <1>   0.0800 
 55 H       -2.2880   -11.8370    -2.7070 H     1 <1>   0.1500 
 56 H       -4.6070   -10.2690     1.2900 H     1 <1>   0.1500 
 57 H       -0.8160   -13.5230    -1.8220 H     1 <1>   0.1500 
 58 H       -1.2840   -13.6100     2.6470 H     1 <1>   0.1500 
 59 H       -4.3480   -10.8360     3.6410 H     1 <1>   0.1500 
 60 H       -2.6880   -12.4880     4.3430 H     1 <1>   0.1500 
@<TRIPOS>BOND
  1   1   2  1   
  2   1   3  1   
  3   2   4  ar  
  4   2   5  ar  
  5   3   6  1   
  6   3  32  1   
  7   3  33  1   
  8   4   7  1   
  9   4   8  ar  
 10   5   9  ar  
 11   5  34  1   
 12   6  10  1   
 13   6  35  1   
 14   6  36  1   
 15   7  10  1   
 16   8  11  ar  
 17   8  37  1   
 18   9  11  ar  
 19   9  12  1   
 20  10  38  1   
 21  10  39  1   
 22  11  13  1   
 23  12  14  1   
 24  13  15  1   
 25  13  40  1   
 26  13  41  1   
 27  14  42  1   
 28  14  43  1   
 29  14  44  1   
 30  15  16  1   
 31  15  17  1   
 32  15  45  1   
 33  16  18  1   
 34  16  46  1   
 35  16  47  1   
 36  17  19  1   
 37  17  48  1   
 38  17  49  1   
 39  18  19  1   
 40  18  20  1   
 41  18  50  1   
 42  19  21  1   
 43  19  51  1   
 44  20  52  1   
 45  21  22  1   
 46  21  53  1   
 47  21  54  1   
 48  22  23  ar  
 49  22  24  ar  
 50  23  25  ar  
 51  23  26  ar  
 52  24  27  ar  
 53  24  55  1   
 54  25  28  ar  
 55  25  29  ar  
 56  26  30  ar  
 57  26  56  1   
 58  27  28  ar  
 59  27  57  1   
 60  29  31  ar  
 61  29  58  1   
 62  30  31  ar  
 63  30  59  1   
 64  31  60  1   
@<TRIPOS>SUBSTRUCTURE
  1 ****  15 GROUP 4 **** **** 0

# MOE 2024.06 (io_trps.svl 2023.06)
