@<TRIPOS>MOLECULE
NONAME
53 55 1 0 0 
SMALL
USER_CHARGES


@<TRIPOS>ATOM
  1 O       -2.8080    -1.1800    -2.5520 O.2   1 <1>  -0.5700 
  2 C       -2.5520    -1.5560    -1.4370 C.2   1 <1>   0.5690 
  3 N       -2.4520    -0.6640    -0.4320 N.am  1 <1>  -0.8000 
  4 C       -2.3460    -3.0450    -1.1800 C.3   1 <1>   0.1810 
  5 O       -2.1490    -3.3110     0.2060 O.3   1 <1>  -0.3630 
  6 C       -2.2910    -4.5960     0.6100 C.ar  1 <1>   0.0830 
  7 C       -1.5160    -5.6470     0.1100 C.ar  1 <1>   0.0830 
  8 C       -3.2650    -4.8580     1.5590 C.ar  1 <1>  -0.1500 
  9 O       -0.5150    -5.4620    -0.7810 O.3   1 <1>  -0.3630 
 10 C       -1.7620    -6.9430     0.5270 C.ar  1 <1>  -0.1500 
 11 C       -3.5000    -6.1550     1.9810 C.ar  1 <1>  -0.1500 
 12 C        0.6300    -4.7830    -0.3080 C.3   1 <1>   0.0400 
 13 C       -2.7600    -7.2060     1.4560 C.ar  1 <1>  -0.1430 
 14 C       -3.0460    -8.6310     1.8900 C.3   1 <1>   0.4860 
 15 N       -3.6850    -9.3520     0.7580 N.4   1 <1>  -0.9590 
 16 C       -5.0210    -8.7580     0.4200 C.3   1 <1>   0.3430 
 17 C       -3.9200   -10.7860     1.1100 C.3   1 <1>   0.3430 
 18 C       -6.0660    -9.7730     0.8980 C.3   1 <1>   0.2000 
 19 C       -5.3630   -11.1120     0.7020 C.3   1 <1>  -0.0800 
 20 O       -6.2590    -9.5830     2.2620 O.3   1 <1>  -0.6800 
 21 C       -5.4930   -11.6110    -0.7540 C.3   1 <1>   0.0200 
 22 C       -4.6120   -12.8150    -1.0170 C.2   1 <1>  -0.0400 
 23 O       -3.3310   -12.6480    -1.2050 O.3   1 <1>  -0.0190 
 24 C       -4.8740   -14.1270    -1.1130 C.2   1 <1>  -0.1500 
 25 N       -2.7170   -13.7750    -1.3980 N.2   1 <1>  -0.4100 
 26 C       -3.6220   -14.6870    -1.3570 C.2   1 <1>   0.1080 
 27 C       -3.3530   -16.1630    -1.5480 C.3   1 <1>  -0.0590 
 28 H       -2.5960     0.3300    -0.6080 H     1 <1>   0.3700 
 29 H       -2.2460    -0.9500     0.5270 H     1 <1>   0.3700 
 30 H       -1.4860    -3.3800    -1.7260 H     1 <1>   0.0800 
 31 H       -3.2150    -3.5830    -1.5120 H     1 <1>   0.0800 
 32 H       -3.8410    -4.0420     1.9590 H     1 <1>   0.1500 
 33 H       -1.1560    -7.7300     0.1160 H     1 <1>   0.1500 
 34 H       -4.2660    -6.3320     2.7180 H     1 <1>   0.1500 
 35 H        1.3550    -4.7500    -1.1020 H     1 <1>   0.0800 
 36 H        1.0300    -5.3190     0.5340 H     1 <1>   0.0800 
 37 H        0.3600    -3.7830    -0.0180 H     1 <1>   0.0800 
 38 H       -3.7040    -8.6300     2.7450 H     1 <1>   0.0800 
 39 H       -2.1230    -9.1140     2.1670 H     1 <1>   0.0800 
 40 H       -3.0620    -9.2750    -0.0570 H     1 <1>   0.4500 
 41 H       -5.1780    -7.8000     0.8870 H     1 <1>   0.0800 
 42 H       -5.1010    -8.6430    -0.6480 H     1 <1>   0.0800 
 43 H       -3.1980   -11.4350     0.6440 H     1 <1>   0.0800 
 44 H       -3.8420   -10.9080     2.1780 H     1 <1>   0.0800 
 45 H       -7.0120    -9.6770     0.3910 H     1 <1>   0.0800 
 46 H       -5.7670   -11.8680     1.3520 H     1 <1>   0.0800 
 47 H       -7.0520   -10.0660     2.5820 H     1 <1>   0.4000 
 48 H       -5.2310   -10.8430    -1.4610 H     1 <1>   0.0800 
 49 H       -6.5170   -11.8890    -0.9410 H     1 <1>   0.0800 
 50 H       -5.8030   -14.6620    -1.0280 H     1 <1>   0.1500 
 51 H       -3.8940   -16.5250    -2.4020 H     1 <1>   0.0800 
 52 H       -3.6610   -16.7090    -0.6750 H     1 <1>   0.0800 
 53 H       -2.3020   -16.3280    -1.7080 H     1 <1>   0.0800 
@<TRIPOS>BOND
  1   1   2  2   
  2   2   3  am  
  3   2   4  1   
  4   3  28  1   
  5   3  29  1   
  6   4   5  1   
  7   4  30  1   
  8   4  31  1   
  9   5   6  1   
 10   6   7  ar  
 11   6   8  ar  
 12   7   9  1   
 13   7  10  ar  
 14   8  11  ar  
 15   8  32  1   
 16   9  12  1   
 17  10  13  ar  
 18  10  33  1   
 19  11  13  ar  
 20  11  34  1   
 21  12  35  1   
 22  12  36  1   
 23  12  37  1   
 24  13  14  1   
 25  14  15  1   
 26  14  38  1   
 27  14  39  1   
 28  15  16  1   
 29  15  17  1   
 30  15  40  1   
 31  16  18  1   
 32  16  41  1   
 33  16  42  1   
 34  17  19  1   
 35  17  43  1   
 36  17  44  1   
 37  18  19  1   
 38  18  20  1   
 39  18  45  1   
 40  19  21  1   
 41  19  46  1   
 42  20  47  1   
 43  21  22  1   
 44  21  48  1   
 45  21  49  1   
 46  22  23  1   
 47  22  24  2   
 48  23  25  1   
 49  24  26  1   
 50  24  50  1   
 51  25  26  2   
 52  26  27  1   
 53  27  51  1   
 54  27  52  1   
 55  27  53  1   
@<TRIPOS>SUBSTRUCTURE
  1 ****  15 GROUP 4 **** **** 0

# MOE 2024.06 (io_trps.svl 2023.06)
