@<TRIPOS>MOLECULE
NONAME
52 54 1 0 0 
SMALL
USER_CHARGES


@<TRIPOS>ATOM
  1 F       -4.1440     0.2130    -2.9990 F     1 <1>  -0.3400 
  2 C       -3.4830    -0.4000    -2.0250 C.3   1 <1>   0.8800 
  3 F       -3.3530    -1.6590    -2.4160 F     1 <1>  -0.3400 
  4 O       -4.2860    -0.3900    -0.8700 O.3   1 <1>  -0.3630 
  5 C       -4.4740     0.7170    -0.1090 C.ar  1 <1>   0.0830 
  6 C       -5.1990     0.5710     1.0830 C.ar  1 <1>   0.0860 
  7 C       -3.9650     1.9640    -0.4720 C.ar  1 <1>  -0.1500 
  8 C       -5.7820    -0.6900     1.5010 C.2   1 <1>   0.5440 
  9 C       -5.3520     1.6950     1.8960 C.ar  1 <1>  -0.1500 
 10 C       -4.1490     3.0610     0.3470 C.ar  1 <1>  -0.1500 
 11 O       -5.5470    -1.0960     2.6240 O.2   1 <1>  -0.5700 
 12 N       -6.6110    -1.4530     0.6980 N.am  1 <1>  -0.6600 
 13 C       -4.8400     2.9260     1.5370 C.ar  1 <1>  -0.1500 
 14 C       -7.4240    -0.9060    -0.4340 C.3   1 <1>   0.2200 
 15 C       -6.4780    -2.9400     0.7730 C.3   1 <1>   0.0600 
 16 C       -8.0440     0.4570    -0.1190 C.3   1 <1>  -0.1600 
 17 C       -8.6530    -1.7670    -0.7310 C.3   1 <1>  -0.1600 
 18 C       -9.2780     0.5830    -1.0210 C.3   1 <1>  -0.0800 
 19 C       -9.6540    -0.8450    -1.4370 C.3   1 <1>  -0.0800 
 20 C      -10.5020     1.1660    -0.3000 C.3   1 <1>  -0.1600 
 21 C      -11.1020    -1.0640    -0.9800 C.3   1 <1>  -0.1600 
 22 C      -11.2870    -0.0630     0.1550 C.3   1 <1>   0.4230 
 23 N      -12.7220     0.1930     0.4880 N.4   1 <1>  -0.9590 
 24 C      -13.5320     0.8220    -0.6080 C.3   1 <1>   0.2630 
 25 C      -12.8290     1.0040     1.7390 C.3   1 <1>   0.2630 
 26 H       -2.5160     0.0460    -1.8790 H     1 <1>   0.0800 
 27 H       -3.4240     2.1140    -1.3880 H     1 <1>   0.1500 
 28 H       -5.8820     1.5890     2.8270 H     1 <1>   0.1500 
 29 H       -3.7540     4.0220     0.0640 H     1 <1>   0.1500 
 30 H       -4.9760     3.7770     2.1820 H     1 <1>   0.1500 
 31 H       -6.8160    -0.8350    -1.3210 H     1 <1>   0.0800 
 32 H       -6.3360    -3.3490    -0.2120 H     1 <1>   0.0800 
 33 H       -7.3570    -3.3660     1.2210 H     1 <1>   0.0800 
 34 H       -5.6260    -3.2120     1.3730 H     1 <1>   0.0800 
 35 H       -8.3280     0.4790     0.9190 H     1 <1>   0.0800 
 36 H       -7.3580     1.2600    -0.3210 H     1 <1>   0.0800 
 37 H       -8.4010    -2.6090    -1.3510 H     1 <1>   0.0800 
 38 H       -9.0680    -2.1150     0.1990 H     1 <1>   0.0800 
 39 H       -9.0300     1.1700    -1.8910 H     1 <1>   0.0800 
 40 H       -9.5610    -0.9610    -2.5050 H     1 <1>   0.0800 
 41 H      -11.0610     1.7410    -1.0140 H     1 <1>   0.0800 
 42 H      -10.2190     1.7970     0.5230 H     1 <1>   0.0800 
 43 H      -11.2750    -2.0770    -0.6610 H     1 <1>   0.0800 
 44 H      -11.7480    -0.8350    -1.8080 H     1 <1>   0.0800 
 45 H      -10.7880    -0.4670     1.0230 H     1 <1>   0.0800 
 46 H      -13.1340    -0.7310     0.6820 H     1 <1>   0.4500 
 47 H      -13.1540     1.8040    -0.8400 H     1 <1>   0.0800 
 48 H      -14.5610     0.9170    -0.3020 H     1 <1>   0.0800 
 49 H      -13.4990     0.2190    -1.5000 H     1 <1>   0.0800 
 50 H      -12.4100     1.9860     1.5860 H     1 <1>   0.0800 
 51 H      -12.2940     0.5240     2.5440 H     1 <1>   0.0800 
 52 H      -13.8620     1.1120     2.0300 H     1 <1>   0.0800 
@<TRIPOS>BOND
  1   1   2  1   
  2   2   3  1   
  3   2   4  1   
  4   2  26  1   
  5   4   5  1   
  6   5   6  ar  
  7   5   7  ar  
  8   6   8  1   
  9   6   9  ar  
 10   7  10  ar  
 11   7  27  1   
 12   8  11  2   
 13   8  12  am  
 14   9  13  ar  
 15   9  28  1   
 16  10  13  ar  
 17  10  29  1   
 18  12  14  1   
 19  12  15  1   
 20  13  30  1   
 21  14  16  1   
 22  14  17  1   
 23  14  31  1   
 24  15  32  1   
 25  15  33  1   
 26  15  34  1   
 27  16  18  1   
 28  16  35  1   
 29  16  36  1   
 30  17  19  1   
 31  17  37  1   
 32  17  38  1   
 33  18  19  1   
 34  18  20  1   
 35  18  39  1   
 36  19  21  1   
 37  19  40  1   
 38  20  22  1   
 39  20  41  1   
 40  20  42  1   
 41  21  22  1   
 42  21  43  1   
 43  21  44  1   
 44  22  23  1   
 45  22  45  1   
 46  23  24  1   
 47  23  25  1   
 48  23  46  1   
 49  24  47  1   
 50  24  48  1   
 51  24  49  1   
 52  25  50  1   
 53  25  51  1   
 54  25  52  1   
@<TRIPOS>SUBSTRUCTURE
  1 ****  16 GROUP 4 **** **** 0

# MOE 2024.06 (io_trps.svl 2023.06)
