@<TRIPOS>MOLECULE
NONAME
44 46 1 0 0 
SMALL
USER_CHARGES


@<TRIPOS>ATOM
  1 O       -0.7170     0.3790     1.2410 O.2   1 <1>  -0.5700 
  2 C       -1.5390     1.2400     0.9690 C.2   1 <1>   0.7160 
  3 N       -2.8820     0.8940     1.0610 N.am  1 <1>  -0.6600 
  4 C       -1.0460     2.5550     0.5640 C.2   1 <1>   0.2030 
  5 C       -3.9500     1.6590     0.3530 C.3   1 <1>   0.2200 
  6 C       -3.2810    -0.3230     1.8350 C.3   1 <1>   0.0600 
  7 N       -1.6840     3.6920     0.5310 N.2   1 <1>  -0.4100 
  8 C        0.2590     2.7940     0.1540 C.2   1 <1>  -0.1500 
  9 C       -4.7740     2.5230     1.3030 C.3   1 <1>  -0.1600 
 10 C       -4.9910     0.8050    -0.3740 C.3   1 <1>  -0.1600 
 11 O       -0.8960     4.6550     0.1200 O.3   1 <1>  -0.0190 
 12 C        0.2750     4.1040    -0.1020 C.2   1 <1>  -0.0100 
 13 C       -6.0490     2.8390     0.5110 C.3   1 <1>  -0.0800 
 14 C       -6.1770     1.7600    -0.5700 C.3   1 <1>  -0.0800 
 15 C       -7.3560     2.7840     1.3150 C.3   1 <1>  -0.1600 
 16 C       -7.5690     1.1380    -0.3780 C.3   1 <1>  -0.1600 
 17 C       -8.3950     2.2040     0.3500 C.3   1 <1>   0.4230 
 18 N       -8.8730     3.2530    -0.6090 N.4   1 <1>  -0.9590 
 19 C       -9.5640     4.3930     0.0760 C.3   1 <1>   0.2630 
 20 C       -9.7920     2.7040    -1.6580 C.3   1 <1>   0.2630 
 21 H       -3.5080     2.2970    -0.3930 H     1 <1>   0.0800 
 22 H       -4.2150    -0.1610     2.3420 H     1 <1>   0.0800 
 23 H       -2.5360    -0.5600     2.5750 H     1 <1>   0.0800 
 24 H       -3.3760    -1.1620     1.1670 H     1 <1>   0.0800 
 25 H        1.0390     2.0580     0.0800 H     1 <1>   0.1500 
 26 H       -5.0030     1.9670     2.1940 H     1 <1>   0.0800 
 27 H       -4.2460     3.4210     1.5730 H     1 <1>   0.0800 
 28 H       -4.6100     0.4470    -1.3150 H     1 <1>   0.0800 
 29 H       -5.2900    -0.0300     0.2300 H     1 <1>   0.0800 
 30 H        1.0780     4.7300    -0.4460 H     1 <1>   0.1500 
 31 H       -5.9420     3.8010     0.0350 H     1 <1>   0.0800 
 32 H       -6.1040     2.2270    -1.5390 H     1 <1>   0.0800 
 33 H       -7.6120     3.7330     1.7470 H     1 <1>   0.0800 
 34 H       -7.2470     2.0840     2.1260 H     1 <1>   0.0800 
 35 H       -7.4950     0.2890     0.2800 H     1 <1>   0.0800 
 36 H       -7.9910     0.7870    -1.3000 H     1 <1>   0.0800 
 37 H       -9.2280     1.7670     0.8800 H     1 <1>   0.0800 
 38 H       -8.0280     3.6160    -1.0720 H     1 <1>   0.4500 
 39 H      -10.4010     4.0330     0.6520 H     1 <1>   0.0800 
 40 H       -9.9270     5.1010    -0.6520 H     1 <1>   0.0800 
 41 H       -8.8870     4.9110     0.7350 H     1 <1>   0.0800 
 42 H      -10.6460     2.2320    -1.1990 H     1 <1>   0.0800 
 43 H       -9.2840     1.9790    -2.2720 H     1 <1>   0.0800 
 44 H      -10.1410     3.4980    -2.2990 H     1 <1>   0.0800 
@<TRIPOS>BOND
  1   1   2  2   
  2   2   3  am  
  3   2   4  1   
  4   3   5  1   
  5   3   6  1   
  6   4   7  2   
  7   4   8  1   
  8   5   9  1   
  9   5  10  1   
 10   5  21  1   
 11   6  22  1   
 12   6  23  1   
 13   6  24  1   
 14   7  11  1   
 15   8  12  2   
 16   8  25  1   
 17   9  13  1   
 18   9  26  1   
 19   9  27  1   
 20  10  14  1   
 21  10  28  1   
 22  10  29  1   
 23  11  12  1   
 24  12  30  1   
 25  13  14  1   
 26  13  15  1   
 27  13  31  1   
 28  14  16  1   
 29  14  32  1   
 30  15  17  1   
 31  15  33  1   
 32  15  34  1   
 33  16  17  1   
 34  16  35  1   
 35  16  36  1   
 36  17  18  1   
 37  17  37  1   
 38  18  19  1   
 39  18  20  1   
 40  18  38  1   
 41  19  39  1   
 42  19  40  1   
 43  19  41  1   
 44  20  42  1   
 45  20  43  1   
 46  20  44  1   
@<TRIPOS>SUBSTRUCTURE
  1 ****   5 GROUP 4 **** **** 0

# MOE 2024.06 (io_trps.svl 2023.06)
