@<TRIPOS>MOLECULE
NONAME
50 54 1 0 0 
SMALL
USER_CHARGES


@<TRIPOS>ATOM
  1 N       -1.1350     0.0230    -0.6060 N.ar  1 <1>  -0.3100 
  2 N        0.1610     0.1490    -0.7650 N.ar  1 <1>  -0.3100 
  3 C       -1.7000    -1.1830    -0.4470 C.ar  1 <1>   0.4100 
  4 C        0.9260    -0.9340    -0.7790 C.ar  1 <1>   0.1660 
  5 N       -3.0820    -1.2500    -0.2670 N.pl3 1 <1>  -0.8380 
  6 C       -0.9320    -2.3350    -0.4640 C.ar  1 <1>  -0.1500 
  7 C        0.4250    -2.2100    -0.6330 C.ar  1 <1>  -0.1500 
  8 C        2.4110    -0.7060    -0.9690 C.3   1 <1>  -0.0970 
  9 C       -3.9760    -0.1030    -0.6360 C.3   1 <1>   0.2090 
 10 C       -3.7080    -2.3170     0.5710 C.3   1 <1>   0.2090 
 11 C       -4.5710     0.5960     0.6110 C.3   1 <1>   0.1430 
 12 C       -5.0130    -1.8440     1.2320 C.3   1 <1>  -0.1600 
 13 C       -5.8080     1.3510     0.1490 C.ar  1 <1>   0.1670 
 14 C       -4.8770    -0.4050     1.7550 C.3   1 <1>  -0.1600 
 15 C       -3.6690     1.7530     1.1160 C.3   1 <1>  -0.1600 
 16 N       -6.9710     0.8130    -0.1330 N.ar  1 <1>  -0.6200 
 17 C       -5.5680     2.6860     0.0390 C.ar  1 <1>  -0.1430 
 18 C       -4.1470     3.0320     0.4100 C.3   1 <1>  -0.0170 
 19 C       -7.9290     1.6610    -0.5290 C.ar  1 <1>   0.6200 
 20 C       -6.5980     3.4890    -0.3750 C.ar  1 <1>   0.1600 
 21 N       -7.7790     2.9880    -0.6590 N.ar  1 <1>  -0.6200 
 22 C       -9.2340     1.0960    -0.8440 C.ar  1 <1>   0.0000 
 23 C      -10.4100     1.8380    -0.6980 C.ar  1 <1>  -0.1500 
 24 C       -9.3730    -0.2160    -1.3080 C.ar  1 <1>  -0.1500 
 25 C      -11.6510     1.3050    -0.9950 C.ar  1 <1>  -0.1500 
 26 C      -10.6100    -0.7570    -1.6070 C.ar  1 <1>  -0.1500 
 27 C      -11.7540     0.0030    -1.4510 C.ar  1 <1>  -0.1500 
 28 H       -1.3850    -3.3000    -0.3570 H     1 <1>   0.1500 
 29 H        1.0650    -3.0730    -0.6530 H     1 <1>   0.1500 
 30 H        2.7840    -0.0850    -0.1750 H     1 <1>   0.0800 
 31 H        2.5810    -0.2080    -1.9070 H     1 <1>   0.0800 
 32 H        2.9500    -1.6360    -0.9670 H     1 <1>   0.0800 
 33 H       -4.7810    -0.4990    -1.2310 H     1 <1>   0.0800 
 34 H       -3.4610     0.6110    -1.2530 H     1 <1>   0.0800 
 35 H       -3.0130    -2.6000     1.3440 H     1 <1>   0.0800 
 36 H       -3.9060    -3.1810    -0.0400 H     1 <1>   0.0800 
 37 H       -5.2590    -2.5070     2.0420 H     1 <1>   0.0800 
 38 H       -5.8180    -1.8950     0.5190 H     1 <1>   0.0800 
 39 H       -5.7740    -0.1120     2.2730 H     1 <1>   0.0800 
 40 H       -4.0700    -0.3950     2.4660 H     1 <1>   0.0800 
 41 H       -2.6240     1.5650     0.9470 H     1 <1>   0.0800 
 42 H       -3.8190     1.8870     2.1730 H     1 <1>   0.0800 
 43 H       -3.5700     3.2110    -0.4810 H     1 <1>   0.0800 
 44 H       -4.0960     3.8870     1.0620 H     1 <1>   0.0800 
 45 H       -6.4540     4.5510    -0.4770 H     1 <1>   0.1500 
 46 H      -10.3490     2.8530    -0.3440 H     1 <1>   0.1500 
 47 H       -8.4930    -0.8230    -1.4360 H     1 <1>   0.1500 
 48 H      -12.5370     1.9030    -0.8720 H     1 <1>   0.1500 
 49 H      -10.6830    -1.7700    -1.9610 H     1 <1>   0.1500 
 50 H      -12.7180    -0.4140    -1.6830 H     1 <1>   0.1500 
@<TRIPOS>BOND
  1   1   2  ar  
  2   1   3  ar  
  3   2   4  ar  
  4   3   5  1   
  5   3   6  ar  
  6   4   7  ar  
  7   4   8  1   
  8   5   9  1   
  9   5  10  1   
 10   6   7  ar  
 11   6  28  1   
 12   7  29  1   
 13   8  30  1   
 14   8  31  1   
 15   8  32  1   
 16   9  11  1   
 17   9  33  1   
 18   9  34  1   
 19  10  12  1   
 20  10  35  1   
 21  10  36  1   
 22  11  13  1   
 23  11  14  1   
 24  11  15  1   
 25  12  14  1   
 26  12  37  1   
 27  12  38  1   
 28  13  16  ar  
 29  13  17  ar  
 30  14  39  1   
 31  14  40  1   
 32  15  18  1   
 33  15  41  1   
 34  15  42  1   
 35  16  19  ar  
 36  17  18  1   
 37  17  20  ar  
 38  18  43  1   
 39  18  44  1   
 40  19  21  ar  
 41  19  22  1   
 42  20  21  ar  
 43  20  45  1   
 44  22  23  ar  
 45  22  24  ar  
 46  23  25  ar  
 47  23  46  1   
 48  24  26  ar  
 49  24  47  1   
 50  25  27  ar  
 51  25  48  1   
 52  26  27  ar  
 53  26  49  1   
 54  27  50  1   
@<TRIPOS>SUBSTRUCTURE
  1 ****  11 GROUP 4 **** **** 0

# MOE 2024.06 (io_trps.svl 2023.06)
