@<TRIPOS>MOLECULE
NONAME
51 54 1 0 0 
SMALL
USER_CHARGES


@<TRIPOS>ATOM
  1 O       -3.4620     1.4950    -2.1630 O.2   1 <1>  -0.5700 
  2 C       -2.8830     1.4910    -1.1050 C.2   1 <1>   0.5690 
  3 N       -2.5550     0.3410    -0.4720 N.am  1 <1>  -0.7300 
  4 C       -2.5120     2.8090    -0.4550 C.3   1 <1>  -0.0990 
  5 C       -2.8270    -1.0160    -0.9920 C.3   1 <1>   0.2200 
  6 C       -0.9900     3.0280    -0.4150 C.3   1 <1>  -0.1600 
  7 C       -3.9730    -1.6280    -0.2050 C.3   1 <1>  -0.0800 
  8 C       -1.6730    -1.9420    -0.6280 C.3   1 <1>   0.1200 
  9 C       -0.6240     4.3760     0.2200 C.3   1 <1>   0.0210 
 10 C       -3.2580    -2.2100     1.0210 C.3   1 <1>   0.1200 
 11 C       -4.7050    -2.7090    -1.0250 C.3   1 <1>  -0.0170 
 12 O       -1.9030    -2.3360     0.6900 O.3   1 <1>  -0.5600 
 13 C        0.8790     4.5760     0.3150 C.2   1 <1>  -0.1810 
 14 C       -5.9110    -3.2640    -0.2730 C.ar  1 <1>  -0.1440 
 15 C        1.5070     5.6460     0.9470 C.2   1 <1>   0.1390 
 16 C        1.8950     3.8190    -0.1540 C.2   1 <1>  -0.3020 
 17 C       -7.1230    -2.5440    -0.1500 C.ar  1 <1>   0.0000 
 18 C       -5.8470    -4.4950     0.3120 C.ar  1 <1>  -0.1500 
 19 N        2.8010     5.5700     0.8830 N.2   1 <1>  -0.7070 
 20 N        3.0400     4.4360     0.1990 N.pl3 1 <1>   0.3000 
 21 C       -8.1720    -3.1440     0.5900 C.ar  1 <1>   0.3100 
 22 C       -7.3590    -1.2690    -0.7170 C.ar  1 <1>  -0.1500 
 23 C       -6.9470    -5.0000     1.0150 C.ar  1 <1>   0.1600 
 24 N       -8.0670    -4.3690     1.1640 N.ar  1 <1>  -0.6200 
 25 C       -9.3820    -2.4490     0.7400 C.ar  1 <1>  -0.1500 
 26 C       -8.5520    -0.6200    -0.5530 C.ar  1 <1>  -0.1500 
 27 C       -9.5780    -1.2130     0.1850 C.ar  1 <1>  -0.1500 
 28 H       -2.0800     0.3580     0.4330 H     1 <1>   0.3700 
 29 H       -2.9760     3.6040    -1.0120 H     1 <1>   0.0800 
 30 H       -2.9160     2.8240     0.5410 H     1 <1>   0.0800 
 31 H       -3.0060    -0.9820    -2.0540 H     1 <1>   0.0800 
 32 H       -0.5270     2.2380     0.1500 H     1 <1>   0.0800 
 33 H       -0.6030     2.9930    -1.4190 H     1 <1>   0.0800 
 34 H       -4.6790    -0.8740     0.0930 H     1 <1>   0.0800 
 35 H       -0.7140    -1.4600    -0.7010 H     1 <1>   0.0800 
 36 H       -1.6850    -2.8250    -1.2410 H     1 <1>   0.0800 
 37 H       -1.0410     4.4320     1.2100 H     1 <1>   0.0800 
 38 H       -1.0430     5.1770    -0.3650 H     1 <1>   0.0800 
 39 H       -3.6360    -3.1740     1.3110 H     1 <1>   0.0800 
 40 H       -3.3260    -1.5360     1.8570 H     1 <1>   0.0800 
 41 H       -4.0250    -3.5120    -1.2560 H     1 <1>   0.0800 
 42 H       -5.0330    -2.3010    -1.9650 H     1 <1>   0.0800 
 43 H        0.9890     6.4540     1.4370 H     1 <1>   0.1500 
 44 H        1.8760     2.8980    -0.7070 H     1 <1>   0.1500 
 45 H       -4.9620    -5.1030     0.2530 H     1 <1>   0.1500 
 46 H        3.9930     4.1150    -0.0090 H     1 <1>   0.2700 
 47 H       -6.5880    -0.7930    -1.2930 H     1 <1>   0.1500 
 48 H       -6.8530    -5.9750     1.4620 H     1 <1>   0.1500 
 49 H      -10.1570    -2.9270     1.3100 H     1 <1>   0.1500 
 50 H       -8.7160     0.3510    -0.9900 H     1 <1>   0.1500 
 51 H      -10.5120    -0.6920     0.3080 H     1 <1>   0.1500 
@<TRIPOS>BOND
  1   1   2  2   
  2   2   3  am  
  3   2   4  1   
  4   3   5  1   
  5   3  28  1   
  6   4   6  1   
  7   4  29  1   
  8   4  30  1   
  9   5   7  1   
 10   5   8  1   
 11   5  31  1   
 12   6   9  1   
 13   6  32  1   
 14   6  33  1   
 15   7  10  1   
 16   7  11  1   
 17   7  34  1   
 18   8  12  1   
 19   8  35  1   
 20   8  36  1   
 21   9  13  1   
 22   9  37  1   
 23   9  38  1   
 24  10  12  1   
 25  10  39  1   
 26  10  40  1   
 27  11  14  1   
 28  11  41  1   
 29  11  42  1   
 30  13  15  1   
 31  13  16  2   
 32  14  17  ar  
 33  14  18  ar  
 34  15  19  2   
 35  15  43  1   
 36  16  20  1   
 37  16  44  1   
 38  17  21  ar  
 39  17  22  ar  
 40  18  23  ar  
 41  18  45  1   
 42  19  20  1   
 43  20  46  1   
 44  21  24  ar  
 45  21  25  ar  
 46  22  26  ar  
 47  22  47  1   
 48  23  24  ar  
 49  23  48  1   
 50  25  27  ar  
 51  25  49  1   
 52  26  27  ar  
 53  26  50  1   
 54  27  51  1   
@<TRIPOS>SUBSTRUCTURE
  1 ****   3 GROUP 4 **** **** 0

# MOE 2024.06 (io_trps.svl 2023.06)
