@<TRIPOS>MOLECULE
NONAME
52 54 1 0 0 
SMALL
USER_CHARGES


@<TRIPOS>ATOM
  1 S       -3.8960    -2.3240    -1.1030 S.3   1 <1>  -0.0800 
  2 C       -2.2160    -1.8090    -1.1750 C.2   1 <1>  -0.1400 
  3 C       -4.1510    -1.4370     0.3890 C.2   1 <1>  -0.1100 
  4 C       -1.9200    -1.0230    -0.1220 C.2   1 <1>  -0.1500 
  5 C       -1.3800    -2.3070    -2.3370 C.3   1 <1>   0.3200 
  6 C       -3.0220    -0.8110     0.7680 C.2   1 <1>  -0.1500 
  7 N       -1.3100    -3.7690    -2.2360 N.am  1 <1>  -0.7300 
  8 C       -0.2170    -4.4810    -1.8780 C.2   1 <1>   0.5690 
  9 O        0.8970    -4.0130    -1.8950 O.2   1 <1>  -0.5700 
 10 C       -0.4430    -5.9170    -1.3940 C.3   1 <1>   0.1710 
 11 N       -1.7570    -6.1150    -0.7100 N.3   1 <1>  -0.8100 
 12 C       -2.0610    -7.5410    -0.5110 C.3   1 <1>   0.1100 
 13 C       -1.8250    -5.3700     0.5660 C.3   1 <1>   0.1100 
 14 C       -3.5600    -7.7560    -0.1560 C.3   1 <1>   0.0000 
 15 C       -3.0690    -5.7520     1.3850 C.3   1 <1>  -0.1600 
 16 C       -4.1060    -6.4490     0.5030 C.3   1 <1>   0.2000 
 17 C       -4.3910    -7.9640    -1.4470 C.3   1 <1>   0.1200 
 18 C       -3.7000    -8.9730     0.8120 C.3   1 <1>  -0.0170 
 19 O       -5.2510    -6.6680     1.2550 O.3   1 <1>  -0.6800 
 20 O       -3.9040    -8.9990    -2.2360 O.3   1 <1>  -0.6800 
 21 C       -3.2060   -10.3170     0.2820 C.ar  1 <1>  -0.1430 
 22 C       -4.1070   -11.2090    -0.2840 C.ar  1 <1>  -0.1500 
 23 C       -1.8690   -10.6770     0.3690 C.ar  1 <1>  -0.1500 
 24 C       -3.6750   -12.4260    -0.7800 C.ar  1 <1>  -0.1500 
 25 C       -1.4350   -11.8940    -0.1260 C.ar  1 <1>  -0.1500 
 26 C       -2.3380   -12.7680    -0.7050 C.ar  1 <1>  -0.1500 
 27 H       -5.1320    -1.4800     0.8280 H     1 <1>   0.1500 
 28 H       -0.9600    -0.5800     0.0760 H     1 <1>   0.1500 
 29 H       -0.3910    -1.8840    -2.2930 H     1 <1>   0.0800 
 30 H       -1.8370    -2.0300    -3.2710 H     1 <1>   0.0800 
 31 H       -2.9110    -0.1990     1.6460 H     1 <1>   0.1500 
 32 H       -2.2070    -4.2300    -2.0490 H     1 <1>   0.3700 
 33 H        0.3610    -6.1910    -0.7340 H     1 <1>   0.0800 
 34 H       -0.3940    -6.5530    -2.2600 H     1 <1>   0.0800 
 35 H       -1.8020    -8.1000    -1.3940 H     1 <1>   0.0800 
 36 H       -1.4380    -7.9010     0.2890 H     1 <1>   0.0800 
 37 H       -0.9410    -5.5550     1.1530 H     1 <1>   0.0800 
 38 H       -1.8630    -4.3140     0.3530 H     1 <1>   0.0800 
 39 H       -3.4880    -4.8580     1.8100 H     1 <1>   0.0800 
 40 H       -2.7690    -6.4000     2.1870 H     1 <1>   0.0800 
 41 H       -4.3830    -5.7540    -0.2740 H     1 <1>   0.0800 
 42 H       -4.3690    -7.0740    -2.0530 H     1 <1>   0.0800 
 43 H       -5.4160    -8.1850    -1.2010 H     1 <1>   0.0800 
 44 H       -3.1730    -8.7610     1.7250 H     1 <1>   0.0800 
 45 H       -4.7340    -9.0990     1.0780 H     1 <1>   0.0800 
 46 H       -5.0190    -7.0650     2.1140 H     1 <1>   0.4000 
 47 H       -3.7160    -9.7890    -1.6790 H     1 <1>   0.4000 
 48 H       -5.1540   -10.9600    -0.3470 H     1 <1>   0.1500 
 49 H       -1.1530   -10.0190     0.8260 H     1 <1>   0.1500 
 50 H       -4.3800   -13.1070    -1.2250 H     1 <1>   0.1500 
 51 H       -0.3950   -12.1630    -0.0600 H     1 <1>   0.1500 
 52 H       -2.0000   -13.7140    -1.0920 H     1 <1>   0.1500 
@<TRIPOS>BOND
  1   1   2  1   
  2   1   3  1   
  3   2   4  2   
  4   2   5  1   
  5   3   6  2   
  6   3  27  1   
  7   4   6  1   
  8   4  28  1   
  9   5   7  1   
 10   5  29  1   
 11   5  30  1   
 12   6  31  1   
 13   7   8  am  
 14   7  32  1   
 15   8   9  2   
 16   8  10  1   
 17  10  11  1   
 18  10  33  1   
 19  10  34  1   
 20  11  12  1   
 21  11  13  1   
 22  12  14  1   
 23  12  35  1   
 24  12  36  1   
 25  13  15  1   
 26  13  37  1   
 27  13  38  1   
 28  14  16  1   
 29  14  17  1   
 30  14  18  1   
 31  15  16  1   
 32  15  39  1   
 33  15  40  1   
 34  16  19  1   
 35  16  41  1   
 36  17  20  1   
 37  17  42  1   
 38  17  43  1   
 39  18  21  1   
 40  18  44  1   
 41  18  45  1   
 42  19  46  1   
 43  20  47  1   
 44  21  22  ar  
 45  21  23  ar  
 46  22  24  ar  
 47  22  48  1   
 48  23  25  ar  
 49  23  49  1   
 50  24  26  ar  
 51  24  50  1   
 52  25  26  ar  
 53  25  51  1   
 54  26  52  1   
@<TRIPOS>SUBSTRUCTURE
  1 ****  11 GROUP 4 **** **** 0

# MOE 2024.06 (io_trps.svl 2023.06)
