@<TRIPOS>MOLECULE
NONAME
43 44 1 0 0 
SMALL
USER_CHARGES


@<TRIPOS>ATOM
  1 S        0.1190    -0.3380    -0.6360 S.3   1 <1>  -0.0800 
  2 C       -1.5000    -0.9240    -0.4510 C.2   1 <1>   0.4420 
  3 C       -0.5350     1.2680    -0.6510 C.2   1 <1>   0.1980 
  4 N       -2.3600     0.0270    -0.4260 N.2   1 <1>  -0.3380 
  5 N       -1.6470    -2.2890    -0.3540 N.am  1 <1>  -0.4940 
  6 N       -1.8050     1.2710    -0.5410 N.2   1 <1>  -0.3380 
  7 C        0.4380     2.4380    -0.8120 C.3   1 <1>   0.3800 
  8 C       -2.7770    -3.0520    -0.2680 C.2   1 <1>   0.7150 
  9 O        1.5410     2.2380     0.0290 O.3   1 <1>  -0.5600 
 10 C       -0.2020     3.7830    -0.4500 C.3   1 <1>  -0.2400 
 11 O       -3.8720    -2.5420    -0.3800 O.2   1 <1>  -0.5700 
 12 C       -2.6180    -4.4630    -0.0610 C.2   1 <1>  -0.2370 
 13 C        2.7370     2.8230    -0.3860 C.3   1 <1>   0.0400 
 14 N       -3.6120    -5.3930    -0.1430 N.pl3 1 <1>   0.3140 
 15 C       -1.4930    -5.1690     0.2530 C.2   1 <1>  -0.1500 
 16 N       -3.1490    -6.6340     0.1000 N.2   1 <1>  -0.7070 
 17 C       -5.0500    -5.1370    -0.4590 C.3   1 <1>   0.0960 
 18 C       -1.8830    -6.4920     0.3360 C.2   1 <1>   0.1080 
 19 C       -5.9030    -6.4100    -0.5890 C.3   1 <1>  -0.2400 
 20 C       -0.9740    -7.6710     0.6650 C.3   1 <1>   0.1010 
 21 C       -0.3680    -7.5210     2.0650 C.3   1 <1>  -0.2400 
 22 C        0.1280    -7.8250    -0.3890 C.3   1 <1>  -0.2400 
 23 H       -0.7860    -2.8210    -0.3400 H     1 <1>   0.3700 
 24 H        0.7790     2.4490    -1.8330 H     1 <1>   0.0800 
 25 H       -0.5090     3.7750     0.5810 H     1 <1>   0.0800 
 26 H       -1.0720     3.9450    -1.0600 H     1 <1>   0.0800 
 27 H        0.4810     4.5950    -0.6170 H     1 <1>   0.0800 
 28 H        3.4960     2.5760     0.3350 H     1 <1>   0.0800 
 29 H        2.6230     3.8920    -0.4310 H     1 <1>   0.0800 
 30 H        3.0130     2.4290    -1.3490 H     1 <1>   0.0800 
 31 H       -0.4910    -4.8170     0.4170 H     1 <1>   0.1500 
 32 H       -5.0940    -4.5890    -1.3830 H     1 <1>   0.0800 
 33 H       -5.4530    -4.5160     0.3190 H     1 <1>   0.0800 
 34 H       -5.5170    -7.0370    -1.3730 H     1 <1>   0.0800 
 35 H       -6.9170    -6.1470    -0.8260 H     1 <1>   0.0800 
 36 H       -5.8970    -6.9570     0.3380 H     1 <1>   0.0800 
 37 H       -1.5790    -8.5630     0.6530 H     1 <1>   0.0800 
 38 H        0.2630    -6.6520     2.1180 H     1 <1>   0.0800 
 39 H        0.2150    -8.3900     2.3140 H     1 <1>   0.0800 
 40 H       -1.1560    -7.4200     2.7910 H     1 <1>   0.0800 
 41 H        0.7720    -6.9640    -0.3970 H     1 <1>   0.0800 
 42 H       -0.3160    -7.9320    -1.3630 H     1 <1>   0.0800 
 43 H        0.7190    -8.6990    -0.1850 H     1 <1>   0.0800 
@<TRIPOS>BOND
  1   1   2  1   
  2   1   3  1   
  3   2   4  2   
  4   2   5  1   
  5   3   6  2   
  6   3   7  1   
  7   4   6  1   
  8   5   8  am  
  9   5  23  1   
 10   7   9  1   
 11   7  10  1   
 12   7  24  1   
 13   8  11  2   
 14   8  12  1   
 15   9  13  1   
 16  10  25  1   
 17  10  26  1   
 18  10  27  1   
 19  12  14  1   
 20  12  15  2   
 21  13  28  1   
 22  13  29  1   
 23  13  30  1   
 24  14  16  1   
 25  14  17  1   
 26  15  18  1   
 27  15  31  1   
 28  16  18  2   
 29  17  19  1   
 30  17  32  1   
 31  17  33  1   
 32  18  20  1   
 33  19  34  1   
 34  19  35  1   
 35  19  36  1   
 36  20  21  1   
 37  20  22  1   
 38  20  37  1   
 39  21  38  1   
 40  21  39  1   
 41  21  40  1   
 42  22  41  1   
 43  22  42  1   
 44  22  43  1   
@<TRIPOS>SUBSTRUCTURE
  1 ****   5 GROUP 4 **** **** 0

# MOE 2024.06 (io_trps.svl 2023.06)
