@<TRIPOS>MOLECULE
NONAME
53 55 1 0 0 
SMALL
USER_CHARGES


@<TRIPOS>ATOM
  1 F        0.6310     1.3630     2.0690 F     1 <1>  -0.1900 
  2 C        1.1720     2.4000     1.4880 C.ar  1 <1>   0.1900 
  3 C        1.9790     3.2380     2.2340 C.ar  1 <1>  -0.1500 
  4 C        0.9150     2.6230     0.1480 C.ar  1 <1>  -0.1500 
  5 C        2.5510     4.3340     1.6110 C.ar  1 <1>  -0.1500 
  6 C        1.4930     3.7230    -0.4620 C.ar  1 <1>  -0.1500 
  7 C        2.3210     4.5830     0.2580 C.ar  1 <1>  -0.0230 
  8 N        2.9200     5.7010    -0.3870 N.pl3 1 <1>   0.5930 
  9 N        2.1940     6.7310    -0.8790 N.2   1 <1>  -0.7070 
 10 C        4.2460     5.9070    -0.6280 C.2   1 <1>  -0.3320 
 11 C        3.0490     7.5450    -1.4040 C.2   1 <1>   0.1080 
 12 C        4.3570     7.0870    -1.2790 C.2   1 <1>  -0.1810 
 13 C        5.3330     4.9230    -0.2170 C.3   1 <1>  -0.0600 
 14 C        2.6230     8.8380    -2.0670 C.3   1 <1>  -0.0590 
 15 C        5.5860     7.8150    -1.7870 C.3   1 <1>   0.3210 
 16 N        5.8200     8.9680    -0.9020 N.am  1 <1>  -0.7300 
 17 C        5.8980    10.2540    -1.3180 C.2   1 <1>   0.5690 
 18 O        5.8680    10.5390    -2.4910 O.2   1 <1>  -0.5700 
 19 C        6.0160    11.3530    -0.2620 C.3   1 <1>  -0.0190 
 20 C        5.3580    12.6780    -0.6990 C.3   1 <1>  -0.1600 
 21 C        7.4930    11.5820     0.1340 C.3   1 <1>  -0.1600 
 22 C        5.3530    13.7300     0.4310 C.3   1 <1>   0.2000 
 23 C        7.7530    12.9450     0.8080 C.3   1 <1>  -0.1600 
 24 O        5.5030    15.0050    -0.1440 O.3   1 <1>  -0.5600 
 25 C        6.4880    13.5040     1.4650 C.3   1 <1>   0.2000 
 26 C        4.3550    15.5300    -0.7370 C.3   1 <1>   0.0400 
 27 O        6.8080    14.7060     2.0590 O.3   1 <1>  -0.6800 
 28 H        2.1490     3.0330     3.2760 H     1 <1>   0.1500 
 29 H        0.2760     1.9530    -0.3980 H     1 <1>   0.1500 
 30 H        3.1760     5.0040     2.1770 H     1 <1>   0.1500 
 31 H        1.3020     3.9240    -1.5030 H     1 <1>   0.1500 
 32 H        6.2980     5.2440    -0.5640 H     1 <1>   0.0800 
 33 H        5.1300     3.9530    -0.6360 H     1 <1>   0.0800 
 34 H        5.3710     4.8340     0.8540 H     1 <1>   0.0800 
 35 H        3.1880     9.0050    -2.9650 H     1 <1>   0.0800 
 36 H        2.7830     9.6590    -1.3930 H     1 <1>   0.0800 
 37 H        1.5790     8.7920    -2.3180 H     1 <1>   0.0800 
 38 H        5.4330     8.1370    -2.8030 H     1 <1>   0.0800 
 39 H        6.4460     7.1700    -1.7650 H     1 <1>   0.0800 
 40 H        5.7610     8.7450     0.0910 H     1 <1>   0.3700 
 41 H        5.4850    11.0090     0.6080 H     1 <1>   0.0800 
 42 H        4.3470    12.4900    -1.0150 H     1 <1>   0.0800 
 43 H        5.9060    13.0620    -1.5440 H     1 <1>   0.0800 
 44 H        7.7990    10.7900     0.7960 H     1 <1>   0.0800 
 45 H        8.1130    11.5200    -0.7450 H     1 <1>   0.0800 
 46 H        4.4170    13.7000     0.9620 H     1 <1>   0.0800 
 47 H        8.0820    13.6450     0.0590 H     1 <1>   0.0800 
 48 H        8.5340    12.8440     1.5420 H     1 <1>   0.0800 
 49 H        6.1610    12.8320     2.2390 H     1 <1>   0.0800 
 50 H        4.5920    16.5090    -1.1130 H     1 <1>   0.0800 
 51 H        3.5750    15.6050     0.0010 H     1 <1>   0.0800 
 52 H        4.0480    14.8970    -1.5520 H     1 <1>   0.0800 
 53 H        6.6520    15.3940     1.3710 H     1 <1>   0.4000 
@<TRIPOS>BOND
  1   1   2  1   
  2   2   3  ar  
  3   2   4  ar  
  4   3   5  ar  
  5   3  28  1   
  6   4   6  ar  
  7   4  29  1   
  8   5   7  ar  
  9   5  30  1   
 10   6   7  ar  
 11   6  31  1   
 12   7   8  1   
 13   8   9  1   
 14   8  10  1   
 15   9  11  2   
 16  10  12  2   
 17  10  13  1   
 18  11  12  1   
 19  11  14  1   
 20  12  15  1   
 21  13  32  1   
 22  13  33  1   
 23  13  34  1   
 24  14  35  1   
 25  14  36  1   
 26  14  37  1   
 27  15  16  1   
 28  15  38  1   
 29  15  39  1   
 30  16  17  am  
 31  16  40  1   
 32  17  18  2   
 33  17  19  1   
 34  19  20  1   
 35  19  21  1   
 36  19  41  1   
 37  20  22  1   
 38  20  42  1   
 39  20  43  1   
 40  21  23  1   
 41  21  44  1   
 42  21  45  1   
 43  22  24  1   
 44  22  25  1   
 45  22  46  1   
 46  23  25  1   
 47  23  47  1   
 48  23  48  1   
 49  24  26  1   
 50  25  27  1   
 51  25  49  1   
 52  26  50  1   
 53  26  51  1   
 54  26  52  1   
 55  27  53  1   
@<TRIPOS>SUBSTRUCTURE
  1 ****  12 GROUP 4 **** **** 0

# MOE 2024.06 (io_trps.svl 2023.06)
