@<TRIPOS>MOLECULE
NONAME
41 42 1 0 0 
SMALL
USER_CHARGES


@<TRIPOS>ATOM
  1 O       -0.3290     0.6720    -0.2880 O.2   1 <1>  -0.5700 
  2 C        0.6760     0.0010    -0.2280 C.2   1 <1>   0.5690 
  3 N        1.9220     0.5390    -0.0640 N.am  1 <1>  -0.4940 
  4 C        0.5940    -1.5480    -0.3370 C.3   1 <1>   0.3410 
  5 C        2.3540     1.8550     0.0730 C.2   1 <1>   0.2040 
  6 O        1.9070    -2.0610    -0.1630 O.3   1 <1>  -0.5600 
  7 C       -0.3130    -2.1080     0.7720 C.3   1 <1>  -0.2400 
  8 C        0.0730    -1.9450    -1.7280 C.3   1 <1>  -0.2400 
  9 O        1.5440     2.8830     0.0110 O.3   1 <1>  -0.0190 
 10 C        3.6100     2.3190     0.2740 C.2   1 <1>  -0.0540 
 11 C        2.1500    -3.4330    -0.2450 C.3   1 <1>   0.1200 
 12 N        2.1840     4.0150     0.1610 N.2   1 <1>  -0.4100 
 13 C        4.8310     1.5680     0.4070 C.ar  1 <1>   0.0540 
 14 C        3.4180     3.7050     0.3210 C.2   1 <1>   0.1080 
 15 C        3.6380    -3.6350     0.0150 C.3   1 <1>  -0.2400 
 16 C        5.9160     1.7950    -0.4360 C.ar  1 <1>  -0.1500 
 17 C        4.9530     0.5770     1.3780 C.ar  1 <1>  -0.1500 
 18 C        4.5100     4.7300     0.5460 C.3   1 <1>  -0.0590 
 19 C        7.0810     1.0600    -0.3140 C.ar  1 <1>  -0.1500 
 20 C        6.1140    -0.1630     1.5030 C.ar  1 <1>  -0.1500 
 21 C        7.1820     0.0780     0.6560 C.ar  1 <1>  -0.1500 
 22 H        2.6480    -0.1840    -0.0400 H     1 <1>   0.3700 
 23 H        0.1180    -1.9090     1.7370 H     1 <1>   0.0800 
 24 H       -0.4770    -3.1630     0.6570 H     1 <1>   0.0800 
 25 H       -1.2730    -1.6250     0.7290 H     1 <1>   0.0800 
 26 H        0.7720    -1.6390    -2.4860 H     1 <1>   0.0800 
 27 H       -0.8610    -1.4470    -1.9160 H     1 <1>   0.0800 
 28 H       -0.1030    -3.0020    -1.8000 H     1 <1>   0.0800 
 29 H        1.8970    -3.7870    -1.2290 H     1 <1>   0.0800 
 30 H        1.5720    -3.9500     0.5000 H     1 <1>   0.0800 
 31 H        4.2180    -3.1100    -0.7230 H     1 <1>   0.0800 
 32 H        3.8780    -4.6810    -0.0400 H     1 <1>   0.0800 
 33 H        3.8940    -3.2750     0.9950 H     1 <1>   0.0800 
 34 H        5.8410     2.5500    -1.1980 H     1 <1>   0.1500 
 35 H        4.1280     0.3880     2.0430 H     1 <1>   0.1500 
 36 H        5.1970     4.3790     1.2940 H     1 <1>   0.0800 
 37 H        4.0790     5.6570     0.8770 H     1 <1>   0.0800 
 38 H        5.0410     4.9020    -0.3720 H     1 <1>   0.0800 
 39 H        7.9100     1.2480    -0.9750 H     1 <1>   0.1500 
 40 H        6.1910    -0.9250     2.2590 H     1 <1>   0.1500 
 41 H        8.0870    -0.4960     0.7510 H     1 <1>   0.1500 
@<TRIPOS>BOND
  1   1   2  2   
  2   2   3  am  
  3   2   4  1   
  4   3   5  1   
  5   3  22  1   
  6   4   6  1   
  7   4   7  1   
  8   4   8  1   
  9   5   9  1   
 10   5  10  2   
 11   6  11  1   
 12   7  23  1   
 13   7  24  1   
 14   7  25  1   
 15   8  26  1   
 16   8  27  1   
 17   8  28  1   
 18   9  12  1   
 19  10  13  1   
 20  10  14  1   
 21  11  15  1   
 22  11  29  1   
 23  11  30  1   
 24  12  14  2   
 25  13  16  ar  
 26  13  17  ar  
 27  14  18  1   
 28  15  31  1   
 29  15  32  1   
 30  15  33  1   
 31  16  19  ar  
 32  16  34  1   
 33  17  20  ar  
 34  17  35  1   
 35  18  36  1   
 36  18  37  1   
 37  18  38  1   
 38  19  21  ar  
 39  19  39  1   
 40  20  21  ar  
 41  20  40  1   
 42  21  41  1   
@<TRIPOS>SUBSTRUCTURE
  1 ****   3 GROUP 4 **** **** 0

# MOE 2024.06 (io_trps.svl 2023.06)
