@<TRIPOS>MOLECULE
NONAME
46 49 1 0 0 
SMALL
USER_CHARGES


@<TRIPOS>ATOM
  1 O       -0.3000     0.1140     0.7740 O.2   1 <1>  -0.5700 
  2 C       -1.3270     0.7520     0.6420 C.2   1 <1>   0.5440 
  3 N       -2.4940     0.0720     0.3710 N.am  1 <1>  -0.6600 
  4 C       -1.2960     2.1980     0.7470 C.ar  1 <1>   0.0860 
  5 C       -3.6960     0.6820    -0.2520 C.3   1 <1>   0.1400 
  6 C       -2.5360    -1.4060     0.2430 C.3   1 <1>   0.1400 
  7 C       -0.3520     2.9400     0.0560 C.ar  1 <1>  -0.1500 
  8 C       -2.2230     2.8920     1.5540 C.ar  1 <1>  -0.1500 
  9 C       -4.4330    -0.4820    -0.9120 C.3   1 <1>   0.2000 
 10 C       -3.9740    -1.7320    -0.1650 C.3   1 <1>  -0.0800 
 11 C       -0.3430     4.3330     0.1430 C.ar  1 <1>  -0.1520 
 12 C       -2.2240     4.2630     1.6460 C.ar  1 <1>  -0.1500 
 13 O       -5.8090    -0.3430    -0.8040 O.3   1 <1>  -0.6800 
 14 C       -4.1160    -3.0120    -1.0060 C.3   1 <1>  -0.0170 
 15 N        0.4760     5.2700    -0.4430 N.pl3 1 <1>   0.0480 
 16 C       -1.2770     5.0000     0.9290 C.ar  1 <1>   0.0000 
 17 C       -3.7110    -4.2480    -0.2200 C.ar  1 <1>   0.1670 
 18 C        0.0590     6.5030    -0.0340 C.2   1 <1>  -0.3020 
 19 C        1.6120     4.9870    -1.3350 C.3   1 <1>   0.0160 
 20 C       -1.0020     6.3750     0.7980 C.2   1 <1>  -0.1500 
 21 N       -2.4180    -4.5300    -0.1940 N.ar  1 <1>  -0.6200 
 22 C       -4.6820    -5.0030     0.4210 C.ar  1 <1>  -0.1500 
 23 C       -2.0780    -5.6050     0.4990 C.ar  1 <1>   0.1600 
 24 C       -4.3140    -6.1200     1.1390 C.ar  1 <1>  -0.1500 
 25 C       -2.9700    -6.4210     1.1730 C.ar  1 <1>  -0.1500 
 26 H       -4.3020     1.1320     0.5140 H     1 <1>   0.0800 
 27 H       -3.4120     1.4190    -0.9830 H     1 <1>   0.0800 
 28 H       -1.8390    -1.7140    -0.5190 H     1 <1>   0.0800 
 29 H       -2.2680    -1.8800     1.1730 H     1 <1>   0.0800 
 30 H        0.3790     2.4340    -0.5490 H     1 <1>   0.1500 
 31 H       -2.9390     2.3160     2.1140 H     1 <1>   0.1500 
 32 H       -4.1750    -0.5320    -1.9560 H     1 <1>   0.0800 
 33 H       -4.5430    -1.8380     0.7420 H     1 <1>   0.0800 
 34 H       -2.9330     4.7860     2.2620 H     1 <1>   0.1500 
 35 H       -6.0760    -0.3300     0.1350 H     1 <1>   0.4000 
 36 H       -3.5060    -2.9430    -1.8900 H     1 <1>   0.0800 
 37 H       -5.1370    -3.1130    -1.3270 H     1 <1>   0.0800 
 38 H        0.5440     7.4060    -0.3590 H     1 <1>   0.1500 
 39 H        2.0770     5.9090    -1.6320 H     1 <1>   0.0800 
 40 H        1.2570     4.4650    -2.2050 H     1 <1>   0.0800 
 41 H        2.3260     4.3760    -0.8140 H     1 <1>   0.0800 
 42 H       -1.5590     7.1530     1.2900 H     1 <1>   0.1500 
 43 H       -5.7170    -4.7210     0.3610 H     1 <1>   0.1500 
 44 H       -1.0300    -5.8480     0.5320 H     1 <1>   0.1500 
 45 H       -5.0420    -6.7290     1.6480 H     1 <1>   0.1500 
 46 H       -2.6140    -7.2780     1.7150 H     1 <1>   0.1500 
@<TRIPOS>BOND
  1   1   2  2   
  2   2   3  am  
  3   2   4  1   
  4   3   5  1   
  5   3   6  1   
  6   4   7  ar  
  7   4   8  ar  
  8   5   9  1   
  9   5  26  1   
 10   5  27  1   
 11   6  10  1   
 12   6  28  1   
 13   6  29  1   
 14   7  11  ar  
 15   7  30  1   
 16   8  12  ar  
 17   8  31  1   
 18   9  10  1   
 19   9  13  1   
 20   9  32  1   
 21  10  14  1   
 22  10  33  1   
 23  11  15  1   
 24  11  16  ar  
 25  12  16  ar  
 26  12  34  1   
 27  13  35  1   
 28  14  17  1   
 29  14  36  1   
 30  14  37  1   
 31  15  18  1   
 32  15  19  1   
 33  16  20  1   
 34  17  21  ar  
 35  17  22  ar  
 36  18  20  2   
 37  18  38  1   
 38  19  39  1   
 39  19  40  1   
 40  19  41  1   
 41  20  42  1   
 42  21  23  ar  
 43  22  24  ar  
 44  22  43  1   
 45  23  25  ar  
 46  23  44  1   
 47  24  25  ar  
 48  24  45  1   
 49  25  46  1   
@<TRIPOS>SUBSTRUCTURE
  1 ****   3 GROUP 4 **** **** 0

# MOE 2024.06 (io_trps.svl 2023.06)
