@<TRIPOS>MOLECULE
NONAME
47 50 1 0 0 
SMALL
USER_CHARGES


@<TRIPOS>ATOM
  1 O       -0.5870     0.0480    -0.2470 O.2   1 <1>  -0.5700 
  2 C       -1.4100     0.6930     0.3770 C.2   1 <1>   0.7160 
  3 N       -2.5360     0.0480     0.8410 N.am  1 <1>  -0.6600 
  4 C       -1.2150     2.1050     0.6040 C.2   1 <1>  -0.0860 
  5 C       -2.6380    -1.4460     0.8610 C.3   1 <1>   0.1400 
  6 C       -3.8720     0.7160     0.9120 C.3   1 <1>   0.1400 
  7 C       -0.7140     3.1020    -0.1830 C.2   1 <1>  -0.3320 
  8 C       -1.5330     2.7680     1.7910 C.2   1 <1>   0.1390 
  9 C       -3.6720    -1.9430    -0.1660 C.3   1 <1>   0.3440 
 10 C       -4.8480     0.0980    -0.1100 C.3   1 <1>   0.2950 
 11 N       -0.7650     4.2430     0.5300 N.pl3 1 <1>   0.3140 
 12 C       -0.1780     3.0050    -1.6040 C.3   1 <1>  -0.0600 
 13 N       -1.2810     4.0370     1.7500 N.2   1 <1>  -0.7070 
 14 O       -4.9000    -1.2910     0.0360 O.3   1 <1>  -0.5600 
 15 C       -3.8640    -3.4520    -0.0430 C.ar  1 <1>  -0.1430 
 16 C       -6.2700     0.6350     0.0780 C.3   1 <1>  -0.1950 
 17 C       -0.3280     5.5820     0.1110 C.3   1 <1>   0.0160 
 18 C       -4.8140    -3.9960     0.8110 C.ar  1 <1>  -0.1500 
 19 C       -3.0620    -4.3050    -0.7880 C.ar  1 <1>  -0.1500 
 20 C       -7.2640     0.6030    -1.0400 C.3   1 <1>  -0.2000 
 21 C       -6.7040     1.9150    -0.5660 C.3   1 <1>  -0.2000 
 22 C       -4.9600    -5.3690     0.9180 C.ar  1 <1>  -0.1500 
 23 C       -3.2060    -5.6770    -0.6820 C.ar  1 <1>  -0.1500 
 24 C       -4.1550    -6.2100     0.1720 C.ar  1 <1>  -0.1500 
 25 H       -1.6840    -1.8970     0.6490 H     1 <1>   0.0800 
 26 H       -2.9370    -1.7680     1.8420 H     1 <1>   0.0800 
 27 H       -4.2750     0.6000     1.9030 H     1 <1>   0.0800 
 28 H       -3.7880     1.7690     0.7090 H     1 <1>   0.0800 
 29 H       -1.9450     2.2780     2.6560 H     1 <1>   0.1500 
 30 H       -3.3330    -1.7100    -1.1610 H     1 <1>   0.0800 
 31 H       -4.5120     0.3170    -1.1100 H     1 <1>   0.0800 
 32 H       -0.2650     1.9990    -1.9750 H     1 <1>   0.0800 
 33 H        0.8610     3.2810    -1.6270 H     1 <1>   0.0800 
 34 H       -0.7290     3.6560    -2.2580 H     1 <1>   0.0800 
 35 H       -6.6450     0.4350     1.0670 H     1 <1>   0.1000 
 36 H       -0.9030     5.8910    -0.7400 H     1 <1>   0.0800 
 37 H        0.7150     5.5500    -0.1390 H     1 <1>   0.0800 
 38 H       -0.4830     6.2720     0.9200 H     1 <1>   0.0800 
 39 H       -5.4480    -3.3500     1.3940 H     1 <1>   0.1500 
 40 H       -2.3180    -3.9050    -1.4560 H     1 <1>   0.1500 
 41 H       -6.9540     0.2120    -1.9940 H     1 <1>   0.1000 
 42 H       -8.2850     0.3540    -0.8070 H     1 <1>   0.1000 
 43 H       -7.3480     2.5800    -0.0160 H     1 <1>   0.1000 
 44 H       -6.0270     2.4430    -1.2160 H     1 <1>   0.1000 
 45 H       -5.7010    -5.7800     1.5810 H     1 <1>   0.1500 
 46 H       -2.5800    -6.3310    -1.2640 H     1 <1>   0.1500 
 47 H       -4.2680    -7.2770     0.2540 H     1 <1>   0.1500 
@<TRIPOS>BOND
  1   1   2  2   
  2   2   3  am  
  3   2   4  1   
  4   3   5  1   
  5   3   6  1   
  6   4   7  2   
  7   4   8  1   
  8   5   9  1   
  9   5  25  1   
 10   5  26  1   
 11   6  10  1   
 12   6  27  1   
 13   6  28  1   
 14   7  11  1   
 15   7  12  1   
 16   8  13  2   
 17   8  29  1   
 18   9  14  1   
 19   9  15  1   
 20   9  30  1   
 21  10  14  1   
 22  10  16  1   
 23  10  31  1   
 24  11  13  1   
 25  11  17  1   
 26  12  32  1   
 27  12  33  1   
 28  12  34  1   
 29  15  18  ar  
 30  15  19  ar  
 31  16  20  1   
 32  16  21  1   
 33  16  35  1   
 34  17  36  1   
 35  17  37  1   
 36  17  38  1   
 37  18  22  ar  
 38  18  39  1   
 39  19  23  ar  
 40  19  40  1   
 41  20  21  1   
 42  20  41  1   
 43  20  42  1   
 44  21  43  1   
 45  21  44  1   
 46  22  24  ar  
 47  22  45  1   
 48  23  24  ar  
 49  23  46  1   
 50  24  47  1   
@<TRIPOS>SUBSTRUCTURE
  1 ****   3 GROUP 4 **** **** 0

# MOE 2024.06 (io_trps.svl 2023.06)
