@<TRIPOS>MOLECULE
NONAME
50 51 1 0 0 
SMALL
USER_CHARGES


@<TRIPOS>ATOM
  1 CL      -3.4810    -2.6900    -4.7550 Cl    1 <1>  -0.1770 
  2 C       -4.0510    -2.7560    -3.1080 C.ar  1 <1>   0.1770 
  3 C       -5.0830    -1.9260    -2.7160 C.ar  1 <1>  -0.1500 
  4 C       -3.4650    -3.6360    -2.2200 C.ar  1 <1>  -0.1500 
  5 C       -5.5410    -1.9870    -1.4110 C.ar  1 <1>  -0.1500 
  6 C       -3.9250    -3.6890    -0.9150 C.ar  1 <1>  -0.1500 
  7 C       -4.9700    -2.8710    -0.5020 C.ar  1 <1>  -0.1430 
  8 C       -5.4990    -2.9500     0.9320 C.3   1 <1>   0.1250 
  9 C       -6.9670    -3.4150     0.9120 C.2   1 <1>   0.5690 
 10 C       -5.2940    -1.6070     1.6570 C.3   1 <1>  -0.2400 
 11 O       -7.8340    -2.5740     0.8000 O.2   1 <1>  -0.5700 
 12 N       -7.3220    -4.7450     0.9400 N.am  1 <1>  -0.6600 
 13 C       -6.3380    -5.8820     0.9320 C.3   1 <1>   0.3210 
 14 C       -8.7720    -5.1370     0.9740 C.3   1 <1>   0.1400 
 15 C       -6.8060    -7.0820     0.1080 C.2   1 <1>   0.0460 
 16 C       -9.4210    -5.2020    -0.4280 C.3   1 <1>   0.3430 
 17 N       -6.9020    -7.0080    -1.2370 N.2   1 <1>  -0.5650 
 18 C       -7.1470    -8.3190     0.5440 C.2   1 <1>  -0.3320 
 19 N       -9.1040    -3.9980    -1.2640 N.4   1 <1>  -0.9590 
 20 C       -7.2730    -8.1950    -1.5910 C.2   1 <1>   0.0360 
 21 N       -7.4430    -9.0400    -0.5550 N.pl3 1 <1>   0.0330 
 22 C       -7.2050    -8.9190     1.9400 C.3   1 <1>  -0.0600 
 23 C      -10.2890    -3.4720    -1.9940 C.3   1 <1>   0.2630 
 24 C       -7.9630    -4.2830    -2.1890 C.3   1 <1>   0.2630 
 25 H       -5.5140    -1.2400    -3.4240 H     1 <1>   0.1500 
 26 H       -2.6590    -4.2670    -2.5490 H     1 <1>   0.1500 
 27 H       -6.3430    -1.3350    -1.1060 H     1 <1>   0.1500 
 28 H       -3.4550    -4.3730    -0.2290 H     1 <1>   0.1500 
 29 H       -4.9230    -3.6680     1.4830 H     1 <1>   0.0800 
 30 H       -5.8520    -0.8210     1.1800 H     1 <1>   0.0800 
 31 H       -4.2520    -1.3380     1.6490 H     1 <1>   0.0800 
 32 H       -5.6230    -1.6830     2.6780 H     1 <1>   0.0800 
 33 H       -6.1610    -6.1910     1.9450 H     1 <1>   0.0800 
 34 H       -5.4010    -5.5650     0.5150 H     1 <1>   0.0800 
 35 H       -9.3150    -4.4230     1.5690 H     1 <1>   0.0800 
 36 H       -8.8820    -6.0900     1.4610 H     1 <1>   0.0800 
 37 H      -10.4860    -5.2840    -0.2990 H     1 <1>   0.0800 
 38 H       -9.0890    -6.0940    -0.9330 H     1 <1>   0.0800 
 39 H       -8.7670    -3.2760    -0.5870 H     1 <1>   0.4500 
 40 H       -7.4320    -8.5070    -2.6100 H     1 <1>   0.1500 
 41 H       -7.7160   -10.0280    -0.6020 H     1 <1>   0.2700 
 42 H       -6.9630    -8.1860     2.6880 H     1 <1>   0.0800 
 43 H       -6.5030    -9.7300     2.0230 H     1 <1>   0.0800 
 44 H       -8.1920    -9.2950     2.1430 H     1 <1>   0.0800 
 45 H      -10.6560    -4.2080    -2.6900 H     1 <1>   0.0800 
 46 H      -10.0220    -2.5810    -2.5380 H     1 <1>   0.0800 
 47 H      -11.0750    -3.2260    -1.2980 H     1 <1>   0.0800 
 48 H       -8.2150    -5.0840    -2.8630 H     1 <1>   0.0800 
 49 H       -7.0920    -4.5770    -1.6260 H     1 <1>   0.0800 
 50 H       -7.7130    -3.4050    -2.7610 H     1 <1>   0.0800 
@<TRIPOS>BOND
  1   1   2  1   
  2   2   3  ar  
  3   2   4  ar  
  4   3   5  ar  
  5   3  25  1   
  6   4   6  ar  
  7   4  26  1   
  8   5   7  ar  
  9   5  27  1   
 10   6   7  ar  
 11   6  28  1   
 12   7   8  1   
 13   8   9  1   
 14   8  10  1   
 15   8  29  1   
 16   9  11  2   
 17   9  12  am  
 18  10  30  1   
 19  10  31  1   
 20  10  32  1   
 21  12  13  1   
 22  12  14  1   
 23  13  15  1   
 24  13  33  1   
 25  13  34  1   
 26  14  16  1   
 27  14  35  1   
 28  14  36  1   
 29  15  17  1   
 30  15  18  2   
 31  16  19  1   
 32  16  37  1   
 33  16  38  1   
 34  17  20  2   
 35  18  21  1   
 36  18  22  1   
 37  19  23  1   
 38  19  24  1   
 39  19  39  1   
 40  20  21  1   
 41  20  40  1   
 42  21  41  1   
 43  22  42  1   
 44  22  43  1   
 45  22  44  1   
 46  23  45  1   
 47  23  46  1   
 48  23  47  1   
 49  24  48  1   
 50  24  49  1   
 51  24  50  1   
@<TRIPOS>SUBSTRUCTURE
  1 ****  12 GROUP 4 **** **** 0

# MOE 2024.06 (io_trps.svl 2023.06)
