@<TRIPOS>MOLECULE
NONAME
42 43 1 0 0 
SMALL
USER_CHARGES


@<TRIPOS>ATOM
  1 S       -0.7340     0.0390    -0.7830 S.o2  1 <1>   1.3330 
  2 O       -0.5660     1.4280    -0.4470 O.2   1 <1>  -0.6500 
  3 O       -1.2880    -0.3570    -2.0520 O.2   1 <1>  -0.6500 
  4 N        0.8120    -0.5430    -0.8330 N.am  1 <1>  -0.9780 
  5 C       -1.5170    -0.8520     0.5680 C.3   1 <1>  -0.0550 
  6 C       -1.6000    -2.3740     0.3530 C.3   1 <1>  -0.1600 
  7 C       -2.3400    -3.0720     1.5070 C.3   1 <1>  -0.0990 
  8 C       -2.3890    -4.5790     1.3130 C.2   1 <1>   0.5690 
  9 O       -1.5050    -5.2330     1.8110 O.2   1 <1>  -0.5700 
 10 N       -3.3950    -5.1590     0.5910 N.am  1 <1>  -0.6600 
 11 C       -4.5480    -4.4780    -0.0480 C.3   1 <1>   0.1400 
 12 C       -3.4490    -6.6210     0.3460 C.3   1 <1>   0.1400 
 13 C       -5.3170    -5.5880    -0.7670 C.3   1 <1>   0.2000 
 14 C       -4.8850    -6.8940    -0.1030 C.3   1 <1>  -0.0800 
 15 O       -6.6880    -5.4250    -0.6390 O.3   1 <1>  -0.6800 
 16 C       -5.0360    -8.1080    -1.0370 C.3   1 <1>  -0.0170 
 17 C       -4.6390    -9.4050    -0.3500 C.ar  1 <1>   0.1670 
 18 N       -3.3470    -9.6900    -0.3290 N.ar  1 <1>  -0.6200 
 19 C       -5.6170   -10.2200     0.2180 C.ar  1 <1>   0.1600 
 20 C       -3.1000   -10.8290     0.2960 C.ar  1 <1>   0.1600 
 21 N       -5.3720   -11.3600     0.8430 N.ar  1 <1>  -0.6200 
 22 C       -4.0790   -11.6370     0.8630 C.ar  1 <1>   0.1600 
 23 H        1.3850     0.2990    -0.8190 H     1 <1>   0.4200 
 24 H        0.8950    -0.9230    -1.7740 H     1 <1>   0.4200 
 25 H       -0.9740    -0.6560     1.4730 H     1 <1>   0.0800 
 26 H       -2.5100    -0.4660     0.6970 H     1 <1>   0.0800 
 27 H       -2.1060    -2.5770    -0.5750 H     1 <1>   0.0800 
 28 H       -0.6040    -2.7790     0.2790 H     1 <1>   0.0800 
 29 H       -3.3370    -2.6850     1.6050 H     1 <1>   0.0800 
 30 H       -1.8250    -2.8750     2.4300 H     1 <1>   0.0800 
 31 H       -5.1580    -4.0200     0.7110 H     1 <1>   0.0800 
 32 H       -4.2070    -3.7400    -0.7520 H     1 <1>   0.0800 
 33 H       -2.7470    -6.8720    -0.4310 H     1 <1>   0.0800 
 34 H       -3.1990    -7.1740     1.2370 H     1 <1>   0.0800 
 35 H       -5.0700    -5.5790    -1.8150 H     1 <1>   0.0800 
 36 H       -5.4680    -7.0550     0.7870 H     1 <1>   0.0800 
 37 H       -6.9570    -5.4880     0.2980 H     1 <1>   0.4000 
 38 H       -4.4250    -7.9760    -1.9140 H     1 <1>   0.0800 
 39 H       -6.0580    -8.1750    -1.3650 H     1 <1>   0.0800 
 40 H       -6.6460    -9.9160     0.1560 H     1 <1>   0.1500 
 41 H       -2.0720   -11.1390     0.3630 H     1 <1>   0.1500 
 42 H       -3.7780   -12.5470     1.3510 H     1 <1>   0.1500 
@<TRIPOS>BOND
  1   1   2  2   
  2   1   3  2   
  3   1   4  am  
  4   1   5  1   
  5   4  23  1   
  6   4  24  1   
  7   5   6  1   
  8   5  25  1   
  9   5  26  1   
 10   6   7  1   
 11   6  27  1   
 12   6  28  1   
 13   7   8  1   
 14   7  29  1   
 15   7  30  1   
 16   8   9  2   
 17   8  10  am  
 18  10  11  1   
 19  10  12  1   
 20  11  13  1   
 21  11  31  1   
 22  11  32  1   
 23  12  14  1   
 24  12  33  1   
 25  12  34  1   
 26  13  14  1   
 27  13  15  1   
 28  13  35  1   
 29  14  16  1   
 30  14  36  1   
 31  15  37  1   
 32  16  17  1   
 33  16  38  1   
 34  16  39  1   
 35  17  18  ar  
 36  17  19  ar  
 37  18  20  ar  
 38  19  21  ar  
 39  19  40  1   
 40  20  22  ar  
 41  20  41  1   
 42  21  22  ar  
 43  22  42  1   
@<TRIPOS>SUBSTRUCTURE
  1 ****  10 GROUP 4 **** **** 0

# MOE 2024.06 (io_trps.svl 2023.06)
