@<TRIPOS>MOLECULE
NONAME
44 46 1 0 0 
SMALL
USER_CHARGES


@<TRIPOS>ATOM
  1 O       -0.8400     0.0370     0.5780 O.3   1 <1>  -0.2800 
  2 C       -0.7440     0.9380    -0.3470 C.2   1 <1>   0.2980 
  3 C       -1.6560    -0.8370     0.0810 C.2   1 <1>   0.2980 
  4 N       -1.4580     0.6540    -1.3700 N.2   1 <1>  -0.3380 
  5 C        0.1540     2.1540    -0.1200 C.3   1 <1>   0.1000 
  6 N       -2.0540    -0.5060    -1.0910 N.2   1 <1>  -0.3380 
  7 C       -2.0090    -2.0640     0.9270 C.3   1 <1>   0.2900 
  8 C       -0.0610     3.2460    -1.1790 C.3   1 <1>  -0.2400 
  9 C        1.6320     1.7380    -0.0930 C.3   1 <1>  -0.2400 
 10 N       -2.9240    -3.0360     0.2840 N.3   1 <1>  -0.8100 
 11 C       -4.2560    -2.4920    -0.0580 C.3   1 <1>   0.1100 
 12 C       -3.1230    -4.2670     1.0530 C.3   1 <1>   0.1100 
 13 C       -5.2900    -3.5260     0.4030 C.3   1 <1>   0.2000 
 14 C       -4.4810    -4.8060     0.5960 C.3   1 <1>  -0.0800 
 15 O       -5.7910    -3.1410     1.6380 O.3   1 <1>  -0.6800 
 16 C       -4.3770    -5.5950    -0.7240 C.3   1 <1>  -0.0170 
 17 C       -3.5220    -6.8440    -0.5710 C.ar  1 <1>  -0.1440 
 18 C       -3.9920    -7.9820     0.0510 C.ar  1 <1>  -0.1500 
 19 C       -2.2280    -6.8990    -1.0470 C.ar  1 <1>  -0.1500 
 20 C       -3.1660    -9.0880     0.1680 C.ar  1 <1>   0.1600 
 21 C       -1.4850    -8.0550    -0.8780 C.ar  1 <1>   0.1600 
 22 N       -1.9230    -9.1510    -0.2790 N.ar  1 <1>  -0.6200 
 23 H       -0.1020     2.5670     0.8400 H     1 <1>   0.0800 
 24 H       -2.4430    -1.7240     1.8500 H     1 <1>   0.0800 
 25 H       -1.0880    -2.5690     1.1620 H     1 <1>   0.0800 
 26 H        0.1920     2.8750    -2.1570 H     1 <1>   0.0800 
 27 H        0.5490     4.1050    -0.9650 H     1 <1>   0.0800 
 28 H       -1.0920     3.5520    -1.1880 H     1 <1>   0.0800 
 29 H        1.9140     1.3070    -1.0380 H     1 <1>   0.0800 
 30 H        1.7980     1.0080     0.6790 H     1 <1>   0.0800 
 31 H        2.2590     2.5900     0.1020 H     1 <1>   0.0800 
 32 H       -4.4380    -1.5320     0.3950 H     1 <1>   0.0800 
 33 H       -4.3070    -2.3800    -1.1270 H     1 <1>   0.0800 
 34 H       -2.3200    -4.9620     0.8820 H     1 <1>   0.0800 
 35 H       -3.1670    -4.0410     2.1050 H     1 <1>   0.0800 
 36 H       -6.1170    -3.6290    -0.2780 H     1 <1>   0.0800 
 37 H       -4.9210    -5.4400     1.3460 H     1 <1>   0.0800 
 38 H       -5.0470    -2.9350     2.2340 H     1 <1>   0.4000 
 39 H       -3.9590    -4.9690    -1.4950 H     1 <1>   0.0800 
 40 H       -5.3620    -5.8850    -1.0450 H     1 <1>   0.0800 
 41 H       -4.9910    -8.0190     0.4460 H     1 <1>   0.1500 
 42 H       -1.7910    -6.0510    -1.5430 H     1 <1>   0.1500 
 43 H       -3.5500    -9.9670     0.6570 H     1 <1>   0.1500 
 44 H       -0.4770    -8.0780    -1.2550 H     1 <1>   0.1500 
@<TRIPOS>BOND
  1   1   2  1   
  2   1   3  1   
  3   2   4  2   
  4   2   5  1   
  5   3   6  2   
  6   3   7  1   
  7   4   6  1   
  8   5   8  1   
  9   5   9  1   
 10   5  23  1   
 11   7  10  1   
 12   7  24  1   
 13   7  25  1   
 14   8  26  1   
 15   8  27  1   
 16   8  28  1   
 17   9  29  1   
 18   9  30  1   
 19   9  31  1   
 20  10  11  1   
 21  10  12  1   
 22  11  13  1   
 23  11  32  1   
 24  11  33  1   
 25  12  14  1   
 26  12  34  1   
 27  12  35  1   
 28  13  14  1   
 29  13  15  1   
 30  13  36  1   
 31  14  16  1   
 32  14  37  1   
 33  15  38  1   
 34  16  17  1   
 35  16  39  1   
 36  16  40  1   
 37  17  18  ar  
 38  17  19  ar  
 39  18  20  ar  
 40  18  41  1   
 41  19  21  ar  
 42  19  42  1   
 43  20  22  ar  
 44  20  43  1   
 45  21  22  ar  
 46  21  44  1   
@<TRIPOS>SUBSTRUCTURE
  1 ****  10 GROUP 4 **** **** 0

# MOE 2024.06 (io_trps.svl 2023.06)
