@<TRIPOS>MOLECULE
NONAME
51 53 1 0 0 
SMALL
USER_CHARGES


@<TRIPOS>ATOM
  1 O       -1.1160     2.2720    -2.0290 O.2   1 <1>  -0.5700 
  2 C       -2.0920     2.1240    -1.3000 C.2   1 <1>   0.5440 
  3 N       -3.3170     1.9970    -1.9280 N.am  1 <1>  -0.6600 
  4 C       -1.9340     2.1510     0.1300 C.ar  1 <1>   0.0860 
  5 C       -3.4330     0.9390    -2.9670 C.3   1 <1>   0.1400 
  6 C       -4.5430     2.4660    -1.2240 C.3   1 <1>   0.1400 
  7 C       -2.4720     1.2020     1.0310 C.ar  1 <1>  -0.1710 
  8 C       -1.1840     3.1620     0.7250 C.ar  1 <1>  -0.1500 
  9 C       -4.2330    -0.2800    -2.4700 C.3   1 <1>   0.1400 
 10 C       -5.7910     2.5280    -2.1240 C.3   1 <1>  -0.1600 
 11 O       -3.1500     0.2130     0.6500 O.3   1 <1>  -0.8290 
 12 C       -2.2110     1.3750     2.4070 C.ar  1 <1>   0.1600 
 13 C       -1.0130     3.2310     2.0890 C.ar  1 <1>   0.1660 
 14 N       -5.6410     0.0330    -2.0310 N.am  1 <1>  -0.6600 
 15 C       -6.2750     1.1920    -2.7200 C.3   1 <1>   0.1400 
 16 N       -1.5270     2.3480     2.9450 N.ar  1 <1>  -0.6200 
 17 C       -0.2010     4.3430     2.7140 C.3   1 <1>  -0.0970 
 18 C       -6.2200    -0.4920    -0.8980 C.2   1 <1>   0.5690 
 19 O       -7.3560    -0.2010    -0.5760 O.2   1 <1>  -0.5700 
 20 C       -5.4880    -1.4900     0.0330 C.3   1 <1>   0.4840 
 21 N       -6.0280    -1.4600     1.4370 N.4   1 <1>  -0.9590 
 22 C       -5.6670    -2.9470    -0.4130 C.3   1 <1>  -0.1600 
 23 C       -5.8530    -2.8060     2.0010 C.3   1 <1>   0.3430 
 24 C       -5.3600    -0.3830     2.2230 C.3   1 <1>   0.2630 
 25 C       -6.1140    -3.7320     0.8240 C.3   1 <1>  -0.1600 
 26 H       -3.8680     1.3550    -3.8570 H     1 <1>   0.0800 
 27 H       -2.4470     0.6000    -3.2360 H     1 <1>   0.0800 
 28 H       -4.7340     1.8230    -0.3830 H     1 <1>   0.0800 
 29 H       -4.3490     3.4480    -0.8290 H     1 <1>   0.0800 
 30 H       -0.7350     3.8970     0.0840 H     1 <1>   0.1500 
 31 H       -3.6700    -0.7140    -1.6630 H     1 <1>   0.0800 
 32 H       -4.2760    -1.0030    -3.2640 H     1 <1>   0.0800 
 33 H       -5.6220     3.2340    -2.9170 H     1 <1>   0.0800 
 34 H       -6.5930     2.9230    -1.5280 H     1 <1>   0.0800 
 35 H       -2.6130     0.6260     3.0600 H     1 <1>   0.1500 
 36 H       -6.0440     1.1500    -3.7700 H     1 <1>   0.0800 
 37 H       -7.3470     1.1300    -2.6340 H     1 <1>   0.0800 
 38 H        0.1830     5.0090     1.9650 H     1 <1>   0.0800 
 39 H        0.6220     3.9180     3.2590 H     1 <1>   0.0800 
 40 H       -0.8200     4.8980     3.3940 H     1 <1>   0.0800 
 41 H       -4.4390    -1.2760     0.0470 H     1 <1>   0.0800 
 42 H       -7.0220    -1.2180     1.3000 H     1 <1>   0.4500 
 43 H       -6.3950    -3.0260    -1.2020 H     1 <1>   0.0800 
 44 H       -4.7250    -3.3110    -0.7820 H     1 <1>   0.0800 
 45 H       -4.8350    -2.9250     2.3360 H     1 <1>   0.0800 
 46 H       -6.5300    -2.9890     2.8190 H     1 <1>   0.0800 
 47 H       -4.3220    -0.6290     2.3790 H     1 <1>   0.0800 
 48 H       -5.8380    -0.2530     3.1790 H     1 <1>   0.0800 
 49 H       -5.3920     0.5500     1.6820 H     1 <1>   0.0800 
 50 H       -5.5790    -4.6590     0.9320 H     1 <1>   0.0800 
 51 H       -7.1680    -3.9420     0.7680 H     1 <1>   0.0800 
@<TRIPOS>BOND
  1   1   2  2   
  2   2   3  am  
  3   2   4  1   
  4   3   5  1   
  5   3   6  1   
  6   4   7  ar  
  7   4   8  ar  
  8   5   9  1   
  9   5  26  1   
 10   5  27  1   
 11   6  10  1   
 12   6  28  1   
 13   6  29  1   
 14   7  11  1   
 15   7  12  ar  
 16   8  13  ar  
 17   8  30  1   
 18   9  14  1   
 19   9  31  1   
 20   9  32  1   
 21  10  15  1   
 22  10  33  1   
 23  10  34  1   
 24  12  16  ar  
 25  12  35  1   
 26  13  16  ar  
 27  13  17  1   
 28  14  15  1   
 29  14  18  am  
 30  15  36  1   
 31  15  37  1   
 32  17  38  1   
 33  17  39  1   
 34  17  40  1   
 35  18  19  2   
 36  18  20  1   
 37  20  21  1   
 38  20  22  1   
 39  20  41  1   
 40  21  23  1   
 41  21  24  1   
 42  21  42  1   
 43  22  25  1   
 44  22  43  1   
 45  22  44  1   
 46  23  25  1   
 47  23  45  1   
 48  23  46  1   
 49  24  47  1   
 50  24  48  1   
 51  24  49  1   
 52  25  50  1   
 53  25  51  1   
@<TRIPOS>SUBSTRUCTURE
  1 ****  11 GROUP 4 **** **** 0

# MOE 2024.06 (io_trps.svl 2023.06)
