@<TRIPOS>MOLECULE
NONAME
50 52 1 0 0 
SMALL
USER_CHARGES


@<TRIPOS>ATOM
  1 F       -0.7440    -0.4540     1.2560 F     1 <1>  -0.3400 
  2 C       -1.9020    -0.5020     0.6130 C.3   1 <1>   0.2600 
  3 C       -3.0130    -0.2740     1.6370 C.3   1 <1>  -0.1600 
  4 C       -2.0010    -1.8730    -0.0570 C.3   1 <1>  -0.1600 
  5 C       -4.3810    -0.4790     0.9850 C.3   1 <1>   0.1400 
  6 C       -3.3830    -2.0560    -0.6860 C.3   1 <1>   0.1400 
  7 N       -4.4330    -1.8290     0.3500 N.am  1 <1>  -0.6600 
  8 C       -5.3100    -2.7950     0.8040 C.2   1 <1>   0.5690 
  9 O       -6.0360    -2.5690     1.7490 O.2   1 <1>  -0.5700 
 10 C       -5.3960    -4.1740     0.1210 C.3   1 <1>   0.2610 
 11 O       -4.2610    -4.9570     0.4300 O.3   1 <1>  -0.5600 
 12 C       -6.7170    -4.9140     0.4600 C.3   1 <1>   0.3640 
 13 C       -4.2130    -6.1770    -0.2640 C.3   1 <1>   0.1810 
 14 N       -6.6670    -6.4010     0.2320 N.am  1 <1>  -0.6600 
 15 C       -7.8450    -4.2950    -0.3710 C.ar  1 <1>  -0.1440 
 16 C       -5.4820    -7.0140    -0.0980 C.2   1 <1>   0.5690 
 17 C       -7.9070    -7.1310     0.6240 C.3   1 <1>   0.2200 
 18 C       -7.9980    -4.6030    -1.7170 C.ar  1 <1>  -0.1500 
 19 C       -8.7260    -3.3990     0.2180 C.ar  1 <1>  -0.1500 
 20 O       -5.3770    -8.2040    -0.2860 O.2   1 <1>  -0.5700 
 21 C       -7.6560    -7.9660     1.8800 C.3   1 <1>  -0.2400 
 22 C       -8.4430    -7.9810    -0.5290 C.3   1 <1>  -0.2400 
 23 C       -9.0140    -4.0270    -2.4600 C.ar  1 <1>  -0.1500 
 24 C       -9.7420    -2.8220    -0.5240 C.ar  1 <1>  -0.1500 
 25 C       -9.8860    -3.1360    -1.8630 C.ar  1 <1>  -0.1500 
 26 H       -1.8780     0.2870    -0.1180 H     1 <1>   0.0800 
 27 H       -2.9120    -0.9710     2.4510 H     1 <1>   0.0800 
 28 H       -2.9490     0.7260     2.0260 H     1 <1>   0.0800 
 29 H       -1.2470    -1.9600    -0.8170 H     1 <1>   0.0800 
 30 H       -1.8500    -2.6490     0.6740 H     1 <1>   0.0800 
 31 H       -4.5480     0.2700     0.2310 H     1 <1>   0.0800 
 32 H       -5.1520    -0.3720     1.7300 H     1 <1>   0.0800 
 33 H       -3.4460    -3.0430    -1.1060 H     1 <1>   0.0800 
 34 H       -3.5200    -1.3460    -1.4840 H     1 <1>   0.0800 
 35 H       -5.3830    -4.0030    -0.9390 H     1 <1>   0.0800 
 36 H       -6.9310    -4.7690     1.5050 H     1 <1>   0.0800 
 37 H       -4.0500    -5.9740    -1.3060 H     1 <1>   0.0800 
 38 H       -3.3750    -6.7320     0.1150 H     1 <1>   0.0800 
 39 H       -8.6710    -6.4120     0.8680 H     1 <1>   0.0800 
 40 H       -7.3300    -5.3010    -2.1930 H     1 <1>   0.1500 
 41 H       -8.6220    -3.1390     1.2580 H     1 <1>   0.1500 
 42 H       -6.9580    -8.7600     1.6810 H     1 <1>   0.0800 
 43 H       -8.5770    -8.4070     2.2130 H     1 <1>   0.0800 
 44 H       -7.2720    -7.3450     2.6670 H     1 <1>   0.0800 
 45 H       -7.7720    -8.7850    -0.7670 H     1 <1>   0.0800 
 46 H       -8.5930    -7.3730    -1.4010 H     1 <1>   0.0800 
 47 H       -9.3890    -8.4090    -0.2520 H     1 <1>   0.0800 
 48 H       -9.1260    -4.2740    -3.5010 H     1 <1>   0.1500 
 49 H      -10.4190    -2.1280    -0.0570 H     1 <1>   0.1500 
 50 H      -10.6770    -2.6870    -2.4390 H     1 <1>   0.1500 
@<TRIPOS>BOND
  1   1   2  1   
  2   2   3  1   
  3   2   4  1   
  4   2  26  1   
  5   3   5  1   
  6   3  27  1   
  7   3  28  1   
  8   4   6  1   
  9   4  29  1   
 10   4  30  1   
 11   5   7  1   
 12   5  31  1   
 13   5  32  1   
 14   6   7  1   
 15   6  33  1   
 16   6  34  1   
 17   7   8  am  
 18   8   9  2   
 19   8  10  1   
 20  10  11  1   
 21  10  12  1   
 22  10  35  1   
 23  11  13  1   
 24  12  14  1   
 25  12  15  1   
 26  12  36  1   
 27  13  16  1   
 28  13  37  1   
 29  13  38  1   
 30  14  16  am  
 31  14  17  1   
 32  15  18  ar  
 33  15  19  ar  
 34  16  20  2   
 35  17  21  1   
 36  17  22  1   
 37  17  39  1   
 38  18  23  ar  
 39  18  40  1   
 40  19  24  ar  
 41  19  41  1   
 42  21  42  1   
 43  21  43  1   
 44  21  44  1   
 45  22  45  1   
 46  22  46  1   
 47  22  47  1   
 48  23  25  ar  
 49  23  48  1   
 50  24  25  ar  
 51  24  49  1   
 52  25  50  1   
@<TRIPOS>SUBSTRUCTURE
  1 ****  10 GROUP 4 **** **** 0

# MOE 2024.06 (io_trps.svl 2023.06)
