@<TRIPOS>MOLECULE
NONAME
48 51 1 0 0 
SMALL
USER_CHARGES


@<TRIPOS>ATOM
  1 S        1.9430    -1.2920     0.8990 S.3   1 <1>  -0.0800 
  2 C        1.6350     0.4050     0.7090 C.2   1 <1>  -0.1400 
  3 C        0.3340    -1.6070     0.2780 C.2   1 <1>   0.1980 
  4 C        0.4010     0.5790     0.2260 C.2   1 <1>   0.0460 
  5 C        2.6580     1.4620     1.0610 C.3   1 <1>   0.0200 
  6 N       -0.3390    -0.5640    -0.0270 N.2   1 <1>  -0.5650 
  7 C       -0.0920    -3.0630     0.1630 C.3   1 <1>   0.5230 
  8 C       -0.1750     1.9580    -0.0390 C.3   1 <1>   0.0210 
  9 C        2.2000     2.8090     0.4680 C.3   1 <1>  -0.1600 
 10 N       -1.3960    -3.1580    -0.5780 N.4   1 <1>  -0.9590 
 11 C        0.6830     3.0470     0.6440 C.3   1 <1>  -0.1600 
 12 C       -1.2250    -2.8660    -2.0410 C.3   1 <1>   0.3430 
 13 C       -2.0020    -4.5120    -0.4520 C.3   1 <1>   0.3430 
 14 C       -1.8260    -4.0650    -2.7900 C.3   1 <1>   0.2000 
 15 C       -1.7380    -5.2140    -1.7880 C.3   1 <1>  -0.0800 
 16 O       -3.1640    -3.8230    -3.0770 O.3   1 <1>  -0.6800 
 17 C       -0.3490    -5.8880    -1.8570 C.3   1 <1>   0.0210 
 18 C        0.0170    -6.6160    -0.5790 C.2   1 <1>   0.1080 
 19 N        0.5140    -6.0070     0.4560 N.2   1 <1>  -0.7070 
 20 C       -0.1260    -7.9820    -0.3740 C.2   1 <1>  -0.1500 
 21 N        0.7250    -6.9960     1.3560 N.pl3 1 <1>   0.3000 
 22 C        0.3350    -8.1950     0.8760 C.2   1 <1>  -0.3320 
 23 C        0.4380    -9.4970     1.6500 C.3   1 <1>  -0.0600 
 24 H        2.7320     1.5340     2.1320 H     1 <1>   0.0800 
 25 H        3.6230     1.1960     0.6660 H     1 <1>   0.0800 
 26 H       -0.2010    -3.4710     1.1530 H     1 <1>   0.0800 
 27 H        0.6710    -3.6270    -0.3470 H     1 <1>   0.0800 
 28 H       -0.1980     2.1200    -1.1010 H     1 <1>   0.0800 
 29 H       -1.1820     2.0070     0.3330 H     1 <1>   0.0800 
 30 H        2.7520     3.6090     0.9320 H     1 <1>   0.0800 
 31 H        2.4300     2.8210    -0.5830 H     1 <1>   0.0800 
 32 H       -1.9870    -2.4200    -0.1650 H     1 <1>   0.4500 
 33 H        0.4160     4.0100     0.2470 H     1 <1>   0.0800 
 34 H        0.4570     3.0550     1.6970 H     1 <1>   0.0800 
 35 H       -1.7120    -1.9470    -2.3250 H     1 <1>   0.0800 
 36 H       -0.1760    -2.7880    -2.2750 H     1 <1>   0.0800 
 37 H       -1.6100    -5.0580     0.3890 H     1 <1>   0.0800 
 38 H       -3.0670    -4.4120    -0.3200 H     1 <1>   0.0800 
 39 H       -1.3220    -4.2660    -3.7210 H     1 <1>   0.0800 
 40 H       -2.4890    -5.9640    -1.9700 H     1 <1>   0.0800 
 41 H       -3.6880    -3.5650    -2.2950 H     1 <1>   0.4000 
 42 H        0.4240    -5.1640    -2.0450 H     1 <1>   0.0800 
 43 H       -0.3320    -6.5850    -2.6770 H     1 <1>   0.0800 
 44 H       -0.5150    -8.7000    -1.0750 H     1 <1>   0.1500 
 45 H        1.1430    -6.8330     2.2820 H     1 <1>   0.2700 
 46 H        0.0690   -10.3130     1.0540 H     1 <1>   0.0800 
 47 H       -0.1430    -9.4440     2.5540 H     1 <1>   0.0800 
 48 H        1.4640    -9.7010     1.9050 H     1 <1>   0.0800 
@<TRIPOS>BOND
  1   1   2  1   
  2   1   3  1   
  3   2   4  2   
  4   2   5  1   
  5   3   6  2   
  6   3   7  1   
  7   4   6  1   
  8   4   8  1   
  9   5   9  1   
 10   5  24  1   
 11   5  25  1   
 12   7  10  1   
 13   7  26  1   
 14   7  27  1   
 15   8  11  1   
 16   8  28  1   
 17   8  29  1   
 18   9  11  1   
 19   9  30  1   
 20   9  31  1   
 21  10  12  1   
 22  10  13  1   
 23  10  32  1   
 24  11  33  1   
 25  11  34  1   
 26  12  14  1   
 27  12  35  1   
 28  12  36  1   
 29  13  15  1   
 30  13  37  1   
 31  13  38  1   
 32  14  15  1   
 33  14  16  1   
 34  14  39  1   
 35  15  17  1   
 36  15  40  1   
 37  16  41  1   
 38  17  18  1   
 39  17  42  1   
 40  17  43  1   
 41  18  19  2   
 42  18  20  1   
 43  19  21  1   
 44  20  22  2   
 45  20  44  1   
 46  21  22  1   
 47  21  45  1   
 48  22  23  1   
 49  23  46  1   
 50  23  47  1   
 51  23  48  1   
@<TRIPOS>SUBSTRUCTURE
  1 ****   7 GROUP 4 **** **** 0

# MOE 2024.06 (io_trps.svl 2023.06)
