@<TRIPOS>MOLECULE
NONAME
44 46 1 0 0 
SMALL
USER_CHARGES


@<TRIPOS>ATOM
  1 O        0.4780     1.3340     0.2250 O.2   1 <1>  -0.5700 
  2 C        0.1890     2.4610    -0.0830 C.2   1 <1>   0.5690 
  3 N       -0.5500     3.2350     0.7380 N.am  1 <1>  -0.7300 
  4 C        0.6300     3.0340    -1.4280 C.3   1 <1>   0.1810 
  5 C       -0.9760     4.6210     0.4140 C.3   1 <1>   0.3640 
  6 O        0.7260     4.4390    -1.3910 O.3   1 <1>  -0.5600 
  7 C       -2.5000     4.6730     0.4830 C.ar  1 <1>  -0.1440 
  8 C       -0.4560     5.1180    -0.9680 C.3   1 <1>   0.2610 
  9 C       -3.2830     3.6850    -0.1030 C.ar  1 <1>   0.1600 
 10 C       -3.1370     5.7170     1.1270 C.ar  1 <1>  -0.1500 
 11 C       -0.1930     6.6290    -0.9070 C.2   1 <1>   0.5690 
 12 N       -4.6050     3.6590    -0.1020 N.ar  1 <1>  -0.6200 
 13 C       -4.5150     5.7050     1.1410 C.ar  1 <1>  -0.1500 
 14 O       -1.0190     7.3640    -0.4190 O.2   1 <1>  -0.5700 
 15 N        0.9870     7.1080    -1.3860 N.am  1 <1>  -0.7300 
 16 C       -5.1900     4.6690     0.5200 C.ar  1 <1>   0.1600 
 17 C        1.4660     8.5050    -1.2960 C.3   1 <1>   0.1400 
 18 C        2.7740     8.5680    -0.4940 C.3   1 <1>  -0.0800 
 19 C        2.6020     8.0490     0.9460 C.3   1 <1>  -0.1600 
 20 C        3.3070    10.0090    -0.4450 C.3   1 <1>  -0.1600 
 21 C        3.8750     8.2740     1.7690 C.3   1 <1>   0.1200 
 22 C        4.5410    10.1070     0.4600 C.3   1 <1>   0.1200 
 23 O        4.2240     9.6220     1.7270 O.3   1 <1>  -0.5600 
 24 H       -0.8610     2.8420     1.6290 H     1 <1>   0.3700 
 25 H       -0.0730     2.7560    -2.1920 H     1 <1>   0.0800 
 26 H        1.5980     2.6440    -1.6830 H     1 <1>   0.0800 
 27 H       -0.5760     5.2670     1.1770 H     1 <1>   0.0800 
 28 H       -1.2090     4.9470    -1.7160 H     1 <1>   0.0800 
 29 H       -2.7990     2.8630    -0.6030 H     1 <1>   0.1500 
 30 H       -2.5890     6.5190     1.5940 H     1 <1>   0.1500 
 31 H       -5.0620     6.4930     1.6240 H     1 <1>   0.1500 
 32 H        1.6470     6.4170    -1.7560 H     1 <1>   0.3700 
 33 H       -6.2670     4.6710     0.5360 H     1 <1>   0.1500 
 34 H        1.6260     8.8830    -2.2910 H     1 <1>   0.0800 
 35 H        0.7170     9.1180    -0.8220 H     1 <1>   0.0800 
 36 H        3.5100     7.9610    -0.9940 H     1 <1>   0.0800 
 37 H        2.3720     6.9990     0.9390 H     1 <1>   0.0800 
 38 H        1.7860     8.5610     1.4270 H     1 <1>   0.0800 
 39 H        2.5520    10.6720    -0.0600 H     1 <1>   0.0800 
 40 H        3.5660    10.3410    -1.4340 H     1 <1>   0.0800 
 41 H        4.6980     7.6940     1.3850 H     1 <1>   0.0800 
 42 H        3.7100     8.0100     2.7990 H     1 <1>   0.0800 
 43 H        4.8490    11.1320     0.5690 H     1 <1>   0.0800 
 44 H        5.3640     9.5330     0.0680 H     1 <1>   0.0800 
@<TRIPOS>BOND
  1   1   2  2   
  2   2   3  am  
  3   2   4  1   
  4   3   5  1   
  5   3  24  1   
  6   4   6  1   
  7   4  25  1   
  8   4  26  1   
  9   5   7  1   
 10   5   8  1   
 11   5  27  1   
 12   6   8  1   
 13   7   9  ar  
 14   7  10  ar  
 15   8  11  1   
 16   8  28  1   
 17   9  12  ar  
 18   9  29  1   
 19  10  13  ar  
 20  10  30  1   
 21  11  14  2   
 22  11  15  am  
 23  12  16  ar  
 24  13  16  ar  
 25  13  31  1   
 26  15  17  1   
 27  15  32  1   
 28  16  33  1   
 29  17  18  1   
 30  17  34  1   
 31  17  35  1   
 32  18  19  1   
 33  18  20  1   
 34  18  36  1   
 35  19  21  1   
 36  19  37  1   
 37  19  38  1   
 38  20  22  1   
 39  20  39  1   
 40  20  40  1   
 41  21  23  1   
 42  21  41  1   
 43  21  42  1   
 44  22  23  1   
 45  22  43  1   
 46  22  44  1   
@<TRIPOS>SUBSTRUCTURE
  1 ****  11 GROUP 4 **** **** 0

# MOE 2024.06 (io_trps.svl 2023.06)
