@<TRIPOS>MOLECULE
NONAME
53 55 1 0 0 
SMALL
USER_CHARGES


@<TRIPOS>ATOM
  1 S       -2.4660     0.1630     2.3500 S.o2  1 <1>   1.2040 
  2 O       -3.2520    -1.0380     2.5200 O.2   1 <1>  -0.6500 
  3 O       -2.1630     0.9960     3.4920 O.2   1 <1>  -0.6500 
  4 C       -3.1870     1.1770     1.0370 C.ar  1 <1>  -0.0090 
  5 C       -0.9110    -0.3240     1.6280 C.3   1 <1>  -0.1350 
  6 C       -2.9910     2.5520     1.0010 C.ar  1 <1>  -0.1500 
  7 C       -3.9300     0.6030     0.0140 C.ar  1 <1>  -0.1500 
  8 C       -3.5210     3.3280    -0.0150 C.ar  1 <1>  -0.1500 
  9 C       -4.4630     1.3720    -1.0060 C.ar  1 <1>  -0.1500 
 10 C       -4.2670     2.7430    -1.0250 C.ar  1 <1>  -0.1430 
 11 C       -4.8680     3.5990    -2.1390 C.3   1 <1>   0.0440 
 12 C       -6.3100     3.2350    -2.4770 C.2   1 <1>   0.5690 
 13 O       -6.4960     2.6280    -3.5070 O.2   1 <1>  -0.5700 
 14 N       -7.3550     3.5880    -1.6560 N.am  1 <1>  -0.6600 
 15 C       -8.7570     3.2770    -2.0700 C.3   1 <1>   0.1400 
 16 C       -7.1830     4.2310    -0.3150 C.3   1 <1>   0.1400 
 17 C       -9.7280     4.2890    -1.4580 C.3   1 <1>  -0.1600 
 18 C       -8.3220     3.8080     0.6100 C.3   1 <1>  -0.1600 
 19 C       -9.6880     4.2950     0.0920 C.3   1 <1>   0.2800 
 20 O       -9.7930     5.6260     0.5230 O.3   1 <1>  -0.5600 
 21 C      -10.8200     3.4460     0.7350 C.3   1 <1>  -0.1600 
 22 C      -10.9720     6.3340     0.2320 C.3   1 <1>   0.1200 
 23 C      -11.9300     4.2800     1.3820 C.3   1 <1>   0.2800 
 24 C      -12.2310     5.4990     0.5150 C.3   1 <1>  -0.1600 
 25 O      -11.4510     4.7410     2.5810 O.3   1 <1>  -0.6800 
 26 C      -13.1760     3.4550     1.6910 C.3   1 <1>  -0.2400 
 27 H       -0.3660    -0.9420     2.3160 H     1 <1>   0.0800 
 28 H       -0.3170     0.5390     1.4010 H     1 <1>   0.0800 
 29 H       -1.0750    -0.8810     0.7260 H     1 <1>   0.0800 
 30 H       -2.4190     3.0250     1.7820 H     1 <1>   0.1500 
 31 H       -4.1030    -0.4610     0.0150 H     1 <1>   0.1500 
 32 H       -3.3500     4.3910    -0.0100 H     1 <1>   0.1500 
 33 H       -5.0360     0.8940    -1.7850 H     1 <1>   0.1500 
 34 H       -4.2710     3.4750    -3.0240 H     1 <1>   0.0800 
 35 H       -4.8340     4.6390    -1.8750 H     1 <1>   0.0800 
 36 H       -9.0050     2.2800    -1.7490 H     1 <1>   0.0800 
 37 H       -8.8350     3.3120    -3.1440 H     1 <1>   0.0800 
 38 H       -7.1860     5.3020    -0.4280 H     1 <1>   0.0800 
 39 H       -6.2510     3.9350     0.1310 H     1 <1>   0.0800 
 40 H      -10.7200     4.0830    -1.8140 H     1 <1>   0.0800 
 41 H       -9.4420     5.2540    -1.8370 H     1 <1>   0.0800 
 42 H       -8.1540     4.1880     1.6020 H     1 <1>   0.0800 
 43 H       -8.3020     2.7340     0.6730 H     1 <1>   0.0800 
 44 H      -10.4270     2.7740     1.4780 H     1 <1>   0.0800 
 45 H      -11.2500     2.8170    -0.0200 H     1 <1>   0.0800 
 46 H      -10.9440     6.6550    -0.7950 H     1 <1>   0.0800 
 47 H      -10.9690     7.2100     0.8570 H     1 <1>   0.0800 
 48 H      -12.6400     5.1680    -0.4220 H     1 <1>   0.0800 
 49 H      -12.9800     6.1140     0.9820 H     1 <1>   0.0800 
 50 H      -10.6370     5.2500     2.3760 H     1 <1>   0.4000 
 51 H      -13.6070     3.0750     0.7830 H     1 <1>   0.0800 
 52 H      -13.9100     4.0630     2.1890 H     1 <1>   0.0800 
 53 H      -12.9230     2.6230     2.3240 H     1 <1>   0.0800 
@<TRIPOS>BOND
  1   1   2  2   
  2   1   3  2   
  3   1   4  1   
  4   1   5  1   
  5   4   6  ar  
  6   4   7  ar  
  7   5  27  1   
  8   5  28  1   
  9   5  29  1   
 10   6   8  ar  
 11   6  30  1   
 12   7   9  ar  
 13   7  31  1   
 14   8  10  ar  
 15   8  32  1   
 16   9  10  ar  
 17   9  33  1   
 18  10  11  1   
 19  11  12  1   
 20  11  34  1   
 21  11  35  1   
 22  12  13  2   
 23  12  14  am  
 24  14  15  1   
 25  14  16  1   
 26  15  17  1   
 27  15  36  1   
 28  15  37  1   
 29  16  18  1   
 30  16  38  1   
 31  16  39  1   
 32  17  19  1   
 33  17  40  1   
 34  17  41  1   
 35  18  19  1   
 36  18  42  1   
 37  18  43  1   
 38  19  20  1   
 39  19  21  1   
 40  20  22  1   
 41  21  23  1   
 42  21  44  1   
 43  21  45  1   
 44  22  24  1   
 45  22  46  1   
 46  22  47  1   
 47  23  24  1   
 48  23  25  1   
 49  23  26  1   
 50  24  48  1   
 51  24  49  1   
 52  25  50  1   
 53  26  51  1   
 54  26  52  1   
 55  26  53  1   
@<TRIPOS>SUBSTRUCTURE
  1 ****  16 GROUP 4 **** **** 0

# MOE 2024.06 (io_trps.svl 2023.06)
