@<TRIPOS>MOLECULE
NONAME
52 54 1 0 0 
SMALL
USER_CHARGES


@<TRIPOS>ATOM
  1 F       -0.1010    -1.1760    -2.2210 F     1 <1>  -0.1900 
  2 C        0.9420    -1.5650    -1.5360 C.ar  1 <1>   0.1900 
  3 C        0.7620    -2.1720    -0.2970 C.ar  1 <1>  -0.1440 
  4 C        2.1890    -1.3600    -2.0940 C.ar  1 <1>  -0.1500 
  5 C        1.8910    -2.5850     0.4030 C.ar  1 <1>  -0.1500 
  6 C       -0.6230    -2.4040     0.3110 C.3   1 <1>   0.0450 
  7 C        3.2810    -1.7880    -1.3680 C.ar  1 <1>   0.1900 
  8 C        3.1570    -2.3960    -0.1320 C.ar  1 <1>  -0.1500 
  9 C       -0.8390    -3.8670     0.6690 C.2   1 <1>   0.5690 
 10 F        4.4750    -1.6140    -1.8670 F     1 <1>  -0.1900 
 11 O       -0.8200    -4.1540     1.8420 O.2   1 <1>  -0.5700 
 12 N       -1.0180    -4.8130    -0.3050 N.am  1 <1>  -0.6600 
 13 C       -1.0030    -6.2720     0.0540 C.3   1 <1>   0.3640 
 14 C       -1.1740    -4.4910    -1.7610 C.3   1 <1>   0.1400 
 15 C        0.4130    -6.8660    -0.0580 C.ar  1 <1>  -0.1430 
 16 C       -2.0310    -7.0970    -0.7880 C.3   1 <1>   0.2000 
 17 C       -1.3680    -5.7470    -2.6230 C.3   1 <1>   0.1200 
 18 C        0.6250    -8.1380     0.4630 C.ar  1 <1>  -0.1500 
 19 C        1.4930    -6.2030    -0.6350 C.ar  1 <1>  -0.1500 
 20 O       -2.3500    -6.5490    -2.0490 O.3   1 <1>  -0.5600 
 21 C       -3.3580    -7.2640    -0.0380 C.3   1 <1>   0.1200 
 22 C        1.8660    -8.7490     0.3910 C.ar  1 <1>   0.0830 
 23 C        2.7430    -6.7950    -0.6940 C.ar  1 <1>  -0.1500 
 24 O       -3.1960    -8.1310     1.0400 O.3   1 <1>  -0.6800 
 25 O        1.9660   -10.0100     0.8800 O.3   1 <1>  -0.3630 
 26 C        2.9440    -8.0590    -0.1720 C.ar  1 <1>   0.0830 
 27 C        2.3010   -11.0210    -0.0450 C.3   1 <1>   0.0400 
 28 O        4.1990    -8.5670    -0.2260 O.3   1 <1>  -0.3630 
 29 C        4.8520    -8.7330     1.0130 C.3   1 <1>   0.0400 
 30 H        2.3050    -0.8890    -3.0520 H     1 <1>   0.1500 
 31 H        1.7890    -3.0610     1.3660 H     1 <1>   0.1500 
 32 H       -1.4090    -2.0860    -0.3460 H     1 <1>   0.0800 
 33 H       -0.7060    -1.8180     1.2080 H     1 <1>   0.0800 
 34 H        4.0350    -2.7160     0.4020 H     1 <1>   0.1500 
 35 H       -1.2810    -6.3750     1.0890 H     1 <1>   0.0800 
 36 H       -2.0310    -3.8530    -1.8900 H     1 <1>   0.0800 
 37 H       -0.3070    -3.9640    -2.1140 H     1 <1>   0.0800 
 38 H       -1.6320    -8.0760    -0.9800 H     1 <1>   0.0800 
 39 H       -0.4570    -6.3140    -2.7080 H     1 <1>   0.0800 
 40 H       -1.6980    -5.4740    -3.6100 H     1 <1>   0.0800 
 41 H       -0.1780    -8.6750     0.9340 H     1 <1>   0.1500 
 42 H        1.3870    -5.2130    -1.0370 H     1 <1>   0.1500 
 43 H       -4.1120    -7.6740    -0.6860 H     1 <1>   0.0800 
 44 H       -3.6890    -6.3140     0.3460 H     1 <1>   0.0800 
 45 H        3.5710    -6.2730    -1.1370 H     1 <1>   0.1500 
 46 H       -3.1890    -9.0620     0.7400 H     1 <1>   0.4000 
 47 H        2.1960   -11.9720     0.4450 H     1 <1>   0.0800 
 48 H        3.3170   -10.8880    -0.3680 H     1 <1>   0.0800 
 49 H        1.6310   -10.9620    -0.8840 H     1 <1>   0.0800 
 50 H        5.8590    -9.0580     0.8220 H     1 <1>   0.0800 
 51 H        4.3320    -9.4730     1.5950 H     1 <1>   0.0800 
 52 H        4.8600    -7.7900     1.5310 H     1 <1>   0.0800 
@<TRIPOS>BOND
  1   1   2  1   
  2   2   3  ar  
  3   2   4  ar  
  4   3   5  ar  
  5   3   6  1   
  6   4   7  ar  
  7   4  30  1   
  8   5   8  ar  
  9   5  31  1   
 10   6   9  1   
 11   6  32  1   
 12   6  33  1   
 13   7   8  ar  
 14   7  10  1   
 15   8  34  1   
 16   9  11  2   
 17   9  12  am  
 18  12  13  1   
 19  12  14  1   
 20  13  15  1   
 21  13  16  1   
 22  13  35  1   
 23  14  17  1   
 24  14  36  1   
 25  14  37  1   
 26  15  18  ar  
 27  15  19  ar  
 28  16  20  1   
 29  16  21  1   
 30  16  38  1   
 31  17  20  1   
 32  17  39  1   
 33  17  40  1   
 34  18  22  ar  
 35  18  41  1   
 36  19  23  ar  
 37  19  42  1   
 38  21  24  1   
 39  21  43  1   
 40  21  44  1   
 41  22  25  1   
 42  22  26  ar  
 43  23  26  ar  
 44  23  45  1   
 45  24  46  1   
 46  25  27  1   
 47  26  28  1   
 48  27  47  1   
 49  27  48  1   
 50  27  49  1   
 51  28  29  1   
 52  29  50  1   
 53  29  51  1   
 54  29  52  1   
@<TRIPOS>SUBSTRUCTURE
  1 ****  19 GROUP 4 **** **** 0

# MOE 2024.06 (io_trps.svl 2023.06)
