@<TRIPOS>MOLECULE
NONAME
49 52 1 0 0 
SMALL
USER_CHARGES


@<TRIPOS>ATOM
  1 F       -1.8850     0.3510    -0.6180 F     1 <1>  -0.3400 
  2 C       -2.3060    -0.6130    -1.4230 C.3   1 <1>   0.7800 
  3 F       -2.6240     0.0090    -2.5490 F     1 <1>  -0.3400 
  4 C       -3.5540    -1.2320    -0.8360 C.2   1 <1>  -0.3320 
  5 N       -4.6200    -0.4850    -0.5110 N.pl3 1 <1>   0.3000 
  6 C       -3.8700    -2.5060    -0.5290 C.2   1 <1>  -0.1500 
  7 N       -5.6130    -1.2260    -0.0010 N.2   1 <1>  -0.7070 
  8 C       -5.1740    -2.4770    -0.0110 C.2   1 <1>   0.2030 
  9 C       -5.8580    -3.6900     0.4440 C.2   1 <1>   0.7160 
 10 O       -5.1750    -4.6530     0.7600 O.2   1 <1>  -0.5700 
 11 N       -7.2370    -3.8320     0.5280 N.am  1 <1>  -0.6600 
 12 C       -8.2250    -2.9260    -0.1390 C.3   1 <1>   0.1400 
 13 C       -7.8740    -4.9780     1.2380 C.3   1 <1>   0.1400 
 14 C       -9.2170    -2.3450     0.8850 C.3   1 <1>   0.1430 
 15 C       -8.8870    -4.4590     2.2680 C.3   1 <1>  -0.1600 
 16 C      -10.1940    -1.4550     0.1400 C.ar  1 <1>   0.1670 
 17 C       -9.9130    -3.5010     1.6360 C.3   1 <1>  -0.1600 
 18 C       -8.5370    -1.3470     1.8600 C.3   1 <1>  -0.1600 
 19 N      -11.1550    -1.8730    -0.6460 N.ar  1 <1>  -0.6200 
 20 C       -9.9390    -0.1360     0.3650 C.ar  1 <1>  -0.1430 
 21 C       -8.7610     0.0610     1.2850 C.3   1 <1>  -0.0170 
 22 C      -11.8860    -0.9090    -1.2110 C.ar  1 <1>   0.7200 
 23 C      -10.7450     0.7830    -0.2570 C.ar  1 <1>   0.1600 
 24 N      -11.7240     0.4080    -1.0450 N.ar  1 <1>  -0.6200 
 25 N      -12.9060    -1.3130    -2.0520 N.pl3 1 <1>  -0.8380 
 26 C      -13.0150    -2.7120    -2.5490 C.3   1 <1>   0.1290 
 27 C      -13.9570    -0.3710    -2.5250 C.3   1 <1>   0.1290 
 28 H       -1.4950    -1.2940    -1.6130 H     1 <1>   0.0800 
 29 H       -4.6860     0.5360    -0.6280 H     1 <1>   0.2700 
 30 H       -3.2810    -3.4020    -0.6350 H     1 <1>   0.1500 
 31 H       -8.7770    -3.5000    -0.8630 H     1 <1>   0.0800 
 32 H       -7.7440    -2.1320    -0.6760 H     1 <1>   0.0800 
 33 H       -7.1340    -5.5790     1.7390 H     1 <1>   0.0800 
 34 H       -8.3730    -5.6010     0.5150 H     1 <1>   0.0800 
 35 H       -8.3520    -3.9590     3.0560 H     1 <1>   0.0800 
 36 H       -9.4010    -5.2960     2.7060 H     1 <1>   0.0800 
 37 H      -10.5180    -4.0530     0.9370 H     1 <1>   0.0800 
 38 H      -10.5720    -3.1090     2.3900 H     1 <1>   0.0800 
 39 H       -7.4920    -1.5550     2.0060 H     1 <1>   0.0800 
 40 H       -9.0240    -1.3940     2.8180 H     1 <1>   0.0800 
 41 H       -7.9040     0.3740     0.7130 H     1 <1>   0.0800 
 42 H       -8.9690     0.7780     2.0590 H     1 <1>   0.0800 
 43 H      -10.5830     1.8370    -0.1080 H     1 <1>   0.1500 
 44 H      -12.0400    -3.1610    -2.6300 H     1 <1>   0.0800 
 45 H      -13.4750    -2.7260    -3.5210 H     1 <1>   0.0800 
 46 H      -13.6100    -3.2900    -1.8630 H     1 <1>   0.0800 
 47 H      -14.1370     0.3930    -1.7880 H     1 <1>   0.0800 
 48 H      -14.8790    -0.8990    -2.6960 H     1 <1>   0.0800 
 49 H      -13.6350     0.0940    -3.4400 H     1 <1>   0.0800 
@<TRIPOS>BOND
  1   1   2  1   
  2   2   3  1   
  3   2   4  1   
  4   2  28  1   
  5   4   5  1   
  6   4   6  2   
  7   5   7  1   
  8   5  29  1   
  9   6   8  1   
 10   6  30  1   
 11   7   8  2   
 12   8   9  1   
 13   9  10  2   
 14   9  11  am  
 15  11  12  1   
 16  11  13  1   
 17  12  14  1   
 18  12  31  1   
 19  12  32  1   
 20  13  15  1   
 21  13  33  1   
 22  13  34  1   
 23  14  16  1   
 24  14  17  1   
 25  14  18  1   
 26  15  17  1   
 27  15  35  1   
 28  15  36  1   
 29  16  19  ar  
 30  16  20  ar  
 31  17  37  1   
 32  17  38  1   
 33  18  21  1   
 34  18  39  1   
 35  18  40  1   
 36  19  22  ar  
 37  20  21  1   
 38  20  23  ar  
 39  21  41  1   
 40  21  42  1   
 41  22  24  ar  
 42  22  25  1   
 43  23  24  ar  
 44  23  43  1   
 45  25  26  1   
 46  25  27  1   
 47  26  44  1   
 48  26  45  1   
 49  26  46  1   
 50  27  47  1   
 51  27  48  1   
 52  27  49  1   
@<TRIPOS>SUBSTRUCTURE
  1 ****  12 GROUP 4 **** **** 0

# MOE 2024.06 (io_trps.svl 2023.06)
