@<TRIPOS>MOLECULE
NONAME
41 44 1 0 0 
SMALL
USER_CHARGES


@<TRIPOS>ATOM
  1 S        0.0510    -3.7410     1.9670 S.3   1 <1>  -0.0800 
  2 C       -0.1940    -2.6040     0.6490 C.2   1 <1>   0.1980 
  3 C       -1.6680    -3.7840     2.2260 C.2   1 <1>  -0.1100 
  4 N       -1.4200    -2.3120     0.4480 N.2   1 <1>  -0.5650 
  5 C        1.0430    -2.0850    -0.0950 C.3   1 <1>   0.4000 
  6 C       -2.2560    -2.9730     1.3340 C.2   1 <1>   0.0770 
  7 N        1.8890    -3.1890    -0.6140 N.am  1 <1>  -0.6600 
  8 C        1.9800    -1.2730     0.8130 C.3   1 <1>  -0.1600 
  9 C        1.5100    -3.9490    -1.6830 C.2   1 <1>   0.5690 
 10 C        3.1690    -3.2650     0.1110 C.3   1 <1>   0.1400 
 11 C        3.3870    -1.8380     0.5980 C.3   1 <1>  -0.1600 
 12 O        0.5300    -3.6690    -2.3340 O.2   1 <1>  -0.5700 
 13 C        2.2830    -5.2070    -2.0880 C.3   1 <1>   0.1810 
 14 O        2.4900    -6.1100    -1.0040 O.3   1 <1>  -0.3630 
 15 C        1.4660    -6.5440    -0.2240 C.ar  1 <1>   0.0830 
 16 C        0.1240    -6.3830    -0.5510 C.ar  1 <1>  -0.1500 
 17 C        1.8060    -7.1530     0.9720 C.ar  1 <1>  -0.1500 
 18 C       -0.8770    -6.7540     0.3400 C.ar  1 <1>  -0.0230 
 19 C        0.8210    -7.5710     1.8480 C.ar  1 <1>  -0.1500 
 20 N       -2.2450    -6.4810     0.0430 N.pl3 1 <1>   0.5930 
 21 C       -0.5120    -7.3670     1.5370 C.ar  1 <1>  -0.1500 
 22 N       -3.2780    -7.1770     0.4980 N.2   1 <1>  -0.4180 
 23 C       -2.7610    -5.4820    -0.6630 C.2   1 <1>   0.0360 
 24 N       -4.3410    -6.6060     0.0620 N.2   1 <1>   0.0000 
 25 N       -4.0370    -5.5400    -0.6670 N.2   1 <1>  -0.3380 
 26 H       -2.0520    -4.4090     3.0110 H     1 <1>   0.1500 
 27 H        0.7210    -1.4760    -0.9230 H     1 <1>   0.0800 
 28 H       -3.3160    -2.7980     1.2490 H     1 <1>   0.1500 
 29 H        1.6940    -1.3900     1.8430 H     1 <1>   0.0800 
 30 H        1.9310    -0.2260     0.5710 H     1 <1>   0.0800 
 31 H        3.9710    -3.5960    -0.5250 H     1 <1>   0.0800 
 32 H        3.0620    -3.9390     0.9450 H     1 <1>   0.0800 
 33 H        3.9820    -1.8100     1.4940 H     1 <1>   0.0800 
 34 H        3.8910    -1.2810    -0.1730 H     1 <1>   0.0800 
 35 H        3.2470    -4.9280    -2.4680 H     1 <1>   0.0800 
 36 H        1.7490    -5.7320    -2.8590 H     1 <1>   0.0800 
 37 H       -0.1610    -5.9610    -1.4950 H     1 <1>   0.1500 
 38 H        2.8440    -7.2950     1.2140 H     1 <1>   0.1500 
 39 H        1.0920    -8.0480     2.7740 H     1 <1>   0.1500 
 40 H       -1.2700    -7.6830     2.2340 H     1 <1>   0.1500 
 41 H       -2.1630    -4.7290    -1.1430 H     1 <1>   0.1500 
@<TRIPOS>BOND
  1   1   2  1   
  2   1   3  1   
  3   2   4  2   
  4   2   5  1   
  5   3   6  2   
  6   3  26  1   
  7   4   6  1   
  8   5   7  1   
  9   5   8  1   
 10   5  27  1   
 11   6  28  1   
 12   7   9  am  
 13   7  10  1   
 14   8  11  1   
 15   8  29  1   
 16   8  30  1   
 17   9  12  2   
 18   9  13  1   
 19  10  11  1   
 20  10  31  1   
 21  10  32  1   
 22  11  33  1   
 23  11  34  1   
 24  13  14  1   
 25  13  35  1   
 26  13  36  1   
 27  14  15  1   
 28  15  16  ar  
 29  15  17  ar  
 30  16  18  ar  
 31  16  37  1   
 32  17  19  ar  
 33  17  38  1   
 34  18  20  1   
 35  18  21  ar  
 36  19  21  ar  
 37  19  39  1   
 38  20  22  1   
 39  20  23  1   
 40  21  40  1   
 41  22  24  2   
 42  23  25  2   
 43  23  41  1   
 44  24  25  1   
@<TRIPOS>SUBSTRUCTURE
  1 ****  16 GROUP 4 **** **** 0

# MOE 2024.06 (io_trps.svl 2023.06)
