@<TRIPOS>MOLECULE
NONAME
47 48 1 0 0 
SMALL
USER_CHARGES


@<TRIPOS>ATOM
  1 O       -3.4310     3.3940    -0.0030 O.2   1 <1>  -0.5700 
  2 C       -2.8720     2.4820    -0.5720 C.2   1 <1>   0.5690 
  3 N       -3.5940     1.3590    -0.9100 N.am  1 <1>  -0.6600 
  4 C       -1.3550     2.5860    -0.8250 C.3   1 <1>   0.1250 
  5 C       -3.0190     0.1080    -1.4780 C.3   1 <1>   0.3200 
  6 C       -5.0310     1.2620    -0.5030 C.3   1 <1>   0.1400 
  7 C       -0.6040     1.6640     0.1380 C.ar  1 <1>  -0.1440 
  8 C       -0.7970     4.0160    -0.7100 C.3   1 <1>  -0.2400 
  9 C       -3.1020    -0.9490    -0.3990 C.2   1 <1>  -0.3320 
 10 C       -5.1310     1.2070     1.0350 C.3   1 <1>   0.3430 
 11 C       -0.8140     1.7620     1.5070 C.ar  1 <1>  -0.1500 
 12 C        0.2860     0.7130    -0.3410 C.ar  1 <1>  -0.1500 
 13 N       -2.2950    -0.9840     0.6800 N.pl3 1 <1>   0.0330 
 14 C       -3.9550    -1.9880    -0.2730 C.2   1 <1>   0.0770 
 15 N       -6.4330     0.6550     1.5380 N.4   1 <1>  -0.9590 
 16 C       -0.1630     0.9100     2.3820 C.ar  1 <1>  -0.1500 
 17 C        0.9350    -0.1420     0.5330 C.ar  1 <1>  -0.1500 
 18 C       -2.7440    -2.0210     1.4160 C.2   1 <1>   0.0360 
 19 N       -3.7550    -2.6350     0.8890 N.2   1 <1>  -0.5650 
 20 C       -6.6210     1.0390     2.9690 C.3   1 <1>   0.2630 
 21 C       -6.4720    -0.8380     1.4030 C.3   1 <1>   0.2630 
 22 C        0.7090    -0.0470     1.8940 C.ar  1 <1>  -0.1500 
 23 H       -1.1760     2.2710    -1.8360 H     1 <1>   0.0800 
 24 H       -2.0030     0.2330    -1.8010 H     1 <1>   0.0800 
 25 H       -3.6010    -0.1920    -2.3340 H     1 <1>   0.0800 
 26 H       -5.4700     0.3840    -0.9420 H     1 <1>   0.0800 
 27 H       -5.5570     2.1280    -0.8670 H     1 <1>   0.0800 
 28 H       -0.9450     4.4040     0.2820 H     1 <1>   0.0800 
 29 H       -1.2970     4.6660    -1.4060 H     1 <1>   0.0800 
 30 H        0.2570     4.0220    -0.9260 H     1 <1>   0.0800 
 31 H       -4.9910     2.2090     1.4090 H     1 <1>   0.0800 
 32 H       -4.3260     0.5970     1.4090 H     1 <1>   0.0800 
 33 H       -1.4830     2.5110     1.9000 H     1 <1>   0.1500 
 34 H        0.4860     0.6290    -1.3960 H     1 <1>   0.1500 
 35 H       -1.4940    -0.3670     0.8950 H     1 <1>   0.2700 
 36 H       -4.7240    -2.3050    -0.9590 H     1 <1>   0.1500 
 37 H       -7.2010     1.0700     0.9890 H     1 <1>   0.4500 
 38 H       -0.3250     0.9980     3.4430 H     1 <1>   0.1500 
 39 H        1.6240    -0.8790     0.1540 H     1 <1>   0.1500 
 40 H       -2.2860    -2.2950     2.3520 H     1 <1>   0.1500 
 41 H       -5.8320     0.6230     3.5750 H     1 <1>   0.0800 
 42 H       -7.5660     0.6700     3.3350 H     1 <1>   0.0800 
 43 H       -6.6080     2.1120     3.0750 H     1 <1>   0.0800 
 44 H       -5.6500    -1.2860     1.9410 H     1 <1>   0.0800 
 45 H       -6.3940    -1.1260     0.3680 H     1 <1>   0.0800 
 46 H       -7.3950    -1.2290     1.7980 H     1 <1>   0.0800 
 47 H        1.2220    -0.7080     2.5730 H     1 <1>   0.1500 
@<TRIPOS>BOND
  1   1   2  2   
  2   2   3  am  
  3   2   4  1   
  4   3   5  1   
  5   3   6  1   
  6   4   7  1   
  7   4   8  1   
  8   4  23  1   
  9   5   9  1   
 10   5  24  1   
 11   5  25  1   
 12   6  10  1   
 13   6  26  1   
 14   6  27  1   
 15   7  11  ar  
 16   7  12  ar  
 17   8  28  1   
 18   8  29  1   
 19   8  30  1   
 20   9  13  1   
 21   9  14  2   
 22  10  15  1   
 23  10  31  1   
 24  10  32  1   
 25  11  16  ar  
 26  11  33  1   
 27  12  17  ar  
 28  12  34  1   
 29  13  18  1   
 30  13  35  1   
 31  14  19  1   
 32  14  36  1   
 33  15  20  1   
 34  15  21  1   
 35  15  37  1   
 36  16  22  ar  
 37  16  38  1   
 38  17  22  ar  
 39  17  39  1   
 40  18  19  2   
 41  18  40  1   
 42  20  41  1   
 43  20  42  1   
 44  20  43  1   
 45  21  44  1   
 46  21  45  1   
 47  21  46  1   
 48  22  47  1   
@<TRIPOS>SUBSTRUCTURE
  1 ****  13 GROUP 4 **** **** 0

# MOE 2024.06 (io_trps.svl 2023.06)
