@<TRIPOS>MOLECULE
NONAME
43 45 1 0 0 
SMALL
USER_CHARGES


@<TRIPOS>ATOM
  1 S        0.1020    -0.1690    -0.7770 S.3   1 <1>  -0.4600 
  2 C        1.6170    -0.9050    -0.1500 C.3   1 <1>   0.0700 
  3 C        0.0240     1.3680     0.1510 C.3   1 <1>   0.0700 
  4 C        2.7530     0.0760    -0.4450 C.3   1 <1>  -0.1600 
  5 C        1.2970     2.1610    -0.1530 C.3   1 <1>  -0.1600 
  6 C        2.5950     1.4360     0.2700 C.3   1 <1>   0.4230 
  7 N        3.8140     2.2680    -0.0320 N.4   1 <1>  -0.9590 
  8 C        5.0320     1.7260     0.6540 C.3   1 <1>   0.3430 
  9 C        3.6740     3.7300     0.2740 C.3   1 <1>   0.3430 
 10 C        6.2850     2.4480     0.1640 C.3   1 <1>  -0.1600 
 11 C        4.9000     4.5000    -0.2160 C.3   1 <1>  -0.1600 
 12 C        6.1960     3.9640     0.4150 C.3   1 <1>  -0.0800 
 13 C        7.4460     4.7170    -0.0940 C.3   1 <1>   0.3800 
 14 O        8.5510     4.2200     0.5580 O.3   1 <1>  -0.6800 
 15 C        7.3980     6.2150     0.1590 C.2   1 <1>  -0.1400 
 16 S        7.2190     6.7820     1.8170 S.3   1 <1>  -0.0800 
 17 C        7.4700     7.2610    -0.6860 C.2   1 <1>  -0.1500 
 18 C        7.2440     8.4570     1.2960 C.2   1 <1>  -0.1100 
 19 C        7.3810     8.5350    -0.0400 C.2   1 <1>  -0.1500 
 20 H        1.7510    -1.8390    -0.6700 H     1 <1>   0.0800 
 21 H        1.4850    -1.0860     0.9030 H     1 <1>   0.0800 
 22 H       -0.0680     1.1160     1.1940 H     1 <1>   0.0800 
 23 H       -0.8600     1.8890    -0.1780 H     1 <1>   0.0800 
 24 H        2.7980     0.2260    -1.5100 H     1 <1>   0.0800 
 25 H        3.6550    -0.4160    -0.1390 H     1 <1>   0.0800 
 26 H        1.1900     3.0830     0.3850 H     1 <1>   0.0800 
 27 H        1.3200     2.3760    -1.2080 H     1 <1>   0.0800 
 28 H        2.5450     1.2620     1.3330 H     1 <1>   0.0800 
 29 H        3.9730     2.1920    -1.0440 H     1 <1>   0.4500 
 30 H        5.1490     0.6740     0.4550 H     1 <1>   0.0800 
 31 H        4.9390     1.8570     1.7200 H     1 <1>   0.0800 
 32 H        3.5580     3.8720     1.3370 H     1 <1>   0.0800 
 33 H        2.8060     4.1350    -0.2200 H     1 <1>   0.0800 
 34 H        6.4360     2.2460    -0.8820 H     1 <1>   0.0800 
 35 H        7.1320     2.0470     0.6930 H     1 <1>   0.0800 
 36 H        4.7710     5.5360     0.0480 H     1 <1>   0.0800 
 37 H        4.9530     4.4460    -1.2890 H     1 <1>   0.0800 
 38 H        6.1360     4.1250     1.4790 H     1 <1>   0.0800 
 39 H        7.5870     4.5390    -1.1460 H     1 <1>   0.0800 
 40 H        9.2080     4.9400     0.6420 H     1 <1>   0.4000 
 41 H        7.5850     7.2020    -1.7550 H     1 <1>   0.1500 
 42 H        7.1550     9.2140     2.0550 H     1 <1>   0.1500 
 43 H        7.4260     9.4480    -0.6090 H     1 <1>   0.1500 
@<TRIPOS>BOND
  1   1   2  1   
  2   1   3  1   
  3   2   4  1   
  4   2  20  1   
  5   2  21  1   
  6   3   5  1   
  7   3  22  1   
  8   3  23  1   
  9   4   6  1   
 10   4  24  1   
 11   4  25  1   
 12   5   6  1   
 13   5  26  1   
 14   5  27  1   
 15   6   7  1   
 16   6  28  1   
 17   7   8  1   
 18   7   9  1   
 19   7  29  1   
 20   8  10  1   
 21   8  30  1   
 22   8  31  1   
 23   9  11  1   
 24   9  32  1   
 25   9  33  1   
 26  10  12  1   
 27  10  34  1   
 28  10  35  1   
 29  11  12  1   
 30  11  36  1   
 31  11  37  1   
 32  12  13  1   
 33  12  38  1   
 34  13  14  1   
 35  13  15  1   
 36  13  39  1   
 37  14  40  1   
 38  15  16  1   
 39  15  17  2   
 40  16  18  1   
 41  17  19  1   
 42  17  41  1   
 43  18  19  2   
 44  18  42  1   
 45  19  43  1   
@<TRIPOS>SUBSTRUCTURE
  1 ****  11 GROUP 4 **** **** 0

# MOE 2024.06 (io_trps.svl 2023.06)
