@<TRIPOS>MOLECULE
NONAME
54 56 1 0 0 
SMALL
USER_CHARGES


@<TRIPOS>ATOM
  1 O        0.2430     0.1430     0.4710 O.2   1 <1>  -0.5700 
  2 C       -0.6610     0.7780    -0.0170 C.2   1 <1>   0.5690 
  3 N       -1.9010     0.2350    -0.2040 N.am  1 <1>  -0.6600 
  4 C       -0.3860     2.2150    -0.4090 C.3   1 <1>  -0.0990 
  5 C       -3.0850     0.8820    -0.8240 C.3   1 <1>   0.1400 
  6 C       -2.2500    -1.1260     0.2560 C.3   1 <1>   0.1400 
  7 C       -0.6740     3.1560     0.7620 C.3   1 <1>   0.0210 
  8 C       -4.2490    -0.0960    -0.6150 C.3   1 <1>   0.2000 
  9 C       -3.5620    -1.4570    -0.4570 C.3   1 <1>  -0.0800 
 10 C       -0.5050     4.5990     0.3210 C.2   1 <1>  -0.1810 
 11 O       -4.9190     0.2140     0.5740 O.3   1 <1>  -0.5600 
 12 C       -4.4070    -2.5210     0.2680 C.3   1 <1>   0.0200 
 13 C       -1.5040     5.4540    -0.1380 C.2   1 <1>   0.1080 
 14 C        0.6260     5.3370     0.2730 C.2   1 <1>  -0.3320 
 15 C       -5.9300     1.1660     0.4580 C.3   1 <1>   0.0400 
 16 C       -3.7740    -3.9030     0.2530 C.2   1 <1>  -0.0400 
 17 N       -1.0440     6.6230    -0.4490 N.2   1 <1>  -0.7070 
 18 C       -2.9690     5.1130    -0.2790 C.3   1 <1>  -0.0590 
 19 N        0.2720     6.5550    -0.1930 N.pl3 1 <1>   0.3140 
 20 C        2.0490     4.9480     0.6450 C.3   1 <1>  -0.0600 
 21 O       -4.3650    -4.8700     0.9030 O.3   1 <1>  -0.0190 
 22 C       -2.6690    -4.4120    -0.3160 C.2   1 <1>  -0.1500 
 23 C        1.1470     7.7100    -0.4240 C.3   1 <1>   0.0160 
 24 N       -3.7170    -5.9940     0.8030 N.2   1 <1>  -0.4100 
 25 C       -2.6890    -5.7480     0.0750 C.2   1 <1>   0.1080 
 26 C       -1.6460    -6.7760    -0.3010 C.3   1 <1>  -0.0590 
 27 H        0.6470     2.3050    -0.6880 H     1 <1>   0.0800 
 28 H       -0.9760     2.4920    -1.2610 H     1 <1>   0.0800 
 29 H       -3.2860     1.8370    -0.3740 H     1 <1>   0.0800 
 30 H       -2.8990     1.0050    -1.8760 H     1 <1>   0.0800 
 31 H       -1.4660    -1.8240     0.0170 H     1 <1>   0.0800 
 32 H       -2.3930    -1.1030     1.3240 H     1 <1>   0.0800 
 33 H        0.0020     2.9420     1.5710 H     1 <1>   0.0800 
 34 H       -1.6730     3.0010     1.1280 H     1 <1>   0.0800 
 35 H       -4.9510    -0.0920    -1.4320 H     1 <1>   0.0800 
 36 H       -3.3200    -1.8180    -1.4410 H     1 <1>   0.0800 
 37 H       -5.3730    -2.5880    -0.2000 H     1 <1>   0.0800 
 38 H       -4.5620    -2.2280     1.2920 H     1 <1>   0.0800 
 39 H       -6.3520     1.3230     1.4350 H     1 <1>   0.0800 
 40 H       -6.6910     0.7960    -0.2080 H     1 <1>   0.0800 
 41 H       -5.5190     2.0890     0.0900 H     1 <1>   0.0800 
 42 H       -3.0900     4.3290    -1.0020 H     1 <1>   0.0800 
 43 H       -3.5120     5.9790    -0.6100 H     1 <1>   0.0800 
 44 H       -3.3630     4.7980     0.6690 H     1 <1>   0.0800 
 45 H        2.0920     3.9240     0.9670 H     1 <1>   0.0800 
 46 H        2.4040     5.5710     1.4470 H     1 <1>   0.0800 
 47 H        2.6980     5.0630    -0.2040 H     1 <1>   0.0800 
 48 H       -1.9210    -3.9470    -0.9300 H     1 <1>   0.1500 
 49 H        1.6190     7.9830     0.5000 H     1 <1>   0.0800 
 50 H        0.5570     8.5310    -0.7850 H     1 <1>   0.0800 
 51 H        1.8870     7.4490    -1.1560 H     1 <1>   0.0800 
 52 H       -0.6820    -6.4650     0.0570 H     1 <1>   0.0800 
 53 H       -1.6100    -6.8850    -1.3690 H     1 <1>   0.0800 
 54 H       -1.8910    -7.7250     0.1390 H     1 <1>   0.0800 
@<TRIPOS>BOND
  1   1   2  2   
  2   2   3  am  
  3   2   4  1   
  4   3   5  1   
  5   3   6  1   
  6   4   7  1   
  7   4  27  1   
  8   4  28  1   
  9   5   8  1   
 10   5  29  1   
 11   5  30  1   
 12   6   9  1   
 13   6  31  1   
 14   6  32  1   
 15   7  10  1   
 16   7  33  1   
 17   7  34  1   
 18   8   9  1   
 19   8  11  1   
 20   8  35  1   
 21   9  12  1   
 22   9  36  1   
 23  10  13  1   
 24  10  14  2   
 25  11  15  1   
 26  12  16  1   
 27  12  37  1   
 28  12  38  1   
 29  13  17  2   
 30  13  18  1   
 31  14  19  1   
 32  14  20  1   
 33  15  39  1   
 34  15  40  1   
 35  15  41  1   
 36  16  21  1   
 37  16  22  2   
 38  17  19  1   
 39  18  42  1   
 40  18  43  1   
 41  18  44  1   
 42  19  23  1   
 43  20  45  1   
 44  20  46  1   
 45  20  47  1   
 46  21  24  1   
 47  22  25  1   
 48  22  48  1   
 49  23  49  1   
 50  23  50  1   
 51  23  51  1   
 52  24  25  2   
 53  25  26  1   
 54  26  52  1   
 55  26  53  1   
 56  26  54  1   
@<TRIPOS>SUBSTRUCTURE
  1 ****   3 GROUP 4 **** **** 0

# MOE 2024.06 (io_trps.svl 2023.06)
