@<TRIPOS>MOLECULE
NONAME
49 50 1 0 0 
SMALL
USER_CHARGES


@<TRIPOS>ATOM
  1 S        0.0200    -0.0680    -0.2700 S.o2  1 <1>   1.3330 
  2 O       -0.1710    -0.5870     1.0670 O.2   1 <1>  -0.6500 
  3 O       -0.6650     1.1390    -0.6690 O.2   1 <1>  -0.6500 
  4 N       -0.3870    -1.3000    -1.3650 N.am  1 <1>  -0.8490 
  5 C        1.7700     0.1690    -0.5850 C.3   1 <1>  -0.0550 
  6 C       -1.7800    -1.2080    -1.8130 C.3   1 <1>   0.1160 
  7 C       -0.1160    -2.6480    -0.8530 C.3   1 <1>   0.1160 
  8 C        2.3910     1.3230     0.2270 C.3   1 <1>  -0.0800 
  9 C        3.8000     1.6290    -0.2470 C.3   1 <1>   0.2200 
 10 C        2.6200     0.9410     1.6940 C.3   1 <1>   0.1200 
 11 N        4.1390     3.0240     0.1150 N.am  1 <1>  -0.7300 
 12 C        4.6300     0.6660     0.5930 C.3   1 <1>   0.1200 
 13 O        3.9480     0.5190     1.8030 O.3   1 <1>  -0.5600 
 14 C        4.4420     4.0190    -0.7700 C.2   1 <1>   0.5440 
 15 O        4.4680     3.7440    -1.9540 O.2   1 <1>  -0.5700 
 16 C        4.7370     5.3620    -0.3040 C.ar  1 <1>   0.0860 
 17 C        5.5790     6.2050    -1.0260 C.ar  1 <1>  -0.1500 
 18 C        4.1970     5.8680     0.8780 C.ar  1 <1>  -0.1500 
 19 C        5.8930     7.4830    -0.6020 C.ar  1 <1>   0.0820 
 20 C        4.4880     7.1460     1.3180 C.ar  1 <1>  -0.1500 
 21 O        6.7460     8.1610    -1.4230 O.3   1 <1>  -0.3620 
 22 C        5.3340     7.9780     0.5890 C.ar  1 <1>   0.0820 
 23 C        7.6330     9.1390    -0.9280 C.3   1 <1>   0.0400 
 24 O        5.6040     9.2470     1.0000 O.3   1 <1>  -0.3630 
 25 C        4.9570     9.8470     2.1010 C.3   1 <1>   0.0400 
 26 H        2.2980    -0.7420    -0.3810 H     1 <1>   0.0800 
 27 H        1.8860     0.3870    -1.6290 H     1 <1>   0.0800 
 28 H       -1.9990    -1.9930    -2.5160 H     1 <1>   0.0800 
 29 H       -1.9480    -0.2630    -2.3030 H     1 <1>   0.0800 
 30 H       -2.4500    -1.2860    -0.9730 H     1 <1>   0.0800 
 31 H       -0.3030    -3.3790    -1.6210 H     1 <1>   0.0800 
 32 H       -0.7440    -2.8620    -0.0040 H     1 <1>   0.0800 
 33 H        0.9140    -2.7310    -0.5500 H     1 <1>   0.0800 
 34 H        1.7560     2.1900     0.1390 H     1 <1>   0.0800 
 35 H        3.9400     1.4670    -1.3030 H     1 <1>   0.0800 
 36 H        1.9780     0.1500     2.0410 H     1 <1>   0.0800 
 37 H        2.5000     1.7990     2.3330 H     1 <1>   0.0800 
 38 H        4.2580     3.1800     1.1180 H     1 <1>   0.3700 
 39 H        5.6260     1.0290     0.7780 H     1 <1>   0.0800 
 40 H        4.6770    -0.3020     0.1260 H     1 <1>   0.0800 
 41 H        6.0050     5.8500    -1.9480 H     1 <1>   0.1500 
 42 H        3.5290     5.2580     1.4590 H     1 <1>   0.1500 
 43 H        4.0390     7.4770     2.2350 H     1 <1>   0.1500 
 44 H        8.4120     9.2830    -1.6550 H     1 <1>   0.0800 
 45 H        8.0530     8.7960     0.0010 H     1 <1>   0.0800 
 46 H        7.0930    10.0580    -0.7880 H     1 <1>   0.0800 
 47 H        5.3010    10.8630     2.1760 H     1 <1>   0.0800 
 48 H        5.2140     9.3080     2.9950 H     1 <1>   0.0800 
 49 H        3.8940     9.8340     1.9310 H     1 <1>   0.0800 
@<TRIPOS>BOND
  1   1   2  2   
  2   1   3  2   
  3   1   4  am  
  4   1   5  1   
  5   4   6  1   
  6   4   7  1   
  7   5   8  1   
  8   5  26  1   
  9   5  27  1   
 10   6  28  1   
 11   6  29  1   
 12   6  30  1   
 13   7  31  1   
 14   7  32  1   
 15   7  33  1   
 16   8   9  1   
 17   8  10  1   
 18   8  34  1   
 19   9  11  1   
 20   9  12  1   
 21   9  35  1   
 22  10  13  1   
 23  10  36  1   
 24  10  37  1   
 25  11  14  am  
 26  11  38  1   
 27  12  13  1   
 28  12  39  1   
 29  12  40  1   
 30  14  15  2   
 31  14  16  1   
 32  16  17  ar  
 33  16  18  ar  
 34  17  19  ar  
 35  17  41  1   
 36  18  20  ar  
 37  18  42  1   
 38  19  21  1   
 39  19  22  ar  
 40  20  22  ar  
 41  20  43  1   
 42  21  23  1   
 43  22  24  1   
 44  23  44  1   
 45  23  45  1   
 46  23  46  1   
 47  24  25  1   
 48  25  47  1   
 49  25  48  1   
 50  25  49  1   
@<TRIPOS>SUBSTRUCTURE
  1 ****  11 GROUP 4 **** **** 0

# MOE 2024.06 (io_trps.svl 2023.06)
