@<TRIPOS>MOLECULE
NONAME
55 57 1 0 0 
SMALL
USER_CHARGES


@<TRIPOS>ATOM
  1 O        2.0150    -0.2710    -2.2930 O.2   1 <1>  -0.5700 
  2 C        1.5350    -0.5050    -1.2070 C.2   1 <1>   0.5690 
  3 N        1.2670     0.4810    -0.3160 N.am  1 <1>  -0.7300 
  4 C        1.2450    -1.9550    -0.8040 C.3   1 <1>   0.1710 
  5 C        1.5230     1.9250    -0.5240 C.3   1 <1>   0.2780 
  6 N        0.1120    -2.1190     0.1540 N.3   1 <1>  -0.8100 
  7 C        2.9950     2.2530    -0.2600 C.2   1 <1>  -0.0380 
  8 C        0.0940    -3.4920     0.7070 C.3   1 <1>   0.1100 
  9 C       -1.1850    -1.8500    -0.5170 C.3   1 <1>   0.1100 
 10 N        3.8670     1.6540    -1.1390 N.pl3 1 <1>  -0.6000 
 11 C        3.4850     3.0710     0.7220 C.2   1 <1>  -0.1240 
 12 C       -1.0750    -3.7270     1.6870 C.3   1 <1>   0.2090 
 13 C       -2.3860    -2.0070     0.4360 C.3   1 <1>   0.2090 
 14 C        5.2210     1.8550    -1.0840 C.2   1 <1>  -0.0500 
 15 C        4.8950     3.3160     0.8040 C.2   1 <1>   0.5410 
 16 C        2.6120     3.7700     1.7680 C.3   1 <1>  -0.1020 
 17 N       -2.3920    -3.3460     1.0940 N.pl3 1 <1>  -0.8380 
 18 C        5.7530     2.6710    -0.1380 C.2   1 <1>  -0.1240 
 19 O        5.3630     4.0680     1.6620 O.2   1 <1>  -0.5700 
 20 C       -3.2820    -4.3100     0.6200 C.ar  1 <1>   0.1000 
 21 C        7.2550     2.9110    -0.0610 C.3   1 <1>  -0.1020 
 22 C       -4.6460    -4.1310     0.8120 C.ar  1 <1>  -0.1500 
 23 C       -2.8550    -5.4510    -0.0530 C.ar  1 <1>  -0.1500 
 24 C       -5.5680    -5.0540     0.3480 C.ar  1 <1>  -0.1430 
 25 C       -3.7660    -6.3800    -0.5190 C.ar  1 <1>  -0.1500 
 26 C       -5.1210    -6.1820    -0.3200 C.ar  1 <1>  -0.1500 
 27 C       -7.0550    -4.8450     0.5660 C.3   1 <1>  -0.0970 
 28 H        0.8980     0.1900     0.5930 H     1 <1>   0.3700 
 29 H        2.1430    -2.3370    -0.3530 H     1 <1>   0.0800 
 30 H        1.0550    -2.5280    -1.6940 H     1 <1>   0.0800 
 31 H        0.8590     2.4950     0.0950 H     1 <1>   0.0800 
 32 H        1.2980     2.1740    -1.5470 H     1 <1>   0.0800 
 33 H        1.0170    -3.6770     1.2290 H     1 <1>   0.0800 
 34 H        0.0190    -4.2040    -0.0960 H     1 <1>   0.0800 
 35 H       -1.3180    -2.5290    -1.3430 H     1 <1>   0.0800 
 36 H       -1.1900    -0.8480    -0.9080 H     1 <1>   0.0800 
 37 H        3.4600     0.9930    -1.8320 H     1 <1>   0.4000 
 38 H       -0.9130    -3.1380     2.5720 H     1 <1>   0.0800 
 39 H       -1.0990    -4.7610     1.9850 H     1 <1>   0.0800 
 40 H       -3.2970    -1.8730    -0.1200 H     1 <1>   0.0800 
 41 H       -2.3420    -1.2450     1.1920 H     1 <1>   0.0800 
 42 H        5.8270     1.3430    -1.8140 H     1 <1>   0.1500 
 43 H        3.0430     3.6370     2.7450 H     1 <1>   0.0800 
 44 H        1.6120     3.3870     1.8070 H     1 <1>   0.0800 
 45 H        2.5750     4.8240     1.5590 H     1 <1>   0.0800 
 46 H        7.6250     2.5980     0.9000 H     1 <1>   0.0800 
 47 H        7.4630     3.9600    -0.1830 H     1 <1>   0.0800 
 48 H        7.7750     2.3640    -0.8270 H     1 <1>   0.0800 
 49 H       -4.9710    -3.2540     1.3390 H     1 <1>   0.1500 
 50 H       -1.8090    -5.6090    -0.2180 H     1 <1>   0.1500 
 51 H       -3.4240    -7.2580    -1.0380 H     1 <1>   0.1500 
 52 H       -5.8260    -6.9080    -0.6860 H     1 <1>   0.1500 
 53 H       -7.2370    -3.9570     1.1440 H     1 <1>   0.0800 
 54 H       -7.4690    -5.6860     1.0920 H     1 <1>   0.0800 
 55 H       -7.5530    -4.7470    -0.3820 H     1 <1>   0.0800 
@<TRIPOS>BOND
  1   1   2  2   
  2   2   3  am  
  3   2   4  1   
  4   3   5  1   
  5   3  28  1   
  6   4   6  1   
  7   4  29  1   
  8   4  30  1   
  9   5   7  1   
 10   5  31  1   
 11   5  32  1   
 12   6   8  1   
 13   6   9  1   
 14   7  10  1   
 15   7  11  2   
 16   8  12  1   
 17   8  33  1   
 18   8  34  1   
 19   9  13  1   
 20   9  35  1   
 21   9  36  1   
 22  10  14  1   
 23  10  37  1   
 24  11  15  1   
 25  11  16  1   
 26  12  17  1   
 27  12  38  1   
 28  12  39  1   
 29  13  17  1   
 30  13  40  1   
 31  13  41  1   
 32  14  18  2   
 33  14  42  1   
 34  15  18  1   
 35  15  19  2   
 36  16  43  1   
 37  16  44  1   
 38  16  45  1   
 39  17  20  1   
 40  18  21  1   
 41  20  22  ar  
 42  20  23  ar  
 43  21  46  1   
 44  21  47  1   
 45  21  48  1   
 46  22  24  ar  
 47  22  49  1   
 48  23  25  ar  
 49  23  50  1   
 50  24  26  ar  
 51  24  27  1   
 52  25  26  ar  
 53  25  51  1   
 54  26  52  1   
 55  27  53  1   
 56  27  54  1   
 57  27  55  1   
@<TRIPOS>SUBSTRUCTURE
  1 ****   6 GROUP 4 **** **** 0

# MOE 2024.06 (io_trps.svl 2023.06)
