@<TRIPOS>MOLECULE
NONAME
57 59 1 0 0 
SMALL
USER_CHARGES


@<TRIPOS>ATOM
  1 O        2.9990    -0.3580     1.8500 O.co2 1 <1>  -0.9000 
  2 C        2.8170     0.4020     0.8870 C.2   1 <1>   0.9060 
  3 O        3.3410     1.5070     0.7880 O.co2 1 <1>  -0.9000 
  4 C        2.1550    -0.2400    -0.3340 C.3   1 <1>   0.2370 
  5 N        2.3170    -1.7620    -0.3300 N.4   1 <1>  -0.9590 
  6 C        3.7170    -2.2490    -0.6520 C.3   1 <1>   0.4230 
  7 C        1.2620    -2.4130    -1.1540 C.3   1 <1>   0.3430 
  8 C        3.8220    -3.7750    -0.4100 C.3   1 <1>   0.0000 
  9 C        4.8910    -1.5330     0.0900 C.3   1 <1>   0.3430 
 10 C        1.3360    -3.9370    -1.0180 C.3   1 <1>  -0.1600 
 11 C        5.2300    -4.2220    -0.8880 C.3   1 <1>  -0.1600 
 12 C        2.7510    -4.4920    -1.2650 C.3   1 <1>  -0.1600 
 13 C        3.6240    -4.0980     1.1050 C.3   1 <1>   0.1200 
 14 N        6.2750    -2.0960    -0.1730 N.4   1 <1>  -0.9590 
 15 C        6.3480    -3.5830    -0.0590 C.3   1 <1>   0.3430 
 16 O        4.0490    -5.3860     1.3820 O.3   1 <1>  -0.6800 
 17 C        7.2540    -1.4390     0.7470 C.3   1 <1>   0.5240 
 18 C        7.1900     0.0480     0.4960 C.2   1 <1>  -0.1810 
 19 C        7.8710     0.8010    -0.4560 C.2   1 <1>   0.1080 
 20 C        6.3920     0.9360     1.1270 C.2   1 <1>  -0.3020 
 21 N        7.4990     2.0390    -0.4430 N.2   1 <1>  -0.7070 
 22 C        8.9200     0.3180    -1.4340 C.3   1 <1>  -0.0590 
 23 N        6.5790     2.1310     0.5420 N.pl3 1 <1>   0.3140 
 24 C        5.8300     3.3640     0.8560 C.3   1 <1>   0.0960 
 25 C        6.7620     4.5760     0.8510 C.3   1 <1>   0.1200 
 26 O        6.0510     5.7130     1.2140 O.3   1 <1>  -0.6800 
 27 H        2.5820     0.1920    -1.2210 H     1 <1>   0.0800 
 28 H        1.1130     0.0200    -0.2950 H     1 <1>   0.0800 
 29 H        2.1630    -1.9670     0.6790 H     1 <1>   0.4500 
 30 H        3.8740    -2.0770    -1.7040 H     1 <1>   0.0800 
 31 H        0.2880    -2.0710    -0.8420 H     1 <1>   0.0800 
 32 H        1.3970    -2.1420    -2.1890 H     1 <1>   0.0800 
 33 H        4.7020    -1.5810     1.1500 H     1 <1>   0.0800 
 34 H        4.8810    -0.4920    -0.1880 H     1 <1>   0.0800 
 35 H        0.9800    -4.2210    -0.0430 H     1 <1>   0.0800 
 36 H        0.6580    -4.3760    -1.7290 H     1 <1>   0.0800 
 37 H        5.3760    -3.9810    -1.9270 H     1 <1>   0.0800 
 38 H        5.3240    -5.2920    -0.8070 H     1 <1>   0.0800 
 39 H        2.9840    -4.3700    -2.3100 H     1 <1>   0.0800 
 40 H        2.7600    -5.5510    -1.0620 H     1 <1>   0.0800 
 41 H        2.6000    -4.0080     1.4200 H     1 <1>   0.0800 
 42 H        4.2080    -3.4480     1.7320 H     1 <1>   0.0800 
 43 H        6.5570    -1.8020    -1.1160 H     1 <1>   0.4500 
 44 H        7.3060    -3.9360    -0.4060 H     1 <1>   0.0800 
 45 H        6.2360    -3.8820     0.9730 H     1 <1>   0.0800 
 46 H        3.3170    -6.0340     1.3080 H     1 <1>   0.4000 
 47 H        6.9920    -1.6380     1.7740 H     1 <1>   0.0800 
 48 H        8.2530    -1.7990     0.5660 H     1 <1>   0.0800 
 49 H        5.6780     0.8050     1.9250 H     1 <1>   0.1500 
 50 H        9.2670    -0.6660    -1.1880 H     1 <1>   0.0800 
 51 H        9.7570     0.9930    -1.4100 H     1 <1>   0.0800 
 52 H        8.5140     0.3200    -2.4290 H     1 <1>   0.0800 
 53 H        5.0590     3.4770     0.1170 H     1 <1>   0.0800 
 54 H        5.3750     3.2490     1.8220 H     1 <1>   0.0800 
 55 H        7.1790     4.7370    -0.1300 H     1 <1>   0.0800 
 56 H        7.5580     4.4440     1.5640 H     1 <1>   0.0800 
 57 H        5.3240     5.8820     0.5830 H     1 <1>   0.4000 
@<TRIPOS>BOND
  1   1   2  ar  
  2   2   3  ar  
  3   2   4  1   
  4   4   5  1   
  5   4  27  1   
  6   4  28  1   
  7   5   6  1   
  8   5   7  1   
  9   5  29  1   
 10   6   8  1   
 11   6   9  1   
 12   6  30  1   
 13   7  10  1   
 14   7  31  1   
 15   7  32  1   
 16   8  11  1   
 17   8  12  1   
 18   8  13  1   
 19   9  14  1   
 20   9  33  1   
 21   9  34  1   
 22  10  12  1   
 23  10  35  1   
 24  10  36  1   
 25  11  15  1   
 26  11  37  1   
 27  11  38  1   
 28  12  39  1   
 29  12  40  1   
 30  13  16  1   
 31  13  41  1   
 32  13  42  1   
 33  14  15  1   
 34  14  17  1   
 35  14  43  1   
 36  15  44  1   
 37  15  45  1   
 38  16  46  1   
 39  17  18  1   
 40  17  47  1   
 41  17  48  1   
 42  18  19  1   
 43  18  20  2   
 44  19  21  2   
 45  19  22  1   
 46  20  23  1   
 47  20  49  1   
 48  21  23  1   
 49  22  50  1   
 50  22  51  1   
 51  22  52  1   
 52  23  24  1   
 53  24  25  1   
 54  24  53  1   
 55  24  54  1   
 56  25  26  1   
 57  25  55  1   
 58  25  56  1   
 59  26  57  1   
@<TRIPOS>SUBSTRUCTURE
  1 ****   9 GROUP 4 **** **** 0

# MOE 2024.06 (io_trps.svl 2023.06)
