@<TRIPOS>MOLECULE
NONAME
36 37 1 0 0 
SMALL
USER_CHARGES


@<TRIPOS>ATOM
  1 CL      -0.3460    -1.0780    -2.4130 Cl    1 <1>  -0.1770 
  2 C       -0.4460    -2.5150    -1.4200 C.ar  1 <1>   0.1770 
  3 C       -1.5220    -2.7390    -0.5640 C.ar  1 <1>  -0.1440 
  4 C        0.5980    -3.4110    -1.5280 C.ar  1 <1>  -0.1500 
  5 C       -1.5390    -3.9020     0.2180 C.ar  1 <1>  -0.0090 
  6 C       -2.6690    -1.7280    -0.4730 C.3   1 <1>  -0.0970 
  7 C        0.5840    -4.5610    -0.7660 C.ar  1 <1>  -0.1500 
  8 S       -2.8860    -4.3210     1.3770 S.o2  1 <1>   1.4470 
  9 C       -0.4740    -4.7930     0.0920 C.ar  1 <1>  -0.1500 
 10 O       -3.2050    -3.1720     2.1980 O.2   1 <1>  -0.6500 
 11 O       -2.6000    -5.5760     2.0410 O.2   1 <1>  -0.6500 
 12 N       -4.2210    -4.5990     0.3740 N.am  1 <1>  -0.8490 
 13 C       -4.0590    -5.7820    -0.5150 C.3   1 <1>   0.1960 
 14 C       -5.4760    -4.6000     1.1450 C.3   1 <1>   0.1960 
 15 C       -4.8410    -7.0070    -0.0180 C.3   1 <1>   0.2000 
 16 C       -6.6240    -5.2230     0.3460 C.3   1 <1>  -0.1600 
 17 O       -4.5540    -8.0880    -0.8290 O.3   1 <1>  -0.6800 
 18 C       -6.3570    -6.7090    -0.0170 C.3   1 <1>  -0.1860 
 19 C       -7.0740    -7.0380    -1.3200 C.2   1 <1>   0.9060 
 20 O       -8.3030    -7.1230    -1.3000 O.co2 1 <1>  -0.9000 
 21 O       -6.4170    -7.1940    -2.3600 O.co2 1 <1>  -0.9000 
 22 H        1.4100    -3.2060    -2.2010 H     1 <1>   0.1500 
 23 H       -3.6170    -2.2180    -0.5970 H     1 <1>   0.0800 
 24 H       -2.6130    -0.9670    -1.2270 H     1 <1>   0.0800 
 25 H       -2.6540    -1.2410     0.4860 H     1 <1>   0.0800 
 26 H        1.3910    -5.2710    -0.8380 H     1 <1>   0.1500 
 27 H       -0.4710    -5.6960     0.6810 H     1 <1>   0.1500 
 28 H       -4.4340    -5.5240    -1.4920 H     1 <1>   0.0800 
 29 H       -3.0210    -6.0430    -0.6190 H     1 <1>   0.0800 
 30 H       -5.3450    -5.1600     2.0570 H     1 <1>   0.0800 
 31 H       -5.7250    -3.5860     1.4120 H     1 <1>   0.0800 
 32 H       -4.5010    -7.2590     0.9720 H     1 <1>   0.0800 
 33 H       -7.5420    -5.1570     0.9020 H     1 <1>   0.0800 
 34 H       -6.7570    -4.6470    -0.5540 H     1 <1>   0.0800 
 35 H       -5.1380    -7.9720    -1.6400 H     1 <1>   0.4000 
 36 H       -6.8000    -7.3280     0.7400 H     1 <1>   0.0800 
@<TRIPOS>BOND
  1   1   2  1   
  2   2   3  ar  
  3   2   4  ar  
  4   3   5  ar  
  5   3   6  1   
  6   4   7  ar  
  7   4  22  1   
  8   5   8  1   
  9   5   9  ar  
 10   6  23  1   
 11   6  24  1   
 12   6  25  1   
 13   7   9  ar  
 14   7  26  1   
 15   8  10  2   
 16   8  11  2   
 17   8  12  am  
 18   9  27  1   
 19  12  13  1   
 20  12  14  1   
 21  13  15  1   
 22  13  28  1   
 23  13  29  1   
 24  14  16  1   
 25  14  30  1   
 26  14  31  1   
 27  15  17  1   
 28  15  18  1   
 29  15  32  1   
 30  16  18  1   
 31  16  33  1   
 32  16  34  1   
 33  17  35  1   
 34  18  19  1   
 35  18  36  1   
 36  19  20  ar  
 37  19  21  ar  
@<TRIPOS>SUBSTRUCTURE
  1 ****  12 GROUP 4 **** **** 0

# MOE 2024.06 (io_trps.svl 2023.06)
