@<TRIPOS>MOLECULE
NONAME
25 25 1 0 0 
SMALL
USER_CHARGES


@<TRIPOS>ATOM
  1 BR       0.5610    -0.0460     0.8930 Br    1 <1>  -0.1110 
  2 C        0.2450     1.7700     0.3280 C.ar  1 <1>   0.1110 
  3 C       -0.7690     2.0610    -0.5670 C.ar  1 <1>   0.1900 
  4 C        1.0480     2.7750     0.8330 C.ar  1 <1>  -0.1500 
  5 F       -1.5240     1.1030    -1.0390 F     1 <1>  -0.1900 
  6 C       -1.0020     3.3600    -0.9780 C.ar  1 <1>  -0.1500 
  7 C        0.8160     4.0810     0.4230 C.ar  1 <1>  -0.1500 
  8 C       -0.2020     4.3820    -0.4780 C.ar  1 <1>  -0.1440 
  9 C       -0.4390     5.8250    -0.9230 C.3   1 <1>  -0.0160 
 10 C       -1.1630     6.7200     0.1090 C.3   1 <1>   0.2800 
 11 O       -0.3480     6.9070     1.2000 O.3   1 <1>  -0.6800 
 12 C       -1.4340     8.1100    -0.4640 C.3   1 <1>  -0.2400 
 13 C       -2.4550     6.0930     0.6330 C.3   1 <1>  -0.2400 
 14 H        1.8320     2.5450     1.5310 H     1 <1>   0.1500 
 15 H       -1.7970     3.5580    -1.6730 H     1 <1>   0.1500 
 16 H        1.4310     4.8710     0.8170 H     1 <1>   0.1500 
 17 H       -1.0290     5.8090    -1.8210 H     1 <1>   0.0800 
 18 H        0.5020     6.2720    -1.1840 H     1 <1>   0.0800 
 19 H        0.4230     7.4450     0.9470 H     1 <1>   0.4000 
 20 H       -0.5250     8.5670    -0.8110 H     1 <1>   0.0800 
 21 H       -1.8860     8.7410     0.2810 H     1 <1>   0.0800 
 22 H       -2.1130     8.0380    -1.2950 H     1 <1>   0.0800 
 23 H       -2.2490     5.1620     1.1300 H     1 <1>   0.0800 
 24 H       -3.1320     5.9040    -0.1790 H     1 <1>   0.0800 
 25 H       -2.9360     6.7560     1.3300 H     1 <1>   0.0800 
@<TRIPOS>BOND
  1   1   2  1   
  2   2   3  ar  
  3   2   4  ar  
  4   3   5  1   
  5   3   6  ar  
  6   4   7  ar  
  7   4  14  1   
  8   6   8  ar  
  9   6  15  1   
 10   7   8  ar  
 11   7  16  1   
 12   8   9  1   
 13   9  10  1   
 14   9  17  1   
 15   9  18  1   
 16  10  11  1   
 17  10  12  1   
 18  10  13  1   
 19  11  19  1   
 20  12  20  1   
 21  12  21  1   
 22  12  22  1   
 23  13  23  1   
 24  13  24  1   
 25  13  25  1   
@<TRIPOS>SUBSTRUCTURE
  1 ****   8 GROUP 4 **** **** 0

# MOE 2024.06 (io_trps.svl 2023.06)
