@<TRIPOS>MOLECULE
NONAME
47 50 1 0 0 
SMALL
USER_CHARGES


@<TRIPOS>ATOM
  1 S       -0.6650     0.9750     0.1060 S.3   1 <1>  -0.0800 
  2 C        0.0840     2.5510    -0.1010 C.ar  1 <1>   0.2970 
  3 C        0.8960     0.2080     0.3880 C.2   1 <1>  -0.1400 
  4 N       -0.6180     3.6350    -0.3520 N.ar  1 <1>  -0.5670 
  5 C        1.4490     2.4660     0.0360 C.ar  1 <1>   0.0000 
  6 C        1.8940     1.1140     0.3200 C.2   1 <1>  -0.1810 
  7 C        0.8350    -1.2860     0.6470 C.3   1 <1>  -0.0600 
  8 C        0.1340     4.7080    -0.4670 C.ar  1 <1>   0.4700 
  9 C        2.1100     3.6910    -0.1210 C.ar  1 <1>   0.4100 
 10 C        3.3670     0.7920     0.5200 C.3   1 <1>  -0.0590 
 11 N        1.4540     4.8130    -0.3640 N.ar  1 <1>  -0.6200 
 12 N        3.4730     3.8350    -0.0350 N.pl3 1 <1>  -0.8380 
 13 C        4.0910     4.3390     1.2470 C.3   1 <1>   0.2090 
 14 C        4.3080     3.7670    -1.2780 C.3   1 <1>   0.2090 
 15 C        4.5990     5.8000     1.1400 C.3   1 <1>   0.4230 
 16 C        5.1340     5.0310    -1.6300 C.3   1 <1>  -0.0800 
 17 N        3.8490     6.4700     0.0150 N.4   1 <1>  -0.9590 
 18 C        6.1440     5.8460     1.0380 C.3   1 <1>   0.1200 
 19 C        6.5830     4.9870    -1.1180 C.3   1 <1>   0.1200 
 20 C        4.4920     6.3920    -1.3200 C.3   1 <1>   0.3430 
 21 C        3.5270     7.9130     0.3630 C.3   1 <1>   0.2370 
 22 O        6.6470     4.7980     0.2540 O.3   1 <1>  -0.5600 
 23 C        4.7610     8.7600     0.6770 C.2   1 <1>   0.9060 
 24 O        5.1730     8.7560     1.8410 O.co2 1 <1>  -0.9000 
 25 O        5.3830     9.2510    -0.2680 O.co2 1 <1>  -0.9000 
 26 H        1.8140    -1.6980     0.8010 H     1 <1>   0.0800 
 27 H        0.3840    -1.7810    -0.1940 H     1 <1>   0.0800 
 28 H        0.2400    -1.4780     1.5210 H     1 <1>   0.0800 
 29 H       -0.3960     5.6240    -0.6710 H     1 <1>   0.1500 
 30 H        3.7680     1.3890     1.3180 H     1 <1>   0.0800 
 31 H        3.9110     0.9980    -0.3810 H     1 <1>   0.0800 
 32 H        3.5130    -0.2410     0.7710 H     1 <1>   0.0800 
 33 H        3.3460     4.3050     2.0230 H     1 <1>   0.0800 
 34 H        4.8860     3.6800     1.5520 H     1 <1>   0.0800 
 35 H        4.9760     2.9270    -1.1960 H     1 <1>   0.0800 
 36 H        3.6470     3.5600    -2.1040 H     1 <1>   0.0800 
 37 H        4.3440     6.3060     2.0570 H     1 <1>   0.0800 
 38 H        5.2420     5.0140    -2.6990 H     1 <1>   0.0800 
 39 H        2.9860     5.8920    -0.0710 H     1 <1>   0.4500 
 40 H        6.5520     5.7120     2.0230 H     1 <1>   0.0800 
 41 H        6.5050     6.7910     0.6670 H     1 <1>   0.0800 
 42 H        7.1150     5.8920    -1.3640 H     1 <1>   0.0800 
 43 H        7.1040     4.1610    -1.5690 H     1 <1>   0.0800 
 44 H        3.7450     6.6010    -2.0670 H     1 <1>   0.0800 
 45 H        5.2480     7.1590    -1.3970 H     1 <1>   0.0800 
 46 H        3.0110     8.3810    -0.4540 H     1 <1>   0.0800 
 47 H        2.8940     7.9440     1.2300 H     1 <1>   0.0800 
@<TRIPOS>BOND
  1   1   2  1   
  2   1   3  1   
  3   2   4  ar  
  4   2   5  ar  
  5   3   6  2   
  6   3   7  1   
  7   4   8  ar  
  8   5   6  1   
  9   5   9  ar  
 10   6  10  1   
 11   7  26  1   
 12   7  27  1   
 13   7  28  1   
 14   8  11  ar  
 15   8  29  1   
 16   9  11  ar  
 17   9  12  1   
 18  10  30  1   
 19  10  31  1   
 20  10  32  1   
 21  12  13  1   
 22  12  14  1   
 23  13  15  1   
 24  13  33  1   
 25  13  34  1   
 26  14  16  1   
 27  14  35  1   
 28  14  36  1   
 29  15  17  1   
 30  15  18  1   
 31  15  37  1   
 32  16  19  1   
 33  16  20  1   
 34  16  38  1   
 35  17  20  1   
 36  17  21  1   
 37  17  39  1   
 38  18  22  1   
 39  18  40  1   
 40  18  41  1   
 41  19  22  1   
 42  19  42  1   
 43  19  43  1   
 44  20  44  1   
 45  20  45  1   
 46  21  23  1   
 47  21  46  1   
 48  21  47  1   
 49  23  24  ar  
 50  23  25  ar  
@<TRIPOS>SUBSTRUCTURE
  1 ****  12 GROUP 4 **** **** 0

# MOE 2024.06 (io_trps.svl 2023.06)
