@<TRIPOS>MOLECULE
NONAME
43 45 1 0 0 
SMALL
USER_CHARGES


@<TRIPOS>ATOM
  1 O        0.3330     0.6210     0.0310 O.2   1 <1>  -0.5700 
  2 C        0.1040     1.8210     0.0220 C.2   1 <1>   0.5440 
  3 N        1.1480     2.7340     0.0310 N.am  1 <1>  -0.2980 
  4 C       -1.2290     2.3460    -0.0160 C.ar  1 <1>   0.0860 
  5 N        0.9930     4.0790     0.0970 N.2   1 <1>  -0.5120 
  6 C        2.5420     2.2280     0.0090 C.3   1 <1>   0.0600 
  7 C       -1.4000     3.7430     0.0080 C.ar  1 <1>   0.0860 
  8 C       -2.3420     1.5030    -0.1030 C.ar  1 <1>  -0.1500 
  9 C       -0.2180     4.5820     0.1430 C.2   1 <1>   0.3640 
 10 C       -2.7170     4.2210    -0.1270 C.ar  1 <1>  -0.1500 
 11 C       -3.6170     2.0070    -0.2010 C.ar  1 <1>  -0.1500 
 12 C       -0.3150     6.0210     0.3300 C.2   1 <1>   0.6300 
 13 C       -3.8020     3.3780    -0.2220 C.ar  1 <1>  -0.1500 
 14 O       -1.2800     6.5620     0.8460 O.2   1 <1>  -0.5700 
 15 N        0.7550     6.8030    -0.0520 N.am  1 <1>  -0.4940 
 16 C        1.0190     8.1900     0.0530 C.2   1 <1>  -0.0880 
 17 N        0.1400     9.2240    -0.0790 N.pl3 1 <1>   0.3140 
 18 C        2.2310     8.7520     0.2820 C.2   1 <1>  -0.1810 
 19 N        0.7590    10.4160     0.0560 N.2   1 <1>  -0.7070 
 20 C       -1.2880     9.1880    -0.4200 C.3   1 <1>   0.0160 
 21 C        2.0020    10.1260     0.2740 C.2   1 <1>   0.1080 
 22 C        3.5660     8.0630     0.5070 C.3   1 <1>  -0.0590 
 23 C        3.0510    11.2030     0.4860 C.3   1 <1>   0.0210 
 24 C        3.7110    11.6000    -0.8380 C.3   1 <1>  -0.2400 
 25 H        2.6930     1.6280    -0.8710 H     1 <1>   0.0800 
 26 H        2.7160     1.6230     0.8810 H     1 <1>   0.0800 
 27 H        3.2360     3.0490     0.0030 H     1 <1>   0.0800 
 28 H       -2.1900     0.4360    -0.0990 H     1 <1>   0.1500 
 29 H       -2.9240     5.2740    -0.1640 H     1 <1>   0.1500 
 30 H       -4.4650     1.3460    -0.2680 H     1 <1>   0.1500 
 31 H       -4.7970     3.7800    -0.3120 H     1 <1>   0.1500 
 32 H        1.5720     6.2320    -0.2850 H     1 <1>   0.3700 
 33 H       -1.4720     8.3790    -1.1000 H     1 <1>   0.0800 
 34 H       -1.5620    10.1180    -0.8810 H     1 <1>   0.0800 
 35 H       -1.8560     9.0510     0.4800 H     1 <1>   0.0800 
 36 H        3.4550     6.9950     0.4860 H     1 <1>   0.0800 
 37 H        3.9630     8.3440     1.4660 H     1 <1>   0.0800 
 38 H        4.2610     8.3540    -0.2590 H     1 <1>   0.0800 
 39 H        3.7940    10.8530     1.1770 H     1 <1>   0.0800 
 40 H        2.5740    12.0640     0.9210 H     1 <1>   0.0800 
 41 H        4.1970    10.7510    -1.2820 H     1 <1>   0.0800 
 42 H        4.4380    12.3750    -0.6730 H     1 <1>   0.0800 
 43 H        2.9630    11.9640    -1.5200 H     1 <1>   0.0800 
@<TRIPOS>BOND
  1   1   2  2   
  2   2   3  am  
  3   2   4  1   
  4   3   5  1   
  5   3   6  1   
  6   4   7  ar  
  7   4   8  ar  
  8   5   9  2   
  9   6  25  1   
 10   6  26  1   
 11   6  27  1   
 12   7   9  1   
 13   7  10  ar  
 14   8  11  ar  
 15   8  28  1   
 16   9  12  1   
 17  10  13  ar  
 18  10  29  1   
 19  11  13  ar  
 20  11  30  1   
 21  12  14  2   
 22  12  15  am  
 23  13  31  1   
 24  15  16  1   
 25  15  32  1   
 26  16  17  1   
 27  16  18  2   
 28  17  19  1   
 29  17  20  1   
 30  18  21  1   
 31  18  22  1   
 32  19  21  2   
 33  20  33  1   
 34  20  34  1   
 35  20  35  1   
 36  21  23  1   
 37  22  36  1   
 38  22  37  1   
 39  22  38  1   
 40  23  24  1   
 41  23  39  1   
 42  23  40  1   
 43  24  41  1   
 44  24  42  1   
 45  24  43  1   
@<TRIPOS>SUBSTRUCTURE
  1 ****  12 GROUP 4 **** **** 0

# MOE 2024.06 (io_trps.svl 2023.06)
