@<TRIPOS>MOLECULE
NONAME
45 47 1 0 0 
SMALL
USER_CHARGES


@<TRIPOS>ATOM
  1 S        0.0120     0.2200    -1.6410 S.o2  1 <1>   1.4470 
  2 O        0.6070    -0.6910    -2.5950 O.2   1 <1>  -0.6500 
  3 O       -0.7430     1.3470    -2.1470 O.2   1 <1>  -0.6500 
  4 N       -1.0260    -0.6900    -0.6600 N.am  1 <1>  -0.8490 
  5 C        1.2820     0.8150    -0.4730 C.ar  1 <1>  -0.0090 
  6 C       -0.3770    -1.9020    -0.0970 C.3   1 <1>   0.1960 
  7 C       -2.2770    -1.0440    -1.3310 C.3   1 <1>   0.1960 
  8 C        0.9930     1.6290     0.6260 C.ar  1 <1>  -0.1440 
  9 C        2.6060     0.4370    -0.6680 C.ar  1 <1>  -0.1500 
 10 C       -1.3610    -2.9000     0.5590 C.3   1 <1>   0.2000 
 11 C       -3.3130    -1.5220    -0.3000 C.3   1 <1>  -0.1600 
 12 C        2.0110     2.0330     1.4760 C.ar  1 <1>  -0.1500 
 13 C       -0.4250     2.0980     0.9330 C.3   1 <1>  -0.0960 
 14 C        3.6440     0.8290     0.1740 C.ar  1 <1>   0.0530 
 15 O       -1.6420    -3.9220    -0.3350 O.3   1 <1>  -0.6800 
 16 C       -2.6840    -2.2230     0.9310 C.3   1 <1>  -0.1860 
 17 C        3.3140     1.6390     1.2540 C.ar  1 <1>  -0.1500 
 18 C        5.0090     0.4140    -0.0590 C.2   1 <1>   0.0870 
 19 C       -3.6210    -3.2070     1.6000 C.2   1 <1>   0.9060 
 20 O        5.3090    -0.4700    -0.9850 O.3   1 <1>  -0.0190 
 21 C        6.1800     0.7610     0.5190 C.2   1 <1>  -0.1500 
 22 O       -4.0910    -2.9220     2.7040 O.co2 1 <1>  -0.9000 
 23 O       -3.8640    -4.2760     1.0230 O.co2 1 <1>  -0.9000 
 24 N        6.5830    -0.7240    -1.0510 N.2   1 <1>  -0.4100 
 25 C        7.1320     0.0080    -0.1520 C.2   1 <1>   0.1080 
 26 C        8.6210     0.0260     0.1160 C.3   1 <1>  -0.0590 
 27 H        0.1770    -2.4250    -0.8590 H     1 <1>   0.0800 
 28 H        0.3210    -1.5820     0.6560 H     1 <1>   0.0800 
 29 H       -2.6790    -0.1960    -1.8600 H     1 <1>   0.0800 
 30 H       -2.0850    -1.8260    -2.0490 H     1 <1>   0.0800 
 31 H        2.8420    -0.1900    -1.5110 H     1 <1>   0.1500 
 32 H       -0.9140    -3.3550     1.4260 H     1 <1>   0.0800 
 33 H       -3.9000    -0.6870     0.0390 H     1 <1>   0.0800 
 34 H       -3.9850    -2.2020    -0.7950 H     1 <1>   0.0800 
 35 H        1.7920     2.6600     2.3230 H     1 <1>   0.1500 
 36 H       -0.4420     2.7580     1.7810 H     1 <1>   0.0800 
 37 H       -1.0590     1.2590     1.1570 H     1 <1>   0.0800 
 38 H       -0.8370     2.6310     0.0950 H     1 <1>   0.0800 
 39 H       -2.5000    -4.3320    -0.0100 H     1 <1>   0.4000 
 40 H       -2.4570    -1.4670     1.6590 H     1 <1>   0.0800 
 41 H        4.0820     1.9660     1.9300 H     1 <1>   0.1500 
 42 H        6.3650     1.4560     1.3150 H     1 <1>   0.1500 
 43 H        8.8530     0.7110     0.9100 H     1 <1>   0.0800 
 44 H        9.1430     0.3270    -0.7730 H     1 <1>   0.0800 
 45 H        8.9480    -0.9590     0.3950 H     1 <1>   0.0800 
@<TRIPOS>BOND
  1   1   2  2   
  2   1   3  2   
  3   1   4  am  
  4   1   5  1   
  5   4   6  1   
  6   4   7  1   
  7   5   8  ar  
  8   5   9  ar  
  9   6  10  1   
 10   6  27  1   
 11   6  28  1   
 12   7  11  1   
 13   7  29  1   
 14   7  30  1   
 15   8  12  ar  
 16   8  13  1   
 17   9  14  ar  
 18   9  31  1   
 19  10  15  1   
 20  10  16  1   
 21  10  32  1   
 22  11  16  1   
 23  11  33  1   
 24  11  34  1   
 25  12  17  ar  
 26  12  35  1   
 27  13  36  1   
 28  13  37  1   
 29  13  38  1   
 30  14  17  ar  
 31  14  18  1   
 32  15  39  1   
 33  16  19  1   
 34  16  40  1   
 35  17  41  1   
 36  18  20  1   
 37  18  21  2   
 38  19  22  ar  
 39  19  23  ar  
 40  20  24  1   
 41  21  25  1   
 42  21  42  1   
 43  24  25  2   
 44  25  26  1   
 45  26  43  1   
 46  26  44  1   
 47  26  45  1   
@<TRIPOS>SUBSTRUCTURE
  1 ****   5 GROUP 4 **** **** 0

# MOE 2024.06 (io_trps.svl 2023.06)
