@<TRIPOS>MOLECULE
NONAME
52 53 1 0 0 
SMALL
USER_CHARGES


@<TRIPOS>ATOM
  1 O       -0.7220     1.2250    -1.1480 O.2   1 <1>  -0.5700 
  2 C       -0.1050     0.2830    -0.7000 C.2   1 <1>   0.5690 
  3 N        1.1110     0.4640    -0.1270 N.am  1 <1>  -0.7300 
  4 C       -0.6880    -1.1550    -0.7580 C.3   1 <1>   0.3410 
  5 C        1.9030     1.7020    -0.1590 C.3   1 <1>   0.2840 
  6 O        0.3650    -2.0300    -1.1800 O.3   1 <1>  -0.3630 
  7 C       -1.2570    -1.5410     0.6240 C.3   1 <1>  -0.2400 
  8 C       -1.7920    -1.2960    -1.8190 C.3   1 <1>  -0.2400 
  9 C        3.3790     1.3410    -0.0120 C.ar  1 <1>  -0.1440 
 10 C        0.6670    -3.1780    -0.5210 C.ar  1 <1>   0.0830 
 11 C        4.0860     1.7490     1.1200 C.ar  1 <1>   0.3930 
 12 C        4.0410     0.6020    -0.9810 C.ar  1 <1>  -0.1430 
 13 C        1.6580    -3.1970     0.4630 C.ar  1 <1>   0.0830 
 14 C        0.0010    -4.3420    -0.8700 C.ar  1 <1>  -0.1500 
 15 O        3.4310     2.4740     2.0570 O.3   1 <1>  -0.3630 
 16 N        5.3660     1.4680     1.3500 N.ar  1 <1>  -0.6200 
 17 C        5.3700     0.3180    -0.7410 C.ar  1 <1>  -0.1500 
 18 C        3.3840     0.0890    -2.2570 C.3   1 <1>  -0.0970 
 19 O        2.2980    -2.0280     0.7560 O.3   1 <1>  -0.3630 
 20 C        1.9490    -4.3980     1.1040 C.ar  1 <1>  -0.1500 
 21 C        0.2990    -5.5300    -0.2260 C.ar  1 <1>  -0.1500 
 22 C        4.0850     2.9330     3.2250 C.3   1 <1>   0.0400 
 23 C        5.9780     0.7660     0.4180 C.ar  1 <1>   0.1670 
 24 C        3.4180    -1.9940     1.6140 C.3   1 <1>   0.0400 
 25 C        1.2700    -5.5560     0.7600 C.ar  1 <1>  -0.1500 
 26 C        7.4370     0.4550     0.6800 C.3   1 <1>  -0.0970 
 27 H        1.6350    -0.3730     0.1650 H     1 <1>   0.3700 
 28 H        1.5610     2.3500     0.6280 H     1 <1>   0.0800 
 29 H        1.7400     2.2110    -1.0930 H     1 <1>   0.0800 
 30 H       -0.4880    -1.4960     1.3740 H     1 <1>   0.0800 
 31 H       -1.6910    -2.5240     0.6090 H     1 <1>   0.0800 
 32 H       -2.0250    -0.8420     0.9000 H     1 <1>   0.0800 
 33 H       -1.4070    -1.0220    -2.7840 H     1 <1>   0.0800 
 34 H       -2.6110    -0.6390    -1.5860 H     1 <1>   0.0800 
 35 H       -2.1620    -2.3040    -1.8520 H     1 <1>   0.0800 
 36 H       -0.7440    -4.3150    -1.6430 H     1 <1>   0.1500 
 37 H        5.9340    -0.2530    -1.4550 H     1 <1>   0.1500 
 38 H        2.7370     0.8340    -2.6820 H     1 <1>   0.0800 
 39 H        2.8040    -0.7910    -2.0400 H     1 <1>   0.0800 
 40 H        4.1250    -0.1660    -2.9920 H     1 <1>   0.0800 
 41 H        2.6970    -4.4540     1.8720 H     1 <1>   0.1500 
 42 H       -0.2220    -6.4330    -0.4940 H     1 <1>   0.1500 
 43 H        3.3770     3.4860     3.8140 H     1 <1>   0.0800 
 44 H        4.9040     3.5680     2.9360 H     1 <1>   0.0800 
 45 H        4.4450     2.0830     3.7770 H     1 <1>   0.0800 
 46 H        3.7830    -0.9830     1.6510 H     1 <1>   0.0800 
 47 H        4.1810    -2.6400     1.2190 H     1 <1>   0.0800 
 48 H        3.1160    -2.3050     2.5980 H     1 <1>   0.0800 
 49 H        1.4990    -6.4810     1.2600 H     1 <1>   0.1500 
 50 H        7.5270    -0.0970     1.5970 H     1 <1>   0.0800 
 51 H        7.9860     1.3740     0.7750 H     1 <1>   0.0800 
 52 H        7.8620    -0.1230    -0.1190 H     1 <1>   0.0800 
@<TRIPOS>BOND
  1   1   2  2   
  2   2   3  am  
  3   2   4  1   
  4   3   5  1   
  5   3  27  1   
  6   4   6  1   
  7   4   7  1   
  8   4   8  1   
  9   5   9  1   
 10   5  28  1   
 11   5  29  1   
 12   6  10  1   
 13   7  30  1   
 14   7  31  1   
 15   7  32  1   
 16   8  33  1   
 17   8  34  1   
 18   8  35  1   
 19   9  11  ar  
 20   9  12  ar  
 21  10  13  ar  
 22  10  14  ar  
 23  11  15  1   
 24  11  16  ar  
 25  12  17  ar  
 26  12  18  1   
 27  13  19  1   
 28  13  20  ar  
 29  14  21  ar  
 30  14  36  1   
 31  15  22  1   
 32  16  23  ar  
 33  17  23  ar  
 34  17  37  1   
 35  18  38  1   
 36  18  39  1   
 37  18  40  1   
 38  19  24  1   
 39  20  25  ar  
 40  20  41  1   
 41  21  25  ar  
 42  21  42  1   
 43  22  43  1   
 44  22  44  1   
 45  22  45  1   
 46  23  26  1   
 47  24  46  1   
 48  24  47  1   
 49  24  48  1   
 50  25  49  1   
 51  26  50  1   
 52  26  51  1   
 53  26  52  1   
@<TRIPOS>SUBSTRUCTURE
  1 ****  19 GROUP 4 **** **** 0

# MOE 2024.06 (io_trps.svl 2023.06)
