@<TRIPOS>MOLECULE
NONAME
52 55 1 0 0 
SMALL
USER_CHARGES


@<TRIPOS>ATOM
  1 O       -0.4480    -0.1100    -0.6570 O.2   1 <1>  -0.5700 
  2 C        0.5860    -0.7320    -0.5180 C.2   1 <1>   0.7800 
  3 O        1.7190    -0.1130    -0.2000 O.3   1 <1>  -0.4300 
  4 N        0.6590    -2.0670    -0.6660 N.am  1 <1>  -0.7300 
  5 C        1.7540     1.2880    -0.0180 C.3   1 <1>   0.0400 
  6 C       -0.5060    -2.9750    -0.7800 C.3   1 <1>   0.2810 
  7 C       -0.3940    -4.1830     0.1800 C.2   1 <1>   0.5690 
  8 C       -0.5950    -3.4210    -2.2420 C.3   1 <1>  -0.2400 
  9 O        0.7220    -4.5580     0.4750 O.2   1 <1>  -0.5700 
 10 N       -1.5110    -4.8220     0.6720 N.am  1 <1>  -0.6600 
 11 C       -2.9220    -4.5370     0.2840 C.3   1 <1>   0.1400 
 12 C       -1.3950    -5.9200     1.6750 C.3   1 <1>   0.1400 
 13 C       -3.5330    -5.7990    -0.3260 C.3   1 <1>  -0.1600 
 14 C       -1.9950    -7.2000     1.0930 C.3   1 <1>  -0.1600 
 15 C       -3.4420    -6.9890     0.6390 C.3   1 <1>   0.4600 
 16 O       -4.1830    -6.6930     1.8030 O.3   1 <1>  -0.5600 
 17 C       -3.9890    -8.2600     0.0020 C.2   1 <1>  -0.3320 
 18 C       -5.5780    -6.8860     1.7720 C.3   1 <1>   0.1200 
 19 N       -3.4450    -8.9440    -1.0510 N.pl3 1 <1>   0.0330 
 20 C       -5.1080    -8.8920     0.4100 C.2   1 <1>  -0.1810 
 21 C       -5.9310    -8.3680     1.5600 C.3   1 <1>   0.0210 
 22 C       -4.2420   -10.0330    -1.3070 C.ar  1 <1>  -0.1520 
 23 C       -5.2990   -10.0300    -0.4000 C.ar  1 <1>   0.0000 
 24 C       -4.1280   -11.0400    -2.2690 C.ar  1 <1>  -0.1500 
 25 C       -6.2580   -11.0460    -0.4510 C.ar  1 <1>  -0.1500 
 26 C       -5.0790   -12.0340    -2.3080 C.ar  1 <1>  -0.1500 
 27 C       -6.1440   -12.0370    -1.3990 C.ar  1 <1>  -0.1500 
 28 H        1.5200    -2.5320    -0.3710 H     1 <1>   0.3700 
 29 H        2.7600     1.5740     0.2300 H     1 <1>   0.0800 
 30 H        1.0840     1.5510     0.7820 H     1 <1>   0.0800 
 31 H        1.4460     1.7640    -0.9330 H     1 <1>   0.0800 
 32 H       -1.3870    -2.4150    -0.5260 H     1 <1>   0.0800 
 33 H        0.2910    -3.9650    -2.5180 H     1 <1>   0.0800 
 34 H       -0.7030    -2.5630    -2.8820 H     1 <1>   0.0800 
 35 H       -1.4460    -4.0610    -2.3820 H     1 <1>   0.0800 
 36 H       -2.9870    -3.7340    -0.4270 H     1 <1>   0.0800 
 37 H       -3.4770    -4.2490     1.1620 H     1 <1>   0.0800 
 38 H       -1.9260    -5.6390     2.5690 H     1 <1>   0.0800 
 39 H       -0.3660    -6.0920     1.9430 H     1 <1>   0.0800 
 40 H       -3.0020    -6.0360    -1.2290 H     1 <1>   0.0800 
 41 H       -4.5560    -5.6230    -0.5970 H     1 <1>   0.0800 
 42 H       -1.9680    -7.9840     1.8280 H     1 <1>   0.0800 
 43 H       -1.3900    -7.5110     0.2620 H     1 <1>   0.0800 
 44 H       -5.9900    -6.2880     0.9790 H     1 <1>   0.0800 
 45 H       -5.9780    -6.5410     2.7090 H     1 <1>   0.0800 
 46 H       -2.5850    -8.7140    -1.5570 H     1 <1>   0.2700 
 47 H       -6.9780    -8.4640     1.3410 H     1 <1>   0.0800 
 48 H       -5.7110    -8.9300     2.4490 H     1 <1>   0.0800 
 49 H       -3.3070   -11.0320    -2.9630 H     1 <1>   0.1500 
 50 H       -7.0680   -11.0360     0.2540 H     1 <1>   0.1500 
 51 H       -5.0130   -12.8200    -3.0390 H     1 <1>   0.1500 
 52 H       -6.8740   -12.8260    -1.4500 H     1 <1>   0.1500 
@<TRIPOS>BOND
  1   1   2  2   
  2   2   3  1   
  3   2   4  am  
  4   3   5  1   
  5   4   6  1   
  6   4  28  1   
  7   5  29  1   
  8   5  30  1   
  9   5  31  1   
 10   6   7  1   
 11   6   8  1   
 12   6  32  1   
 13   7   9  2   
 14   7  10  am  
 15   8  33  1   
 16   8  34  1   
 17   8  35  1   
 18  10  11  1   
 19  10  12  1   
 20  11  13  1   
 21  11  36  1   
 22  11  37  1   
 23  12  14  1   
 24  12  38  1   
 25  12  39  1   
 26  13  15  1   
 27  13  40  1   
 28  13  41  1   
 29  14  15  1   
 30  14  42  1   
 31  14  43  1   
 32  15  16  1   
 33  15  17  1   
 34  16  18  1   
 35  17  19  1   
 36  17  20  2   
 37  18  21  1   
 38  18  44  1   
 39  18  45  1   
 40  19  22  1   
 41  19  46  1   
 42  20  21  1   
 43  20  23  1   
 44  21  47  1   
 45  21  48  1   
 46  22  23  ar  
 47  22  24  ar  
 48  23  25  ar  
 49  24  26  ar  
 50  24  49  1   
 51  25  27  ar  
 52  25  50  1   
 53  26  27  ar  
 54  26  51  1   
 55  27  52  1   
@<TRIPOS>SUBSTRUCTURE
  1 ****  13 GROUP 4 **** **** 0

# MOE 2024.06 (io_trps.svl 2023.06)
