@<TRIPOS>MOLECULE
NONAME
57 59 1 0 0 
SMALL
USER_CHARGES


@<TRIPOS>ATOM
  1 S        0.1200    -0.0840    -1.8890 S.o2  1 <1>   1.4470 
  2 O       -0.3280    -1.1610    -2.7500 O.2   1 <1>  -0.6500 
  3 O        0.4340     1.1810    -2.5200 O.2   1 <1>  -0.6500 
  4 N       -1.1530     0.2150    -0.8080 N.am  1 <1>  -0.8490 
  5 C        1.4180    -0.7420    -0.8020 C.ar  1 <1>  -0.0090 
  6 C       -2.4690     0.1070    -1.4630 C.3   1 <1>   0.1960 
  7 C       -0.9560     1.4070     0.0310 C.3   1 <1>   0.1960 
  8 C        2.4480     0.0350    -0.2860 C.ar  1 <1>   0.0830 
  9 C        1.3740    -2.0790    -0.4320 C.ar  1 <1>  -0.1500 
 10 C       -3.6290     0.6290    -0.5830 C.3   1 <1>   0.0000 
 11 C       -1.9010     2.5440    -0.3610 C.3   1 <1>  -0.1600 
 12 O        2.4890     1.3500    -0.6140 O.3   1 <1>  -0.3630 
 13 C        3.3960    -0.5390     0.5540 C.ar  1 <1>  -0.1500 
 14 C        2.3110    -2.6740     0.4040 C.ar  1 <1>  -0.1430 
 15 C       -3.8490    -0.2000     0.7050 C.3   1 <1>   0.2000 
 16 C       -3.3790     2.1300    -0.2410 C.3   1 <1>  -0.1600 
 17 C       -4.9910     0.4800    -1.2910 C.3   1 <1>  -0.1600 
 18 C        3.6420     2.1390    -0.4260 C.3   1 <1>   0.0400 
 19 C        3.3420    -1.8780     0.9070 C.ar  1 <1>  -0.1430 
 20 C        2.0910    -4.1700     0.6950 C.3   1 <1>   0.0630 
 21 O       -3.7860    -1.5590     0.4380 O.3   1 <1>  -0.6800 
 22 C       -5.2930     0.0890     1.1180 C.3   1 <1>  -0.1600 
 23 C       -6.0470     0.4280    -0.1770 C.3   1 <1>  -0.1600 
 24 C        4.4370    -2.3840     1.8370 C.3   1 <1>  -0.0970 
 25 C        1.4620    -4.3850     2.0760 C.3   1 <1>  -0.2400 
 26 C        3.3300    -5.0500     0.4900 C.3   1 <1>  -0.2400 
 27 H       -2.4520     0.6740    -2.3790 H     1 <1>   0.0800 
 28 H       -2.6410    -0.9230    -1.7270 H     1 <1>   0.0800 
 29 H       -1.1430     1.1340     1.0550 H     1 <1>   0.0800 
 30 H        0.0620     1.7510    -0.0260 H     1 <1>   0.0800 
 31 H        0.5610    -2.6690    -0.8210 H     1 <1>   0.1500 
 32 H       -1.7130     3.3990     0.2630 H     1 <1>   0.0800 
 33 H       -1.6790     2.8340    -1.3750 H     1 <1>   0.0800 
 34 H        4.1910     0.0620     0.9510 H     1 <1>   0.1500 
 35 H       -3.1340     0.0210     1.4790 H     1 <1>   0.0800 
 36 H       -3.9440     2.7700    -0.8960 H     1 <1>   0.0800 
 37 H       -3.7130     2.3420     0.7590 H     1 <1>   0.0800 
 38 H       -5.1880     1.2690    -1.9960 H     1 <1>   0.0800 
 39 H       -5.0140    -0.4520    -1.8290 H     1 <1>   0.0800 
 40 H        3.4720     3.0910    -0.8970 H     1 <1>   0.0800 
 41 H        4.4810     1.6490    -0.8880 H     1 <1>   0.0800 
 42 H        3.8050     2.2780     0.6280 H     1 <1>   0.0800 
 43 H        1.3710    -4.5330    -0.0190 H     1 <1>   0.0800 
 44 H       -4.4790    -1.7900    -0.2060 H     1 <1>   0.4000 
 45 H       -5.7350    -0.7370     1.6490 H     1 <1>   0.0800 
 46 H       -5.3070     0.9470     1.7670 H     1 <1>   0.0800 
 47 H       -6.7930    -0.3160    -0.3980 H     1 <1>   0.0800 
 48 H       -6.5310     1.3850    -0.0760 H     1 <1>   0.0800 
 49 H        4.9380    -1.5670     2.3250 H     1 <1>   0.0800 
 50 H        5.1680    -2.9330     1.2720 H     1 <1>   0.0800 
 51 H        4.0330    -3.0130     2.6040 H     1 <1>   0.0800 
 52 H        2.1260    -4.0850     2.8620 H     1 <1>   0.0800 
 53 H        1.2140    -5.4230     2.2130 H     1 <1>   0.0800 
 54 H        0.5590    -3.8070     2.1560 H     1 <1>   0.0800 
 55 H        4.0150    -4.9720     1.3120 H     1 <1>   0.0800 
 56 H        3.8330    -4.7690    -0.4180 H     1 <1>   0.0800 
 57 H        3.0330    -6.0800     0.4090 H     1 <1>   0.0800 
@<TRIPOS>BOND
  1   1   2  2   
  2   1   3  2   
  3   1   4  am  
  4   1   5  1   
  5   4   6  1   
  6   4   7  1   
  7   5   8  ar  
  8   5   9  ar  
  9   6  10  1   
 10   6  27  1   
 11   6  28  1   
 12   7  11  1   
 13   7  29  1   
 14   7  30  1   
 15   8  12  1   
 16   8  13  ar  
 17   9  14  ar  
 18   9  31  1   
 19  10  15  1   
 20  10  16  1   
 21  10  17  1   
 22  11  16  1   
 23  11  32  1   
 24  11  33  1   
 25  12  18  1   
 26  13  19  ar  
 27  13  34  1   
 28  14  19  ar  
 29  14  20  1   
 30  15  21  1   
 31  15  22  1   
 32  15  35  1   
 33  16  36  1   
 34  16  37  1   
 35  17  23  1   
 36  17  38  1   
 37  17  39  1   
 38  18  40  1   
 39  18  41  1   
 40  18  42  1   
 41  19  24  1   
 42  20  25  1   
 43  20  26  1   
 44  20  43  1   
 45  21  44  1   
 46  22  23  1   
 47  22  45  1   
 48  22  46  1   
 49  23  47  1   
 50  23  48  1   
 51  24  49  1   
 52  24  50  1   
 53  24  51  1   
 54  25  52  1   
 55  25  53  1   
 56  25  54  1   
 57  26  55  1   
 58  26  56  1   
 59  26  57  1   
@<TRIPOS>SUBSTRUCTURE
  1 ****   4 GROUP 4 **** **** 0

# MOE 2024.06 (io_trps.svl 2023.06)
