@<TRIPOS>MOLECULE
NONAME
52 55 1 0 0 
SMALL
USER_CHARGES


@<TRIPOS>ATOM
  1 O        1.6900    -3.1440     2.8200 O.2   1 <1>  -0.5700 
  2 C        1.3690    -2.9820     1.6530 C.2   1 <1>   0.5440 
  3 N        0.9780    -1.7060     1.2820 N.am  1 <1>  -0.6600 
  4 C        1.4460    -4.1230     0.7370 C.ar  1 <1>   0.3960 
  5 C        0.6400    -1.2630    -0.0920 C.3   1 <1>   0.1400 
  6 C        1.0240    -0.5520     2.2070 C.3   1 <1>   0.1400 
  7 N        0.6230    -4.2290    -0.3190 N.ar  1 <1>  -0.6200 
  8 C        2.4020    -5.1070     1.0080 C.ar  1 <1>   0.1600 
  9 C        0.3570     0.2310     0.0270 C.3   1 <1>  -0.1600 
 10 C        1.0760     0.6690     1.2990 C.3   1 <1>  -0.1600 
 11 C        0.8180    -5.3080    -1.0570 C.ar  1 <1>   0.4100 
 12 N        2.6130    -6.2030     0.2910 N.ar  1 <1>  -0.6200 
 13 N       -0.0160    -5.4320    -2.1550 N.pl3 1 <1>  -0.8380 
 14 C        1.7950    -6.2660    -0.7400 C.ar  1 <1>   0.1600 
 15 C       -1.4960    -5.4200    -1.9190 C.3   1 <1>   0.3900 
 16 C        0.3960    -6.1840    -3.3720 C.3   1 <1>   0.1290 
 17 C       -2.0420    -6.8330    -1.6960 C.2   1 <1>   0.1080 
 18 N       -2.5860    -7.5330    -2.6510 N.2   1 <1>  -0.7070 
 19 C       -2.0210    -7.5320    -0.4860 C.2   1 <1>  -0.1810 
 20 N       -2.9240    -8.6970    -2.0690 N.pl3 1 <1>   0.3000 
 21 C       -2.5900    -8.7220    -0.7640 C.2   1 <1>  -0.3320 
 22 C       -1.4700    -7.0730     0.8530 C.3   1 <1>   0.0210 
 23 C       -2.8320    -9.9080     0.1500 C.3   1 <1>   0.0200 
 24 C       -2.4920    -7.2270     1.9870 C.3   1 <1>  -0.1600 
 25 C       -3.5880    -9.5020     1.4210 C.3   1 <1>  -0.1600 
 26 C       -2.7530    -8.6800     2.4180 C.3   1 <1>  -0.1600 
 27 H       -0.2250    -1.7870    -0.4630 H     1 <1>   0.0800 
 28 H        1.4790    -1.4430    -0.7420 H     1 <1>   0.0800 
 29 H        1.8840    -0.6030     2.8540 H     1 <1>   0.0800 
 30 H        0.1260    -0.5460     2.8020 H     1 <1>   0.0800 
 31 H        3.0290    -4.9750     1.8730 H     1 <1>   0.1500 
 32 H       -0.7030     0.3750     0.1400 H     1 <1>   0.0800 
 33 H        0.6930     0.7710    -0.8410 H     1 <1>   0.0800 
 34 H        2.1050     0.8950     1.0790 H     1 <1>   0.0800 
 35 H        0.6180     1.5280     1.7570 H     1 <1>   0.0800 
 36 H        1.8790    -7.1250    -1.3770 H     1 <1>   0.1500 
 37 H       -1.9840    -4.9910    -2.7750 H     1 <1>   0.0800 
 38 H       -1.7380    -4.8070    -1.0700 H     1 <1>   0.0800 
 39 H        1.4460    -6.0410    -3.5610 H     1 <1>   0.0800 
 40 H       -0.1570    -5.8280    -4.2240 H     1 <1>   0.0800 
 41 H        0.1950    -7.2350    -3.2450 H     1 <1>   0.0800 
 42 H       -3.3820    -9.4550    -2.5890 H     1 <1>   0.2700 
 43 H       -1.1980    -6.0370     0.7930 H     1 <1>   0.0800 
 44 H       -0.5770    -7.6280     1.0810 H     1 <1>   0.0800 
 45 H       -1.8900   -10.3580     0.4100 H     1 <1>   0.0800 
 46 H       -3.4140   -10.6470    -0.3730 H     1 <1>   0.0800 
 47 H       -3.4160    -6.7570     1.7000 H     1 <1>   0.0800 
 48 H       -2.1130    -6.6920     2.8410 H     1 <1>   0.0800 
 49 H       -3.9030   -10.4040     1.9180 H     1 <1>   0.0800 
 50 H       -4.4760    -8.9570     1.1520 H     1 <1>   0.0800 
 51 H       -3.2950    -8.6490     3.3480 H     1 <1>   0.0800 
 52 H       -1.8190    -9.1770     2.6140 H     1 <1>   0.0800 
@<TRIPOS>BOND
  1   1   2  2   
  2   2   3  am  
  3   2   4  1   
  4   3   5  1   
  5   3   6  1   
  6   4   7  ar  
  7   4   8  ar  
  8   5   9  1   
  9   5  27  1   
 10   5  28  1   
 11   6  10  1   
 12   6  29  1   
 13   6  30  1   
 14   7  11  ar  
 15   8  12  ar  
 16   8  31  1   
 17   9  10  1   
 18   9  32  1   
 19   9  33  1   
 20  10  34  1   
 21  10  35  1   
 22  11  13  1   
 23  11  14  ar  
 24  12  14  ar  
 25  13  15  1   
 26  13  16  1   
 27  14  36  1   
 28  15  17  1   
 29  15  37  1   
 30  15  38  1   
 31  16  39  1   
 32  16  40  1   
 33  16  41  1   
 34  17  18  2   
 35  17  19  1   
 36  18  20  1   
 37  19  21  2   
 38  19  22  1   
 39  20  21  1   
 40  20  42  1   
 41  21  23  1   
 42  22  24  1   
 43  22  43  1   
 44  22  44  1   
 45  23  25  1   
 46  23  45  1   
 47  23  46  1   
 48  24  26  1   
 49  24  47  1   
 50  24  48  1   
 51  25  26  1   
 52  25  49  1   
 53  25  50  1   
 54  26  51  1   
 55  26  52  1   
@<TRIPOS>SUBSTRUCTURE
  1 ****   7 GROUP 4 **** **** 0

# MOE 2024.06 (io_trps.svl 2023.06)
