@<TRIPOS>MOLECULE
NONAME
53 56 1 0 0 
SMALL
USER_CHARGES


@<TRIPOS>ATOM
  1 O        1.6360    -0.2350    -0.6620 O.3   1 <1>  -0.5600 
  2 C        2.4620    -1.1100     0.0770 C.3   1 <1>   0.4240 
  3 C        0.3350    -0.0270    -0.1950 C.3   1 <1>   0.1200 
  4 C        1.6800    -2.3110     0.6470 C.ar  1 <1>  -0.1440 
  5 C        3.1500    -0.2830     1.1810 C.3   1 <1>  -0.1600 
  6 C        3.5260    -1.5920    -0.9170 C.3   1 <1>  -0.1600 
  7 C       -0.4410    -1.3360    -0.2800 C.3   1 <1>  -0.0160 
  8 C        0.3040    -2.4200     0.4720 C.ar  1 <1>  -0.1440 
  9 C        2.3390    -3.3180     1.3460 C.ar  1 <1>  -0.1500 
 10 C        4.2850     0.6140     0.6720 C.3   1 <1>   0.3430 
 11 C        4.2930    -0.4420    -1.5770 C.3   1 <1>   0.3430 
 12 C       -0.3910    -3.5070     0.9780 C.ar  1 <1>  -0.1500 
 13 C        1.6460    -4.4010     1.8540 C.ar  1 <1>  -0.1500 
 14 N        4.1610     0.8210    -0.7980 N.4   1 <1>  -0.9590 
 15 C        0.2790    -4.5060     1.6740 C.ar  1 <1>   0.0830 
 16 C        5.0320     1.9250    -1.3080 C.3   1 <1>   0.5240 
 17 O       -0.3250    -5.6000     2.2010 O.3   1 <1>  -0.3630 
 18 C        4.6160     3.2700    -0.7210 C.2   1 <1>   0.1080 
 19 C       -1.7120    -5.8140     2.0600 C.3   1 <1>   0.0400 
 20 N        4.9170     3.6480     0.4860 N.2   1 <1>  -0.7070 
 21 C        3.8780     4.2340    -1.3990 C.2   1 <1>  -0.1500 
 22 N        4.3860     4.8810     0.6110 N.pl3 1 <1>   0.3140 
 23 C        3.7500     5.2470    -0.5180 C.2   1 <1>  -0.3020 
 24 C        4.5230     5.6850     1.8450 C.3   1 <1>   0.0960 
 25 C        5.6930     6.6700     1.7340 C.3   1 <1>  -0.2400 
 26 H       -0.1270     0.7220    -0.8140 H     1 <1>   0.0800 
 27 H        0.3720     0.3300     0.8200 H     1 <1>   0.0800 
 28 H        3.5740    -0.9410     1.9170 H     1 <1>   0.0800 
 29 H        2.4240     0.3130     1.7010 H     1 <1>   0.0800 
 30 H        3.0600    -2.1970    -1.6740 H     1 <1>   0.0800 
 31 H        4.2320    -2.2230    -0.4100 H     1 <1>   0.0800 
 32 H       -0.5580    -1.6220    -1.3100 H     1 <1>   0.0800 
 33 H       -1.4190    -1.1950     0.1440 H     1 <1>   0.0800 
 34 H        3.4010    -3.2780     1.5090 H     1 <1>   0.1500 
 35 H        5.2360     0.1550     0.8880 H     1 <1>   0.0800 
 36 H        4.2440     1.5550     1.1950 H     1 <1>   0.0800 
 37 H        3.8940    -0.2840    -2.5670 H     1 <1>   0.0800 
 38 H        5.3310    -0.7160    -1.6730 H     1 <1>   0.0800 
 39 H       -1.4520    -3.5650     0.8230 H     1 <1>   0.1500 
 40 H        2.1580    -5.1770     2.3930 H     1 <1>   0.1500 
 41 H        3.1770     1.1180    -0.9270 H     1 <1>   0.4500 
 42 H        4.9590     1.9820    -2.3810 H     1 <1>   0.0800 
 43 H        6.0590     1.7350    -1.0460 H     1 <1>   0.0800 
 44 H       -1.9580    -6.7390     2.5480 H     1 <1>   0.0800 
 45 H       -1.9510    -5.8780     1.0130 H     1 <1>   0.0800 
 46 H       -2.2390    -5.0020     2.5290 H     1 <1>   0.0800 
 47 H        3.5000     4.1790    -2.4060 H     1 <1>   0.1500 
 48 H        3.2540     6.1950    -0.6310 H     1 <1>   0.1500 
 49 H        4.6860     5.0140     2.6690 H     1 <1>   0.0800 
 50 H        3.6040     6.2160     2.0120 H     1 <1>   0.0800 
 51 H        6.6130     6.1360     1.5730 H     1 <1>   0.0800 
 52 H        5.7810     7.2340     2.6450 H     1 <1>   0.0800 
 53 H        5.5320     7.3560     0.9210 H     1 <1>   0.0800 
@<TRIPOS>BOND
  1   1   2  1   
  2   1   3  1   
  3   2   4  1   
  4   2   5  1   
  5   2   6  1   
  6   3   7  1   
  7   3  26  1   
  8   3  27  1   
  9   4   8  ar  
 10   4   9  ar  
 11   5  10  1   
 12   5  28  1   
 13   5  29  1   
 14   6  11  1   
 15   6  30  1   
 16   6  31  1   
 17   7   8  1   
 18   7  32  1   
 19   7  33  1   
 20   8  12  ar  
 21   9  13  ar  
 22   9  34  1   
 23  10  14  1   
 24  10  35  1   
 25  10  36  1   
 26  11  14  1   
 27  11  37  1   
 28  11  38  1   
 29  12  15  ar  
 30  12  39  1   
 31  13  15  ar  
 32  13  40  1   
 33  14  16  1   
 34  14  41  1   
 35  15  17  1   
 36  16  18  1   
 37  16  42  1   
 38  16  43  1   
 39  17  19  1   
 40  18  20  2   
 41  18  21  1   
 42  19  44  1   
 43  19  45  1   
 44  19  46  1   
 45  20  22  1   
 46  21  23  2   
 47  21  47  1   
 48  22  23  1   
 49  22  24  1   
 50  23  48  1   
 51  24  25  1   
 52  24  49  1   
 53  24  50  1   
 54  25  51  1   
 55  25  52  1   
 56  25  53  1   
@<TRIPOS>SUBSTRUCTURE
  1 ****   5 GROUP 4 **** **** 0

# MOE 2024.06 (io_trps.svl 2023.06)
