@<TRIPOS>MOLECULE
NONAME
52 55 1 0 0 
SMALL
USER_CHARGES


@<TRIPOS>ATOM
  1 O       -3.3440     3.4220    -0.0360 O.2   1 <1>  -0.5700 
  2 C       -2.8110     2.3960    -0.4080 C.2   1 <1>   0.5440 
  3 N       -3.5090     1.2120    -0.3360 N.am  1 <1>  -0.6600 
  4 C       -1.4400     2.4580    -0.8690 C.ar  1 <1>   0.0860 
  5 C       -4.8820     1.1340     0.2650 C.3   1 <1>   0.1400 
  6 C       -3.0030    -0.1160    -0.7990 C.3   1 <1>   0.1400 
  7 C       -0.3700     1.9820    -0.0950 C.ar  1 <1>  -0.0230 
  8 C       -1.1600     3.0170    -2.1140 C.ar  1 <1>  -0.1500 
  9 C       -4.9920    -0.0310     1.2750 C.3   1 <1>   0.2950 
 10 C       -3.2090    -1.1930     0.2910 C.3   1 <1>   0.2000 
 11 N       -0.5930     1.3890     1.1750 N.pl3 1 <1>   0.3260 
 12 C        0.9290     2.0760    -0.5860 C.ar  1 <1>  -0.1500 
 13 C        0.1320     3.1000    -2.5940 C.ar  1 <1>  -0.1500 
 14 O       -4.5510    -1.2160     0.6730 O.3   1 <1>  -0.5600 
 15 C       -6.4130    -0.3010     1.8010 C.3   1 <1>  -0.1950 
 16 C       -2.8490    -2.6050    -0.1840 C.3   1 <1>  -0.1600 
 17 C       -0.1120     0.2210     1.6260 C.2   1 <1>   0.0360 
 18 C       -1.3810     1.7590     2.1960 C.2   1 <1>   0.0360 
 19 C        1.1810     2.6280    -1.8270 C.ar  1 <1>  -0.1500 
 20 C       -7.6380    -0.3030     0.9390 C.3   1 <1>  -0.2000 
 21 C       -7.4480     0.7690     1.9770 C.3   1 <1>  -0.2000 
 22 C       -1.3420    -2.7800    -0.4340 C.3   1 <1>  -0.1600 
 23 N       -0.5680    -0.0900     2.7870 N.2   1 <1>  -0.3380 
 24 N       -1.3860     0.8980     3.1540 N.2   1 <1>  -0.3380 
 25 C       -1.0170    -4.2210    -0.8420 C.3   1 <1>  -0.1600 
 26 C        0.4840    -4.3980    -1.0880 C.3   1 <1>  -0.2400 
 27 H       -5.1230     2.0520     0.7700 H     1 <1>   0.0800 
 28 H       -5.5960     0.9940    -0.5250 H     1 <1>   0.0800 
 29 H       -3.5460    -0.4070    -1.6820 H     1 <1>   0.0800 
 30 H       -1.9640    -0.0580    -1.0570 H     1 <1>   0.0800 
 31 H       -1.9760     3.3960    -2.7080 H     1 <1>   0.1500 
 32 H       -4.3520     0.1760     2.1160 H     1 <1>   0.0800 
 33 H       -2.6240    -0.9570     1.1630 H     1 <1>   0.0800 
 34 H        1.7590     1.7200     0.0030 H     1 <1>   0.1500 
 35 H        0.3250     3.5360    -3.5600 H     1 <1>   0.1500 
 36 H       -6.3780    -1.0470     2.5760 H     1 <1>   0.1000 
 37 H       -3.1540    -3.3000     0.5800 H     1 <1>   0.0800 
 38 H       -3.3980    -2.8300    -1.0810 H     1 <1>   0.0800 
 39 H        0.5750    -0.3760     1.0570 H     1 <1>   0.1500 
 40 H       -1.9440     2.6760     2.1890 H     1 <1>   0.1500 
 41 H        2.1900     2.6960    -2.1980 H     1 <1>   0.1500 
 42 H       -7.5530    -0.0460    -0.1020 H     1 <1>   0.1000 
 43 H       -8.3740    -1.0700     1.1080 H     1 <1>   0.1000 
 44 H       -8.0640     0.7460     2.8600 H     1 <1>   0.1000 
 45 H       -7.2670     1.7740     1.6370 H     1 <1>   0.1000 
 46 H       -1.0160    -2.1160    -1.2150 H     1 <1>   0.0800 
 47 H       -0.8040    -2.5390     0.4670 H     1 <1>   0.0800 
 48 H       -1.3290    -4.8960    -0.0630 H     1 <1>   0.0800 
 49 H       -1.5560    -4.4750    -1.7380 H     1 <1>   0.0800 
 50 H        1.0410    -4.1730    -0.1950 H     1 <1>   0.0800 
 51 H        0.8160    -3.7490    -1.8790 H     1 <1>   0.0800 
 52 H        0.6910    -5.4150    -1.3720 H     1 <1>   0.0800 
@<TRIPOS>BOND
  1   1   2  2   
  2   2   3  am  
  3   2   4  1   
  4   3   5  1   
  5   3   6  1   
  6   4   7  ar  
  7   4   8  ar  
  8   5   9  1   
  9   5  27  1   
 10   5  28  1   
 11   6  10  1   
 12   6  29  1   
 13   6  30  1   
 14   7  11  1   
 15   7  12  ar  
 16   8  13  ar  
 17   8  31  1   
 18   9  14  1   
 19   9  15  1   
 20   9  32  1   
 21  10  14  1   
 22  10  16  1   
 23  10  33  1   
 24  11  17  1   
 25  11  18  1   
 26  12  19  ar  
 27  12  34  1   
 28  13  19  ar  
 29  13  35  1   
 30  15  20  1   
 31  15  21  1   
 32  15  36  1   
 33  16  22  1   
 34  16  37  1   
 35  16  38  1   
 36  17  23  2   
 37  17  39  1   
 38  18  24  2   
 39  18  40  1   
 40  19  41  1   
 41  20  21  1   
 42  20  42  1   
 43  20  43  1   
 44  21  44  1   
 45  21  45  1   
 46  22  25  1   
 47  22  46  1   
 48  22  47  1   
 49  23  24  1   
 50  25  26  1   
 51  25  48  1   
 52  25  49  1   
 53  26  50  1   
 54  26  51  1   
 55  26  52  1   
@<TRIPOS>SUBSTRUCTURE
  1 ****   6 GROUP 4 **** **** 0

# MOE 2024.06 (io_trps.svl 2023.06)
