@<TRIPOS>MOLECULE
NONAME
54 57 1 0 0 
SMALL
USER_CHARGES


@<TRIPOS>ATOM
  1 O        1.2540     0.1360     2.1790 O.3   1 <1>  -0.6800 
  2 C        1.3600    -0.0160     0.7990 C.3   1 <1>   0.2000 
  3 C        2.0260    -1.3530     0.4750 C.3   1 <1>  -0.0800 
  4 C        2.3950     0.9870     0.2820 C.3   1 <1>   0.3430 
  5 C        3.5170    -1.0970     0.7230 C.3   1 <1>   0.3430 
  6 C        1.4900    -2.5920     1.2250 C.3   1 <1>  -0.0170 
  7 N        3.7290     0.3770     0.5880 N.4   1 <1>  -0.9590 
  8 C        2.3850    -3.7980     0.9590 C.ar  1 <1>  -0.1440 
  9 C        4.2910     0.9580     1.8320 C.3   1 <1>   0.5240 
 10 C        2.4000    -4.4760    -0.2830 C.ar  1 <1>   0.0000 
 11 C        3.2300    -4.2460     1.9330 C.ar  1 <1>  -0.1500 
 12 C        4.7080     2.3700     1.5010 C.2   1 <1>  -0.1810 
 13 C        3.3410    -5.5220    -0.4490 C.ar  1 <1>   0.3100 
 14 C        1.5380    -4.1870    -1.3670 C.ar  1 <1>  -0.1500 
 15 C        4.1020    -5.3100     1.6750 C.ar  1 <1>   0.1600 
 16 C        5.7410     2.8250     0.7530 C.2   1 <1>  -0.3320 
 17 C        4.0410     3.5110     1.9250 C.2   1 <1>   0.1390 
 18 N        4.1840    -5.9190     0.5370 N.ar  1 <1>  -0.6200 
 19 C        3.4130    -6.1850    -1.6830 C.ar  1 <1>  -0.1500 
 20 C        1.6290    -4.8570    -2.5570 C.ar  1 <1>  -0.1500 
 21 N        5.6480     4.1790     0.7460 N.pl3 1 <1>   0.3140 
 22 C        6.8390     2.0520     0.0350 C.3   1 <1>  -0.0600 
 23 N        4.5890     4.5900     1.4700 N.2   1 <1>  -0.7070 
 24 C        2.5820    -5.8640    -2.7220 C.ar  1 <1>  -0.1500 
 25 C        6.5500     5.1580     0.0880 C.3   1 <1>   0.2340 
 26 C        6.4220     5.1020    -1.4300 C.2   1 <1>  -0.2880 
 27 C        7.4190     4.8570    -2.2870 C.2   1 <1>  -0.3000 
 28 H        0.4180    -0.2530     2.5160 H     1 <1>   0.4000 
 29 H        0.3900     0.1180     0.3490 H     1 <1>   0.0800 
 30 H        1.9160    -1.5240    -0.5800 H     1 <1>   0.0800 
 31 H        2.2670     1.9550     0.7390 H     1 <1>   0.0800 
 32 H        2.2850     1.0870    -0.7850 H     1 <1>   0.0800 
 33 H        4.1190    -1.6500     0.0200 H     1 <1>   0.0800 
 34 H        3.7690    -1.4140     1.7220 H     1 <1>   0.0800 
 35 H        0.4790    -2.8080     0.9260 H     1 <1>   0.0800 
 36 H        1.4710    -2.4060     2.2850 H     1 <1>   0.0800 
 37 H        4.3920     0.6140    -0.1610 H     1 <1>   0.4500 
 38 H        3.5570     0.9520     2.6220 H     1 <1>   0.0800 
 39 H        5.1550     0.3990     2.1500 H     1 <1>   0.0800 
 40 H        3.2590    -3.8050     2.9130 H     1 <1>   0.1500 
 41 H        0.7820    -3.4340    -1.2610 H     1 <1>   0.1500 
 42 H        4.7520    -5.6390     2.4700 H     1 <1>   0.1500 
 43 H        3.1660     3.5260     2.5560 H     1 <1>   0.1500 
 44 H        4.1460    -6.9640    -1.7850 H     1 <1>   0.1500 
 45 H        0.9690    -4.6280    -3.3770 H     1 <1>   0.1500 
 46 H        6.7670     0.9980     0.2340 H     1 <1>   0.0800 
 47 H        7.8060     2.3890     0.3670 H     1 <1>   0.0800 
 48 H        6.7700     2.2070    -1.0280 H     1 <1>   0.0800 
 49 H        2.6480    -6.3830    -3.6630 H     1 <1>   0.1500 
 50 H        6.2890     6.1410     0.4360 H     1 <1>   0.0800 
 51 H        7.5590     4.9500     0.3910 H     1 <1>   0.0800 
 52 H        5.4110     5.2920    -1.7550 H     1 <1>   0.1500 
 53 H        7.2950     4.8300    -3.3570 H     1 <1>   0.1500 
 54 H        8.4400     4.6690    -2.0020 H     1 <1>   0.1500 
@<TRIPOS>BOND
  1   1   2  1   
  2   1  28  1   
  3   2   3  1   
  4   2   4  1   
  5   2  29  1   
  6   3   5  1   
  7   3   6  1   
  8   3  30  1   
  9   4   7  1   
 10   4  31  1   
 11   4  32  1   
 12   5   7  1   
 13   5  33  1   
 14   5  34  1   
 15   6   8  1   
 16   6  35  1   
 17   6  36  1   
 18   7   9  1   
 19   7  37  1   
 20   8  10  ar  
 21   8  11  ar  
 22   9  12  1   
 23   9  38  1   
 24   9  39  1   
 25  10  13  ar  
 26  10  14  ar  
 27  11  15  ar  
 28  11  40  1   
 29  12  16  2   
 30  12  17  1   
 31  13  18  ar  
 32  13  19  ar  
 33  14  20  ar  
 34  14  41  1   
 35  15  18  ar  
 36  15  42  1   
 37  16  21  1   
 38  16  22  1   
 39  17  23  2   
 40  17  43  1   
 41  19  24  ar  
 42  19  44  1   
 43  20  24  ar  
 44  20  45  1   
 45  21  23  1   
 46  21  25  1   
 47  22  46  1   
 48  22  47  1   
 49  22  48  1   
 50  24  49  1   
 51  25  26  1   
 52  25  50  1   
 53  25  51  1   
 54  26  27  2   
 55  26  52  1   
 56  27  53  1   
 57  27  54  1   
@<TRIPOS>SUBSTRUCTURE
  1 ****   5 GROUP 4 **** **** 0

# MOE 2024.06 (io_trps.svl 2023.06)
