@<TRIPOS>MOLECULE
NONAME
51 53 1 0 0 
SMALL
USER_CHARGES


@<TRIPOS>ATOM
  1 O       -1.7990     0.2320    -1.9080 O.2   1 <1>  -0.5700 
  2 C       -1.8470     0.5720    -0.7420 C.2   1 <1>   0.5440 
  3 N       -1.9490    -0.4060     0.2040 N.am  1 <1>  -0.7300 
  4 C       -1.8030     1.9770    -0.3660 C.ar  1 <1>   0.0860 
  5 C       -1.9710    -1.8640    -0.0620 C.3   1 <1>   0.2200 
  6 C       -1.3020     2.9380    -1.2400 C.ar  1 <1>  -0.1500 
  7 C       -2.2530     2.4330     0.8730 C.ar  1 <1>  -0.1500 
  8 C       -3.3790    -2.4280     0.0700 C.3   1 <1>  -0.0800 
  9 C       -1.2770    -2.5780     1.0880 C.3   1 <1>   0.1200 
 10 C       -1.2430     4.2770    -0.9000 C.ar  1 <1>  -0.1500 
 11 C       -2.1940     3.7710     1.2160 C.ar  1 <1>  -0.1500 
 12 C       -3.5120    -2.6740     1.5780 C.3   1 <1>   0.1200 
 13 C       -4.5070    -1.5740    -0.5370 C.3   1 <1>  -0.0160 
 14 O       -2.2210    -2.6090     2.1150 O.3   1 <1>  -0.5600 
 15 C       -1.6880     4.7240     0.3410 C.ar  1 <1>  -0.1430 
 16 C       -5.8450    -2.2880    -0.4290 C.ar  1 <1>  -0.1430 
 17 C       -1.6440     6.2070     0.7700 C.3   1 <1>   0.1430 
 18 C       -6.7530    -2.0020     0.5710 C.ar  1 <1>  -0.1500 
 19 C       -6.2200    -3.2630    -1.3300 C.ar  1 <1>  -0.1500 
 20 C       -0.7740     6.3520     2.0280 C.3   1 <1>  -0.2400 
 21 C       -1.0560     7.1330    -0.3090 C.3   1 <1>  -0.2400 
 22 C       -3.0670     6.6960     1.0750 C.3   1 <1>  -0.2400 
 23 C       -7.9530    -2.6910     0.6240 C.ar  1 <1>   0.1600 
 24 C       -7.4450    -3.8930    -1.1890 C.ar  1 <1>   0.1600 
 25 N       -8.3200    -3.6320    -0.2310 N.ar  1 <1>  -0.6200 
 26 H       -1.9580    -0.1710     1.1980 H     1 <1>   0.3700 
 27 H       -1.5190    -2.0860    -1.0150 H     1 <1>   0.0800 
 28 H       -0.9510     2.6250    -2.2090 H     1 <1>   0.1500 
 29 H       -2.6620     1.7390     1.5830 H     1 <1>   0.1500 
 30 H       -3.3910    -3.3890    -0.4130 H     1 <1>   0.0800 
 31 H       -0.3890    -2.0710     1.4220 H     1 <1>   0.0800 
 32 H       -1.0430    -3.5950     0.8220 H     1 <1>   0.0800 
 33 H       -0.8430     4.9550    -1.6290 H     1 <1>   0.1500 
 34 H       -2.5540     4.0670     2.1860 H     1 <1>   0.1500 
 35 H       -3.9310    -3.6440     1.7870 H     1 <1>   0.0800 
 36 H       -4.1010    -1.9120     2.0560 H     1 <1>   0.0800 
 37 H       -4.2880    -1.3790    -1.5730 H     1 <1>   0.0800 
 38 H       -4.5700    -0.6220    -0.0380 H     1 <1>   0.0800 
 39 H       -6.5400    -1.2510     1.3090 H     1 <1>   0.1500 
 40 H       -5.5700    -3.5390    -2.1410 H     1 <1>   0.1500 
 41 H       -0.7000     7.3830     2.3220 H     1 <1>   0.0800 
 42 H        0.2170     5.9800     1.8340 H     1 <1>   0.0800 
 43 H       -1.1860     5.7990     2.8520 H     1 <1>   0.0800 
 44 H       -1.0440     8.1520     0.0320 H     1 <1>   0.0800 
 45 H       -1.6480     7.0900    -1.2060 H     1 <1>   0.0800 
 46 H       -0.0450     6.8480    -0.5410 H     1 <1>   0.0800 
 47 H       -3.0620     7.7380     1.3420 H     1 <1>   0.0800 
 48 H       -3.5020     6.1460     1.8890 H     1 <1>   0.0800 
 49 H       -3.6930     6.5680     0.2090 H     1 <1>   0.0800 
 50 H       -8.6490    -2.4550     1.4110 H     1 <1>   0.1500 
 51 H       -7.7200    -4.6520    -1.9010 H     1 <1>   0.1500 
@<TRIPOS>BOND
  1   1   2  2   
  2   2   3  am  
  3   2   4  1   
  4   3   5  1   
  5   3  26  1   
  6   4   6  ar  
  7   4   7  ar  
  8   5   8  1   
  9   5   9  1   
 10   5  27  1   
 11   6  10  ar  
 12   6  28  1   
 13   7  11  ar  
 14   7  29  1   
 15   8  12  1   
 16   8  13  1   
 17   8  30  1   
 18   9  14  1   
 19   9  31  1   
 20   9  32  1   
 21  10  15  ar  
 22  10  33  1   
 23  11  15  ar  
 24  11  34  1   
 25  12  14  1   
 26  12  35  1   
 27  12  36  1   
 28  13  16  1   
 29  13  37  1   
 30  13  38  1   
 31  15  17  1   
 32  16  18  ar  
 33  16  19  ar  
 34  17  20  1   
 35  17  21  1   
 36  17  22  1   
 37  18  23  ar  
 38  18  39  1   
 39  19  24  ar  
 40  19  40  1   
 41  20  41  1   
 42  20  42  1   
 43  20  43  1   
 44  21  44  1   
 45  21  45  1   
 46  21  46  1   
 47  22  47  1   
 48  22  48  1   
 49  22  49  1   
 50  23  25  ar  
 51  23  50  1   
 52  24  25  ar  
 53  24  51  1   
@<TRIPOS>SUBSTRUCTURE
  1 ****   2 GROUP 4 **** **** 0

# MOE 2024.06 (io_trps.svl 2023.06)
