@<TRIPOS>MOLECULE
NONAME
46 49 1 0 0 
SMALL
USER_CHARGES


@<TRIPOS>ATOM
  1 S       -2.6150    -1.0350     2.6250 S.3   1 <1>  -0.0800 
  2 C       -3.2230    -2.3790     1.6780 C.2   1 <1>  -0.1100 
  3 C       -1.9990    -0.2440     1.1870 C.2   1 <1>  -0.1100 
  4 C       -2.9620    -2.1990     0.3670 C.2   1 <1>  -0.1810 
  5 C       -2.2580    -0.9790     0.0900 C.2   1 <1>  -0.1500 
  6 C       -3.3580    -3.1490    -0.7440 C.3   1 <1>   0.5240 
  7 N       -4.8370    -3.1720    -0.8420 N.4   1 <1>  -0.9590 
  8 C       -5.3650    -4.2460    -1.7400 C.3   1 <1>   0.3430 
  9 C       -5.4590    -1.8410    -1.0660 C.3   1 <1>   0.3430 
 10 C       -6.8960    -4.4170    -1.5990 C.3   1 <1>   0.1400 
 11 C       -6.5510    -1.6240    -0.0150 C.3   1 <1>  -0.1600 
 12 N       -7.3700    -4.0130    -0.2380 N.am  1 <1>  -0.6600 
 13 C       -7.7560    -2.5790    -0.0870 C.3   1 <1>   0.1400 
 14 C       -6.9480    -4.7520     0.8460 C.2   1 <1>   0.5440 
 15 O       -6.0280    -4.2770     1.4890 O.2   1 <1>  -0.5700 
 16 C       -7.4600    -6.0820     1.1260 C.ar  1 <1>   0.0860 
 17 C       -8.7050    -6.5340     0.6420 C.ar  1 <1>  -0.1520 
 18 C       -6.7280    -6.9920     1.8790 C.ar  1 <1>  -0.1500 
 19 N       -9.6710    -5.8770    -0.0770 N.pl3 1 <1>   0.0330 
 20 C       -9.1550    -7.8320     0.8690 C.ar  1 <1>   0.0000 
 21 C       -7.1760    -8.2920     2.1210 C.ar  1 <1>  -0.1500 
 22 C      -10.6970    -6.7440    -0.3220 C.2   1 <1>  -0.3020 
 23 C       -8.3810    -8.7190     1.6150 C.ar  1 <1>  -0.1500 
 24 C      -10.4130    -7.9410     0.2390 C.2   1 <1>  -0.1500 
 25 H       -3.7220    -3.1660     2.2210 H     1 <1>   0.1500 
 26 H       -1.4970     0.6990     1.3220 H     1 <1>   0.1500 
 27 H       -1.9690    -0.6990    -0.9090 H     1 <1>   0.1500 
 28 H       -2.9900    -4.1350    -0.5110 H     1 <1>   0.0800 
 29 H       -2.9230    -2.8290    -1.6770 H     1 <1>   0.0800 
 30 H       -5.1690    -3.4420     0.1120 H     1 <1>   0.4500 
 31 H       -4.9020    -5.1820    -1.4750 H     1 <1>   0.0800 
 32 H       -5.1170    -4.0370    -2.7680 H     1 <1>   0.0800 
 33 H       -5.8740    -1.7770    -2.0580 H     1 <1>   0.0800 
 34 H       -4.7200    -1.0630    -0.9570 H     1 <1>   0.0800 
 35 H       -7.1560    -5.4460    -1.7830 H     1 <1>   0.0800 
 36 H       -7.3930    -3.8220    -2.3450 H     1 <1>   0.0800 
 37 H       -6.9220    -0.6200    -0.1210 H     1 <1>   0.0800 
 38 H       -6.1130    -1.6760     0.9670 H     1 <1>   0.0800 
 39 H       -8.3890    -2.2980    -0.9120 H     1 <1>   0.0800 
 40 H       -8.3380    -2.4690     0.8140 H     1 <1>   0.0800 
 41 H       -5.7810    -6.6960     2.2950 H     1 <1>   0.1500 
 42 H       -9.6210    -4.8920    -0.3580 H     1 <1>   0.2700 
 43 H       -6.5690    -8.9600     2.7080 H     1 <1>   0.1500 
 44 H      -11.5730    -6.4550    -0.8780 H     1 <1>   0.1500 
 45 H       -8.7410    -9.7180     1.7890 H     1 <1>   0.1500 
 46 H      -11.0090    -8.8370     0.2350 H     1 <1>   0.1500 
@<TRIPOS>BOND
  1   1   2  1   
  2   1   3  1   
  3   2   4  2   
  4   2  25  1   
  5   3   5  2   
  6   3  26  1   
  7   4   5  1   
  8   4   6  1   
  9   5  27  1   
 10   6   7  1   
 11   6  28  1   
 12   6  29  1   
 13   7   8  1   
 14   7   9  1   
 15   7  30  1   
 16   8  10  1   
 17   8  31  1   
 18   8  32  1   
 19   9  11  1   
 20   9  33  1   
 21   9  34  1   
 22  10  12  1   
 23  10  35  1   
 24  10  36  1   
 25  11  13  1   
 26  11  37  1   
 27  11  38  1   
 28  12  13  1   
 29  12  14  am  
 30  13  39  1   
 31  13  40  1   
 32  14  15  2   
 33  14  16  1   
 34  16  17  ar  
 35  16  18  ar  
 36  17  19  1   
 37  17  20  ar  
 38  18  21  ar  
 39  18  41  1   
 40  19  22  1   
 41  19  42  1   
 42  20  23  ar  
 43  20  24  1   
 44  21  23  ar  
 45  21  43  1   
 46  22  24  2   
 47  22  44  1   
 48  23  45  1   
 49  24  46  1   
@<TRIPOS>SUBSTRUCTURE
  1 ****  14 GROUP 4 **** **** 0

# MOE 2024.06 (io_trps.svl 2023.06)
