@<TRIPOS>MOLECULE
NONAME
34 36 1 0 0 
SMALL
USER_CHARGES


@<TRIPOS>ATOM
  1 S        0.2570    -0.0100    -1.3300 S.3   1 <1>  -0.0800 
  2 C        0.7450     1.5190    -0.5880 C.ar  1 <1>   0.0400 
  3 C        1.2080    -0.9430    -0.1680 C.2   1 <1>  -0.1400 
  4 C        1.5940     1.2770     0.4820 C.ar  1 <1>   0.0000 
  5 C        0.3620     2.7870    -0.9810 C.ar  1 <1>  -0.1500 
  6 C        1.8390    -0.1240     0.6930 C.2   1 <1>  -0.1500 
  7 C        1.1930    -2.4530    -0.2980 C.3   1 <1>   0.5230 
  8 C        2.0800     2.3720     1.1900 C.ar  1 <1>  -0.1500 
  9 C        0.8560     3.8630    -0.2650 C.ar  1 <1>  -0.1500 
 10 N       -0.0820    -2.9740     0.2670 N.4   1 <1>  -0.9590 
 11 C        1.7100     3.6530     0.8150 C.ar  1 <1>  -0.1500 
 12 C        0.0180    -4.4550     0.5720 C.3   1 <1>   0.3170 
 13 C       -1.2180    -2.9200    -0.6860 C.3   1 <1>   0.3430 
 14 C        0.8550    -5.2220    -0.4830 C.2   1 <1>   0.9060 
 15 C       -1.4420    -4.9410     0.6230 C.3   1 <1>  -0.1600 
 16 C       -2.2610    -3.8440    -0.0560 C.3   1 <1>   0.2000 
 17 O        0.3610    -5.4080    -1.6020 O.co2 1 <1>  -0.9000 
 18 O        2.0430    -5.4260    -0.2290 O.co2 1 <1>  -0.9000 
 19 O       -2.9240    -3.1350     0.9390 O.3   1 <1>  -0.6800 
 20 H       -0.2980     2.9250    -1.8190 H     1 <1>   0.1500 
 21 H        2.4890    -0.4320     1.4940 H     1 <1>   0.1500 
 22 H        2.0230    -2.8620     0.2560 H     1 <1>   0.0800 
 23 H        1.3040    -2.7520    -1.3290 H     1 <1>   0.0800 
 24 H        2.7410     2.2180     2.0240 H     1 <1>   0.1500 
 25 H        0.5800     4.8660    -0.5410 H     1 <1>   0.1500 
 26 H       -0.3500    -2.4590     1.1110 H     1 <1>   0.4500 
 27 H        2.0860     4.5010     1.3620 H     1 <1>   0.1500 
 28 H        0.5000    -4.6080     1.5220 H     1 <1>   0.0800 
 29 H       -1.6020    -1.9220    -0.8130 H     1 <1>   0.0800 
 30 H       -0.9130    -3.3250    -1.6390 H     1 <1>   0.0800 
 31 H       -1.7460    -5.1120     1.6400 H     1 <1>   0.0800 
 32 H       -1.5380    -5.8680     0.0830 H     1 <1>   0.0800 
 33 H       -2.9770    -4.2100    -0.7730 H     1 <1>   0.0800 
 34 H       -3.6460    -3.6740     1.3210 H     1 <1>   0.4000 
@<TRIPOS>BOND
  1   1   2  1   
  2   1   3  1   
  3   2   4  ar  
  4   2   5  ar  
  5   3   6  2   
  6   3   7  1   
  7   4   6  1   
  8   4   8  ar  
  9   5   9  ar  
 10   5  20  1   
 11   6  21  1   
 12   7  10  1   
 13   7  22  1   
 14   7  23  1   
 15   8  11  ar  
 16   8  24  1   
 17   9  11  ar  
 18   9  25  1   
 19  10  12  1   
 20  10  13  1   
 21  10  26  1   
 22  11  27  1   
 23  12  14  1   
 24  12  15  1   
 25  12  28  1   
 26  13  16  1   
 27  13  29  1   
 28  13  30  1   
 29  14  17  ar  
 30  14  18  ar  
 31  15  16  1   
 32  15  31  1   
 33  15  32  1   
 34  16  19  1   
 35  16  33  1   
 36  19  34  1   
@<TRIPOS>SUBSTRUCTURE
  1 ****   3 GROUP 4 **** **** 0

# MOE 2024.06 (io_trps.svl 2023.06)
