@<TRIPOS>MOLECULE
NONAME
46 47 1 0 0 
SMALL
USER_CHARGES


@<TRIPOS>ATOM
  1 O       -0.2760    -0.1710     0.1950 O.2   1 <1>  -0.5700 
  2 C       -0.8810    -1.2250     0.2290 C.2   1 <1>   0.7800 
  3 O       -0.2370    -2.3830     0.3990 O.3   1 <1>  -0.4300 
  4 N       -2.2430    -1.2820     0.0980 N.am  1 <1>  -0.6600 
  5 C        1.1520    -2.5770     0.5590 C.3   1 <1>   0.2800 
  6 C       -2.9790    -2.5810     0.0840 C.3   1 <1>   0.1400 
  7 C       -3.0440    -0.0280    -0.0110 C.3   1 <1>   0.1400 
  8 C        1.9010    -2.1070    -0.6930 C.3   1 <1>  -0.2400 
  9 C        1.3270    -4.0880     0.7140 C.3   1 <1>  -0.2400 
 10 C        1.6430    -1.8790     1.8330 C.3   1 <1>  -0.2400 
 11 C       -4.2650    -2.4430    -0.7320 C.3   1 <1>  -0.1600 
 12 C       -4.4390    -0.2450     0.5790 C.3   1 <1>  -0.1600 
 13 C       -5.2090    -1.3680    -0.1510 C.3   1 <1>   0.1380 
 14 C       -6.1720    -2.0250     0.8080 C.2   1 <1>  -0.2880 
 15 C       -6.1720    -0.8310    -1.2400 C.3   1 <1>  -0.1600 
 16 C       -7.4300    -2.1140     0.3640 C.2   1 <1>  -0.1240 
 17 C       -7.5350    -1.5110    -1.0200 C.3   1 <1>  -0.0220 
 18 C       -8.5950    -2.6880     1.0010 C.2   1 <1>   0.7060 
 19 O       -8.5650    -3.1840     2.1070 O.2   1 <1>  -0.5700 
 20 O       -9.7470    -2.6650     0.3250 O.3   1 <1>  -0.4300 
 21 C      -10.9360    -3.2030     0.8680 C.3   1 <1>   0.0400 
 22 H       -3.2120    -2.8650     1.0970 H     1 <1>   0.0800 
 23 H       -2.3620    -3.3490    -0.3500 H     1 <1>   0.0800 
 24 H       -3.1180     0.2530    -1.0470 H     1 <1>   0.0800 
 25 H       -2.5490     0.7680     0.5200 H     1 <1>   0.0800 
 26 H        1.4820    -2.5620    -1.5720 H     1 <1>   0.0800 
 27 H        2.9370    -2.3840    -0.6260 H     1 <1>   0.0800 
 28 H        1.8580    -1.0380    -0.7940 H     1 <1>   0.0800 
 29 H        0.9650    -4.5970    -0.1620 H     1 <1>   0.0800 
 30 H        0.7860    -4.4400     1.5730 H     1 <1>   0.0800 
 31 H        2.3660    -4.3330     0.8430 H     1 <1>   0.0800 
 32 H        1.5990    -0.8100     1.7310 H     1 <1>   0.0800 
 33 H        2.6660    -2.1450     2.0260 H     1 <1>   0.0800 
 34 H        1.0470    -2.1780     2.6760 H     1 <1>   0.0800 
 35 H       -4.7680    -3.3920    -0.7770 H     1 <1>   0.0800 
 36 H       -3.9760    -2.1880    -1.7360 H     1 <1>   0.0800 
 37 H       -4.9890     0.6780     0.5630 H     1 <1>   0.0800 
 38 H       -4.3100    -0.5050     1.6140 H     1 <1>   0.0800 
 39 H       -5.7970    -2.3820     1.7530 H     1 <1>   0.1500 
 40 H       -5.8120    -1.0070    -2.2380 H     1 <1>   0.0800 
 41 H       -6.3100     0.2290    -1.1270 H     1 <1>   0.0800 
 42 H       -7.6980    -2.2900    -1.7440 H     1 <1>   0.0800 
 43 H       -8.3360    -0.7940    -1.0760 H     1 <1>   0.0800 
 44 H      -11.7280    -3.0730     0.1530 H     1 <1>   0.0800 
 45 H      -11.1700    -2.6810     1.7800 H     1 <1>   0.0800 
 46 H      -10.7840    -4.2500     1.0690 H     1 <1>   0.0800 
@<TRIPOS>BOND
  1   1   2  2   
  2   2   3  1   
  3   2   4  am  
  4   3   5  1   
  5   4   6  1   
  6   4   7  1   
  7   5   8  1   
  8   5   9  1   
  9   5  10  1   
 10   6  11  1   
 11   6  22  1   
 12   6  23  1   
 13   7  12  1   
 14   7  24  1   
 15   7  25  1   
 16   8  26  1   
 17   8  27  1   
 18   8  28  1   
 19   9  29  1   
 20   9  30  1   
 21   9  31  1   
 22  10  32  1   
 23  10  33  1   
 24  10  34  1   
 25  11  13  1   
 26  11  35  1   
 27  11  36  1   
 28  12  13  1   
 29  12  37  1   
 30  12  38  1   
 31  13  14  1   
 32  13  15  1   
 33  14  16  2   
 34  14  39  1   
 35  15  17  1   
 36  15  40  1   
 37  15  41  1   
 38  16  17  1   
 39  16  18  1   
 40  17  42  1   
 41  17  43  1   
 42  18  19  2   
 43  18  20  1   
 44  20  21  1   
 45  21  44  1   
 46  21  45  1   
 47  21  46  1   
@<TRIPOS>SUBSTRUCTURE
  1 ****   6 GROUP 4 **** **** 0

# MOE 2024.06 (io_trps.svl 2023.06)
