@<TRIPOS>MOLECULE
NONAME
55 57 1 0 0 
SMALL
USER_CHARGES


@<TRIPOS>ATOM
  1 O        3.2040     0.3600     2.1360 O.2   1 <1>  -0.5700 
  2 C        2.7660     0.8800     1.1120 C.2   1 <1>   0.6300 
  3 N        2.6860     2.2310     1.0910 N.am  1 <1>  -0.4900 
  4 C        2.3200     0.1940    -0.0550 C.2   1 <1>   0.3890 
  5 C        2.1860     2.8400     0.0030 C.2   1 <1>   0.5600 
  6 N        1.8350     0.8320    -1.0830 N.2   1 <1>  -0.4500 
  7 C        2.3880    -1.3260    -0.1300 C.3   1 <1>  -0.0990 
  8 N        1.7630     2.1760    -1.0490 N.2   1 <1>  -0.4500 
  9 N        2.1190     4.1740    -0.0010 N.pl3 1 <1>  -0.8500 
 10 C        1.0020    -1.9620     0.0840 C.3   1 <1>  -0.0990 
 11 C        1.0000    -3.4850     0.0330 C.2   1 <1>   0.5690 
 12 O        2.0290    -4.0540    -0.2450 O.2   1 <1>  -0.5700 
 13 N       -0.1500    -4.1810     0.2980 N.am  1 <1>  -0.6600 
 14 C       -0.1740    -5.6790     0.3010 C.3   1 <1>   0.1400 
 15 C       -1.5060    -3.5890     0.5190 C.3   1 <1>   0.1400 
 16 C       -1.2790    -6.2170    -0.6240 C.3   1 <1>   0.3430 
 17 C       -2.5450    -4.2260    -0.4360 C.3   1 <1>   0.2000 
 18 O       -2.5090    -5.6230    -0.2990 O.3   1 <1>  -0.5600 
 19 C       -1.3970    -7.7340    -0.4980 C.ar  1 <1>  -0.1430 
 20 C       -4.0090    -3.7300    -0.2300 C.3   1 <1>   0.0000 
 21 C       -2.2130    -8.3200     0.4600 C.ar  1 <1>  -0.1500 
 22 C       -0.6650    -8.5510    -1.3480 C.ar  1 <1>  -0.1500 
 23 C       -4.1070    -2.2050    -0.4180 C.3   1 <1>  -0.2400 
 24 C       -4.5520    -4.0840     1.1670 C.3   1 <1>  -0.2400 
 25 C       -4.9240    -4.3860    -1.2820 C.3   1 <1>  -0.2400 
 26 C       -2.2960    -9.6970     0.5680 C.ar  1 <1>  -0.1500 
 27 C       -0.7460    -9.9290    -1.2420 C.ar  1 <1>  -0.1500 
 28 C       -1.5610   -10.5030    -0.2830 C.ar  1 <1>  -0.1500 
 29 H        3.0030     2.7370     1.9080 H     1 <1>   0.3700 
 30 H        2.7640    -1.6070    -1.0980 H     1 <1>   0.0800 
 31 H        3.0770    -1.7030     0.6060 H     1 <1>   0.0800 
 32 H        1.7450     4.6340    -0.8340 H     1 <1>   0.4000 
 33 H        2.4370     4.7890     0.7450 H     1 <1>   0.4000 
 34 H        0.3360    -1.5990    -0.6780 H     1 <1>   0.0800 
 35 H        0.6240    -1.6580     1.0430 H     1 <1>   0.0800 
 36 H        0.7720    -6.0780    -0.0190 H     1 <1>   0.0800 
 37 H       -0.3530    -6.0290     1.3020 H     1 <1>   0.0800 
 38 H       -1.7970    -3.7670     1.5380 H     1 <1>   0.0800 
 39 H       -1.4860    -2.5280     0.3610 H     1 <1>   0.0800 
 40 H       -1.0500    -5.9640    -1.6450 H     1 <1>   0.0800 
 41 H       -2.2580    -3.9940    -1.4470 H     1 <1>   0.0800 
 42 H       -2.7910    -7.7010     1.1250 H     1 <1>   0.1500 
 43 H       -0.0250    -8.1200    -2.0990 H     1 <1>   0.1500 
 44 H       -5.1340    -1.8880    -0.3790 H     1 <1>   0.0800 
 45 H       -3.7030    -1.9140    -1.3720 H     1 <1>   0.0800 
 46 H       -3.5760    -1.6800     0.3550 H     1 <1>   0.0800 
 47 H       -5.5830    -3.7900     1.2560 H     1 <1>   0.0800 
 48 H       -3.9980    -3.5880     1.9410 H     1 <1>   0.0800 
 49 H       -4.4940    -5.1460     1.3340 H     1 <1>   0.0800 
 50 H       -5.9360    -4.0360    -1.1820 H     1 <1>   0.0800 
 51 H       -4.9290    -5.4560    -1.1650 H     1 <1>   0.0800 
 52 H       -4.5830    -4.1590    -2.2760 H     1 <1>   0.0800 
 53 H       -2.9330   -10.1390     1.3140 H     1 <1>   0.1500 
 54 H       -0.1750   -10.5540    -1.9050 H     1 <1>   0.1500 
 55 H       -1.6250   -11.5740    -0.2000 H     1 <1>   0.1500 
@<TRIPOS>BOND
  1   1   2  2   
  2   2   3  am  
  3   2   4  1   
  4   3   5  1   
  5   3  29  1   
  6   4   6  2   
  7   4   7  1   
  8   5   8  2   
  9   5   9  1   
 10   6   8  1   
 11   7  10  1   
 12   7  30  1   
 13   7  31  1   
 14   9  32  1   
 15   9  33  1   
 16  10  11  1   
 17  10  34  1   
 18  10  35  1   
 19  11  12  2   
 20  11  13  am  
 21  13  14  1   
 22  13  15  1   
 23  14  16  1   
 24  14  36  1   
 25  14  37  1   
 26  15  17  1   
 27  15  38  1   
 28  15  39  1   
 29  16  18  1   
 30  16  19  1   
 31  16  40  1   
 32  17  18  1   
 33  17  20  1   
 34  17  41  1   
 35  19  21  ar  
 36  19  22  ar  
 37  20  23  1   
 38  20  24  1   
 39  20  25  1   
 40  21  26  ar  
 41  21  42  1   
 42  22  27  ar  
 43  22  43  1   
 44  23  44  1   
 45  23  45  1   
 46  23  46  1   
 47  24  47  1   
 48  24  48  1   
 49  24  49  1   
 50  25  50  1   
 51  25  51  1   
 52  25  52  1   
 53  26  28  ar  
 54  26  53  1   
 55  27  28  ar  
 56  27  54  1   
 57  28  55  1   
@<TRIPOS>SUBSTRUCTURE
  1 ****  13 GROUP 4 **** **** 0

# MOE 2024.06 (io_trps.svl 2023.06)
