@<TRIPOS>MOLECULE
NONAME
46 48 1 0 0 
SMALL
USER_CHARGES


@<TRIPOS>ATOM
  1 O        0.3840    -0.0830    -0.6290 O.3   1 <1>  -0.5600 
  2 C        1.6400    -0.7190    -0.6720 C.3   1 <1>   0.2000 
  3 C        0.3940     1.2900    -0.8870 C.3   1 <1>   0.1200 
  4 C        2.6450    -0.0400     0.2980 C.3   1 <1>   0.5660 
  5 C        1.4500    -2.1980    -0.2990 C.3   1 <1>   0.1200 
  6 C        1.2590     2.0150     0.1580 C.3   1 <1>   0.3430 
  7 N        2.6530     1.4570     0.2040 N.4   1 <1>  -0.9590 
  8 C        4.0670    -0.5250     0.0470 C.ar  1 <1>  -0.1440 
  9 O        1.2480    -2.3260     1.0740 O.3   1 <1>  -0.6800 
 10 C        3.4750     2.0540     1.2910 C.3   1 <1>   0.4870 
 11 C        4.7360    -0.2490    -1.1410 C.ar  1 <1>  -0.1500 
 12 C        4.7130    -1.2550     1.0350 C.ar  1 <1>  -0.1500 
 13 C        3.7050     3.5120     0.9620 C.ar  1 <1>  -0.1440 
 14 C        6.0350    -0.6860    -1.3270 C.ar  1 <1>  -0.1500 
 15 C        6.0120    -1.6900     0.8460 C.ar  1 <1>  -0.1500 
 16 C        2.9580     4.4950     1.5910 C.ar  1 <1>   0.1600 
 17 C        4.6530     3.8900     0.0290 C.ar  1 <1>  -0.1500 
 18 C        6.6740    -1.4040    -0.3330 C.ar  1 <1>  -0.1500 
 19 N        3.0540     5.7850     1.3440 N.ar  1 <1>  -0.6200 
 20 C        4.7760     5.2380    -0.2260 C.ar  1 <1>  -0.1500 
 21 C        3.9580     6.1450     0.4470 C.ar  1 <1>   0.3930 
 22 O        4.0240     7.4750     0.2360 O.3   1 <1>  -0.3630 
 23 C        5.0290     8.0830    -0.5470 C.3   1 <1>   0.0400 
 24 H        1.9950    -0.6610    -1.6860 H     1 <1>   0.0800 
 25 H        0.7580     1.4580    -1.8860 H     1 <1>   0.0800 
 26 H       -0.6230     1.6380    -0.8310 H     1 <1>   0.0800 
 27 H        2.3600    -0.3210     1.2980 H     1 <1>   0.0800 
 28 H        2.3260    -2.7700    -0.5570 H     1 <1>   0.0800 
 29 H        0.5980    -2.6050    -0.8170 H     1 <1>   0.0800 
 30 H        0.7870     1.9050     1.1200 H     1 <1>   0.0800 
 31 H        1.2900     3.0680    -0.0770 H     1 <1>   0.0800 
 32 H        3.1240     1.6890    -0.6750 H     1 <1>   0.4500 
 33 H        0.8930    -3.2150     1.2880 H     1 <1>   0.4000 
 34 H        2.9720     1.9560     2.2400 H     1 <1>   0.0800 
 35 H        4.4290     1.5550     1.3570 H     1 <1>   0.0800 
 36 H        4.2660     0.2990    -1.9400 H     1 <1>   0.1500 
 37 H        4.2140    -1.4990     1.9590 H     1 <1>   0.1500 
 38 H        6.5550    -0.4740    -2.2470 H     1 <1>   0.1500 
 39 H        6.5110    -2.2570     1.6150 H     1 <1>   0.1500 
 40 H        2.2320     4.2170     2.3380 H     1 <1>   0.1500 
 41 H        5.2810     3.1770    -0.4800 H     1 <1>   0.1500 
 42 H        7.6860    -1.7450    -0.4790 H     1 <1>   0.1500 
 43 H        5.5000     5.5750    -0.9420 H     1 <1>   0.1500 
 44 H        4.8900     9.1490    -0.4930 H     1 <1>   0.0800 
 45 H        4.9280     7.7550    -1.5660 H     1 <1>   0.0800 
 46 H        5.9920     7.8220    -0.1460 H     1 <1>   0.0800 
@<TRIPOS>BOND
  1   1   2  1   
  2   1   3  1   
  3   2   4  1   
  4   2   5  1   
  5   2  24  1   
  6   3   6  1   
  7   3  25  1   
  8   3  26  1   
  9   4   7  1   
 10   4   8  1   
 11   4  27  1   
 12   5   9  1   
 13   5  28  1   
 14   5  29  1   
 15   6   7  1   
 16   6  30  1   
 17   6  31  1   
 18   7  10  1   
 19   7  32  1   
 20   8  11  ar  
 21   8  12  ar  
 22   9  33  1   
 23  10  13  1   
 24  10  34  1   
 25  10  35  1   
 26  11  14  ar  
 27  11  36  1   
 28  12  15  ar  
 29  12  37  1   
 30  13  16  ar  
 31  13  17  ar  
 32  14  18  ar  
 33  14  38  1   
 34  15  18  ar  
 35  15  39  1   
 36  16  19  ar  
 37  16  40  1   
 38  17  20  ar  
 39  17  41  1   
 40  18  42  1   
 41  19  21  ar  
 42  20  21  ar  
 43  20  43  1   
 44  21  22  1   
 45  22  23  1   
 46  23  44  1   
 47  23  45  1   
 48  23  46  1   
@<TRIPOS>SUBSTRUCTURE
  1 ****   7 GROUP 4 **** **** 0

# MOE 2024.06 (io_trps.svl 2023.06)
