@<TRIPOS>MOLECULE
NONAME
37 37 1 0 0 
SMALL
USER_CHARGES


@<TRIPOS>ATOM
  1 O        0.5020     1.9380     2.3820 O.co2 1 <1>  -0.9000 
  2 C        1.4120     2.6600     1.9340 C.2   1 <1>   1.0330 
  3 O        2.5820     2.4640     2.3140 O.co2 1 <1>  -0.9000 
  4 C        1.0860     3.7070     0.9680 C.2   1 <1>  -0.0060 
  5 N        1.9490     4.6150     0.4040 N.2   1 <1>  -0.5650 
  6 C       -0.1370     3.9590     0.4520 C.2   1 <1>  -0.0100 
  7 C        1.2050     5.3020    -0.3780 C.2   1 <1>   0.2980 
  8 O       -0.0560     4.9540    -0.3880 O.3   1 <1>  -0.2800 
  9 C        1.7080     6.4440    -1.2470 C.3   1 <1>   0.5230 
 10 N        3.2100     6.4900    -1.1560 N.4   1 <1>  -0.9590 
 11 C        3.8400     7.8380    -1.2510 C.3   1 <1>   0.3430 
 12 C        3.8340     5.4850    -2.0660 C.3   1 <1>   0.2630 
 13 C        3.6520     8.6930     0.0220 C.3   1 <1>  -0.0800 
 14 C        3.9960     7.8840     1.2970 C.3   1 <1>  -0.1600 
 15 C        2.2580     9.3650     0.0750 C.3   1 <1>  -0.1600 
 16 C        4.1070     8.7350     2.5660 C.3   1 <1>  -0.2400 
 17 C        2.3110    10.8250     0.5470 C.3   1 <1>  -0.2400 
 18 H       -1.0750     3.4670     0.6460 H     1 <1>   0.1500 
 19 H        1.2730     7.3530    -0.8790 H     1 <1>   0.0800 
 20 H        1.3940     6.2950    -2.2650 H     1 <1>   0.0800 
 21 H        3.3750     6.1220    -0.1960 H     1 <1>   0.4500 
 22 H        3.4620     8.3680    -2.1100 H     1 <1>   0.0800 
 23 H        4.9010     7.7060    -1.3930 H     1 <1>   0.0800 
 24 H        3.6550     5.7420    -3.0970 H     1 <1>   0.0800 
 25 H        3.4210     4.5060    -1.8720 H     1 <1>   0.0800 
 26 H        4.8970     5.4380    -1.8960 H     1 <1>   0.0800 
 27 H        4.3820     9.4800    -0.0640 H     1 <1>   0.0800 
 28 H        4.9430     7.3900     1.1550 H     1 <1>   0.0800 
 29 H        3.2570     7.1200     1.4770 H     1 <1>   0.0800 
 30 H        1.5990     8.8090     0.7210 H     1 <1>   0.0800 
 31 H        1.8200     9.3800    -0.9080 H     1 <1>   0.0800 
 32 H        4.7800     9.5610     2.4190 H     1 <1>   0.0800 
 33 H        4.4840     8.1320     3.3750 H     1 <1>   0.0800 
 34 H        3.1440     9.1090     2.8620 H     1 <1>   0.0800 
 35 H        2.7190    10.9090     1.5370 H     1 <1>   0.0800 
 36 H        1.3180    11.2410     0.5620 H     1 <1>   0.0800 
 37 H        2.9110    11.4190    -0.1200 H     1 <1>   0.0800 
@<TRIPOS>BOND
  1   1   2  ar  
  2   2   3  ar  
  3   2   4  1   
  4   4   5  1   
  5   4   6  2   
  6   5   7  2   
  7   6   8  1   
  8   6  18  1   
  9   7   8  1   
 10   7   9  1   
 11   9  10  1   
 12   9  19  1   
 13   9  20  1   
 14  10  11  1   
 15  10  12  1   
 16  10  21  1   
 17  11  13  1   
 18  11  22  1   
 19  11  23  1   
 20  12  24  1   
 21  12  25  1   
 22  12  26  1   
 23  13  14  1   
 24  13  15  1   
 25  13  27  1   
 26  14  16  1   
 27  14  28  1   
 28  14  29  1   
 29  15  17  1   
 30  15  30  1   
 31  15  31  1   
 32  16  32  1   
 33  16  33  1   
 34  16  34  1   
 35  17  35  1   
 36  17  36  1   
 37  17  37  1   
@<TRIPOS>SUBSTRUCTURE
  1 ****   5 GROUP 4 **** **** 0

# MOE 2024.06 (io_trps.svl 2023.06)
