@<TRIPOS>MOLECULE
NONAME
50 52 1 0 0 
SMALL
USER_CHARGES


@<TRIPOS>ATOM
  1 O       -0.1450    -0.6440    -0.4800 O.3   1 <1>  -0.3570 
  2 C       -0.1920    -2.0160    -0.4720 C.2   1 <1>   0.0910 
  3 C        0.3080     0.0490     0.6650 C.3   1 <1>   0.0400 
  4 C       -0.4910    -2.8030     0.6950 C.2   1 <1>   0.5410 
  5 C        0.0510    -2.6430    -1.6560 C.2   1 <1>  -0.0500 
  6 O       -0.7490    -2.3490     1.8090 O.2   1 <1>  -0.5700 
  7 C       -0.5070    -4.2120     0.5290 C.2   1 <1>  -0.1360 
  8 N        0.0190    -4.0210    -1.7690 N.pl3 1 <1>  -0.6000 
  9 C       -0.2690    -4.8070    -0.6730 C.2   1 <1>  -0.0380 
 10 C       -0.3250    -6.3240    -0.8310 C.3   1 <1>   0.4810 
 11 N       -1.7360    -6.7480    -1.0910 N.4   1 <1>  -0.9590 
 12 C       -1.9180    -8.2300    -1.0390 C.3   1 <1>   0.3430 
 13 C       -2.2610    -6.2100    -2.3850 C.3   1 <1>   0.2630 
 14 C       -1.7350    -8.8000     0.3790 C.3   1 <1>  -0.0800 
 15 C       -2.1180   -10.2690     0.3120 C.3   1 <1>   0.2090 
 16 C       -2.7650    -8.2560     1.3820 C.3   1 <1>  -0.1600 
 17 N       -3.5910   -10.2060     0.2810 N.pl3 1 <1>  -0.8380 
 18 C       -4.0330    -9.0770     1.1350 C.3   1 <1>   0.2090 
 19 C       -4.3730   -11.3680     0.2680 C.ar  1 <1>   0.1000 
 20 C       -3.8430   -12.6390     0.4900 C.ar  1 <1>  -0.1500 
 21 C       -5.7380   -11.2700     0.0140 C.ar  1 <1>  -0.1500 
 22 C       -4.6490   -13.7630     0.4670 C.ar  1 <1>  -0.1500 
 23 C       -6.5480   -12.3900    -0.0080 C.ar  1 <1>  -0.1500 
 24 C       -6.0050   -13.6410     0.2190 C.ar  1 <1>  -0.1500 
 25 H        0.5550     1.0540     0.3740 H     1 <1>   0.0800 
 26 H        1.1800    -0.4440     1.0590 H     1 <1>   0.0800 
 27 H       -0.4800     0.0700     1.3970 H     1 <1>   0.0800 
 28 H        0.2800    -2.0680    -2.5400 H     1 <1>   0.1500 
 29 H       -0.7260    -4.7720     1.4190 H     1 <1>   0.1500 
 30 H        0.2800    -4.4210    -2.6820 H     1 <1>   0.4000 
 31 H        0.0280    -6.7760     0.0810 H     1 <1>   0.0800 
 32 H        0.3200    -6.6370    -1.6350 H     1 <1>   0.0800 
 33 H       -2.3110    -6.3390    -0.3420 H     1 <1>   0.4500 
 34 H       -1.2260    -8.7100    -1.7120 H     1 <1>   0.0800 
 35 H       -2.9150    -8.4780    -1.3680 H     1 <1>   0.0800 
 36 H       -1.6810    -6.5860    -3.2120 H     1 <1>   0.0800 
 37 H       -2.2150    -5.1320    -2.3900 H     1 <1>   0.0800 
 38 H       -3.2880    -6.5050    -2.5230 H     1 <1>   0.0800 
 39 H       -0.7220    -8.6950     0.7210 H     1 <1>   0.0800 
 40 H       -1.7950   -10.7850     1.2010 H     1 <1>   0.0800 
 41 H       -1.7340   -10.7690    -0.5620 H     1 <1>   0.0800 
 42 H       -2.9570    -7.2020     1.3010 H     1 <1>   0.0800 
 43 H       -2.4300    -8.4560     2.3860 H     1 <1>   0.0800 
 44 H       -4.7730    -8.4970     0.6090 H     1 <1>   0.0800 
 45 H       -4.4540    -9.4420     2.0590 H     1 <1>   0.0800 
 46 H       -2.7980   -12.7680     0.6870 H     1 <1>   0.1500 
 47 H       -6.1700   -10.3060    -0.1750 H     1 <1>   0.1500 
 48 H       -4.2220   -14.7350     0.6420 H     1 <1>   0.1500 
 49 H       -7.6010   -12.2900    -0.2050 H     1 <1>   0.1500 
 50 H       -6.6320   -14.5150     0.2020 H     1 <1>   0.1500 
@<TRIPOS>BOND
  1   1   2  1   
  2   1   3  1   
  3   2   4  1   
  4   2   5  2   
  5   3  25  1   
  6   3  26  1   
  7   3  27  1   
  8   4   6  2   
  9   4   7  1   
 10   5   8  1   
 11   5  28  1   
 12   7   9  2   
 13   7  29  1   
 14   8   9  1   
 15   8  30  1   
 16   9  10  1   
 17  10  11  1   
 18  10  31  1   
 19  10  32  1   
 20  11  12  1   
 21  11  13  1   
 22  11  33  1   
 23  12  14  1   
 24  12  34  1   
 25  12  35  1   
 26  13  36  1   
 27  13  37  1   
 28  13  38  1   
 29  14  15  1   
 30  14  16  1   
 31  14  39  1   
 32  15  17  1   
 33  15  40  1   
 34  15  41  1   
 35  16  18  1   
 36  16  42  1   
 37  16  43  1   
 38  17  18  1   
 39  17  19  1   
 40  18  44  1   
 41  18  45  1   
 42  19  20  ar  
 43  19  21  ar  
 44  20  22  ar  
 45  20  46  1   
 46  21  23  ar  
 47  21  47  1   
 48  22  24  ar  
 49  22  48  1   
 50  23  24  ar  
 51  23  49  1   
 52  24  50  1   
@<TRIPOS>SUBSTRUCTURE
  1 ****  11 GROUP 4 **** **** 0

# MOE 2024.06 (io_trps.svl 2023.06)
