@<TRIPOS>MOLECULE
NONAME
55 58 1 0 0 
SMALL
USER_CHARGES


@<TRIPOS>ATOM
  1 O       -0.3230     0.1260    -0.3370 O.2   1 <1>  -0.5700 
  2 C       -1.3370     0.7900    -0.4420 C.2   1 <1>   0.7030 
  3 N       -2.5530     0.1600    -0.2640 N.am  1 <1>  -0.6600 
  4 C       -1.2120     2.2080    -0.7280 C.2   1 <1>   0.2770 
  5 C       -2.6440    -1.3370    -0.1690 C.3   1 <1>   0.1400 
  6 C       -3.8040     0.8340     0.2090 C.3   1 <1>   0.1400 
  7 N       -0.3130     3.0710    -0.0900 N.pl3 1 <1>  -0.6290 
  8 C       -1.8770     2.9690    -1.6430 C.2   1 <1>   0.1820 
  9 C       -3.9620    -1.8700    -0.7630 C.3   1 <1>   0.3440 
 10 C       -5.0550     0.2100    -0.4560 C.3   1 <1>   0.2000 
 11 C       -0.4810     4.2910    -0.6230 C.cat 1 <1>   0.9620 
 12 C        0.6580     2.8660     0.8500 C.2   1 <1>   0.2290 
 13 N       -1.4260     4.2480    -1.5500 N.pl3 1 <1>  -0.7000 
 14 C       -2.9280     2.5940    -2.6730 C.3   1 <1>  -0.0720 
 15 O       -5.0510    -1.1720    -0.2210 O.3   1 <1>  -0.5600 
 16 C       -4.1180    -3.3580    -0.4700 C.ar  1 <1>  -0.1430 
 17 C       -6.4130     0.8080     0.0210 C.3   1 <1>   0.0000 
 18 N        0.2100     5.3770    -0.2780 N.2   1 <1>  -0.6120 
 19 C        1.3940     3.9440     1.2230 C.2   1 <1>  -0.1360 
 20 C       -4.6690    -3.8040     0.7240 C.ar  1 <1>  -0.1500 
 21 C       -3.6910    -4.2930    -1.4040 C.ar  1 <1>  -0.1500 
 22 C       -6.6570     0.5760     1.5240 C.3   1 <1>  -0.2400 
 23 C       -7.5640     0.1460    -0.7590 C.3   1 <1>  -0.2400 
 24 C       -6.4770     2.3220    -0.2550 C.3   1 <1>  -0.2400 
 25 C        1.1240     5.1890     0.6260 C.2   1 <1>   0.3760 
 26 C       -4.7880    -5.1580     0.9830 C.ar  1 <1>  -0.1500 
 27 C       -3.8090    -5.6480    -1.1470 C.ar  1 <1>  -0.1500 
 28 C       -4.3570    -6.0820     0.0470 C.ar  1 <1>  -0.1500 
 29 H       -1.8210    -1.7990    -0.6880 H     1 <1>   0.0800 
 30 H       -2.5830    -1.6320     0.8640 H     1 <1>   0.0800 
 31 H       -3.8780     0.7120     1.2750 H     1 <1>   0.0800 
 32 H       -3.7680     1.8860     0.0020 H     1 <1>   0.0800 
 33 H       -3.9710    -1.7170    -1.8280 H     1 <1>   0.0800 
 34 H       -4.9900     0.3550    -1.5200 H     1 <1>   0.0800 
 35 H        0.8080     1.8730     1.2520 H     1 <1>   0.1500 
 36 H       -1.6800     5.0820    -2.0830 H     1 <1>   0.4500 
 37 H       -3.0890     1.5310    -2.6890 H     1 <1>   0.0800 
 38 H       -2.6060     2.8990    -3.6530 H     1 <1>   0.0800 
 39 H       -3.8590     3.0840    -2.4480 H     1 <1>   0.0800 
 40 H        2.1760     3.8730     1.9570 H     1 <1>   0.1500 
 41 H       -5.0120    -3.0940     1.4570 H     1 <1>   0.1500 
 42 H       -3.2620    -3.9750    -2.3380 H     1 <1>   0.1500 
 43 H       -7.6300     0.9360     1.8080 H     1 <1>   0.0800 
 44 H       -5.9280     1.0850     2.1270 H     1 <1>   0.0800 
 45 H       -6.6140    -0.4750     1.7540 H     1 <1>   0.0800 
 46 H       -8.5130     0.5620    -0.4700 H     1 <1>   0.0800 
 47 H       -7.5940    -0.9130    -0.5630 H     1 <1>   0.0800 
 48 H       -7.4410     0.2870    -1.8180 H     1 <1>   0.0800 
 49 H       -7.4550     2.7010    -0.0120 H     1 <1>   0.0800 
 50 H       -6.2920     2.5270    -1.2940 H     1 <1>   0.0800 
 51 H       -5.7660     2.8620     0.3420 H     1 <1>   0.0800 
 52 H        1.7150     6.0330     0.9390 H     1 <1>   0.0600 
 53 H       -5.2170    -5.4920     1.9110 H     1 <1>   0.1500 
 54 H       -3.4760    -6.3660    -1.8760 H     1 <1>   0.1500 
 55 H       -4.4500    -7.1350     0.2470 H     1 <1>   0.1500 
@<TRIPOS>BOND
  1   1   2  2   
  2   2   3  am  
  3   2   4  1   
  4   3   5  1   
  5   3   6  1   
  6   4   7  1   
  7   4   8  2   
  8   5   9  1   
  9   5  29  1   
 10   5  30  1   
 11   6  10  1   
 12   6  31  1   
 13   6  32  1   
 14   7  11  ar  
 15   7  12  1   
 16   8  13  1   
 17   8  14  1   
 18   9  15  1   
 19   9  16  1   
 20   9  33  1   
 21  10  15  1   
 22  10  17  1   
 23  10  34  1   
 24  11  13  ar  
 25  11  18  1   
 26  12  19  2   
 27  12  35  1   
 28  13  36  1   
 29  14  37  1   
 30  14  38  1   
 31  14  39  1   
 32  16  20  ar  
 33  16  21  ar  
 34  17  22  1   
 35  17  23  1   
 36  17  24  1   
 37  18  25  2   
 38  19  25  1   
 39  19  40  1   
 40  20  26  ar  
 41  20  41  1   
 42  21  27  ar  
 43  21  42  1   
 44  22  43  1   
 45  22  44  1   
 46  22  45  1   
 47  23  46  1   
 48  23  47  1   
 49  23  48  1   
 50  24  49  1   
 51  24  50  1   
 52  24  51  1   
 53  25  52  1   
 54  26  28  ar  
 55  26  53  1   
 56  27  28  ar  
 57  27  54  1   
 58  28  55  1   
@<TRIPOS>SUBSTRUCTURE
  1 ****   3 GROUP 4 **** **** 0

# MOE 2024.06 (io_trps.svl 2023.06)
