@<TRIPOS>MOLECULE
NONAME
59 61 1 0 0 
SMALL
USER_CHARGES


@<TRIPOS>ATOM
  1 O       -0.9480     1.2730     2.5920 O.2   1 <1>  -0.5700 
  2 C       -0.8430     2.1220     1.7260 C.2   1 <1>   0.5440 
  3 N       -1.9870     2.6440     1.1590 N.am  1 <1>  -0.6600 
  4 C        0.4770     2.5560     1.3080 C.ar  1 <1>   0.0860 
  5 C       -3.3240     2.3390     1.7440 C.3   1 <1>   0.1400 
  6 C       -1.9720     3.3860    -0.1340 C.3   1 <1>   0.1400 
  7 C        1.4310     1.6390     0.8790 C.ar  1 <1>  -0.1500 
  8 C        0.8400     3.9030     1.3210 C.ar  1 <1>  -0.1500 
  9 C       -4.3280     3.4430     1.4020 C.3   1 <1>  -0.1600 
 10 C       -3.2770     3.1390    -0.8900 C.3   1 <1>  -0.1600 
 11 C        2.6830     2.0530     0.4640 C.ar  1 <1>   0.0830 
 12 C        2.0930     4.3200     0.9090 C.ar  1 <1>  -0.1500 
 13 C       -4.4980     3.6990    -0.1200 C.3   1 <1>   0.2800 
 14 O        3.5580     1.1230     0.0540 O.3   1 <1>  -0.5320 
 15 C        3.0320     3.3990     0.4720 C.ar  1 <1>  -0.1430 
 16 O       -4.4580     5.1070    -0.2590 O.3   1 <1>  -0.5600 
 17 C       -5.8720     3.1280    -0.6320 C.3   1 <1>   0.2000 
 18 C        4.4060     3.8750     0.0200 C.3   1 <1>  -0.0970 
 19 C       -5.0550     5.6850    -1.3800 C.3   1 <1>   0.1200 
 20 O       -5.7700     2.6590    -1.9560 O.3   1 <1>  -0.6800 
 21 C       -7.0020     4.2000    -0.5550 C.3   1 <1>   0.3000 
 22 C       -6.5700     5.4160    -1.4020 C.3   1 <1>  -0.1600 
 23 N       -7.1740     4.7240     0.8230 N.am  1 <1>  -0.7300 
 24 C       -8.3530     3.6850    -1.0750 C.3   1 <1>  -0.2400 
 25 C       -7.7600     4.2650     1.9600 C.2   1 <1>   0.5690 
 26 O       -7.6620     4.9360     2.9580 O.2   1 <1>  -0.5700 
 27 C       -8.5340     2.9480     2.0680 C.3   1 <1>   0.1810 
 28 O       -7.7530     1.8390     1.6980 O.3   1 <1>  -0.5600 
 29 C       -8.4030     0.6170     1.8330 C.3   1 <1>   0.0400 
 30 H       -3.6680     1.3940     1.3600 H     1 <1>   0.0800 
 31 H       -3.2390     2.2510     2.8140 H     1 <1>   0.0800 
 32 H       -1.8590     4.4390     0.0610 H     1 <1>   0.0800 
 33 H       -1.1430     3.0550    -0.7350 H     1 <1>   0.0800 
 34 H        1.1890     0.5910     0.8720 H     1 <1>   0.1500 
 35 H        0.1230     4.6280     1.6660 H     1 <1>   0.1500 
 36 H       -3.9990     4.3420     1.8940 H     1 <1>   0.0800 
 37 H       -5.2620     3.1670     1.8500 H     1 <1>   0.0800 
 38 H       -3.3830     2.0760    -1.0260 H     1 <1>   0.0800 
 39 H       -3.2100     3.5760    -1.8680 H     1 <1>   0.0800 
 40 H        2.3330     5.3690     0.9340 H     1 <1>   0.1500 
 41 H        4.4180     1.5050    -0.1900 H     1 <1>   0.4500 
 42 H       -6.1390     2.2680    -0.0480 H     1 <1>   0.0800 
 43 H        4.4800     4.9460     0.0850 H     1 <1>   0.0800 
 44 H        4.5790     3.5880    -1.0020 H     1 <1>   0.0800 
 45 H        5.1680     3.4470     0.6450 H     1 <1>   0.0800 
 46 H       -4.8650     6.7440    -1.3400 H     1 <1>   0.0800 
 47 H       -4.5800     5.2910    -2.2600 H     1 <1>   0.0800 
 48 H       -5.4660     3.3760    -2.5400 H     1 <1>   0.4000 
 49 H       -7.1010     6.2960    -1.0820 H     1 <1>   0.0800 
 50 H       -6.8430     5.2630    -2.4300 H     1 <1>   0.0800 
 51 H       -6.5510     5.5180     0.9920 H     1 <1>   0.3700 
 52 H       -8.3100     3.5230    -2.1370 H     1 <1>   0.0800 
 53 H       -9.1350     4.3950    -0.8740 H     1 <1>   0.0800 
 54 H       -8.5950     2.7380    -0.6350 H     1 <1>   0.0800 
 55 H       -9.4070     2.9890     1.4450 H     1 <1>   0.0800 
 56 H       -8.8410     2.8150     3.0900 H     1 <1>   0.0800 
 57 H       -7.7260    -0.1580     1.5210 H     1 <1>   0.0800 
 58 H       -9.2790     0.6080     1.2070 H     1 <1>   0.0800 
 59 H       -8.6710     0.4690     2.8650 H     1 <1>   0.0800 
@<TRIPOS>BOND
  1   1   2  2   
  2   2   3  am  
  3   2   4  1   
  4   3   5  1   
  5   3   6  1   
  6   4   7  ar  
  7   4   8  ar  
  8   5   9  1   
  9   5  30  1   
 10   5  31  1   
 11   6  10  1   
 12   6  32  1   
 13   6  33  1   
 14   7  11  ar  
 15   7  34  1   
 16   8  12  ar  
 17   8  35  1   
 18   9  13  1   
 19   9  36  1   
 20   9  37  1   
 21  10  13  1   
 22  10  38  1   
 23  10  39  1   
 24  11  14  1   
 25  11  15  ar  
 26  12  15  ar  
 27  12  40  1   
 28  13  16  1   
 29  13  17  1   
 30  14  41  1   
 31  15  18  1   
 32  16  19  1   
 33  17  20  1   
 34  17  21  1   
 35  17  42  1   
 36  18  43  1   
 37  18  44  1   
 38  18  45  1   
 39  19  22  1   
 40  19  46  1   
 41  19  47  1   
 42  20  48  1   
 43  21  22  1   
 44  21  23  1   
 45  21  24  1   
 46  22  49  1   
 47  22  50  1   
 48  23  25  am  
 49  23  51  1   
 50  24  52  1   
 51  24  53  1   
 52  24  54  1   
 53  25  26  2   
 54  25  27  1   
 55  27  28  1   
 56  27  55  1   
 57  27  56  1   
 58  28  29  1   
 59  29  57  1   
 60  29  58  1   
 61  29  59  1   
@<TRIPOS>SUBSTRUCTURE
  1 ****   9 GROUP 4 **** **** 0

# MOE 2024.06 (io_trps.svl 2023.06)
