@<TRIPOS>MOLECULE
Untitled Document
48 48 1 0 0 
SMALL
USER_CHARGES


@<TRIPOS>ATOM
  1 S        0.2740     0.2310     0.9290 S.3   1 <1>  -0.3710 
  2 C       -0.6290    -0.6730    -0.3090 C.2   1 <1>   0.6500 
  3 C        1.7880    -0.7940     1.2250 C.3   1 <1>   0.0700 
  4 O       -0.2490    -1.7680    -0.6220 O.2   1 <1>  -0.5700 
  5 C       -1.8600     0.0470    -0.9130 C.3   1 <1>   0.0610 
  6 C        2.9350     0.0540     1.8030 C.3   1 <1>  -0.0190 
  7 C       -2.5610    -0.8450    -1.9580 C.3   1 <1>  -0.2400 
  8 C       -1.4310     1.3500    -1.6170 C.3   1 <1>  -0.2400 
  9 C       -2.8900     0.3890     0.1820 C.3   1 <1>  -0.2400 
 10 C        3.4280     1.0880     0.7770 C.2   1 <1>   0.5690 
 11 C        2.5600     0.6680     3.1690 C.3   1 <1>  -0.2400 
 12 O        2.9880     2.2140     0.8650 O.2   1 <1>  -0.5700 
 13 N        4.3420     0.7380    -0.1970 N.am  1 <1>  -0.6600 
 14 C        5.1180     1.7360    -0.9940 C.3   1 <1>   0.2200 
 15 C        4.8850    -0.6690    -0.3810 C.3   1 <1>   0.0340 
 16 C        5.9760     2.6500    -0.1130 C.3   1 <1>  -0.1600 
 17 C        4.2350     2.6490    -1.8550 C.3   1 <1>  -0.1600 
 18 C        6.1860    -0.9790     0.3590 C.2   1 <1>   0.9060 
 19 C        5.9260     4.0190    -0.7890 C.3   1 <1>  -0.1600 
 20 C        4.5300     4.0810    -1.4000 C.3   1 <1>  -0.1600 
 21 O        7.2640    -0.6960    -0.1790 O.co2 1 <1>  -0.9000 
 22 O        6.1190    -1.5460     1.4570 O.co2 1 <1>  -0.9000 
 23 H        1.5070    -1.5830     1.9000 H     1 <1>   0.0800 
 24 H        2.0650    -1.2190     0.2780 H     1 <1>   0.0800 
 25 H        3.7530    -0.6110     2.0060 H     1 <1>   0.0800 
 26 H       -3.4150    -0.3470    -2.3810 H     1 <1>   0.0800 
 27 H       -2.8910    -1.7630    -1.5050 H     1 <1>   0.0800 
 28 H       -1.8810    -1.0920    -2.7550 H     1 <1>   0.0800 
 29 H       -2.2760     1.8340    -2.0740 H     1 <1>   0.0800 
 30 H       -0.7030     1.1390    -2.3800 H     1 <1>   0.0800 
 31 H       -0.9910     2.0380    -0.9160 H     1 <1>   0.0800 
 32 H       -3.7620     0.8490    -0.2470 H     1 <1>   0.0800 
 33 H       -2.4720     1.0700     0.9020 H     1 <1>   0.0800 
 34 H       -3.1940    -0.5040     0.6990 H     1 <1>   0.0800 
 35 H        1.7600     1.3800     3.0650 H     1 <1>   0.0800 
 36 H        3.4130     1.1800     3.5770 H     1 <1>   0.0800 
 37 H        2.2580    -0.1000     3.8570 H     1 <1>   0.0800 
 38 H        5.7880     1.2140    -1.6580 H     1 <1>   0.0800 
 39 H        4.1650    -1.3960    -0.0690 H     1 <1>   0.0800 
 40 H        5.0660    -0.8420    -1.4240 H     1 <1>   0.0800 
 41 H        5.5570     2.7290     0.8740 H     1 <1>   0.0800 
 42 H        6.9810     2.2740    -0.0370 H     1 <1>   0.0800 
 43 H        4.5250     2.5360    -2.8840 H     1 <1>   0.0800 
 44 H        3.1890     2.4150    -1.7580 H     1 <1>   0.0800 
 45 H        6.0980     4.8180    -0.0880 H     1 <1>   0.0800 
 46 H        6.6660     4.0600    -1.5690 H     1 <1>   0.0800 
 47 H        4.4670     4.7870    -2.2090 H     1 <1>   0.0800 
 48 H        3.8230     4.3540    -0.6340 H     1 <1>   0.0800 
@<TRIPOS>BOND
  1   1   2  1   
  2   1   3  1   
  3   2   4  2   
  4   2   5  1   
  5   3   6  1   
  6   3  23  1   
  7   3  24  1   
  8   5   7  1   
  9   5   8  1   
 10   5   9  1   
 11   6  10  1   
 12   6  11  1   
 13   6  25  1   
 14   7  26  1   
 15   7  27  1   
 16   7  28  1   
 17   8  29  1   
 18   8  30  1   
 19   8  31  1   
 20   9  32  1   
 21   9  33  1   
 22   9  34  1   
 23  10  12  2   
 24  10  13  am  
 25  11  35  1   
 26  11  36  1   
 27  11  37  1   
 28  13  14  1   
 29  13  15  1   
 30  14  16  1   
 31  14  17  1   
 32  14  38  1   
 33  15  18  1   
 34  15  39  1   
 35  15  40  1   
 36  16  19  1   
 37  16  41  1   
 38  16  42  1   
 39  17  20  1   
 40  17  43  1   
 41  17  44  1   
 42  18  21  ar  
 43  18  22  ar  
 44  19  20  1   
 45  19  45  1   
 46  19  46  1   
 47  20  47  1   
 48  20  48  1   
@<TRIPOS>SUBSTRUCTURE
  1 ****  10 GROUP 4 **** **** 0

# MOE 2024.06 (io_trps.svl 2023.06)
