@<TRIPOS>MOLECULE
NONAME
53 56 1 0 0 
SMALL
USER_CHARGES


@<TRIPOS>ATOM
  1 O        2.3700    -1.4350     2.5750 O.2   1 <1>  -0.5700 
  2 C        2.1750    -1.4130     1.3820 C.2   1 <1>   0.5690 
  3 N        2.0320    -0.2010     0.7420 N.am  1 <1>  -0.6600 
  4 C        2.1370    -2.7620     0.6410 C.3   1 <1>   0.1710 
  5 C        2.4320     0.0730    -0.6690 C.3   1 <1>   0.1400 
  6 C        1.6840     1.0200     1.5320 C.3   1 <1>   0.1400 
  7 N        0.7880    -3.1710     0.1660 N.3   1 <1>  -0.8100 
  8 C        3.5790     1.1080    -0.7070 C.3   1 <1>   0.3430 
  9 C        2.8550     2.0150     1.5120 C.3   1 <1>   0.3430 
 10 C        0.3050    -2.5300    -1.0600 C.3   1 <1>   0.1100 
 11 C        0.6450    -4.6190    -0.0440 C.3   1 <1>   0.1100 
 12 N        3.2740     2.3400     0.1030 N.4   1 <1>  -0.9060 
 13 C       -0.9010    -3.3760    -1.4470 C.3   1 <1>   0.2000 
 14 C       -0.4180    -4.8000    -1.1440 C.3   1 <1>  -0.0800 
 15 O       -1.9230    -3.0260    -0.5830 O.3   1 <1>  -0.6800 
 16 C       -1.5340    -5.7990    -0.7660 C.3   1 <1>  -0.0170 
 17 C       -1.1130    -7.2620    -0.5750 C.ar  1 <1>  -0.1440 
 18 C       -2.0250    -8.1870    -0.0070 C.ar  1 <1>   0.0000 
 19 C        0.1140    -7.7480    -0.9340 C.ar  1 <1>  -0.1500 
 20 C       -1.5930    -9.5240     0.1730 C.ar  1 <1>   0.3100 
 21 C       -3.3450    -7.8640     0.3890 C.ar  1 <1>  -0.1500 
 22 C        0.4380    -9.0930    -0.7180 C.ar  1 <1>   0.1600 
 23 N       -0.3600    -9.9590    -0.1850 N.ar  1 <1>  -0.6200 
 24 C       -2.4750   -10.4550     0.7450 C.ar  1 <1>  -0.1500 
 25 C       -4.1810    -8.7970     0.9420 C.ar  1 <1>  -0.1500 
 26 C       -3.7420   -10.1100     1.1250 C.ar  1 <1>  -0.1500 
 27 H        2.4790    -3.5010     1.3450 H     1 <1>   0.0800 
 28 H        2.8330    -2.7610    -0.1760 H     1 <1>   0.0800 
 29 H        2.7590    -0.8290    -1.1530 H     1 <1>   0.0800 
 30 H        1.5810     0.4480    -1.2120 H     1 <1>   0.0800 
 31 H        0.8030     1.4760     1.1160 H     1 <1>   0.0800 
 32 H        1.4560     0.7610     2.5530 H     1 <1>   0.0800 
 33 H        3.7780     1.3810    -1.7310 H     1 <1>   0.0800 
 34 H        4.4670     0.6380    -0.3160 H     1 <1>   0.0800 
 35 H        3.6810     1.5740     2.0480 H     1 <1>   0.0800 
 36 H        2.5670     2.9150     2.0320 H     1 <1>   0.0800 
 37 H        0.0260    -1.5050    -0.8910 H     1 <1>   0.0800 
 38 H        1.0520    -2.5920    -1.8320 H     1 <1>   0.0800 
 39 H        1.5790    -5.0510    -0.3640 H     1 <1>   0.0800 
 40 H        0.3420    -5.0860     0.8790 H     1 <1>   0.0800 
 41 H        2.5180     2.8670    -0.3530 H     1 <1>   0.4500 
 42 H        4.0980     2.9560     0.1250 H     1 <1>   0.4500 
 43 H       -1.2330    -3.2330    -2.4610 H     1 <1>   0.0800 
 44 H        0.0740    -5.1540    -2.0310 H     1 <1>   0.0800 
 45 H       -1.5270    -2.9990     0.3150 H     1 <1>   0.4000 
 46 H       -2.2960    -5.7640    -1.5250 H     1 <1>   0.0800 
 47 H       -1.9780    -5.4610     0.1530 H     1 <1>   0.0800 
 48 H        0.8710    -7.1400    -1.3880 H     1 <1>   0.1500 
 49 H       -3.7110    -6.8630     0.2540 H     1 <1>   0.1500 
 50 H        1.4180    -9.4280    -1.0150 H     1 <1>   0.1500 
 51 H       -2.1150   -11.4590     0.8740 H     1 <1>   0.1500 
 52 H       -5.1810    -8.5330     1.2390 H     1 <1>   0.1500 
 53 H       -4.4080   -10.8340     1.5620 H     1 <1>   0.1500 
@<TRIPOS>BOND
  1   1   2  2   
  2   2   3  am  
  3   2   4  1   
  4   3   5  1   
  5   3   6  1   
  6   4   7  1   
  7   4  27  1   
  8   4  28  1   
  9   5   8  1   
 10   5  29  1   
 11   5  30  1   
 12   6   9  1   
 13   6  31  1   
 14   6  32  1   
 15   7  10  1   
 16   7  11  1   
 17   8  12  1   
 18   8  33  1   
 19   8  34  1   
 20   9  12  1   
 21   9  35  1   
 22   9  36  1   
 23  10  13  1   
 24  10  37  1   
 25  10  38  1   
 26  11  14  1   
 27  11  39  1   
 28  11  40  1   
 29  12  41  1   
 30  12  42  1   
 31  13  14  1   
 32  13  15  1   
 33  13  43  1   
 34  14  16  1   
 35  14  44  1   
 36  15  45  1   
 37  16  17  1   
 38  16  46  1   
 39  16  47  1   
 40  17  18  ar  
 41  17  19  ar  
 42  18  20  ar  
 43  18  21  ar  
 44  19  22  ar  
 45  19  48  1   
 46  20  23  ar  
 47  20  24  ar  
 48  21  25  ar  
 49  21  49  1   
 50  22  23  ar  
 51  22  50  1   
 52  24  26  ar  
 53  24  51  1   
 54  25  26  ar  
 55  25  52  1   
 56  26  53  1   
@<TRIPOS>SUBSTRUCTURE
  1 ****  11 GROUP 4 **** **** 0

# MOE 2024.06 (io_trps.svl 2023.06)
