@<TRIPOS>MOLECULE
NONAME
48 51 1 0 0 
SMALL
USER_CHARGES


@<TRIPOS>ATOM
  1 CL       0.4390    -0.2830    -0.2550 Cl    1 <1>  -0.1400 
  2 C        0.0800    -1.9900    -0.2620 C.2   1 <1>   0.1400 
  3 C       -0.9170    -2.4960     0.5250 C.2   1 <1>   0.1910 
  4 C        0.8320    -2.8290    -1.0880 C.2   1 <1>  -0.1500 
  5 N       -1.2060    -3.8490     0.5230 N.pl3 1 <1>  -0.5760 
  6 C        0.5340    -4.1690    -1.0840 C.2   1 <1>  -0.1800 
  7 C       -2.2130    -4.3650     1.3440 C.2   1 <1>   0.9370 
  8 C       -0.4940    -4.6860    -0.2760 C.cat 1 <1>   0.7390 
  9 O       -2.8580    -3.6240     2.0460 O.2   1 <1>  -0.5700 
 10 C       -2.4780    -5.7560     1.3230 C.2   1 <1>  -0.1360 
 11 N       -0.7940    -6.0140    -0.2800 N.pl3 1 <1>  -0.6450 
 12 C       -1.7870    -6.5820     0.5110 C.2   1 <1>   0.2030 
 13 C       -2.0640    -8.1020     0.4550 C.3   1 <1>   0.4810 
 14 N       -2.7030    -8.5940    -0.8280 N.4   1 <1>  -0.9590 
 15 C       -4.1380    -8.2340    -1.0950 C.3   1 <1>   0.4230 
 16 C       -2.5900   -10.0920    -0.8810 C.3   1 <1>   0.2630 
 17 C       -5.0730    -8.3050     0.1110 C.3   1 <1>  -0.1600 
 18 C       -4.3220    -6.8300    -1.6630 C.3   1 <1>  -0.1600 
 19 C       -6.3070    -7.5190    -0.3450 C.3   1 <1>  -0.0800 
 20 C       -5.7640    -6.4310    -1.3050 C.3   1 <1>  -0.0800 
 21 C       -7.2000    -7.0390     0.8250 C.3   1 <1>   0.1400 
 22 C       -5.8680    -5.0020    -0.7390 C.3   1 <1>  -0.0990 
 23 N       -7.8390    -5.7480     0.5040 N.am  1 <1>  -0.7300 
 24 C       -7.2570    -4.7560    -0.1970 C.2   1 <1>   0.5690 
 25 O       -7.8050    -3.7030    -0.3810 O.2   1 <1>  -0.5700 
 26 H       -1.4860    -1.8300     1.1590 H     1 <1>   0.1500 
 27 H        1.6150    -2.4070    -1.6990 H     1 <1>   0.1500 
 28 H        1.1000    -4.8350    -1.7100 H     1 <1>   0.1500 
 29 H       -3.2560    -6.0830     1.9880 H     1 <1>   0.1500 
 30 H       -0.1750    -6.5940    -0.8590 H     1 <1>   0.4500 
 31 H       -2.6900    -8.3750     1.2880 H     1 <1>   0.0800 
 32 H       -1.1240    -8.6110     0.5960 H     1 <1>   0.0800 
 33 H       -2.1730    -8.2370    -1.6350 H     1 <1>   0.4500 
 34 H       -4.5320    -8.9130    -1.8370 H     1 <1>   0.0800 
 35 H       -3.1540   -10.5440    -0.0800 H     1 <1>   0.0800 
 36 H       -1.5610   -10.4030    -0.7940 H     1 <1>   0.0800 
 37 H       -2.9750   -10.4660    -1.8180 H     1 <1>   0.0800 
 38 H       -5.3360    -9.3190     0.3580 H     1 <1>   0.0800 
 39 H       -4.6570    -7.8150     0.9690 H     1 <1>   0.0800 
 40 H       -3.6360    -6.1250    -1.2430 H     1 <1>   0.0800 
 41 H       -4.1990    -6.8380    -2.7330 H     1 <1>   0.0800 
 42 H       -6.9120    -8.1840    -0.9410 H     1 <1>   0.0800 
 43 H       -6.3700    -6.4600    -2.1980 H     1 <1>   0.0800 
 44 H       -6.6190    -6.9060     1.7210 H     1 <1>   0.0800 
 45 H       -7.9610    -7.7740     1.0280 H     1 <1>   0.0800 
 46 H       -5.6630    -4.2810    -1.5100 H     1 <1>   0.0800 
 47 H       -5.1780    -4.8490     0.0670 H     1 <1>   0.0800 
 48 H       -8.7710    -5.5560     0.8870 H     1 <1>   0.3700 
@<TRIPOS>BOND
  1   1   2  1   
  2   2   3  2   
  3   2   4  1   
  4   3   5  1   
  5   3  26  1   
  6   4   6  2   
  7   4  27  1   
  8   5   7  1   
  9   5   8  ar  
 10   6   8  1   
 11   6  28  1   
 12   7   9  2   
 13   7  10  1   
 14   8  11  ar  
 15  10  12  2   
 16  10  29  1   
 17  11  12  1   
 18  11  30  1   
 19  12  13  1   
 20  13  14  1   
 21  13  31  1   
 22  13  32  1   
 23  14  15  1   
 24  14  16  1   
 25  14  33  1   
 26  15  17  1   
 27  15  18  1   
 28  15  34  1   
 29  16  35  1   
 30  16  36  1   
 31  16  37  1   
 32  17  19  1   
 33  17  38  1   
 34  17  39  1   
 35  18  20  1   
 36  18  40  1   
 37  18  41  1   
 38  19  20  1   
 39  19  21  1   
 40  19  42  1   
 41  20  22  1   
 42  20  43  1   
 43  21  23  1   
 44  21  44  1   
 45  21  45  1   
 46  22  24  1   
 47  22  46  1   
 48  22  47  1   
 49  23  24  am  
 50  23  48  1   
 51  24  25  2   
@<TRIPOS>SUBSTRUCTURE
  1 ****  10 GROUP 4 **** **** 0

# MOE 2024.06 (io_trps.svl 2023.06)
