@<TRIPOS>MOLECULE
Untitled Document
43 45 1 0 0 
SMALL
USER_CHARGES


@<TRIPOS>ATOM
  1 S        1.2580     4.9810    -0.2290 S.3   1 <1>  -0.2860 
  2 C       -0.5200     4.8280    -0.1660 C.2   1 <1>   0.2420 
  3 C        1.7930     3.2560     0.1350 C.3   1 <1>   0.0700 
  4 N       -1.1090     3.7080     0.0610 N.2   1 <1>  -0.5650 
  5 N       -1.3220     5.8970    -0.3580 N.pl3 1 <1>   0.0330 
  6 C        3.3080     3.1830    -0.0440 C.3   1 <1>   0.3430 
  7 C       -2.4300     4.0490     0.0190 C.ar  1 <1>   0.2270 
  8 C       -2.5830     5.4030    -0.2400 C.ar  1 <1>  -0.1520 
  9 N        3.8380     1.8140     0.2490 N.4   1 <1>  -0.9590 
 10 C       -3.5540     3.2470     0.1950 C.ar  1 <1>  -0.1500 
 11 C       -3.8480     5.9860    -0.3290 C.ar  1 <1>  -0.1500 
 12 C        5.3400     1.7760     0.2890 C.3   1 <1>   0.3430 
 13 C        3.3170     0.7380    -0.6670 C.3   1 <1>   0.3430 
 14 C       -4.8100     3.8070     0.1100 C.ar  1 <1>   0.0830 
 15 C       -4.9540     5.1840    -0.1540 C.ar  1 <1>  -0.1500 
 16 C        5.8600     0.3540     0.6050 C.3   1 <1>   0.1200 
 17 C        3.9450    -0.6380    -0.3410 C.3   1 <1>   0.1200 
 18 O       -5.8660     2.9680     0.2920 O.3   1 <1>  -0.3630 
 19 O        4.8020    -0.5530     0.7660 O.3   1 <1>  -0.5600 
 20 C       -7.1920     3.4380     0.2240 C.3   1 <1>   0.1200 
 21 C       -8.1240     2.2560     0.4700 C.3   1 <1>  -0.2400 
 22 H        1.2700     2.6240    -0.5600 H     1 <1>   0.0800 
 23 H        1.4890     3.0450     1.1450 H     1 <1>   0.0800 
 24 H       -1.0350     6.8590    -0.5470 H     1 <1>   0.2700 
 25 H        3.7640     3.8970     0.6220 H     1 <1>   0.0800 
 26 H        3.5570     3.4610    -1.0560 H     1 <1>   0.0800 
 27 H        3.5450     1.5220     1.1960 H     1 <1>   0.4500 
 28 H       -3.4280     2.2010     0.3960 H     1 <1>   0.1500 
 29 H       -3.9500     7.0380    -0.5310 H     1 <1>   0.1500 
 30 H        5.7080     2.4570     1.0390 H     1 <1>   0.0800 
 31 H        5.7420     2.0910    -0.6600 H     1 <1>   0.0800 
 32 H        3.5350     0.9870    -1.6920 H     1 <1>   0.0800 
 33 H        2.2460     0.6590    -0.5740 H     1 <1>   0.0800 
 34 H       -5.9280     5.6290    -0.2230 H     1 <1>   0.1500 
 35 H        6.4260     0.3610     1.5210 H     1 <1>   0.0800 
 36 H        6.5030    -0.0020    -0.1820 H     1 <1>   0.0800 
 37 H        4.5040    -1.0120    -1.1820 H     1 <1>   0.0800 
 38 H        3.1740    -1.3510    -0.1050 H     1 <1>   0.0800 
 39 H       -7.3570     3.8550    -0.7540 H     1 <1>   0.0800 
 40 H       -7.3250     4.1910     0.9820 H     1 <1>   0.0800 
 41 H       -7.9700     1.5020    -0.2810 H     1 <1>   0.0800 
 42 H       -9.1470     2.5820     0.4260 H     1 <1>   0.0800 
 43 H       -7.9380     1.8360     1.4430 H     1 <1>   0.0800 
@<TRIPOS>BOND
  1   1   2  1   
  2   1   3  1   
  3   2   4  2   
  4   2   5  1   
  5   3   6  1   
  6   3  22  1   
  7   3  23  1   
  8   4   7  1   
  9   5   8  1   
 10   5  24  1   
 11   6   9  1   
 12   6  25  1   
 13   6  26  1   
 14   7   8  ar  
 15   7  10  ar  
 16   8  11  ar  
 17   9  12  1   
 18   9  13  1   
 19   9  27  1   
 20  10  14  ar  
 21  10  28  1   
 22  11  15  ar  
 23  11  29  1   
 24  12  16  1   
 25  12  30  1   
 26  12  31  1   
 27  13  17  1   
 28  13  32  1   
 29  13  33  1   
 30  14  15  ar  
 31  14  18  1   
 32  15  34  1   
 33  16  19  1   
 34  16  35  1   
 35  16  36  1   
 36  17  19  1   
 37  17  37  1   
 38  17  38  1   
 39  18  20  1   
 40  20  21  1   
 41  20  39  1   
 42  20  40  1   
 43  21  41  1   
 44  21  42  1   
 45  21  43  1   
@<TRIPOS>SUBSTRUCTURE
  1 ****   4 GROUP 4 **** **** 0

# MOE 2024.06 (io_trps.svl 2023.06)
