@<TRIPOS>MOLECULE
NONAME
40 42 1 0 0 
SMALL
USER_CHARGES


@<TRIPOS>ATOM
  1 O        3.5640    -2.4300     1.7970 O.2   1 <1>  -0.5700 
  2 C        2.5190    -2.2180     1.2020 C.2   1 <1>   0.5440 
  3 N        2.3180    -0.9340     0.7290 N.am  1 <1>  -0.6600 
  4 C        1.5770    -3.3230     1.0060 C.ar  1 <1>   0.3960 
  5 C        1.2100    -0.4900    -0.1480 C.3   1 <1>   0.1400 
  6 C        3.2780     0.1670     0.9660 C.3   1 <1>   0.1400 
  7 N        0.2500    -3.1080     0.9420 N.ar  1 <1>  -0.6200 
  8 C        2.1080    -4.6120     0.8960 C.ar  1 <1>   0.1600 
  9 C        1.6610     0.8610    -0.6890 C.3   1 <1>  -0.1600 
 10 C        2.6090     1.4050     0.3770 C.3   1 <1>  -0.1600 
 11 C       -0.4570    -4.2010     0.7610 C.ar  1 <1>   0.4100 
 12 N        1.4100    -5.7240     0.7050 N.ar  1 <1>  -0.6200 
 13 N       -1.8030    -3.9540     0.7050 N.pl3 1 <1>  -0.8690 
 14 C        0.1180    -5.4780     0.6380 C.ar  1 <1>   0.1600 
 15 C       -2.7730    -4.8510     1.3970 C.3   1 <1>   0.3530 
 16 C       -3.2540    -6.0050     0.5210 C.ar  1 <1>   0.1670 
 17 N       -3.6010    -7.1180     1.1510 N.ar  1 <1>  -0.6200 
 18 C       -3.3140    -5.8620    -0.8650 C.ar  1 <1>   0.1600 
 19 C       -4.0010    -8.0620     0.3140 C.ar  1 <1>   0.1600 
 20 N       -3.7150    -6.8070    -1.6990 N.ar  1 <1>  -0.6200 
 21 C       -4.0570    -7.9160    -1.0690 C.ar  1 <1>   0.1670 
 22 C       -4.5280    -9.0560    -1.9490 C.3   1 <1>  -0.0970 
 23 H        0.3190    -0.3780     0.4450 H     1 <1>   0.0800 
 24 H        1.0330    -1.1960    -0.9410 H     1 <1>   0.0800 
 25 H        4.1960    -0.0520     0.4480 H     1 <1>   0.0800 
 26 H        3.4750     0.2810     2.0180 H     1 <1>   0.0800 
 27 H        3.1760    -4.7250     0.9670 H     1 <1>   0.1500 
 28 H        0.8290     1.5170    -0.8720 H     1 <1>   0.0800 
 29 H        2.1970     0.7080    -1.6100 H     1 <1>   0.0800 
 30 H        3.3300     2.0940    -0.0260 H     1 <1>   0.0800 
 31 H        2.0470     1.8970     1.1510 H     1 <1>   0.0800 
 32 H       -1.9800    -2.9630     0.8930 H     1 <1>   0.4000 
 33 H       -0.5340    -6.3160     0.4750 H     1 <1>   0.1500 
 34 H       -3.6290    -4.2780     1.7090 H     1 <1>   0.0800 
 35 H       -2.3120    -5.2550     2.2830 H     1 <1>   0.0800 
 36 H       -3.0170    -4.9270    -1.3060 H     1 <1>   0.1500 
 37 H       -4.2990    -9.0000     0.7480 H     1 <1>   0.1500 
 38 H       -4.7880    -9.9190    -1.3650 H     1 <1>   0.0800 
 39 H       -3.7470    -9.3230    -2.6380 H     1 <1>   0.0800 
 40 H       -5.3890    -8.7420    -2.5110 H     1 <1>   0.0800 
@<TRIPOS>BOND
  1   1   2  2   
  2   2   3  am  
  3   2   4  1   
  4   3   5  1   
  5   3   6  1   
  6   4   7  ar  
  7   4   8  ar  
  8   5   9  1   
  9   5  23  1   
 10   5  24  1   
 11   6  10  1   
 12   6  25  1   
 13   6  26  1   
 14   7  11  ar  
 15   8  12  ar  
 16   8  27  1   
 17   9  10  1   
 18   9  28  1   
 19   9  29  1   
 20  10  30  1   
 21  10  31  1   
 22  11  13  1   
 23  11  14  ar  
 24  12  14  ar  
 25  13  15  1   
 26  13  32  1   
 27  14  33  1   
 28  15  16  1   
 29  15  34  1   
 30  15  35  1   
 31  16  17  ar  
 32  16  18  ar  
 33  17  19  ar  
 34  18  20  ar  
 35  18  36  1   
 36  19  21  ar  
 37  19  37  1   
 38  20  21  ar  
 39  21  22  1   
 40  22  38  1   
 41  22  39  1   
 42  22  40  1   
@<TRIPOS>SUBSTRUCTURE
  1 ****  11 GROUP 4 **** **** 0

# MOE 2024.06 (io_trps.svl 2023.06)
