@<TRIPOS>MOLECULE
NONAME
36 36 1 0 0 
SMALL
USER_CHARGES


@<TRIPOS>ATOM
  1 O       -1.1100    -0.6950     0.3850 O.2   1 <1>  -0.5700 
  2 C       -1.8070     0.3020     0.4000 C.2   1 <1>   0.5690 
  3 N       -3.0990     0.1930     0.8790 N.am  1 <1>  -0.6600 
  4 C       -1.1750     1.6500    -0.1030 C.3   1 <1>   0.3410 
  5 C       -3.5510    -1.0860     1.5100 C.3   1 <1>   0.3200 
  6 C       -4.1830     1.2130     0.7180 C.3   1 <1>   0.1400 
  7 O       -2.0610     2.2670    -1.0170 O.3   1 <1>  -0.5600 
  8 C       -0.9140     2.5740     1.1020 C.3   1 <1>  -0.2400 
  9 C        0.1530     1.4070    -0.8500 C.3   1 <1>  -0.2400 
 10 C       -4.0260    -2.0670     0.4530 C.2   1 <1>   0.0060 
 11 C       -4.9620     1.0020    -0.5880 C.3   1 <1>   0.1200 
 12 C       -1.8320     3.5670    -1.4810 C.3   1 <1>   0.0400 
 13 N       -5.2240    -2.5560     0.3670 N.2   1 <1>  -0.5650 
 14 N       -3.1910    -2.5060    -0.5110 N.pl3 1 <1>   0.0330 
 15 O       -6.0780     1.8290    -0.5910 O.3   1 <1>  -0.6800 
 16 C       -5.1630    -3.3590    -0.7140 C.2   1 <1>   0.0770 
 17 C       -3.9290    -3.3410    -1.2640 C.2   1 <1>  -0.3020 
 18 H       -4.3500    -0.8960     2.2040 H     1 <1>   0.0800 
 19 H       -2.7400    -1.5280     2.0620 H     1 <1>   0.0800 
 20 H       -3.7720     2.2040     0.7190 H     1 <1>   0.0800 
 21 H       -4.8610     1.1400     1.5500 H     1 <1>   0.0800 
 22 H       -1.8360     2.8690     1.5670 H     1 <1>   0.0800 
 23 H       -0.3600     3.4490     0.8170 H     1 <1>   0.0800 
 24 H       -0.3300     2.0440     1.8330 H     1 <1>   0.0800 
 25 H       -0.0270     0.8160    -1.7300 H     1 <1>   0.0800 
 26 H        0.8350     0.8660    -0.2190 H     1 <1>   0.0800 
 27 H        0.6330     2.3260    -1.1260 H     1 <1>   0.0800 
 28 H       -5.3020    -0.0130    -0.6890 H     1 <1>   0.0800 
 29 H       -4.3530     1.2630    -1.4350 H     1 <1>   0.0800 
 30 H       -2.6070     3.8020    -2.1890 H     1 <1>   0.0800 
 31 H       -0.8790     3.6240    -1.9740 H     1 <1>   0.0800 
 32 H       -1.8850     4.2630    -0.6630 H     1 <1>   0.0800 
 33 H       -2.2090    -2.2120    -0.6110 H     1 <1>   0.2700 
 34 H       -6.7990     1.4250    -0.0680 H     1 <1>   0.4000 
 35 H       -6.0240    -3.9160    -1.0450 H     1 <1>   0.1500 
 36 H       -3.5460    -3.8580    -2.1250 H     1 <1>   0.1500 
@<TRIPOS>BOND
  1   1   2  2   
  2   2   3  am  
  3   2   4  1   
  4   3   5  1   
  5   3   6  1   
  6   4   7  1   
  7   4   8  1   
  8   4   9  1   
  9   5  10  1   
 10   5  18  1   
 11   5  19  1   
 12   6  11  1   
 13   6  20  1   
 14   6  21  1   
 15   7  12  1   
 16   8  22  1   
 17   8  23  1   
 18   8  24  1   
 19   9  25  1   
 20   9  26  1   
 21   9  27  1   
 22  10  13  2   
 23  10  14  1   
 24  11  15  1   
 25  11  28  1   
 26  11  29  1   
 27  12  30  1   
 28  12  31  1   
 29  12  32  1   
 30  13  16  1   
 31  14  17  1   
 32  14  33  1   
 33  15  34  1   
 34  16  17  2   
 35  16  35  1   
 36  17  36  1   
@<TRIPOS>SUBSTRUCTURE
  1 ****   3 GROUP 4 **** **** 0

# MOE 2024.06 (io_trps.svl 2023.06)
