@<TRIPOS>MOLECULE
NONAME
43 45 1 0 0 
SMALL
USER_CHARGES


@<TRIPOS>ATOM
  1 S       -0.0990    -0.0240     0.0600 S.o2  1 <1>   1.3330 
  2 O        0.0330    -0.7960     1.2760 O.2   1 <1>  -0.6500 
  3 O       -0.7710     1.2550     0.0980 O.2   1 <1>  -0.6500 
  4 N       -0.8740    -1.0020    -1.0920 N.am  1 <1>  -0.8490 
  5 C        1.5180     0.2310    -0.6720 C.3   1 <1>  -0.0550 
  6 C       -0.5880    -2.4320    -0.9310 C.3   1 <1>   0.1160 
  7 C       -2.3240    -0.7830    -1.1220 C.3   1 <1>   0.1160 
  8 C        2.4120     1.1950     0.1330 C.3   1 <1>  -0.0800 
  9 C        3.6720     1.5470    -0.6400 C.3   1 <1>   0.2200 
 10 C        2.9720     0.5440     1.4050 C.3   1 <1>   0.1200 
 11 N        4.1730     2.8570    -0.1680 N.am  1 <1>  -0.7300 
 12 C        4.6260     0.4480    -0.1950 C.3   1 <1>   0.1200 
 13 O        4.2910     0.1700     1.1300 O.3   1 <1>  -0.5600 
 14 C        4.2820     3.9840    -0.9310 C.2   1 <1>   0.5440 
 15 O        3.9870     3.9120    -2.1070 O.2   1 <1>  -0.5700 
 16 C        4.7520     5.2320    -0.3570 C.ar  1 <1>   0.0860 
 17 C        5.3600     6.1990    -1.1580 C.ar  1 <1>  -0.1500 
 18 C        4.6120     5.5170     1.0140 C.ar  1 <1>  -0.1500 
 19 C        5.8020     7.3710    -0.5780 C.ar  1 <1>   0.0400 
 20 C        5.0650     6.7010     1.5730 C.ar  1 <1>  -0.1500 
 21 S        6.5930     8.7350    -1.3400 S.3   1 <1>  -0.0800 
 22 C        5.6740     7.6520     0.7690 C.ar  1 <1>   0.2270 
 23 C        6.6720     9.5360     0.2240 C.2   1 <1>   0.2280 
 24 N        6.1750     8.8790     1.1910 N.2   1 <1>  -0.5650 
 25 H        2.0140    -0.7130    -0.7860 H     1 <1>   0.0800 
 26 H        1.3710     0.6430    -1.6520 H     1 <1>   0.0800 
 27 H       -1.0260    -2.9900    -1.7400 H     1 <1>   0.0800 
 28 H       -0.9890    -2.7930     0.0020 H     1 <1>   0.0800 
 29 H        0.4750    -2.6010    -0.9380 H     1 <1>   0.0800 
 30 H       -2.7800    -1.4060    -1.8730 H     1 <1>   0.0800 
 31 H       -2.5370     0.2440    -1.3650 H     1 <1>   0.0800 
 32 H       -2.7570    -1.0080    -0.1620 H     1 <1>   0.0800 
 33 H        1.8420     2.0800     0.3640 H     1 <1>   0.0800 
 34 H        3.5310     1.5540    -1.7080 H     1 <1>   0.0800 
 35 H        2.4280    -0.3310     1.7150 H     1 <1>   0.0800 
 36 H        2.9970     1.2500     2.2170 H     1 <1>   0.0800 
 37 H        4.5450     2.8400     0.7830 H     1 <1>   0.3700 
 38 H        5.6590     0.7450    -0.2550 H     1 <1>   0.0800 
 39 H        4.4700    -0.4490    -0.7680 H     1 <1>   0.0800 
 40 H        5.4830     6.0360    -2.2150 H     1 <1>   0.1500 
 41 H        4.1300     4.7990     1.6530 H     1 <1>   0.1500 
 42 H        4.9520     6.9070     2.6220 H     1 <1>   0.1500 
 43 H        7.1290    10.5100     0.2430 H     1 <1>   0.1500 
@<TRIPOS>BOND
  1   1   2  2   
  2   1   3  2   
  3   1   4  am  
  4   1   5  1   
  5   4   6  1   
  6   4   7  1   
  7   5   8  1   
  8   5  25  1   
  9   5  26  1   
 10   6  27  1   
 11   6  28  1   
 12   6  29  1   
 13   7  30  1   
 14   7  31  1   
 15   7  32  1   
 16   8   9  1   
 17   8  10  1   
 18   8  33  1   
 19   9  11  1   
 20   9  12  1   
 21   9  34  1   
 22  10  13  1   
 23  10  35  1   
 24  10  36  1   
 25  11  14  am  
 26  11  37  1   
 27  12  13  1   
 28  12  38  1   
 29  12  39  1   
 30  14  15  2   
 31  14  16  1   
 32  16  17  ar  
 33  16  18  ar  
 34  17  19  ar  
 35  17  40  1   
 36  18  20  ar  
 37  18  41  1   
 38  19  21  1   
 39  19  22  ar  
 40  20  22  ar  
 41  20  42  1   
 42  21  23  1   
 43  22  24  1   
 44  23  24  2   
 45  23  43  1   
@<TRIPOS>SUBSTRUCTURE
  1 ****  11 GROUP 4 **** **** 0

# MOE 2024.06 (io_trps.svl 2023.06)
