@<TRIPOS>MOLECULE
NONAME
43 45 1 0 0 
SMALL
USER_CHARGES


@<TRIPOS>ATOM
  1 O        1.4320    -0.9120     2.6280 O.2   1 <1>  -0.5700 
  2 C        1.5680    -1.0950     1.4300 C.2   1 <1>   0.5440 
  3 N        1.9560    -0.0240     0.6440 N.am  1 <1>  -0.6600 
  4 C        1.3510    -2.4220     0.8970 C.ar  1 <1>   0.0860 
  5 C        2.0340     1.3670     1.1810 C.3   1 <1>   0.1400 
  6 C        2.2470    -0.1440    -0.8100 C.3   1 <1>   0.1400 
  7 C        0.3080    -2.7200    -0.0030 C.ar  1 <1>   0.1000 
  8 C        2.2100    -3.4500     1.2890 C.ar  1 <1>  -0.1500 
  9 C        3.4230     1.9590     0.9160 C.3   1 <1>   0.1200 
 10 C        3.6360     0.4330    -1.1030 C.3   1 <1>  -0.1600 
 11 N       -0.6070    -1.7510    -0.4230 N.pl3 1 <1>  -0.8380 
 12 C        0.1840    -4.0260    -0.4760 C.ar  1 <1>  -0.1500 
 13 C        2.0730    -4.7350     0.8050 C.ar  1 <1>  -0.1500 
 14 C        3.4570     3.3710     1.3920 C.1   1 <1>   0.3570 
 15 C        3.7820     1.8720    -0.5810 C.3   1 <1>  -0.1600 
 16 C       -1.4400    -1.0210     0.5850 C.3   1 <1>   0.2090 
 17 C       -1.1480    -1.6720    -1.8130 C.3   1 <1>   0.2090 
 18 C        1.0540    -5.0230    -0.0850 C.ar  1 <1>  -0.1500 
 19 N        3.4720     4.4520     1.7440 N.1   1 <1>  -0.5570 
 20 C       -2.9360    -1.3330     0.4030 C.3   1 <1>   0.1200 
 21 C       -2.6600    -1.9590    -1.8380 C.3   1 <1>   0.1200 
 22 O       -3.3400    -1.1410    -0.9260 O.3   1 <1>  -0.5600 
 23 H        1.8350     1.3810     2.2390 H     1 <1>   0.0800 
 24 H        1.2820     1.9650     0.6970 H     1 <1>   0.0800 
 25 H        1.4950     0.3960    -1.3600 H     1 <1>   0.0800 
 26 H        2.2150    -1.1710    -1.1290 H     1 <1>   0.0800 
 27 H        2.9950    -3.2240     1.9890 H     1 <1>   0.1500 
 28 H        4.1410     1.4010     1.4900 H     1 <1>   0.0800 
 29 H        3.8100     0.4140    -2.1650 H     1 <1>   0.0800 
 30 H        4.3760    -0.1990    -0.6420 H     1 <1>   0.0800 
 31 H       -0.6140    -4.2680    -1.1510 H     1 <1>   0.1500 
 32 H        2.7500    -5.5100     1.1200 H     1 <1>   0.1500 
 33 H        4.7930     2.2110    -0.7330 H     1 <1>   0.0800 
 34 H        3.1280     2.5170    -1.1440 H     1 <1>   0.0800 
 35 H       -1.2790     0.0370     0.4770 H     1 <1>   0.0800 
 36 H       -1.1440    -1.3000     1.5820 H     1 <1>   0.0800 
 37 H       -0.6330    -2.3650    -2.4540 H     1 <1>   0.0800 
 38 H       -0.9770    -0.6820    -2.1980 H     1 <1>   0.0800 
 39 H        0.9390    -6.0240    -0.4640 H     1 <1>   0.1500 
 40 H       -3.5260    -0.6830     1.0240 H     1 <1>   0.0800 
 41 H       -3.1380    -2.3530     0.6800 H     1 <1>   0.0800 
 42 H       -2.8520    -2.9870    -1.5860 H     1 <1>   0.0800 
 43 H       -3.0590    -1.7610    -2.8160 H     1 <1>   0.0800 
@<TRIPOS>BOND
  1   1   2  2   
  2   2   3  am  
  3   2   4  1   
  4   3   5  1   
  5   3   6  1   
  6   4   7  ar  
  7   4   8  ar  
  8   5   9  1   
  9   5  23  1   
 10   5  24  1   
 11   6  10  1   
 12   6  25  1   
 13   6  26  1   
 14   7  11  1   
 15   7  12  ar  
 16   8  13  ar  
 17   8  27  1   
 18   9  14  1   
 19   9  15  1   
 20   9  28  1   
 21  10  15  1   
 22  10  29  1   
 23  10  30  1   
 24  11  16  1   
 25  11  17  1   
 26  12  18  ar  
 27  12  31  1   
 28  13  18  ar  
 29  13  32  1   
 30  14  19  3   
 31  15  33  1   
 32  15  34  1   
 33  16  20  1   
 34  16  35  1   
 35  16  36  1   
 36  17  21  1   
 37  17  37  1   
 38  17  38  1   
 39  18  39  1   
 40  20  22  1   
 41  20  40  1   
 42  20  41  1   
 43  21  22  1   
 44  21  42  1   
 45  21  43  1   
@<TRIPOS>SUBSTRUCTURE
  1 ****   2 GROUP 4 **** **** 0

# MOE 2024.06 (io_trps.svl 2023.06)
