@<TRIPOS>MOLECULE
NONAME
50 52 1 0 0 
SMALL
USER_CHARGES


@<TRIPOS>ATOM
  1 O        0.6880     1.8940    -0.7810 O.3   1 <1>  -0.5600 
  2 C        1.4310     2.3600     0.2970 C.3   1 <1>   0.1200 
  3 C        1.4430     1.3770    -1.8350 C.3   1 <1>   0.1200 
  4 C        2.2520     3.5780    -0.1540 C.3   1 <1>  -0.0800 
  5 C        2.3080     2.4940    -2.4290 C.3   1 <1>  -0.1600 
  6 C        3.1490     3.1850    -1.3470 C.3   1 <1>  -0.1600 
  7 C        3.0590     4.1090     1.0370 C.3   1 <1>   0.3430 
  8 N        3.8480     5.3200     0.6500 N.4   1 <1>  -0.9590 
  9 C        5.0560     5.4850     1.5140 C.3   1 <1>   0.4860 
 10 C        2.9850     6.5430     0.6250 C.3   1 <1>   0.3430 
 11 C        5.9770     4.3050     1.2920 C.ar  1 <1>  -0.1440 
 12 C        3.6230     7.6800    -0.1740 C.3   1 <1>  -0.0170 
 13 C        6.6770     4.1860     0.1000 C.ar  1 <1>   0.1600 
 14 C        6.1300     3.3250     2.2560 C.ar  1 <1>  -0.1500 
 15 C        2.6470     8.8380    -0.2120 C.ar  1 <1>  -0.1440 
 16 N        7.4690     3.1780    -0.2100 N.ar  1 <1>  -0.6200 
 17 C        6.9680     2.2740     1.9500 C.ar  1 <1>  -0.1500 
 18 C        2.7090     9.8390     0.7460 C.ar  1 <1>  -0.1500 
 19 C        1.6760     8.8990    -1.2010 C.ar  1 <1>  -0.1500 
 20 C        7.6030     2.2460     0.7200 C.ar  1 <1>   0.1600 
 21 C        1.8040    10.8860     0.7200 C.ar  1 <1>  -0.1500 
 22 C        0.7720     9.9460    -1.2260 C.ar  1 <1>  -0.1500 
 23 C        0.8340    10.9390    -0.2650 C.ar  1 <1>  -0.1500 
 24 H        2.0570     1.5590     0.6520 H     1 <1>   0.0800 
 25 H        0.7330     2.6300     1.0710 H     1 <1>   0.0800 
 26 H        0.7590     0.9940    -2.5730 H     1 <1>   0.0800 
 27 H        2.0450     0.5650    -1.4640 H     1 <1>   0.0800 
 28 H        1.5460     4.3280    -0.4660 H     1 <1>   0.0800 
 29 H        1.6590     3.2090    -2.9050 H     1 <1>   0.0800 
 30 H        2.9500     2.0820    -3.1880 H     1 <1>   0.0800 
 31 H        3.9160     2.5020    -1.0180 H     1 <1>   0.0800 
 32 H        3.6270     4.0450    -1.7820 H     1 <1>   0.0800 
 33 H        3.7230     3.3240     1.3600 H     1 <1>   0.0800 
 34 H        2.3970     4.3430     1.8560 H     1 <1>   0.0800 
 35 H        4.1820     5.1370    -0.3050 H     1 <1>   0.4500 
 36 H        4.7690     5.5390     2.5510 H     1 <1>   0.0800 
 37 H        5.5800     6.3910     1.2580 H     1 <1>   0.0800 
 38 H        2.7840     6.8780     1.6300 H     1 <1>   0.0800 
 39 H        2.0370     6.3090     0.1660 H     1 <1>   0.0800 
 40 H        3.8300     7.3600    -1.1800 H     1 <1>   0.0800 
 41 H        4.5400     8.0080     0.2810 H     1 <1>   0.0800 
 42 H        6.5880     4.9530    -0.6510 H     1 <1>   0.1500 
 43 H        5.6310     3.3620     3.2100 H     1 <1>   0.1500 
 44 H        7.1360     1.4780     2.6550 H     1 <1>   0.1500 
 45 H        3.4570     9.8220     1.5190 H     1 <1>   0.1500 
 46 H        1.6110     8.1400    -1.9610 H     1 <1>   0.1500 
 47 H        8.2550     1.4180     0.4900 H     1 <1>   0.1500 
 48 H        1.8530    11.6630     1.4630 H     1 <1>   0.1500 
 49 H        0.0180     9.9920    -1.9940 H     1 <1>   0.1500 
 50 H        0.1310    11.7540    -0.2860 H     1 <1>   0.1500 
@<TRIPOS>BOND
  1   1   2  1   
  2   1   3  1   
  3   2   4  1   
  4   2  24  1   
  5   2  25  1   
  6   3   5  1   
  7   3  26  1   
  8   3  27  1   
  9   4   6  1   
 10   4   7  1   
 11   4  28  1   
 12   5   6  1   
 13   5  29  1   
 14   5  30  1   
 15   6  31  1   
 16   6  32  1   
 17   7   8  1   
 18   7  33  1   
 19   7  34  1   
 20   8   9  1   
 21   8  10  1   
 22   8  35  1   
 23   9  11  1   
 24   9  36  1   
 25   9  37  1   
 26  10  12  1   
 27  10  38  1   
 28  10  39  1   
 29  11  13  ar  
 30  11  14  ar  
 31  12  15  1   
 32  12  40  1   
 33  12  41  1   
 34  13  16  ar  
 35  13  42  1   
 36  14  17  ar  
 37  14  43  1   
 38  15  18  ar  
 39  15  19  ar  
 40  16  20  ar  
 41  17  20  ar  
 42  17  44  1   
 43  18  21  ar  
 44  18  45  1   
 45  19  22  ar  
 46  19  46  1   
 47  20  47  1   
 48  21  23  ar  
 49  21  48  1   
 50  22  23  ar  
 51  22  49  1   
 52  23  50  1   
@<TRIPOS>SUBSTRUCTURE
  1 ****   8 GROUP 4 **** **** 0

# MOE 2024.06 (io_trps.svl 2023.06)
