@<TRIPOS>MOLECULE
NONAME
51 54 1 0 0 
SMALL
USER_CHARGES


@<TRIPOS>ATOM
  1 O        2.0370     0.7630     0.2100 O.2   1 <1>  -0.5700 
  2 C        2.5290    -0.3500     0.3330 C.2   1 <1>   0.6160 
  3 N        1.8160    -1.4640    -0.1020 N.am  1 <1>  -0.4770 
  4 C        3.8310    -0.5310     0.9120 C.2   1 <1>   0.0290 
  5 C        2.3370    -2.7650     0.0340 C.ar  1 <1>   0.1170 
  6 C        0.4460    -1.2800    -0.6780 C.3   1 <1>   0.0600 
  7 C        4.5730     0.6290     1.3340 C.2   1 <1>   0.6160 
  8 C        4.3210    -1.7940     1.0660 C.2   1 <1>  -0.1780 
  9 C        3.5990    -2.9380     0.6330 C.ar  1 <1>   0.0280 
 10 C        1.6510    -3.9070    -0.4010 C.ar  1 <1>  -0.1500 
 11 O        5.1270     0.6300     2.4170 O.2   1 <1>  -0.5700 
 12 N        4.7780     1.7280     0.5330 N.am  1 <1>  -0.6600 
 13 C        4.1200    -4.2260     0.7860 C.ar  1 <1>  -0.1500 
 14 C        2.1830    -5.1680    -0.2460 C.ar  1 <1>  -0.1500 
 15 C        4.9410     3.0840     1.1790 C.3   1 <1>   0.2200 
 16 C        4.8960     1.6010    -0.9510 C.3   1 <1>   0.1400 
 17 C        3.4240    -5.3300     0.3520 C.ar  1 <1>  -0.1500 
 18 C        4.0940     4.1620     0.4850 C.3   1 <1>   0.1200 
 19 C        6.4290     3.4950     1.2660 C.3   1 <1>   0.3430 
 20 C        5.6740     2.7430    -1.6330 C.3   1 <1>  -0.0800 
 21 O        4.7830     4.7390    -0.5830 O.3   1 <1>  -0.5600 
 22 N        7.2910     2.6680     0.3560 N.4   1 <1>  -0.9590 
 23 C        4.8180     4.0140    -1.7650 C.3   1 <1>   0.1200 
 24 C        7.0850     3.0430    -1.0790 C.3   1 <1>   0.3430 
 25 C        8.7490     2.8950     0.7280 C.3   1 <1>   0.2370 
 26 C        9.2440     4.3300     0.5200 C.2   1 <1>   0.9060 
 27 O        9.0930     5.1330     1.4430 O.co2 1 <1>  -0.9000 
 28 O        9.6520     4.6380    -0.6040 O.co2 1 <1>  -0.9000 
 29 H       -0.2670    -1.8300    -0.0910 H     1 <1>   0.0800 
 30 H        0.4300    -1.6410    -1.6920 H     1 <1>   0.0800 
 31 H        0.1460    -0.2470    -0.6850 H     1 <1>   0.0800 
 32 H        5.2790    -1.9560     1.5290 H     1 <1>   0.1500 
 33 H        0.6890    -3.8230    -0.8680 H     1 <1>   0.1500 
 34 H        5.0820    -4.3550     1.2510 H     1 <1>   0.1500 
 35 H        1.6400    -6.0340    -0.5860 H     1 <1>   0.1500 
 36 H        4.5660     3.0220     2.1860 H     1 <1>   0.0800 
 37 H        5.3850     0.6680    -1.1760 H     1 <1>   0.0800 
 38 H        3.9060     1.5530    -1.3730 H     1 <1>   0.0800 
 39 H        3.8330    -6.3190     0.4740 H     1 <1>   0.1500 
 40 H        3.9010     4.9570     1.1840 H     1 <1>   0.0800 
 41 H        3.1480     3.7700     0.1490 H     1 <1>   0.0800 
 42 H        6.7560     3.3560     2.2830 H     1 <1>   0.0800 
 43 H        6.5420     4.5430     1.0370 H     1 <1>   0.0800 
 44 H        5.8250     2.4230    -2.6480 H     1 <1>   0.0800 
 45 H        7.0050     1.6950     0.5140 H     1 <1>   0.4500 
 46 H        3.8080     3.7870    -2.0630 H     1 <1>   0.0800 
 47 H        5.2490     4.6630    -2.5080 H     1 <1>   0.0800 
 48 H        7.3000     4.0930    -1.2080 H     1 <1>   0.0800 
 49 H        7.8050     2.5050    -1.6740 H     1 <1>   0.0800 
 50 H        8.9020     2.6550     1.7640 H     1 <1>   0.0800 
 51 H        9.3780     2.2570     0.1360 H     1 <1>   0.0800 
@<TRIPOS>BOND
  1   1   2  2   
  2   2   3  am  
  3   2   4  1   
  4   3   5  1   
  5   3   6  1   
  6   4   7  1   
  7   4   8  2   
  8   5   9  ar  
  9   5  10  ar  
 10   6  29  1   
 11   6  30  1   
 12   6  31  1   
 13   7  11  2   
 14   7  12  am  
 15   8   9  1   
 16   8  32  1   
 17   9  13  ar  
 18  10  14  ar  
 19  10  33  1   
 20  12  15  1   
 21  12  16  1   
 22  13  17  ar  
 23  13  34  1   
 24  14  17  ar  
 25  14  35  1   
 26  15  18  1   
 27  15  19  1   
 28  15  36  1   
 29  16  20  1   
 30  16  37  1   
 31  16  38  1   
 32  17  39  1   
 33  18  21  1   
 34  18  40  1   
 35  18  41  1   
 36  19  22  1   
 37  19  42  1   
 38  19  43  1   
 39  20  23  1   
 40  20  24  1   
 41  20  44  1   
 42  21  23  1   
 43  22  24  1   
 44  22  25  1   
 45  22  45  1   
 46  23  46  1   
 47  23  47  1   
 48  24  48  1   
 49  24  49  1   
 50  25  26  1   
 51  25  50  1   
 52  25  51  1   
 53  26  27  ar  
 54  26  28  ar  
@<TRIPOS>SUBSTRUCTURE
  1 ****  12 GROUP 4 **** **** 0

# MOE 2024.06 (io_trps.svl 2023.06)
