@<TRIPOS>MOLECULE
NONAME
45 47 1 0 0 
SMALL
USER_CHARGES


@<TRIPOS>ATOM
  1 O       -0.4000    -1.1590    -0.0170 O.2   1 <1>  -0.5700 
  2 C        0.7890    -1.3970    -0.0850 C.2   1 <1>   0.6900 
  3 N        1.3970    -2.3520     0.7110 N.am  1 <1>  -0.4690 
  4 N        1.5520    -0.7170    -0.9770 N.am  1 <1>  -0.4900 
  5 C        2.7520    -2.6270     0.5700 C.2   1 <1>  -0.0410 
  6 C        0.6040    -3.0990     1.7380 C.3   1 <1>   0.2010 
  7 C        2.8840    -0.9390    -1.1420 C.2   1 <1>   0.6160 
  8 C        3.5000    -1.9480    -0.3310 C.2   1 <1>  -0.1240 
  9 C        0.4600    -4.5840     1.4100 C.2   1 <1>   0.5690 
 10 O        3.4770    -0.2740    -1.9670 O.2   1 <1>  -0.5700 
 11 C        4.9870    -2.2240    -0.5120 C.3   1 <1>  -0.1020 
 12 O        1.2350    -5.3510     1.9340 O.2   1 <1>  -0.5700 
 13 N       -0.5170    -5.0330     0.5610 N.am  1 <1>  -0.6600 
 14 C       -1.4710    -4.1990    -0.2150 C.3   1 <1>   0.1400 
 15 C       -0.7420    -6.4720     0.2980 C.3   1 <1>   0.1400 
 16 C       -2.2950    -5.1960    -1.0330 C.3   1 <1>   0.2000 
 17 C       -2.1330    -6.5430    -0.3310 C.3   1 <1>  -0.0800 
 18 O       -3.6350    -4.8450    -1.0770 O.3   1 <1>  -0.6800 
 19 C       -2.3230    -7.7400    -1.2760 C.3   1 <1>   0.0200 
 20 C       -2.0750    -9.0490    -0.5520 C.2   1 <1>  -0.0400 
 21 O       -2.8350    -9.3920     0.4540 O.3   1 <1>  -0.0190 
 22 C       -1.1620   -10.0150    -0.7290 C.2   1 <1>  -0.1500 
 23 N       -2.4760   -10.5340     0.9640 N.2   1 <1>  -0.4100 
 24 C       -1.4710   -10.9340     0.2700 C.2   1 <1>   0.1080 
 25 C       -0.7300   -12.2290     0.5170 C.3   1 <1>  -0.0590 
 26 H        1.1100    -0.0080    -1.5490 H     1 <1>   0.3700 
 27 H        3.1660    -3.3980     1.2030 H     1 <1>   0.1500 
 28 H        1.1040    -3.0110     2.6850 H     1 <1>   0.0800 
 29 H       -0.3730    -2.6680     1.8540 H     1 <1>   0.0800 
 30 H        5.5530    -1.3310    -0.3110 H     1 <1>   0.0800 
 31 H        5.1820    -2.5290    -1.5250 H     1 <1>   0.0800 
 32 H        5.3210    -3.0010     0.1520 H     1 <1>   0.0800 
 33 H       -2.0960    -3.6370     0.4580 H     1 <1>   0.0800 
 34 H       -0.9390    -3.5340    -0.8710 H     1 <1>   0.0800 
 35 H        0.0120    -6.8230    -0.3860 H     1 <1>   0.0800 
 36 H       -0.6900    -7.0460     1.2090 H     1 <1>   0.0800 
 37 H       -1.9220    -5.2300    -2.0420 H     1 <1>   0.0800 
 38 H       -2.8400    -6.6140     0.4770 H     1 <1>   0.0800 
 39 H       -4.0170    -4.8380    -0.1780 H     1 <1>   0.4000 
 40 H       -1.6460    -7.6630    -2.1080 H     1 <1>   0.0800 
 41 H       -3.3280    -7.7370    -1.6610 H     1 <1>   0.0800 
 42 H       -0.3700   -10.0960    -1.4490 H     1 <1>   0.1500 
 43 H       -0.7720   -12.8470    -0.3610 H     1 <1>   0.0800 
 44 H       -1.1800   -12.7590     1.3370 H     1 <1>   0.0800 
 45 H        0.2970   -12.0220     0.7580 H     1 <1>   0.0800 
@<TRIPOS>BOND
  1   1   2  2   
  2   2   3  am  
  3   2   4  am  
  4   3   5  1   
  5   3   6  1   
  6   4   7  am  
  7   4  26  1   
  8   5   8  2   
  9   5  27  1   
 10   6   9  1   
 11   6  28  1   
 12   6  29  1   
 13   7   8  1   
 14   7  10  2   
 15   8  11  1   
 16   9  12  2   
 17   9  13  am  
 18  11  30  1   
 19  11  31  1   
 20  11  32  1   
 21  13  14  1   
 22  13  15  1   
 23  14  16  1   
 24  14  33  1   
 25  14  34  1   
 26  15  17  1   
 27  15  35  1   
 28  15  36  1   
 29  16  17  1   
 30  16  18  1   
 31  16  37  1   
 32  17  19  1   
 33  17  38  1   
 34  18  39  1   
 35  19  20  1   
 36  19  40  1   
 37  19  41  1   
 38  20  21  1   
 39  20  22  2   
 40  21  23  1   
 41  22  24  1   
 42  22  42  1   
 43  23  24  2   
 44  24  25  1   
 45  25  43  1   
 46  25  44  1   
 47  25  45  1   
@<TRIPOS>SUBSTRUCTURE
  1 ****  13 GROUP 4 **** **** 0

# MOE 2024.06 (io_trps.svl 2023.06)
