@<TRIPOS>MOLECULE
NONAME
48 50 1 0 0 
SMALL
USER_CHARGES


@<TRIPOS>ATOM
  1 O        0.6600     2.5730    -2.1020 O.co2 1 <1>  -0.9000 
  2 C        0.1280     2.3650    -1.0100 C.2   1 <1>   0.9060 
  3 O        0.7760     2.0200    -0.0170 O.co2 1 <1>  -0.9000 
  4 C       -1.3260     2.7540    -0.8750 C.3   1 <1>  -0.1860 
  5 C       -1.9600     2.7390     0.5340 C.3   1 <1>   0.2000 
  6 C       -1.4100     4.1630    -1.4470 C.3   1 <1>   0.3430 
  7 O       -1.4070     1.7290     1.2810 O.3   1 <1>  -0.6800 
  8 C       -1.7850     4.0560     1.3040 C.3   1 <1>  -0.1600 
  9 N       -0.6620     5.1650    -0.6070 N.4   1 <1>  -0.9590 
 10 C       -0.5290     4.7790     0.8370 C.3   1 <1>   0.3430 
 11 C        0.7070     5.3710    -1.1730 C.3   1 <1>   0.4860 
 12 C        1.1320     6.8010    -0.8460 C.ar  1 <1>  -0.1440 
 13 C        1.9760     7.1640     0.2490 C.ar  1 <1>   0.0000 
 14 C        0.6280     7.7590    -1.6890 C.ar  1 <1>  -0.1500 
 15 C        2.6020     6.2540     1.1580 C.ar  1 <1>   0.0820 
 16 C        2.2290     8.5490     0.4510 C.ar  1 <1>   0.0000 
 17 C        0.8960     9.1100    -1.4920 C.ar  1 <1>  -0.1500 
 18 O        2.4030     4.9320     0.9710 O.3   1 <1>  -0.3620 
 19 C        3.3870     6.6930     2.1980 C.ar  1 <1>  -0.1500 
 20 C        1.6760     9.5080    -0.4370 C.ar  1 <1>   0.0820 
 21 C        3.0400     8.9510     1.5360 C.ar  1 <1>  -0.1500 
 22 C        3.1950     3.9140     1.5470 C.3   1 <1>   0.0400 
 23 C        3.6060     8.0530     2.3910 C.ar  1 <1>  -0.1500 
 24 O        1.9550    10.8150    -0.1950 O.3   1 <1>  -0.3620 
 25 C        1.5210    11.8570    -1.0420 C.3   1 <1>   0.0400 
 26 H       -1.8820     2.0900    -1.5080 H     1 <1>   0.0800 
 27 H       -3.0130     2.5210     0.4610 H     1 <1>   0.0800 
 28 H       -2.4480     4.4460    -1.4950 H     1 <1>   0.0800 
 29 H       -1.0200     4.1610    -2.4530 H     1 <1>   0.0800 
 30 H       -0.4430     1.6470     1.0010 H     1 <1>   0.4000 
 31 H       -2.6340     4.6930     1.1400 H     1 <1>   0.0800 
 32 H       -1.7260     3.8610     2.3610 H     1 <1>   0.0800 
 33 H       -1.1220     6.0770    -0.6600 H     1 <1>   0.4500 
 34 H        0.3030     4.1020     0.9570 H     1 <1>   0.0800 
 35 H       -0.3380     5.6520     1.4400 H     1 <1>   0.0800 
 36 H        1.3930     4.6200    -0.8260 H     1 <1>   0.0800 
 37 H        0.6680     5.2640    -2.2450 H     1 <1>   0.0800 
 38 H        0.0100     7.4930    -2.5300 H     1 <1>   0.1500 
 39 H        0.4740     9.8120    -2.1860 H     1 <1>   0.1500 
 40 H        3.8500     6.0140     2.8880 H     1 <1>   0.1500 
 41 H        3.2190    10.0010     1.6890 H     1 <1>   0.1500 
 42 H        2.9000     2.9760     1.1080 H     1 <1>   0.0800 
 43 H        3.0200     3.8880     2.6070 H     1 <1>   0.0800 
 44 H        4.2300     4.1090     1.3280 H     1 <1>   0.0800 
 45 H        4.2210     8.3810     3.2110 H     1 <1>   0.1500 
 46 H        1.8920    12.7850    -0.6460 H     1 <1>   0.0800 
 47 H        0.4460    11.8720    -1.0570 H     1 <1>   0.0800 
 48 H        1.9200    11.6960    -2.0280 H     1 <1>   0.0800 
@<TRIPOS>BOND
  1   1   2  ar  
  2   2   3  ar  
  3   2   4  1   
  4   4   5  1   
  5   4   6  1   
  6   4  26  1   
  7   5   7  1   
  8   5   8  1   
  9   5  27  1   
 10   6   9  1   
 11   6  28  1   
 12   6  29  1   
 13   7  30  1   
 14   8  10  1   
 15   8  31  1   
 16   8  32  1   
 17   9  10  1   
 18   9  11  1   
 19   9  33  1   
 20  10  34  1   
 21  10  35  1   
 22  11  12  1   
 23  11  36  1   
 24  11  37  1   
 25  12  13  ar  
 26  12  14  ar  
 27  13  15  ar  
 28  13  16  ar  
 29  14  17  ar  
 30  14  38  1   
 31  15  18  1   
 32  15  19  ar  
 33  16  20  ar  
 34  16  21  ar  
 35  17  20  ar  
 36  17  39  1   
 37  18  22  1   
 38  19  23  ar  
 39  19  40  1   
 40  20  24  1   
 41  21  23  ar  
 42  21  41  1   
 43  22  42  1   
 44  22  43  1   
 45  22  44  1   
 46  23  45  1   
 47  24  25  1   
 48  25  46  1   
 49  25  47  1   
 50  25  48  1   
@<TRIPOS>SUBSTRUCTURE
  1 ****  12 GROUP 4 **** **** 0

# MOE 2024.06 (io_trps.svl 2023.06)
