@<TRIPOS>MOLECULE
NONAME
50 52 1 0 0 
SMALL
USER_CHARGES


@<TRIPOS>ATOM
  1 CL      -1.2490     1.7880    -1.3340 Cl    1 <1>  -0.1770 
  2 C       -2.4410     1.8590    -0.0530 C.ar  1 <1>   0.1770 
  3 C       -3.4200     0.8720     0.1290 C.ar  1 <1>   0.0830 
  4 C       -2.3930     2.9720     0.7640 C.ar  1 <1>  -0.1500 
  5 O       -3.5400    -0.2550    -0.6250 O.3   1 <1>  -0.3630 
  6 C       -4.3720     1.0390     1.1330 C.ar  1 <1>  -0.1440 
  7 C       -3.3370     3.1070     1.7610 C.ar  1 <1>   0.1770 
  8 C       -2.3970    -0.9980    -1.0060 C.3   1 <1>   0.0400 
  9 C       -4.3240     2.1590     1.9530 C.ar  1 <1>  -0.1500 
 10 C       -5.4630     0.0020     1.3260 C.3   1 <1>   0.4870 
 11 CL      -3.2970     4.5090     2.7970 Cl    1 <1>  -0.1770 
 12 N       -6.6980     0.4780     0.6530 N.4   1 <1>  -0.9590 
 13 C       -7.9210    -0.2680     1.0250 C.3   1 <1>   0.3430 
 14 C       -6.5450     0.5920    -0.8270 C.3   1 <1>   0.3430 
 15 C       -9.1590     0.5310     0.5930 C.3   1 <1>  -0.1600 
 16 C       -7.8600     1.0390    -1.4810 C.3   1 <1>  -0.1600 
 17 C       -8.8800     1.6060    -0.4790 C.3   1 <1>   0.2800 
 18 O       -8.2370     2.6730     0.1830 O.3   1 <1>  -0.5600 
 19 C      -10.1650     2.0550    -1.2100 C.3   1 <1>  -0.1600 
 20 C       -8.8490     3.9330     0.2400 C.3   1 <1>   0.1200 
 21 C      -11.0870     2.9500    -0.3620 C.3   1 <1>   0.2800 
 22 C      -10.3060     3.7700     0.6710 C.3   1 <1>  -0.1600 
 23 O      -11.6760     3.8380    -1.2300 O.3   1 <1>  -0.6800 
 24 C      -12.2430     2.1850     0.2820 C.3   1 <1>  -0.2400 
 25 H       -1.6380     3.7240     0.6230 H     1 <1>   0.1500 
 26 H       -2.6820    -2.0300    -1.1050 H     1 <1>   0.0800 
 27 H       -1.6340    -0.9010    -0.2530 H     1 <1>   0.0800 
 28 H       -2.0440    -0.6350    -1.9550 H     1 <1>   0.0800 
 29 H       -5.0400     2.3140     2.7420 H     1 <1>   0.1500 
 30 H       -5.6440    -0.1280     2.3800 H     1 <1>   0.0800 
 31 H       -5.1550    -0.9450     0.9140 H     1 <1>   0.0800 
 32 H       -6.8770     1.4570     0.9480 H     1 <1>   0.4500 
 33 H       -7.9550    -0.4310     2.0900 H     1 <1>   0.0800 
 34 H       -7.9180    -1.2280     0.5340 H     1 <1>   0.0800 
 35 H       -6.2290    -0.3500    -1.2460 H     1 <1>   0.0800 
 36 H       -5.7830     1.3230    -1.0450 H     1 <1>   0.0800 
 37 H       -9.5970     0.9900     1.4600 H     1 <1>   0.0800 
 38 H       -9.8810    -0.1740     0.2200 H     1 <1>   0.0800 
 39 H       -8.2940     0.1940    -1.9860 H     1 <1>   0.0800 
 40 H       -7.6400     1.7710    -2.2370 H     1 <1>   0.0800 
 41 H      -10.7090     1.1950    -1.5560 H     1 <1>   0.0800 
 42 H       -9.8620     2.5950    -2.0900 H     1 <1>   0.0800 
 43 H       -8.7750     4.3980    -0.7280 H     1 <1>   0.0800 
 44 H       -8.3080     4.5310     0.9540 H     1 <1>   0.0800 
 45 H      -10.7660     4.7330     0.8150 H     1 <1>   0.0800 
 46 H      -10.3140     3.2760     1.6250 H     1 <1>   0.0800 
 47 H      -11.0080     4.4230    -1.6280 H     1 <1>   0.4000 
 48 H      -11.8820     1.4530     0.9780 H     1 <1>   0.0800 
 49 H      -12.8240     1.6810    -0.4700 H     1 <1>   0.0800 
 50 H      -12.8840     2.8650     0.8140 H     1 <1>   0.0800 
@<TRIPOS>BOND
  1   1   2  1   
  2   2   3  ar  
  3   2   4  ar  
  4   3   5  1   
  5   3   6  ar  
  6   4   7  ar  
  7   4  25  1   
  8   5   8  1   
  9   6   9  ar  
 10   6  10  1   
 11   7   9  ar  
 12   7  11  1   
 13   8  26  1   
 14   8  27  1   
 15   8  28  1   
 16   9  29  1   
 17  10  12  1   
 18  10  30  1   
 19  10  31  1   
 20  12  13  1   
 21  12  14  1   
 22  12  32  1   
 23  13  15  1   
 24  13  33  1   
 25  13  34  1   
 26  14  16  1   
 27  14  35  1   
 28  14  36  1   
 29  15  17  1   
 30  15  37  1   
 31  15  38  1   
 32  16  17  1   
 33  16  39  1   
 34  16  40  1   
 35  17  18  1   
 36  17  19  1   
 37  18  20  1   
 38  19  21  1   
 39  19  41  1   
 40  19  42  1   
 41  20  22  1   
 42  20  43  1   
 43  20  44  1   
 44  21  22  1   
 45  21  23  1   
 46  21  24  1   
 47  22  45  1   
 48  22  46  1   
 49  23  47  1   
 50  24  48  1   
 51  24  49  1   
 52  24  50  1   
@<TRIPOS>SUBSTRUCTURE
  1 ****  12 GROUP 4 **** **** 0

# MOE 2024.06 (io_trps.svl 2023.06)
