@<TRIPOS>MOLECULE
Untitled Document
26 26 1 0 0 
SMALL
USER_CHARGES


@<TRIPOS>ATOM
  1 O       -0.1560     0.6770     1.4480 O.3   1 <1>  -0.5320 
  2 C       -0.0780     1.8180     0.7510 C.ar  1 <1>   0.0830 
  3 C        1.1140     2.2140     0.1500 C.ar  1 <1>  -0.1430 
  4 C       -1.2180     2.6000     0.6420 C.ar  1 <1>  -0.1500 
  5 C        1.1240     3.4070    -0.5570 C.ar  1 <1>  -0.1500 
  6 C        2.3940     1.3750     0.2500 C.3   1 <1>   0.0640 
  7 C       -1.1940     3.7890    -0.0660 C.ar  1 <1>  -0.1430 
  8 C       -0.0100     4.2110    -0.6810 C.ar  1 <1>   0.3020 
  9 C        3.5050     2.1540     0.9620 C.3   1 <1>  -0.2400 
 10 C        2.8580     0.9170    -1.1370 C.3   1 <1>  -0.2400 
 11 C       -2.4690     4.6210    -0.1640 C.3   1 <1>  -0.0970 
 12 N        0.0050     5.4080    -1.3910 N.2   1 <1>  -0.1400 
 13 O        1.0000     5.7670    -1.9090 O.2   1 <1>  -0.1620 
 14 H       -1.0370     0.5030     1.8220 H     1 <1>   0.4500 
 15 H       -2.1270     2.2760     1.1130 H     1 <1>   0.1500 
 16 H        2.0340     3.7290    -1.0270 H     1 <1>   0.1500 
 17 H        2.2060     0.4880     0.8300 H     1 <1>   0.0800 
 18 H        3.7930     3.0220     0.3980 H     1 <1>   0.0800 
 19 H        4.3700     1.5290     1.0960 H     1 <1>   0.0800 
 20 H        3.1610     2.4720     1.9310 H     1 <1>   0.0800 
 21 H        3.1310     1.7560    -1.7510 H     1 <1>   0.0800 
 22 H        2.0660     0.3780    -1.6250 H     1 <1>   0.0800 
 23 H        3.7090     0.2660    -1.0480 H     1 <1>   0.0800 
 24 H       -3.2820     4.1540     0.3620 H     1 <1>   0.0800 
 25 H       -2.7540     4.7370    -1.1940 H     1 <1>   0.0800 
 26 H       -2.3050     5.5960     0.2610 H     1 <1>   0.0800 
@<TRIPOS>BOND
  1   1   2  1   
  2   1  14  1   
  3   2   3  ar  
  4   2   4  ar  
  5   3   5  ar  
  6   3   6  1   
  7   4   7  ar  
  8   4  15  1   
  9   5   8  ar  
 10   5  16  1   
 11   6   9  1   
 12   6  10  1   
 13   6  17  1   
 14   7   8  ar  
 15   7  11  1   
 16   8  12  1   
 17   9  18  1   
 18   9  19  1   
 19   9  20  1   
 20  10  21  1   
 21  10  22  1   
 22  10  23  1   
 23  11  24  1   
 24  11  25  1   
 25  11  26  1   
 26  12  13  2   
@<TRIPOS>SUBSTRUCTURE
  1 ****   5 GROUP 4 **** **** 0

# MOE 2024.06 (io_trps.svl 2023.06)
