@<TRIPOS>MOLECULE
NONAME
59 61 1 0 0 
SMALL
USER_CHARGES


@<TRIPOS>ATOM
  1 F       -1.7590    -1.6140    -1.2740 F     1 <1>  -0.1900 
  2 C       -2.8580    -1.0310    -0.8690 C.ar  1 <1>   0.1900 
  3 C       -3.1830    -0.9230     0.4880 C.ar  1 <1>   0.0830 
  4 C       -3.6930    -0.5400    -1.8550 C.ar  1 <1>  -0.1500 
  5 O       -2.4490    -1.3730     1.5450 O.3   1 <1>  -0.3630 
  6 C       -4.3780    -0.3050     0.8170 C.ar  1 <1>  -0.1500 
  7 C       -4.8830     0.0640    -1.4940 C.ar  1 <1>  -0.1500 
  8 C       -1.1250    -1.8400     1.4130 C.3   1 <1>   0.0400 
  9 C       -5.2510     0.1840    -0.1540 C.ar  1 <1>   0.0530 
 10 C       -6.5070     0.7670     0.2290 C.2   1 <1>   0.0870 
 11 O       -6.5510     1.8040     1.0250 O.3   1 <1>  -0.0190 
 12 C       -7.7910     0.4120    -0.0390 C.2   1 <1>  -0.0860 
 13 N       -7.7730     2.1670     1.3140 N.2   1 <1>  -0.4100 
 14 C       -8.5380     1.3440     0.6870 C.2   1 <1>   0.3720 
 15 C       -8.3050    -0.6800    -0.8010 C.2   1 <1>   0.7160 
 16 N       -9.9400     1.3860     0.7370 N.pl3 1 <1>  -0.8210 
 17 O       -7.6310    -1.2510    -1.6370 O.2   1 <1>  -0.5700 
 18 N       -9.5550    -1.1580    -0.5420 N.am  1 <1>  -0.7300 
 19 C      -10.4770     1.6760     2.1000 C.3   1 <1>   0.1290 
 20 C      -10.5030     2.3430    -0.2570 C.3   1 <1>   0.1290 
 21 C      -10.3300    -2.2730    -1.1790 C.3   1 <1>   0.1400 
 22 C       -9.5080    -3.4850    -1.6920 C.3   1 <1>   0.3430 
 23 N       -8.3060    -3.8120    -0.8600 N.4   1 <1>  -0.9590 
 24 C       -7.4780    -4.8820    -1.4580 C.3   1 <1>   0.3430 
 25 C       -8.5840    -4.0740     0.5760 C.3   1 <1>   0.3430 
 26 C       -6.0120    -4.4480    -1.5010 C.3   1 <1>  -0.1600 
 27 C       -7.3980    -3.6450     1.4450 C.3   1 <1>  -0.1600 
 28 C       -5.4730    -3.7290    -0.2500 C.3   1 <1>  -0.1600 
 29 C       -6.0290    -4.2530     1.0820 C.3   1 <1>  -0.1600 
 30 H       -3.4120    -0.6320    -2.8900 H     1 <1>   0.1500 
 31 H       -4.6390    -0.2080     1.8550 H     1 <1>   0.1500 
 32 H       -5.5410     0.4440    -2.2570 H     1 <1>   0.1500 
 33 H       -0.7350    -2.0240     2.3980 H     1 <1>   0.0800 
 34 H       -0.5340    -1.0870     0.9220 H     1 <1>   0.0800 
 35 H       -1.1300    -2.7550     0.8480 H     1 <1>   0.0800 
 36 H      -10.1110    -0.4980     0.0320 H     1 <1>   0.3700 
 37 H      -10.0040     1.0350     2.8250 H     1 <1>   0.0800 
 38 H      -11.5390     1.5030     2.1250 H     1 <1>   0.0800 
 39 H      -10.2800     2.7000     2.3690 H     1 <1>   0.0800 
 40 H      -10.1350     2.1120    -1.2420 H     1 <1>   0.0800 
 41 H      -10.2110     3.3500    -0.0070 H     1 <1>   0.0800 
 42 H      -11.5780     2.2800    -0.2660 H     1 <1>   0.0800 
 43 H      -10.8990    -1.8720    -2.0010 H     1 <1>   0.0800 
 44 H      -11.0410    -2.6360    -0.4570 H     1 <1>   0.0800 
 45 H       -9.1730    -3.2500    -2.6890 H     1 <1>   0.0800 
 46 H      -10.1530    -4.3450    -1.7630 H     1 <1>   0.0800 
 47 H       -7.7290    -2.9500    -0.9090 H     1 <1>   0.4500 
 48 H       -7.8070    -5.1000    -2.4610 H     1 <1>   0.0800 
 49 H       -7.5690    -5.7820    -0.8720 H     1 <1>   0.0800 
 50 H       -8.7880    -5.1220     0.7250 H     1 <1>   0.0800 
 51 H       -9.4490    -3.5160     0.8900 H     1 <1>   0.0800 
 52 H       -5.8610    -3.8100    -2.3550 H     1 <1>   0.0800 
 53 H       -5.4210    -5.3310    -1.6690 H     1 <1>   0.0800 
 54 H       -7.6260    -3.9240     2.4590 H     1 <1>   0.0800 
 55 H       -7.3260    -2.5710     1.4350 H     1 <1>   0.0800 
 56 H       -5.6700    -2.6740    -0.3270 H     1 <1>   0.0800 
 57 H       -4.4000    -3.8350    -0.2420 H     1 <1>   0.0800 
 58 H       -6.0720    -5.3290     1.0800 H     1 <1>   0.0800 
 59 H       -5.3350    -3.9690     1.8560 H     1 <1>   0.0800 
@<TRIPOS>BOND
  1   1   2  1   
  2   2   3  ar  
  3   2   4  ar  
  4   3   5  1   
  5   3   6  ar  
  6   4   7  ar  
  7   4  30  1   
  8   5   8  1   
  9   6   9  ar  
 10   6  31  1   
 11   7   9  ar  
 12   7  32  1   
 13   8  33  1   
 14   8  34  1   
 15   8  35  1   
 16   9  10  1   
 17  10  11  1   
 18  10  12  2   
 19  11  13  1   
 20  12  14  1   
 21  12  15  1   
 22  13  14  2   
 23  14  16  1   
 24  15  17  2   
 25  15  18  am  
 26  16  19  1   
 27  16  20  1   
 28  18  21  1   
 29  18  36  1   
 30  19  37  1   
 31  19  38  1   
 32  19  39  1   
 33  20  40  1   
 34  20  41  1   
 35  20  42  1   
 36  21  22  1   
 37  21  43  1   
 38  21  44  1   
 39  22  23  1   
 40  22  45  1   
 41  22  46  1   
 42  23  24  1   
 43  23  25  1   
 44  23  47  1   
 45  24  26  1   
 46  24  48  1   
 47  24  49  1   
 48  25  27  1   
 49  25  50  1   
 50  25  51  1   
 51  26  28  1   
 52  26  52  1   
 53  26  53  1   
 54  27  29  1   
 55  27  54  1   
 56  27  55  1   
 57  28  29  1   
 58  28  56  1   
 59  28  57  1   
 60  29  58  1   
 61  29  59  1   
@<TRIPOS>SUBSTRUCTURE
  1 ****  17 GROUP 4 **** **** 0

# MOE 2024.06 (io_trps.svl 2023.06)
