@<TRIPOS>MOLECULE
NONAME
41 42 1 0 0 
SMALL
USER_CHARGES


@<TRIPOS>ATOM
  1 O        0.5850    -1.4730    -1.9890 O.2   1 <1>  -0.5700 
  2 C        0.5430    -2.6730    -1.7920 C.2   1 <1>   0.7160 
  3 N        1.3630    -3.4190    -2.5800 N.am  1 <1>  -0.8000 
  4 C       -0.3210    -3.2970    -0.7840 C.2   1 <1>   0.4300 
  5 N       -1.1640    -2.6980    -0.0100 N.2   1 <1>  -0.4100 
  6 N       -0.3170    -4.6250    -0.5580 N.2   1 <1>  -0.5650 
  7 O       -1.7380    -3.5910     0.7280 O.3   1 <1>  -0.0190 
  8 C       -1.2010    -4.7220     0.3520 C.2   1 <1>   0.2980 
  9 C       -1.6520    -6.0050     1.0510 C.3   1 <1>   0.2900 
 10 N       -2.9160    -6.5950     0.5300 N.3   1 <1>  -0.8100 
 11 C       -3.1940    -7.8860     1.1750 C.3   1 <1>   0.1100 
 12 C       -4.0530    -5.6640     0.6460 C.3   1 <1>   0.0300 
 13 C       -4.0600    -8.7620     0.2670 C.3   1 <1>  -0.1600 
 14 C       -4.3250   -10.1240     0.9230 C.3   1 <1>   0.0960 
 15 N       -5.1600   -10.9800     0.0580 N.pl3 1 <1>   0.3140 
 16 N       -4.5990   -11.8850    -0.7640 N.2   1 <1>  -0.7070 
 17 C       -6.5110   -11.0060    -0.0320 C.2   1 <1>  -0.3320 
 18 C       -5.5950   -12.4580    -1.3600 C.2   1 <1>   0.1080 
 19 C       -6.8190   -11.9520    -0.9440 C.2   1 <1>  -0.1500 
 20 C       -7.4630   -10.1260     0.7600 C.3   1 <1>  -0.0600 
 21 C       -5.4020   -13.5500    -2.3850 C.3   1 <1>  -0.0590 
 22 H        1.9410    -2.9650    -3.2850 H     1 <1>   0.3700 
 23 H        1.3860    -4.4370    -2.5120 H     1 <1>   0.3700 
 24 H       -1.7520    -5.8080     2.1030 H     1 <1>   0.0800 
 25 H       -0.8630    -6.7260     0.9240 H     1 <1>   0.0800 
 26 H       -3.6760    -7.7280     2.1260 H     1 <1>   0.0800 
 27 H       -2.2670    -8.4080     1.3500 H     1 <1>   0.0800 
 28 H       -3.8810    -4.7900     0.0420 H     1 <1>   0.0800 
 29 H       -4.1960    -5.3630     1.6700 H     1 <1>   0.0800 
 30 H       -4.9580    -6.1220     0.2890 H     1 <1>   0.0800 
 31 H       -3.5450    -8.9170    -0.6650 H     1 <1>   0.0800 
 32 H       -5.0000    -8.2820     0.0700 H     1 <1>   0.0800 
 33 H       -4.8260   -10.0000     1.8640 H     1 <1>   0.0800 
 34 H       -3.3960   -10.6370     1.0950 H     1 <1>   0.0800 
 35 H       -7.7860   -12.2670    -1.2910 H     1 <1>   0.1500 
 36 H       -7.2840    -9.0890     0.5410 H     1 <1>   0.0800 
 37 H       -7.3360   -10.2930     1.8140 H     1 <1>   0.0800 
 38 H       -8.4810   -10.3570     0.4990 H     1 <1>   0.0800 
 39 H       -4.8690   -14.3680    -1.9380 H     1 <1>   0.0800 
 40 H       -4.8280   -13.1680    -3.2090 H     1 <1>   0.0800 
 41 H       -6.3510   -13.8990    -2.7460 H     1 <1>   0.0800 
@<TRIPOS>BOND
  1   1   2  2   
  2   2   3  am  
  3   2   4  1   
  4   3  22  1   
  5   3  23  1   
  6   4   5  2   
  7   4   6  1   
  8   5   7  1   
  9   6   8  2   
 10   7   8  1   
 11   8   9  1   
 12   9  10  1   
 13   9  24  1   
 14   9  25  1   
 15  10  11  1   
 16  10  12  1   
 17  11  13  1   
 18  11  26  1   
 19  11  27  1   
 20  12  28  1   
 21  12  29  1   
 22  12  30  1   
 23  13  14  1   
 24  13  31  1   
 25  13  32  1   
 26  14  15  1   
 27  14  33  1   
 28  14  34  1   
 29  15  16  1   
 30  15  17  1   
 31  16  18  2   
 32  17  19  2   
 33  17  20  1   
 34  18  19  1   
 35  18  21  1   
 36  19  35  1   
 37  20  36  1   
 38  20  37  1   
 39  20  38  1   
 40  21  39  1   
 41  21  40  1   
 42  21  41  1   
@<TRIPOS>SUBSTRUCTURE
  1 ****  10 GROUP 4 **** **** 0

# MOE 2024.06 (io_trps.svl 2023.06)
