@<TRIPOS>MOLECULE
NONAME
49 51 1 0 0 
SMALL
USER_CHARGES


@<TRIPOS>ATOM
  1 CL      -2.4430     0.0930    -2.3930 Cl    1 <1>  -0.1770 
  2 C       -2.7170    -1.0900    -1.1280 C.ar  1 <1>   0.1770 
  3 C       -2.7550    -0.7830     0.2400 C.ar  1 <1>   0.0820 
  4 C       -2.8970    -2.3880    -1.5660 C.ar  1 <1>  -0.1500 
  5 O       -2.5990     0.4290     0.8310 O.3   1 <1>  -0.3630 
  6 C       -2.9810    -1.8260     1.1250 C.ar  1 <1>  -0.1500 
  7 C       -3.1210    -3.4420    -0.6790 C.ar  1 <1>   0.0860 
  8 C       -2.3830     1.6390     0.1460 C.3   1 <1>   0.1200 
  9 C       -3.1610    -3.1220     0.6800 C.ar  1 <1>  -0.1500 
 10 C       -3.3060    -4.7970    -1.1680 C.2   1 <1>   0.5440 
 11 C       -2.2830     2.7600     1.1810 C.3   1 <1>  -0.1600 
 12 O       -3.5860    -5.0070    -2.3320 O.2   1 <1>  -0.5700 
 13 N       -3.1800    -5.8750    -0.3390 N.am  1 <1>  -0.7300 
 14 C       -2.0470     4.1180     0.5100 C.3   1 <1>  -0.2400 
 15 C       -3.3300    -7.2930    -0.7440 C.3   1 <1>   0.2200 
 16 C       -4.6710    -7.8570    -0.2910 C.3   1 <1>  -0.0800 
 17 C       -2.3790    -8.1390     0.0900 C.3   1 <1>   0.1200 
 18 C       -4.3990    -8.2740     1.1590 C.3   1 <1>   0.1200 
 19 C       -5.8860    -6.9290    -0.4690 C.3   1 <1>  -0.0170 
 20 O       -3.0100    -8.2710     1.3270 O.3   1 <1>  -0.5600 
 21 C       -7.1720    -7.6330    -0.0630 C.ar  1 <1>  -0.1430 
 22 C       -7.7600    -7.4360     1.1700 C.ar  1 <1>  -0.1500 
 23 C       -7.8160    -8.5100    -0.9120 C.ar  1 <1>  -0.1500 
 24 C       -8.9270    -8.1110     1.4870 C.ar  1 <1>   0.1600 
 25 C       -8.9800    -9.1340    -0.4970 C.ar  1 <1>   0.1600 
 26 N       -9.5500    -8.9580     0.6840 N.ar  1 <1>  -0.6200 
 27 H       -2.8640    -2.5890    -2.6220 H     1 <1>   0.1500 
 28 H       -3.0150    -1.6070     2.1790 H     1 <1>   0.1500 
 29 H       -1.4650     1.5580    -0.4090 H     1 <1>   0.0800 
 30 H       -3.2140     1.8110    -0.5150 H     1 <1>   0.0800 
 31 H       -3.3420    -3.8930     1.4070 H     1 <1>   0.1500 
 32 H       -3.1970     2.8000     1.7490 H     1 <1>   0.0800 
 33 H       -1.4690     2.5500     1.8530 H     1 <1>   0.0800 
 34 H       -2.9200    -5.7580     0.6420 H     1 <1>   0.3700 
 35 H       -2.8580     4.3560    -0.1550 H     1 <1>   0.0800 
 36 H       -1.1290     4.1060    -0.0510 H     1 <1>   0.0800 
 37 H       -1.9810     4.8900     1.2570 H     1 <1>   0.0800 
 38 H       -3.1630    -7.4110    -1.8020 H     1 <1>   0.0800 
 39 H       -4.8530    -8.7560    -0.8530 H     1 <1>   0.0800 
 40 H       -1.4130    -7.6820     0.2180 H     1 <1>   0.0800 
 41 H       -2.2690    -9.1230    -0.3330 H     1 <1>   0.0800 
 42 H       -4.7750    -9.2610     1.3670 H     1 <1>   0.0800 
 43 H       -4.8130    -7.5720     1.8620 H     1 <1>   0.0800 
 44 H       -5.9550    -6.6250    -1.5000 H     1 <1>   0.0800 
 45 H       -5.7700    -6.0370     0.1210 H     1 <1>   0.0800 
 46 H       -7.3240    -6.7650     1.8870 H     1 <1>   0.1500 
 47 H       -7.4240    -8.7120    -1.8920 H     1 <1>   0.1500 
 48 H       -9.3710    -7.9460     2.4540 H     1 <1>   0.1500 
 49 H       -9.4690    -9.8140    -1.1730 H     1 <1>   0.1500 
@<TRIPOS>BOND
  1   1   2  1   
  2   2   3  ar  
  3   2   4  ar  
  4   3   5  1   
  5   3   6  ar  
  6   4   7  ar  
  7   4  27  1   
  8   5   8  1   
  9   6   9  ar  
 10   6  28  1   
 11   7   9  ar  
 12   7  10  1   
 13   8  11  1   
 14   8  29  1   
 15   8  30  1   
 16   9  31  1   
 17  10  12  2   
 18  10  13  am  
 19  11  14  1   
 20  11  32  1   
 21  11  33  1   
 22  13  15  1   
 23  13  34  1   
 24  14  35  1   
 25  14  36  1   
 26  14  37  1   
 27  15  16  1   
 28  15  17  1   
 29  15  38  1   
 30  16  18  1   
 31  16  19  1   
 32  16  39  1   
 33  17  20  1   
 34  17  40  1   
 35  17  41  1   
 36  18  20  1   
 37  18  42  1   
 38  18  43  1   
 39  19  21  1   
 40  19  44  1   
 41  19  45  1   
 42  21  22  ar  
 43  21  23  ar  
 44  22  24  ar  
 45  22  46  1   
 46  23  25  ar  
 47  23  47  1   
 48  24  26  ar  
 49  24  48  1   
 50  25  26  ar  
 51  25  49  1   
@<TRIPOS>SUBSTRUCTURE
  1 ****  10 GROUP 4 **** **** 0

# MOE 2024.06 (io_trps.svl 2023.06)
