@<TRIPOS>MOLECULE
NONAME
40 42 1 0 0 
SMALL
USER_CHARGES


@<TRIPOS>ATOM
  1 O       -1.0820     0.5110    -0.9050 O.2   1 <1>  -0.5700 
  2 C       -1.7960     0.8840     0.0130 C.2   1 <1>   0.7150 
  3 N       -2.8750     0.1090     0.3600 N.am  1 <1>  -0.6600 
  4 C       -1.4800     2.1060     0.7280 C.2   1 <1>   0.0550 
  5 C       -4.0250     0.5650     1.1890 C.3   1 <1>   0.2350 
  6 C       -3.1940    -1.2000    -0.2780 C.3   1 <1>   0.2350 
  7 O       -0.8770     3.1220     0.1140 O.3   1 <1>  -0.2800 
  8 C       -1.6840     2.4650     2.0290 C.2   1 <1>  -0.1500 
  9 C       -5.2200    -0.2410     0.7190 C.3   1 <1>  -0.2420 
 10 C       -4.7040    -1.3440    -0.1740 C.3   1 <1>  -0.2420 
 11 C       -0.6980     4.1130     0.9640 C.2   1 <1>   0.1600 
 12 C       -1.1830     3.7560     2.1760 C.2   1 <1>  -0.1500 
 13 C       -6.3350    -0.1970     1.7700 C.2   1 <1>   0.9470 
 14 C       -5.6030    -0.2750    -0.7390 C.3   1 <1>  -0.2000 
 15 C       -5.1180    -2.8120    -0.2880 C.2   1 <1>   0.9470 
 16 C       -0.0730     5.3220     0.5340 C.1   1 <1>  -0.0200 
 17 O       -7.4770     0.1520     1.4430 O.co2 1 <1>  -0.9000 
 18 O       -6.0290    -0.3340     2.9640 O.co2 1 <1>  -0.9000 
 19 O       -5.8390    -3.1710    -1.2300 O.co2 1 <1>  -0.9000 
 20 O       -4.5950    -3.6410     0.4690 O.co2 1 <1>  -0.9000 
 21 C        0.4480     6.3320     0.1770 C.1   1 <1>  -0.2000 
 22 C        1.1020     7.5860    -0.2840 C.3   1 <1>   0.4800 
 23 O        1.0000     8.5040     0.7260 O.3   1 <1>  -0.6800 
 24 C        2.5870     7.3650    -0.5480 C.3   1 <1>  -0.2400 
 25 C        0.3850     8.1650    -1.4980 C.3   1 <1>  -0.2400 
 26 H       -3.8200     0.3470     2.2230 H     1 <1>   0.0800 
 27 H       -4.2140     1.6160     1.0640 H     1 <1>   0.0800 
 28 H       -2.8810    -1.2260    -1.3060 H     1 <1>   0.0800 
 29 H       -2.7060    -1.9890     0.2700 H     1 <1>   0.0800 
 30 H       -2.1360     1.8800     2.8100 H     1 <1>   0.1500 
 31 H       -1.1890     4.3390     3.0780 H     1 <1>   0.1500 
 32 H       -5.1980     0.4570    -1.4130 H     1 <1>   0.1000 
 33 H       -6.6120    -0.5560    -0.9910 H     1 <1>   0.1000 
 34 H        1.4200     9.3330     0.4440 H     1 <1>   0.4000 
 35 H        2.7100     6.6310    -1.3230 H     1 <1>   0.0800 
 36 H        3.0680     6.9980     0.3410 H     1 <1>   0.0800 
 37 H        3.0610     8.2760    -0.8640 H     1 <1>   0.0800 
 38 H        0.4240     7.4620    -2.3100 H     1 <1>   0.0800 
 39 H        0.8480     9.0810    -1.8170 H     1 <1>   0.0800 
 40 H       -0.6490     8.3470    -1.2630 H     1 <1>   0.0800 
@<TRIPOS>BOND
  1   1   2  2   
  2   2   3  am  
  3   2   4  1   
  4   3   5  1   
  5   3   6  1   
  6   4   7  1   
  7   4   8  2   
  8   5   9  1   
  9   5  26  1   
 10   5  27  1   
 11   6  10  1   
 12   6  28  1   
 13   6  29  1   
 14   7  11  1   
 15   8  12  1   
 16   8  30  1   
 17   9  10  1   
 18   9  13  1   
 19   9  14  1   
 20  10  14  1   
 21  10  15  1   
 22  11  12  2   
 23  11  16  1   
 24  12  31  1   
 25  13  17  ar  
 26  13  18  ar  
 27  14  32  1   
 28  14  33  1   
 29  15  19  ar  
 30  15  20  ar  
 31  16  21  3   
 32  21  22  1   
 33  22  23  1   
 34  22  24  1   
 35  22  25  1   
 36  23  34  1   
 37  24  35  1   
 38  24  36  1   
 39  24  37  1   
 40  25  38  1   
 41  25  39  1   
 42  25  40  1   
@<TRIPOS>SUBSTRUCTURE
  1 ****   4 GROUP 4 **** **** 0

# MOE 2024.06 (io_trps.svl 2023.06)
