@<TRIPOS>MOLECULE
NONAME
47 49 1 0 0 
SMALL
USER_CHARGES


@<TRIPOS>ATOM
  1 F       -2.9060    -0.4740     1.9560 F     1 <1>  -0.1900 
  2 C       -2.5870     0.3580     1.0020 C.ar  1 <1>   0.1900 
  3 C       -2.6470    -0.0760    -0.3220 C.ar  1 <1>   0.0860 
  4 C       -2.2250     1.6400     1.3640 C.ar  1 <1>  -0.1500 
  5 C       -3.0360    -1.4230    -0.6560 C.2   1 <1>   0.5440 
  6 C       -2.3250     0.8590    -1.3060 C.ar  1 <1>  -0.1500 
  7 C       -1.9120     2.5400     0.3600 C.ar  1 <1>   0.0830 
  8 O       -2.2570    -2.3440    -0.4950 O.2   1 <1>  -0.5700 
  9 N       -4.2970    -1.7190    -1.1330 N.am  1 <1>  -0.6600 
 10 C       -1.9630     2.1520    -0.9700 C.ar  1 <1>  -0.1500 
 11 O       -1.5590     3.7950     0.6580 O.3   1 <1>  -0.5330 
 12 C       -4.6350    -3.1190    -1.4950 C.3   1 <1>   0.1400 
 13 C       -5.4860    -0.9050    -0.7640 C.3   1 <1>   0.1400 
 14 C       -5.2340    -3.8010    -0.2470 C.3   1 <1>   0.4230 
 15 C       -6.1310    -1.5490     0.4720 C.3   1 <1>  -0.1600 
 16 N       -5.4120    -5.3060    -0.3880 N.4   1 <1>  -0.9590 
 17 C       -6.4990    -3.0520     0.2770 C.3   1 <1>   0.0000 
 18 C       -6.3450    -5.9070     0.6200 C.3   1 <1>   0.3430 
 19 C       -5.7570    -5.7910    -1.7640 C.3   1 <1>   0.2630 
 20 C       -6.9120    -3.6490     1.6550 C.3   1 <1>  -0.1600 
 21 C       -7.6640    -3.1920    -0.7450 C.3   1 <1>   0.1200 
 22 C       -6.3800    -5.0750     1.9010 C.3   1 <1>  -0.1600 
 23 O       -8.7370    -2.3810    -0.4150 O.3   1 <1>  -0.6800 
 24 H       -2.1940     1.9190     2.4000 H     1 <1>   0.1500 
 25 H       -2.3580     0.5640    -2.3410 H     1 <1>   0.1500 
 26 H       -1.7150     2.8690    -1.7340 H     1 <1>   0.1500 
 27 H       -1.5180     3.9870     1.6130 H     1 <1>   0.4500 
 28 H       -5.3260    -3.1080    -2.3180 H     1 <1>   0.0800 
 29 H       -3.7470    -3.6390    -1.8100 H     1 <1>   0.0800 
 30 H       -5.2050     0.1110    -0.5430 H     1 <1>   0.0800 
 31 H       -6.1820    -0.8790    -1.5870 H     1 <1>   0.0800 
 32 H       -4.4890    -3.6620     0.5200 H     1 <1>   0.0800 
 33 H       -5.4310    -1.4490     1.2840 H     1 <1>   0.0800 
 34 H       -6.9990    -0.9760     0.7490 H     1 <1>   0.0800 
 35 H       -4.4780    -5.6840    -0.1670 H     1 <1>   0.4500 
 36 H       -7.3430    -5.9490     0.2140 H     1 <1>   0.0800 
 37 H       -6.0370    -6.9160     0.8480 H     1 <1>   0.0800 
 38 H       -6.7060    -5.3900    -2.0800 H     1 <1>   0.0800 
 39 H       -5.8170    -6.8670    -1.7760 H     1 <1>   0.0800 
 40 H       -5.0010    -5.4890    -2.4720 H     1 <1>   0.0800 
 41 H       -6.5490    -3.0310     2.4600 H     1 <1>   0.0800 
 42 H       -7.9840    -3.6570     1.7500 H     1 <1>   0.0800 
 43 H       -8.0290    -4.2020    -0.7920 H     1 <1>   0.0800 
 44 H       -7.3580    -2.8950    -1.7320 H     1 <1>   0.0800 
 45 H       -7.0080    -5.5650     2.6260 H     1 <1>   0.0800 
 46 H       -5.3890    -5.0340     2.3210 H     1 <1>   0.0800 
 47 H       -9.1280    -2.6160     0.4500 H     1 <1>   0.4000 
@<TRIPOS>BOND
  1   1   2  1   
  2   2   3  ar  
  3   2   4  ar  
  4   3   5  1   
  5   3   6  ar  
  6   4   7  ar  
  7   4  24  1   
  8   5   8  2   
  9   5   9  am  
 10   6  10  ar  
 11   6  25  1   
 12   7  10  ar  
 13   7  11  1   
 14   9  12  1   
 15   9  13  1   
 16  10  26  1   
 17  11  27  1   
 18  12  14  1   
 19  12  28  1   
 20  12  29  1   
 21  13  15  1   
 22  13  30  1   
 23  13  31  1   
 24  14  16  1   
 25  14  17  1   
 26  14  32  1   
 27  15  17  1   
 28  15  33  1   
 29  15  34  1   
 30  16  18  1   
 31  16  19  1   
 32  16  35  1   
 33  17  20  1   
 34  17  21  1   
 35  18  22  1   
 36  18  36  1   
 37  18  37  1   
 38  19  38  1   
 39  19  39  1   
 40  19  40  1   
 41  20  22  1   
 42  20  41  1   
 43  20  42  1   
 44  21  23  1   
 45  21  43  1   
 46  21  44  1   
 47  22  45  1   
 48  22  46  1   
 49  23  47  1   
@<TRIPOS>SUBSTRUCTURE
  1 ****   9 GROUP 4 **** **** 0

# MOE 2024.06 (io_trps.svl 2023.06)
