@<TRIPOS>MOLECULE
NONAME
51 53 1 0 0 
SMALL
USER_CHARGES


@<TRIPOS>ATOM
  1 O       -2.2550     0.6180    -0.9800 O.co2 1 <1>  -0.9000 
  2 C       -1.2480     1.2710    -1.2920 C.2   1 <1>   0.9060 
  3 O       -0.7490     1.1520    -2.4180 O.co2 1 <1>  -0.9000 
  4 C       -0.5980     2.2310    -0.2770 C.3   1 <1>  -0.1060 
  5 C       -1.6220     2.8710     0.7140 C.3   1 <1>   0.2000 
  6 C        0.0320     3.3710    -1.1190 C.3   1 <1>   0.2090 
  7 C        0.4750     1.4980     0.5820 C.3   1 <1>  -0.1600 
  8 O       -2.5910     1.9780     1.1250 O.3   1 <1>  -0.6800 
  9 C       -2.3020     4.1160     0.1460 C.3   1 <1>  -0.1600 
 10 N        0.0880     4.6520    -0.3460 N.pl3 1 <1>  -0.8380 
 11 C        1.5300     0.6960    -0.2030 C.3   1 <1>  -0.1600 
 12 C       -1.2550     5.2260    -0.0370 C.3   1 <1>   0.2090 
 13 C        1.2360     5.4100    -0.2130 C.ar  1 <1>   0.4100 
 14 C        2.5550     0.0670     0.7450 C.3   1 <1>  -0.2400 
 15 N        1.1070     6.7090    -0.1950 N.ar  1 <1>  -0.6200 
 16 C        2.4890     4.7760    -0.0860 C.ar  1 <1>  -0.1500 
 17 C        2.2310     7.4530    -0.0810 C.ar  1 <1>   0.3100 
 18 C        3.6390     5.4920     0.0330 C.ar  1 <1>  -0.1430 
 19 C        3.5290     6.9000     0.0320 C.ar  1 <1>   0.0000 
 20 C        2.0940     8.8480    -0.0790 C.ar  1 <1>  -0.1500 
 21 C        4.9820     4.7900     0.1680 C.3   1 <1>  -0.0970 
 22 C        4.6270     7.7800     0.1410 C.ar  1 <1>  -0.1500 
 23 C        3.1710     9.6870     0.0280 C.ar  1 <1>   0.0820 
 24 C        4.4590     9.1390     0.1400 C.ar  1 <1>  -0.1500 
 25 O        2.9310    11.0210     0.0200 O.3   1 <1>  -0.3620 
 26 C        3.9740    11.9650     0.1170 C.3   1 <1>   0.0400 
 27 H       -1.1030     3.1760     1.6070 H     1 <1>   0.0800 
 28 H       -0.5850     3.5540    -1.9840 H     1 <1>   0.0800 
 29 H        0.9950     3.0950    -1.5020 H     1 <1>   0.0800 
 30 H        0.9740     2.2230     1.2020 H     1 <1>   0.0800 
 31 H       -0.0380     0.8130     1.2360 H     1 <1>   0.0800 
 32 H       -2.6850     1.3100     0.3730 H     1 <1>   0.4000 
 33 H       -2.7540     3.8810    -0.8010 H     1 <1>   0.0800 
 34 H       -3.0690     4.4610     0.8150 H     1 <1>   0.0800 
 35 H        1.0440    -0.0860    -0.7630 H     1 <1>   0.0800 
 36 H        2.0440     1.3250    -0.9060 H     1 <1>   0.0800 
 37 H       -1.1770     5.7940     0.8740 H     1 <1>   0.0800 
 38 H       -1.5520     5.8950    -0.8270 H     1 <1>   0.0800 
 39 H        2.0640    -0.5960     1.4350 H     1 <1>   0.0800 
 40 H        3.0710     0.8300     1.3000 H     1 <1>   0.0800 
 41 H        3.2750    -0.4980     0.1800 H     1 <1>   0.0800 
 42 H        2.5040     3.7050    -0.0740 H     1 <1>   0.1500 
 43 H        1.1040     9.2530    -0.1660 H     1 <1>   0.1500 
 44 H        4.8580     3.7220     0.1510 H     1 <1>   0.0800 
 45 H        5.4490     5.0630     1.0970 H     1 <1>   0.0800 
 46 H        5.6260     5.0680    -0.6470 H     1 <1>   0.0800 
 47 H        5.6170     7.3730     0.2270 H     1 <1>   0.1500 
 48 H        5.3190     9.7760     0.2240 H     1 <1>   0.1500 
 49 H        3.5370    12.9470     0.0860 H     1 <1>   0.0800 
 50 H        4.6410    11.8350    -0.7170 H     1 <1>   0.0800 
 51 H        4.4870    11.8230     1.0510 H     1 <1>   0.0800 
@<TRIPOS>BOND
  1   1   2  ar  
  2   2   3  ar  
  3   2   4  1   
  4   4   5  1   
  5   4   6  1   
  6   4   7  1   
  7   5   8  1   
  8   5   9  1   
  9   5  27  1   
 10   6  10  1   
 11   6  28  1   
 12   6  29  1   
 13   7  11  1   
 14   7  30  1   
 15   7  31  1   
 16   8  32  1   
 17   9  12  1   
 18   9  33  1   
 19   9  34  1   
 20  10  12  1   
 21  10  13  1   
 22  11  14  1   
 23  11  35  1   
 24  11  36  1   
 25  12  37  1   
 26  12  38  1   
 27  13  15  ar  
 28  13  16  ar  
 29  14  39  1   
 30  14  40  1   
 31  14  41  1   
 32  15  17  ar  
 33  16  18  ar  
 34  16  42  1   
 35  17  19  ar  
 36  17  20  ar  
 37  18  19  ar  
 38  18  21  1   
 39  19  22  ar  
 40  20  23  ar  
 41  20  43  1   
 42  21  44  1   
 43  21  45  1   
 44  21  46  1   
 45  22  24  ar  
 46  22  47  1   
 47  23  24  ar  
 48  23  25  1   
 49  24  48  1   
 50  25  26  1   
 51  26  49  1   
 52  26  50  1   
 53  26  51  1   
@<TRIPOS>SUBSTRUCTURE
  1 ****  13 GROUP 4 **** **** 0

# MOE 2024.06 (io_trps.svl 2023.06)
