@<TRIPOS>MOLECULE
NONAME
37 39 1 0 0 
SMALL
USER_CHARGES


@<TRIPOS>ATOM
  1 S       -0.4780     0.1430    -0.0060 S.3   1 <1>  -0.2860 
  2 C        1.2290     0.6640     0.2000 C.2   1 <1>   0.2420 
  3 C       -0.3770    -1.6900     0.2130 C.3   1 <1>   0.0700 
  4 N        2.2100    -0.1410     0.4160 N.2   1 <1>  -0.3380 
  5 N        1.5940     1.9430     0.1380 N.pl3 1 <1>   0.0480 
  6 C       -1.7520    -2.2900    -0.0690 C.3   1 <1>   0.2090 
  7 N        3.2990     0.6310     0.5060 N.2   1 <1>  -0.3380 
  8 C        2.9130     1.8530     0.3390 C.2   1 <1>   0.0360 
  9 C        0.7600     3.1360    -0.0910 C.3   1 <1>   0.0160 
 10 N       -1.7020    -3.7680     0.0780 N.pl3 1 <1>  -0.8690 
 11 C       -2.8400    -4.5390     0.0460 C.ar  1 <1>   0.4100 
 12 N       -4.0080    -3.9130     0.0570 N.ar  1 <1>  -0.6200 
 13 C       -2.7180    -5.9200     0.0010 C.ar  1 <1>  -0.1500 
 14 C       -5.0770    -4.6870     0.0230 C.ar  1 <1>   0.1600 
 15 C       -3.8320    -6.7400    -0.0380 C.ar  1 <1>   0.0530 
 16 C       -5.0480    -6.0660    -0.0250 C.ar  1 <1>  -0.1500 
 17 C       -3.7280    -8.1790    -0.0890 C.2   1 <1>   0.4250 
 18 O       -4.7920    -8.9360    -0.1030 O.3   1 <1>  -0.0190 
 19 N       -2.6620    -8.9010    -0.1270 N.2   1 <1>  -0.5650 
 20 N       -4.4570   -10.1710    -0.1500 N.2   1 <1>  -0.4100 
 21 C       -3.1810   -10.1310    -0.1630 C.2   1 <1>   0.3350 
 22 C       -2.2860   -11.3450    -0.2160 C.3   1 <1>  -0.0590 
 23 H       -0.0680    -1.8720     1.2270 H     1 <1>   0.0800 
 24 H        0.3610    -2.0490    -0.4800 H     1 <1>   0.0800 
 25 H       -2.0640    -2.0430    -1.0690 H     1 <1>   0.0800 
 26 H       -2.4680    -1.8850     0.6260 H     1 <1>   0.0800 
 27 H        3.5640     2.7070     0.3580 H     1 <1>   0.1500 
 28 H        0.0190     3.2050     0.6850 H     1 <1>   0.0800 
 29 H        0.2720     3.0500    -1.0450 H     1 <1>   0.0800 
 30 H        1.3750     4.0170    -0.0800 H     1 <1>   0.0800 
 31 H       -0.8640    -4.2040    -0.3110 H     1 <1>   0.4000 
 32 H       -1.7370    -6.3550     0.0010 H     1 <1>   0.1500 
 33 H       -6.0320    -4.1890     0.0340 H     1 <1>   0.1500 
 34 H       -5.9730    -6.6140    -0.0500 H     1 <1>   0.1500 
 35 H       -1.6750   -11.3040    -1.0980 H     1 <1>   0.0800 
 36 H       -2.8790   -12.2410    -0.2380 H     1 <1>   0.0800 
 37 H       -1.6530   -11.3630     0.6520 H     1 <1>   0.0800 
@<TRIPOS>BOND
  1   1   2  1   
  2   1   3  1   
  3   2   4  2   
  4   2   5  1   
  5   3   6  1   
  6   3  23  1   
  7   3  24  1   
  8   4   7  1   
  9   5   8  1   
 10   5   9  1   
 11   6  10  1   
 12   6  25  1   
 13   6  26  1   
 14   7   8  2   
 15   8  27  1   
 16   9  28  1   
 17   9  29  1   
 18   9  30  1   
 19  10  11  1   
 20  10  31  1   
 21  11  12  ar  
 22  11  13  ar  
 23  12  14  ar  
 24  13  15  ar  
 25  13  32  1   
 26  14  16  ar  
 27  14  33  1   
 28  15  16  ar  
 29  15  17  1   
 30  16  34  1   
 31  17  18  1   
 32  17  19  2   
 33  18  20  1   
 34  19  21  1   
 35  20  21  2   
 36  21  22  1   
 37  22  35  1   
 38  22  36  1   
 39  22  37  1   
@<TRIPOS>SUBSTRUCTURE
  1 ****  10 GROUP 4 **** **** 0

# MOE 2024.06 (io_trps.svl 2023.06)
