@<TRIPOS>MOLECULE
NONAME
52 55 1 0 0 
SMALL
USER_CHARGES


@<TRIPOS>ATOM
  1 S       -0.0020     3.1850    -1.2000 S.3   1 <1>  -0.0800 
  2 C        0.9970     2.6710     0.1520 C.2   1 <1>  -0.0450 
  3 C       -0.9610     4.2220    -0.1600 C.2   1 <1>  -0.1100 
  4 C        0.5880     3.2710     1.2870 C.2   1 <1>  -0.1500 
  5 C        2.1200     1.6820    -0.1460 C.3   1 <1>   0.0850 
  6 C       -0.5250     4.1540     1.1110 C.2   1 <1>  -0.1500 
  7 C        3.1280     2.2720    -1.1510 C.2   1 <1>   0.6300 
  8 C        1.8360     0.2010    -0.0730 C.3   1 <1>  -0.1900 
  9 C        2.6550     0.8430     0.9970 C.3   1 <1>  -0.2000 
 10 O        3.0890     1.8950    -2.3020 O.2   1 <1>  -0.5700 
 11 N        4.0380     3.2260    -0.7580 N.am  1 <1>  -0.6600 
 12 C        2.5440    -0.7930    -1.0050 C.3   1 <1>  -0.1450 
 13 C        0.4250    -0.2900     0.2840 C.3   1 <1>  -0.1450 
 14 C        4.0350     3.9340     0.5570 C.3   1 <1>   0.1400 
 15 C        4.9270     3.9090    -1.7440 C.3   1 <1>   0.1400 
 16 C        3.5750     5.3950     0.3840 C.3   1 <1>   0.2090 
 17 C        4.4660     5.3600    -1.9640 C.3   1 <1>   0.2090 
 18 N        4.3580     6.1130    -0.6740 N.pl3 1 <1>  -0.8380 
 19 C        5.4630     6.8640    -0.2920 C.ar  1 <1>   0.4100 
 20 N        6.2730     6.2810     0.5840 N.ar  1 <1>  -0.6200 
 21 C        5.7180     8.1510    -0.8220 C.ar  1 <1>   0.1670 
 22 C        7.3250     7.0170     0.8860 C.ar  1 <1>   0.1670 
 23 N        6.7770     8.8790    -0.5230 N.ar  1 <1>  -0.6200 
 24 C        4.7540     8.7980    -1.8030 C.3   1 <1>  -0.0970 
 25 C        7.5690     8.2740     0.3470 C.ar  1 <1>   0.1600 
 26 C        8.2900     6.4050     1.8810 C.3   1 <1>  -0.0970 
 27 H       -1.7600     4.7780    -0.6180 H     1 <1>   0.1500 
 28 H        1.0240     3.1290     2.2600 H     1 <1>   0.1500 
 29 H       -0.9430     4.6910     1.9450 H     1 <1>   0.1500 
 30 H        2.2260     0.9470     1.9770 H     1 <1>   0.1000 
 31 H        3.7130     0.6490     1.0310 H     1 <1>   0.1000 
 32 H        3.5660    -0.5060    -1.1790 H     1 <1>   0.0800 
 33 H        2.0400    -0.8250    -1.9550 H     1 <1>   0.0800 
 34 H        2.5420    -1.7790    -0.5770 H     1 <1>   0.0800 
 35 H       -0.0390     0.3440     1.0180 H     1 <1>   0.0800 
 36 H        0.4670    -1.2880     0.6840 H     1 <1>   0.0800 
 37 H       -0.1920    -0.2970    -0.5970 H     1 <1>   0.0800 
 38 H        5.0330     3.9280     0.9600 H     1 <1>   0.0800 
 39 H        3.3990     3.4430     1.2670 H     1 <1>   0.0800 
 40 H        4.9270     3.3870    -2.6840 H     1 <1>   0.0800 
 41 H        5.9350     3.9130    -1.3680 H     1 <1>   0.0800 
 42 H        3.6810     5.9130     1.3210 H     1 <1>   0.0800 
 43 H        2.5330     5.4070     0.1170 H     1 <1>   0.0800 
 44 H        3.5050     5.3540    -2.4500 H     1 <1>   0.0800 
 45 H        5.1640     5.8550    -2.6160 H     1 <1>   0.0800 
 46 H        3.7530     8.4380    -1.6560 H     1 <1>   0.0800 
 47 H        5.0650     8.5790    -2.8070 H     1 <1>   0.0800 
 48 H        4.7520     9.8630    -1.6660 H     1 <1>   0.0800 
 49 H        8.4540     8.8080     0.6440 H     1 <1>   0.1500 
 50 H        7.7780     6.2150     2.8060 H     1 <1>   0.0800 
 51 H        9.1210     7.0600     2.0710 H     1 <1>   0.0800 
 52 H        8.6620     5.4740     1.4940 H     1 <1>   0.0800 
@<TRIPOS>BOND
  1   1   2  1   
  2   1   3  1   
  3   2   4  2   
  4   2   5  1   
  5   3   6  2   
  6   3  27  1   
  7   4   6  1   
  8   4  28  1   
  9   5   7  1   
 10   5   8  1   
 11   5   9  1   
 12   6  29  1   
 13   7  10  2   
 14   7  11  am  
 15   8   9  1   
 16   8  12  1   
 17   8  13  1   
 18   9  30  1   
 19   9  31  1   
 20  11  14  1   
 21  11  15  1   
 22  12  32  1   
 23  12  33  1   
 24  12  34  1   
 25  13  35  1   
 26  13  36  1   
 27  13  37  1   
 28  14  16  1   
 29  14  38  1   
 30  14  39  1   
 31  15  17  1   
 32  15  40  1   
 33  15  41  1   
 34  16  18  1   
 35  16  42  1   
 36  16  43  1   
 37  17  18  1   
 38  17  44  1   
 39  17  45  1   
 40  18  19  1   
 41  19  20  ar  
 42  19  21  ar  
 43  20  22  ar  
 44  21  23  ar  
 45  21  24  1   
 46  22  25  ar  
 47  22  26  1   
 48  23  25  ar  
 49  24  46  1   
 50  24  47  1   
 51  24  48  1   
 52  25  49  1   
 53  26  50  1   
 54  26  51  1   
 55  26  52  1   
@<TRIPOS>SUBSTRUCTURE
  1 ****  14 GROUP 4 **** **** 0

# MOE 2024.06 (io_trps.svl 2023.06)
