@<TRIPOS>MOLECULE
NONAME
38 39 1 0 0 
SMALL
USER_CHARGES


@<TRIPOS>ATOM
  1 O       -0.6020     0.3590    -0.5070 O.2   1 <1>  -0.5700 
  2 C       -1.6410     0.9820    -0.3220 C.2   1 <1>   0.6160 
  3 N       -2.8710     0.3520    -0.3890 N.am  1 <1>  -0.4690 
  4 C       -1.6060     2.3710    -0.0410 C.2   1 <1>  -0.1360 
  5 C       -4.0260     1.0790    -0.1810 C.2   1 <1>  -0.0410 
  6 C       -2.9600    -1.1030    -0.6700 C.3   1 <1>   0.1400 
  7 C       -2.7400     3.1150     0.1530 C.2   1 <1>   0.0140 
  8 C       -3.9790     2.4100     0.0810 C.2   1 <1>  -0.1500 
  9 C       -2.9770    -1.8810     0.6440 C.3   1 <1>  -0.2400 
 10 C       -2.7340     4.5410     0.4240 C.2   1 <1>   0.6160 
 11 O       -3.6730     5.0580     0.9990 O.2   1 <1>  -0.5700 
 12 N       -1.6740     5.3090     0.0200 N.am  1 <1>  -0.4930 
 13 C       -1.4430     6.6960     0.2050 C.2   1 <1>   0.0630 
 14 C       -2.2020     7.6470     0.8890 C.2   1 <1>   0.1390 
 15 C       -0.3880     7.3890    -0.2710 C.2   1 <1>  -0.3020 
 16 N       -1.6680     8.8320     0.8450 N.2   1 <1>  -0.7070 
 17 N       -0.5390     8.6750     0.1230 N.pl3 1 <1>   0.3140 
 18 C        0.3970     9.7960    -0.1840 C.3   1 <1>   0.1760 
 19 C        0.9710    10.3920     1.1090 C.3   1 <1>  -0.2400 
 20 C       -0.3070    10.8770    -1.0170 C.3   1 <1>  -0.2400 
 21 H       -0.6230     2.7950     0.0180 H     1 <1>   0.1500 
 22 H       -4.9640     0.5490    -0.2320 H     1 <1>   0.1500 
 23 H       -2.1200    -1.4130    -1.2700 H     1 <1>   0.0800 
 24 H       -3.8570    -1.3050    -1.2300 H     1 <1>   0.0800 
 25 H       -4.8860     2.9690     0.2440 H     1 <1>   0.1500 
 26 H       -2.0680    -1.7000     1.1910 H     1 <1>   0.0800 
 27 H       -3.0470    -2.9340     0.4410 H     1 <1>   0.0800 
 28 H       -3.8200    -1.5900     1.2440 H     1 <1>   0.0800 
 29 H       -0.9650     4.8380    -0.5360 H     1 <1>   0.3700 
 30 H       -3.1270     7.4330     1.3980 H     1 <1>   0.1500 
 31 H        0.4460     7.0520    -0.8560 H     1 <1>   0.1500 
 32 H        1.2070     9.3930    -0.7630 H     1 <1>   0.0800 
 33 H        0.1820    10.8110     1.7090 H     1 <1>   0.0800 
 34 H        1.6770    11.1700     0.8790 H     1 <1>   0.0800 
 35 H        1.4750     9.6300     1.6770 H     1 <1>   0.0800 
 36 H       -1.1220    11.3050    -0.4590 H     1 <1>   0.0800 
 37 H       -0.6920    10.4510    -1.9260 H     1 <1>   0.0800 
 38 H        0.3830    11.6600    -1.2710 H     1 <1>   0.0800 
@<TRIPOS>BOND
  1   1   2  2   
  2   2   3  am  
  3   2   4  1   
  4   3   5  1   
  5   3   6  1   
  6   4   7  2   
  7   4  21  1   
  8   5   8  2   
  9   5  22  1   
 10   6   9  1   
 11   6  23  1   
 12   6  24  1   
 13   7   8  1   
 14   7  10  1   
 15   8  25  1   
 16   9  26  1   
 17   9  27  1   
 18   9  28  1   
 19  10  11  2   
 20  10  12  am  
 21  12  13  1   
 22  12  29  1   
 23  13  14  1   
 24  13  15  2   
 25  14  16  2   
 26  14  30  1   
 27  15  17  1   
 28  15  31  1   
 29  16  17  1   
 30  17  18  1   
 31  18  19  1   
 32  18  20  1   
 33  18  32  1   
 34  19  33  1   
 35  19  34  1   
 36  19  35  1   
 37  20  36  1   
 38  20  37  1   
 39  20  38  1   
@<TRIPOS>SUBSTRUCTURE
  1 ****  12 GROUP 4 **** **** 0

# MOE 2024.06 (io_trps.svl 2023.06)
