@<TRIPOS>MOLECULE
NONAME
49 51 1 0 0 
SMALL
USER_CHARGES


@<TRIPOS>ATOM
  1 CL       0.3840    -0.6050    -0.3140 Cl    1 <1>  -0.1770 
  2 C       -1.2060    -1.2070    -0.7080 C.ar  1 <1>   0.1770 
  3 C       -1.5170    -2.5270    -0.4380 C.ar  1 <1>  -0.1500 
  4 C       -2.1290    -0.3540    -1.2830 C.ar  1 <1>  -0.1500 
  5 C       -2.7800    -3.0090    -0.7480 C.ar  1 <1>  -0.1440 
  6 C       -3.3900    -0.8350    -1.5930 C.ar  1 <1>  -0.1500 
  7 C       -3.7110    -2.1570    -1.3260 C.ar  1 <1>  -0.1500 
  8 C       -3.1390    -4.4560    -0.4510 C.3   1 <1>  -0.0160 
  9 C       -3.6120    -4.6000     1.0000 C.3   1 <1>  -0.0990 
 10 C       -4.1120    -6.0070     1.2770 C.2   1 <1>   0.5690 
 11 O       -3.2910    -6.7950     1.6820 O.2   1 <1>  -0.5700 
 12 N       -5.4250    -6.3660     1.0750 N.am  1 <1>  -0.6600 
 13 C       -6.4440    -5.4590     0.4620 C.3   1 <1>   0.2200 
 14 C       -5.8760    -7.7310     1.4950 C.3   1 <1>   0.0600 
 15 C       -7.3690    -6.1230    -0.5570 C.3   1 <1>  -0.1600 
 16 C       -7.3900    -4.8660     1.4990 C.3   1 <1>  -0.1600 
 17 C       -8.5660    -5.1680    -0.6550 C.3   1 <1>  -0.0800 
 18 C       -8.6020    -4.3950     0.6850 C.3   1 <1>  -0.0800 
 19 C       -9.8770    -5.8870    -1.0310 C.3   1 <1>   0.1400 
 20 C       -9.9330    -4.5380     1.4450 C.3   1 <1>  -0.0990 
 21 N      -11.0440    -5.0310    -0.7020 N.am  1 <1>  -0.6600 
 22 C      -11.1020    -4.3710     0.4950 C.2   1 <1>   0.5690 
 23 C      -12.1470    -4.9840    -1.6980 C.3   1 <1>   0.0600 
 24 O      -12.0300    -3.6740     0.8260 O.2   1 <1>  -0.5700 
 25 H       -0.7750    -3.1620     0.0110 H     1 <1>   0.1500 
 26 H       -1.8620     0.6680    -1.4830 H     1 <1>   0.1500 
 27 H       -4.1190    -0.1830    -2.0420 H     1 <1>   0.1500 
 28 H       -4.6940    -2.5180    -1.5730 H     1 <1>   0.1500 
 29 H       -3.9080    -4.7850    -1.1270 H     1 <1>   0.0800 
 30 H       -2.2800    -5.0870    -0.6110 H     1 <1>   0.0800 
 31 H       -4.3720    -3.8790     1.2290 H     1 <1>   0.0800 
 32 H       -2.7840    -4.4010     1.6560 H     1 <1>   0.0800 
 33 H       -5.9600    -4.6450    -0.0470 H     1 <1>   0.0800 
 34 H       -6.8590    -7.6910     1.9250 H     1 <1>   0.0800 
 35 H       -5.2070    -8.1430     2.2320 H     1 <1>   0.0800 
 36 H       -5.8850    -8.3870     0.6420 H     1 <1>   0.0800 
 37 H       -6.8810    -6.2490    -1.5080 H     1 <1>   0.0800 
 38 H       -7.7120    -7.0760    -0.2000 H     1 <1>   0.0800 
 39 H       -7.6870    -5.6240     2.2000 H     1 <1>   0.0800 
 40 H       -6.9310    -4.0510     2.0300 H     1 <1>   0.0800 
 41 H       -8.3570    -4.4540    -1.4340 H     1 <1>   0.0800 
 42 H       -8.4720    -3.3500     0.4530 H     1 <1>   0.0800 
 43 H       -9.9700    -6.8060    -0.4790 H     1 <1>   0.0800 
 44 H       -9.8730    -6.1230    -2.0820 H     1 <1>   0.0800 
 45 H       -9.9950    -3.8010     2.2250 H     1 <1>   0.0800 
 46 H      -10.0120    -5.5110     1.8920 H     1 <1>   0.0800 
 47 H      -11.7830    -4.5800    -2.6260 H     1 <1>   0.0800 
 48 H      -12.9500    -4.3600    -1.3430 H     1 <1>   0.0800 
 49 H      -12.5310    -5.9750    -1.8650 H     1 <1>   0.0800 
@<TRIPOS>BOND
  1   1   2  1   
  2   2   3  ar  
  3   2   4  ar  
  4   3   5  ar  
  5   3  25  1   
  6   4   6  ar  
  7   4  26  1   
  8   5   7  ar  
  9   5   8  1   
 10   6   7  ar  
 11   6  27  1   
 12   7  28  1   
 13   8   9  1   
 14   8  29  1   
 15   8  30  1   
 16   9  10  1   
 17   9  31  1   
 18   9  32  1   
 19  10  11  2   
 20  10  12  am  
 21  12  13  1   
 22  12  14  1   
 23  13  15  1   
 24  13  16  1   
 25  13  33  1   
 26  14  34  1   
 27  14  35  1   
 28  14  36  1   
 29  15  17  1   
 30  15  37  1   
 31  15  38  1   
 32  16  18  1   
 33  16  39  1   
 34  16  40  1   
 35  17  18  1   
 36  17  19  1   
 37  17  41  1   
 38  18  20  1   
 39  18  42  1   
 40  19  21  1   
 41  19  43  1   
 42  19  44  1   
 43  20  22  1   
 44  20  45  1   
 45  20  46  1   
 46  21  22  am  
 47  21  23  1   
 48  22  24  2   
 49  23  47  1   
 50  23  48  1   
 51  23  49  1   
@<TRIPOS>SUBSTRUCTURE
  1 ****  13 GROUP 4 **** **** 0

# MOE 2024.06 (io_trps.svl 2023.06)
