@<TRIPOS>MOLECULE
NONAME
48 50 1 0 0 
SMALL
USER_CHARGES


@<TRIPOS>ATOM
  1 CL      -2.2520    -0.2030     1.4610 Cl    1 <1>  -0.1770 
  2 C       -1.7430    -1.7710     0.9030 C.ar  1 <1>   0.1770 
  3 C       -1.4510    -1.9560    -0.4350 C.ar  1 <1>  -0.1500 
  4 C       -1.6450    -2.8150     1.8030 C.ar  1 <1>  -0.1500 
  5 C       -1.0870    -3.2150    -0.8780 C.ar  1 <1>  -0.1500 
  6 C       -1.2790    -4.0690     1.3460 C.ar  1 <1>  -0.1500 
  7 C       -1.0240    -4.3050    -0.0060 C.ar  1 <1>   0.0860 
  8 C       -0.6710    -5.6270    -0.4910 C.2   1 <1>   0.5440 
  9 O        0.4390    -5.7830    -0.9620 O.2   1 <1>  -0.5700 
 10 N       -1.5270    -6.7170    -0.4400 N.am  1 <1>  -0.6600 
 11 C       -3.0120    -6.7040    -0.6170 C.3   1 <1>   0.2200 
 12 C       -0.9460    -8.0910    -0.4820 C.3   1 <1>   0.0600 
 13 C       -3.5220    -5.7250    -1.6780 C.3   1 <1>  -0.1600 
 14 C       -3.7560    -6.4060     0.6840 C.3   1 <1>  -0.1600 
 15 C       -4.8590    -5.1770    -1.1600 C.3   1 <1>  -0.0800 
 16 C       -5.0160    -5.6210     0.2970 C.3   1 <1>  -0.0800 
 17 C       -4.9600    -3.6440    -1.1390 C.3   1 <1>  -0.1600 
 18 C       -5.2430    -4.3330     1.1070 C.3   1 <1>  -0.1600 
 19 C       -5.7770    -3.3020     0.1090 C.3   1 <1>   0.4230 
 20 N       -7.2420    -3.5070    -0.1350 N.4   1 <1>  -0.9590 
 21 C       -7.7780    -2.6220    -1.2180 C.3   1 <1>   0.2630 
 22 C       -8.0660    -3.2940     1.0990 C.3   1 <1>   0.2630 
 23 H       -1.5040    -1.1240    -1.1150 H     1 <1>   0.1500 
 24 H       -1.8470    -2.6420     2.8460 H     1 <1>   0.1500 
 25 H       -0.8410    -3.3710    -1.9150 H     1 <1>   0.1500 
 26 H       -1.1780    -4.8850     2.0420 H     1 <1>   0.1500 
 27 H       -3.3260    -7.6840    -0.9380 H     1 <1>   0.0800 
 28 H       -1.4860    -8.7410     0.1830 H     1 <1>   0.0800 
 29 H        0.0860    -8.0740    -0.1740 H     1 <1>   0.0800 
 30 H       -1.0000    -8.4770    -1.4850 H     1 <1>   0.0800 
 31 H       -2.8270    -4.9350    -1.8670 H     1 <1>   0.0800 
 32 H       -3.6710    -6.2500    -2.6050 H     1 <1>   0.0800 
 33 H       -4.0220    -7.3260     1.1730 H     1 <1>   0.0800 
 34 H       -3.1390    -5.8460     1.3530 H     1 <1>   0.0800 
 35 H       -5.6660    -5.5910    -1.7420 H     1 <1>   0.0800 
 36 H       -5.8770    -6.2650     0.3750 H     1 <1>   0.0800 
 37 H       -5.3430    -3.2440    -2.0590 H     1 <1>   0.0800 
 38 H       -3.9810    -3.2250    -0.9940 H     1 <1>   0.0800 
 39 H       -4.2980    -3.9610     1.4610 H     1 <1>   0.0800 
 40 H       -5.8610    -4.4950     1.9690 H     1 <1>   0.0800 
 41 H       -5.5860    -2.2940     0.4420 H     1 <1>   0.0800 
 42 H       -7.3470    -4.4880    -0.4320 H     1 <1>   0.4500 
 43 H       -7.5950    -1.5860    -0.9810 H     1 <1>   0.0800 
 44 H       -8.8400    -2.7670    -1.3280 H     1 <1>   0.0800 
 45 H       -7.3110    -2.8480    -2.1630 H     1 <1>   0.0800 
 46 H       -7.9090    -2.3010     1.4880 H     1 <1>   0.0800 
 47 H       -7.8070    -4.0100     1.8620 H     1 <1>   0.0800 
 48 H       -9.1130    -3.4130     0.8730 H     1 <1>   0.0800 
@<TRIPOS>BOND
  1   1   2  1   
  2   2   3  ar  
  3   2   4  ar  
  4   3   5  ar  
  5   3  23  1   
  6   4   6  ar  
  7   4  24  1   
  8   5   7  ar  
  9   5  25  1   
 10   6   7  ar  
 11   6  26  1   
 12   7   8  1   
 13   8   9  2   
 14   8  10  am  
 15  10  11  1   
 16  10  12  1   
 17  11  13  1   
 18  11  14  1   
 19  11  27  1   
 20  12  28  1   
 21  12  29  1   
 22  12  30  1   
 23  13  15  1   
 24  13  31  1   
 25  13  32  1   
 26  14  16  1   
 27  14  33  1   
 28  14  34  1   
 29  15  16  1   
 30  15  17  1   
 31  15  35  1   
 32  16  18  1   
 33  16  36  1   
 34  17  19  1   
 35  17  37  1   
 36  17  38  1   
 37  18  19  1   
 38  18  39  1   
 39  18  40  1   
 40  19  20  1   
 41  19  41  1   
 42  20  21  1   
 43  20  22  1   
 44  20  42  1   
 45  21  43  1   
 46  21  44  1   
 47  21  45  1   
 48  22  46  1   
 49  22  47  1   
 50  22  48  1   
@<TRIPOS>SUBSTRUCTURE
  1 ****  17 GROUP 4 **** **** 0

# MOE 2024.06 (io_trps.svl 2023.06)
