@<TRIPOS>MOLECULE
NONAME
50 53 1 0 0 
SMALL
USER_CHARGES


@<TRIPOS>ATOM
  1 O        1.0290     2.8690     0.6890 O.2   1 <1>  -0.5700 
  2 C       -0.1700     2.6160     0.7550 C.2   1 <1>   0.5440 
  3 N       -0.9860     3.2790     1.6700 N.am  1 <1>  -0.2980 
  4 C       -0.7930     1.6650    -0.1290 C.ar  1 <1>   0.0860 
  5 N       -2.3560     3.1870     1.6820 N.2   1 <1>  -0.5120 
  6 C       -0.3860     4.1770     2.7020 C.3   1 <1>   0.2010 
  7 C       -2.1890     1.5470    -0.0760 C.ar  1 <1>   0.0860 
  8 C       -0.0810     0.8650    -1.0280 C.ar  1 <1>  -0.1500 
  9 C       -2.8990     2.3660     0.8550 C.2   1 <1>   0.3040 
 10 C        0.1330     5.4620     2.0810 C.2   1 <1>   0.5690 
 11 C       -2.8300     0.6410    -0.9280 C.ar  1 <1>  -0.1500 
 12 C       -0.7280    -0.0230    -1.8590 C.ar  1 <1>  -0.1500 
 13 O        1.1920     5.9070     2.4640 O.2   1 <1>  -0.5700 
 14 N       -0.5890     6.0310     1.0640 N.am  1 <1>  -0.4940 
 15 C       -2.1110    -0.1350    -1.8090 C.ar  1 <1>  -0.1500 
 16 C       -0.1670     6.9440     0.0670 C.2   1 <1>  -0.0880 
 17 N        1.0280     6.9270    -0.5890 N.pl3 1 <1>   0.3140 
 18 C       -0.8690     7.9750    -0.4550 C.2   1 <1>  -0.1500 
 19 N        1.1000     7.9180    -1.5100 N.2   1 <1>  -0.7070 
 20 C        2.1220     5.9380    -0.4280 C.3   1 <1>   0.1760 
 21 C       -0.0360     8.5370    -1.4140 C.2   1 <1>   0.1390 
 22 C        3.3710     6.5930     0.1680 C.3   1 <1>  -0.1600 
 23 C        2.4630     5.2250    -1.7400 C.3   1 <1>  -0.1600 
 24 C        4.4270     5.5250     0.4150 C.3   1 <1>   0.3430 
 25 C        3.5340     4.1750    -1.4680 C.3   1 <1>   0.3430 
 26 N        4.7410     4.8230    -0.8670 N.4   1 <1>  -0.9590 
 27 C        5.8280     3.8210    -0.6620 C.3   1 <1>   0.2630 
 28 H        0.4260     3.6650     3.1850 H     1 <1>   0.0800 
 29 H       -1.1240     4.4180     3.4450 H     1 <1>   0.0800 
 30 H        0.9920     0.9450    -1.0650 H     1 <1>   0.1500 
 31 H       -3.9710     2.2750     0.8520 H     1 <1>   0.0600 
 32 H       -3.9020     0.5480    -0.8910 H     1 <1>   0.1500 
 33 H       -0.1690    -0.6350    -2.5480 H     1 <1>   0.1500 
 34 H       -1.5340     5.6490     0.9520 H     1 <1>   0.3700 
 35 H       -2.6130    -0.8320    -2.4600 H     1 <1>   0.1500 
 36 H       -1.8570     8.3110    -0.2000 H     1 <1>   0.1500 
 37 H        1.7850     5.1800     0.2450 H     1 <1>   0.0800 
 38 H       -0.2960     9.3910    -2.0180 H     1 <1>   0.1500 
 39 H        3.1200     7.0580     1.1060 H     1 <1>   0.0800 
 40 H        3.7530     7.3530    -0.4910 H     1 <1>   0.0800 
 41 H        2.8070     5.9280    -2.4780 H     1 <1>   0.0800 
 42 H        1.5820     4.7380    -2.1190 H     1 <1>   0.0800 
 43 H        4.0550     4.8180     1.1400 H     1 <1>   0.0800 
 44 H        5.3160     5.9860     0.8150 H     1 <1>   0.0800 
 45 H        3.7980     3.6830    -2.3910 H     1 <1>   0.0800 
 46 H        3.1410     3.4340    -0.7870 H     1 <1>   0.0800 
 47 H        5.0680     5.5390    -1.5330 H     1 <1>   0.4500 
 48 H        5.5090     3.0610     0.0330 H     1 <1>   0.0800 
 49 H        6.7090     4.3010    -0.2680 H     1 <1>   0.0800 
 50 H        6.0830     3.3490    -1.5970 H     1 <1>   0.0800 
@<TRIPOS>BOND
  1   1   2  2   
  2   2   3  am  
  3   2   4  1   
  4   3   5  1   
  5   3   6  1   
  6   4   7  ar  
  7   4   8  ar  
  8   5   9  2   
  9   6  10  1   
 10   6  28  1   
 11   6  29  1   
 12   7   9  1   
 13   7  11  ar  
 14   8  12  ar  
 15   8  30  1   
 16   9  31  1   
 17  10  13  2   
 18  10  14  am  
 19  11  15  ar  
 20  11  32  1   
 21  12  15  ar  
 22  12  33  1   
 23  14  16  1   
 24  14  34  1   
 25  15  35  1   
 26  16  17  1   
 27  16  18  2   
 28  17  19  1   
 29  17  20  1   
 30  18  21  1   
 31  18  36  1   
 32  19  21  2   
 33  20  22  1   
 34  20  23  1   
 35  20  37  1   
 36  21  38  1   
 37  22  24  1   
 38  22  39  1   
 39  22  40  1   
 40  23  25  1   
 41  23  41  1   
 42  23  42  1   
 43  24  26  1   
 44  24  43  1   
 45  24  44  1   
 46  25  26  1   
 47  25  45  1   
 48  25  46  1   
 49  26  27  1   
 50  26  47  1   
 51  27  48  1   
 52  27  49  1   
 53  27  50  1   
@<TRIPOS>SUBSTRUCTURE
  1 ****   1 GROUP 4 **** **** 0

# MOE 2024.06 (io_trps.svl 2023.06)
