@<TRIPOS>MOLECULE
NONAME
47 51 1 0 0 
SMALL
USER_CHARGES


@<TRIPOS>ATOM
  1 S        1.0480    -3.0060    -2.0880 S.3   1 <1>  -0.0800 
  2 C        0.2770    -2.0080    -0.8580 C.2   1 <1>   0.3250 
  3 C       -0.2410    -4.1500    -1.9870 C.2   1 <1>  -0.1100 
  4 N       -0.8420    -2.5280    -0.4630 N.2   1 <1>  -0.5650 
  5 C        0.9490    -0.7800    -0.4420 C.ar  1 <1>   0.6730 
  6 C       -1.1580    -3.7450    -1.0840 C.2   1 <1>   0.1410 
  7 N        0.3310     0.0010     0.4610 N.ar  1 <1>  -0.6200 
  8 N        2.1460    -0.4960    -0.9800 N.ar  1 <1>  -0.6200 
  9 C       -2.3520    -4.5250    -0.7510 C.2   1 <1>   0.7160 
 10 C        0.9500     1.0940     0.8370 C.ar  1 <1>   0.1600 
 11 C        2.7410     0.6040    -0.5870 C.ar  1 <1>   0.1600 
 12 O       -2.2780    -5.7400    -0.8330 O.2   1 <1>  -0.5700 
 13 N       -3.5710    -3.9850    -0.3750 N.am  1 <1>  -0.6600 
 14 C        2.1760     1.4470     0.3350 C.ar  1 <1>  -0.1500 
 15 C       -3.9720    -2.5570    -0.5740 C.3   1 <1>   0.1400 
 16 C       -4.6670    -4.8840     0.1050 C.3   1 <1>   0.1400 
 17 C       -4.5080    -1.9230     0.7330 C.3   1 <1>   0.1430 
 18 C       -5.8360    -4.1060     0.7340 C.3   1 <1>  -0.1600 
 19 C       -5.3140    -0.6960     0.3360 C.ar  1 <1>   0.1670 
 20 C       -5.3240    -2.9320     1.5820 C.3   1 <1>  -0.1600 
 21 C       -3.3710    -1.2890     1.5740 C.3   1 <1>  -0.1600 
 22 N       -6.5320    -0.7030    -0.1560 N.ar  1 <1>  -0.6200 
 23 C       -4.6040     0.4520     0.5390 C.ar  1 <1>  -0.1430 
 24 C       -3.2330     0.1660     1.1000 C.3   1 <1>  -0.0170 
 25 C       -7.0080     0.5010    -0.4330 C.ar  1 <1>   0.7200 
 26 C       -5.2070     1.6440     0.2180 C.ar  1 <1>   0.1600 
 27 N       -6.4270     1.6820    -0.2690 N.ar  1 <1>  -0.6200 
 28 N       -8.2500     0.5320    -0.9200 N.pl3 1 <1>  -0.9000 
 29 H       -0.1970    -5.0300    -2.6020 H     1 <1>   0.1500 
 30 H        0.4660     1.7240     1.5650 H     1 <1>   0.1500 
 31 H        3.7030     0.8390    -1.0130 H     1 <1>   0.1500 
 32 H        2.6740     2.3450     0.6510 H     1 <1>   0.1500 
 33 H       -4.7600    -2.5420    -1.3080 H     1 <1>   0.0800 
 34 H       -3.1730    -1.9650    -0.9760 H     1 <1>   0.0800 
 35 H       -4.2550    -5.5530     0.8430 H     1 <1>   0.0800 
 36 H       -5.0250    -5.4810    -0.7170 H     1 <1>   0.0800 
 37 H       -6.4170    -4.7750     1.3440 H     1 <1>   0.0800 
 38 H       -6.4830    -3.7370    -0.0430 H     1 <1>   0.0800 
 39 H       -6.1490    -2.4310     2.0580 H     1 <1>   0.0800 
 40 H       -4.6980    -3.3400     2.3560 H     1 <1>   0.0800 
 41 H       -2.4470    -1.8330     1.4990 H     1 <1>   0.0800 
 42 H       -3.6630    -1.2670     2.6090 H     1 <1>   0.0800 
 43 H       -2.4960     0.2410     0.3180 H     1 <1>   0.0800 
 44 H       -2.9770     0.8260     1.9100 H     1 <1>   0.0800 
 45 H       -4.6850     2.5740     0.3630 H     1 <1>   0.1500 
 46 H       -8.7210     1.4280    -0.8330 H     1 <1>   0.4000 
 47 H       -8.8010    -0.3010    -0.7400 H     1 <1>   0.4000 
@<TRIPOS>BOND
  1   1   2  1   
  2   1   3  1   
  3   2   4  2   
  4   2   5  1   
  5   3   6  2   
  6   3  29  1   
  7   4   6  1   
  8   5   7  ar  
  9   5   8  ar  
 10   6   9  1   
 11   7  10  ar  
 12   8  11  ar  
 13   9  12  2   
 14   9  13  am  
 15  10  14  ar  
 16  10  30  1   
 17  11  14  ar  
 18  11  31  1   
 19  13  15  1   
 20  13  16  1   
 21  14  32  1   
 22  15  17  1   
 23  15  33  1   
 24  15  34  1   
 25  16  18  1   
 26  16  35  1   
 27  16  36  1   
 28  17  19  1   
 29  17  20  1   
 30  17  21  1   
 31  18  20  1   
 32  18  37  1   
 33  18  38  1   
 34  19  22  ar  
 35  19  23  ar  
 36  20  39  1   
 37  20  40  1   
 38  21  24  1   
 39  21  41  1   
 40  21  42  1   
 41  22  25  ar  
 42  23  24  1   
 43  23  26  ar  
 44  24  43  1   
 45  24  44  1   
 46  25  27  ar  
 47  25  28  1   
 48  26  27  ar  
 49  26  45  1   
 50  28  46  1   
 51  28  47  1   
@<TRIPOS>SUBSTRUCTURE
  1 ****  15 GROUP 4 **** **** 0

# MOE 2024.06 (io_trps.svl 2023.06)
