@<TRIPOS>MOLECULE
NONAME
30 30 1 0 0 
SMALL
USER_CHARGES


@<TRIPOS>ATOM
  1 O        0.1670     0.0530    -0.1490 O.2   1 <1>  -0.5700 
  2 C        0.7440    -1.0100    -0.2610 C.2   1 <1>   0.7800 
  3 O        2.0710    -1.0990    -0.2740 O.3   1 <1>  -0.4300 
  4 N        0.0920    -2.1880    -0.3650 N.am  1 <1>  -0.6550 
  5 C        2.9960    -0.0380    -0.1590 C.3   1 <1>   0.2800 
  6 C       -1.3730    -2.4210    -0.4700 C.3   1 <1>   0.2250 
  7 C        2.8380     0.6590     1.1970 C.3   1 <1>  -0.2400 
  8 C        4.3730    -0.6990    -0.2290 C.3   1 <1>  -0.2400 
  9 C        2.8400     0.9320    -1.3370 C.3   1 <1>  -0.2400 
 10 C       -2.3450    -1.5370     0.3870 C.3   1 <1>   0.2580 
 11 C       -1.8300    -3.6320     0.3890 C.3   1 <1>   0.0000 
 12 O       -1.7610    -0.9980     1.5260 O.3   1 <1>  -0.6580 
 13 C       -3.1260    -2.8390     0.7050 C.3   1 <1>   0.0000 
 14 H        0.6770    -3.0180    -0.4320 H     1 <1>   0.3700 
 15 H       -1.6930    -2.5180    -1.4930 H     1 <1>   0.0000 
 16 H        3.6330     1.3680     1.3390 H     1 <1>   0.0800 
 17 H        2.8780    -0.0600     1.9950 H     1 <1>   0.0800 
 18 H        1.9110     1.1980     1.2530 H     1 <1>   0.0800 
 19 H        5.1480     0.0420    -0.1490 H     1 <1>   0.0800 
 20 H        4.4930    -1.2150    -1.1650 H     1 <1>   0.0800 
 21 H        4.4910    -1.4010     0.5760 H     1 <1>   0.0800 
 22 H        3.6320     1.6580    -1.3200 H     1 <1>   0.0800 
 23 H        1.9100     1.4660    -1.2810 H     1 <1>   0.0800 
 24 H        2.8870     0.3990    -2.2690 H     1 <1>   0.0800 
 25 H       -2.9000    -0.7960    -0.1580 H     1 <1>   0.0000 
 26 H       -2.0110    -4.5270    -0.1810 H     1 <1>   0.0000 
 27 H       -1.2250    -3.7890     1.2660 H     1 <1>   0.0000 
 28 H       -1.0670    -0.3670     1.2240 H     1 <1>   0.4000 
 29 H       -3.4600    -2.9230     1.7250 H     1 <1>   0.0000 
 30 H       -3.9030    -3.0330    -0.0140 H     1 <1>   0.0000 
@<TRIPOS>BOND
  1   1   2  2   
  2   2   3  1   
  3   2   4  am  
  4   3   5  1   
  5   4   6  1   
  6   4  14  1   
  7   5   7  1   
  8   5   8  1   
  9   5   9  1   
 10   6  10  1   
 11   6  11  1   
 12   6  15  1   
 13   7  16  1   
 14   7  17  1   
 15   7  18  1   
 16   8  19  1   
 17   8  20  1   
 18   8  21  1   
 19   9  22  1   
 20   9  23  1   
 21   9  24  1   
 22  10  12  1   
 23  10  13  1   
 24  10  25  1   
 25  11  13  1   
 26  11  26  1   
 27  11  27  1   
 28  12  28  1   
 29  13  29  1   
 30  13  30  1   
@<TRIPOS>SUBSTRUCTURE
  1 ****   2 GROUP 4 **** **** 0

# MOE 2024.06 (io_trps.svl 2023.06)
