@<TRIPOS>MOLECULE
NONAME
59 63 1 0 0 
SMALL
USER_CHARGES


@<TRIPOS>ATOM
  1 O       -0.5820     0.4210    -1.3500 O.co2 1 <1>  -0.9000 
  2 C       -1.0490     0.9410    -0.3310 C.2   1 <1>   0.9060 
  3 O       -1.7790     0.3160     0.4490 O.co2 1 <1>  -0.9000 
  4 C       -0.7630     2.4080    -0.0320 C.3   1 <1>  -0.1060 
  5 C       -2.1360     3.0930     0.1440 C.3   1 <1>   0.2000 
  6 C       -0.0950     3.0310    -1.2700 C.3   1 <1>   0.2090 
  7 C        0.1160     2.5160     1.2550 C.3   1 <1>  -0.0170 
  8 O       -2.7280     2.6640     1.3130 O.3   1 <1>  -0.6800 
  9 C       -2.0740     4.6230     0.1840 C.3   1 <1>  -0.1600 
 10 N        0.0330     4.5240    -1.1080 N.pl3 1 <1>  -0.8380 
 11 C        1.6300     2.3800     1.0820 C.ar  1 <1>  -0.1430 
 12 C       -1.3190     5.1590    -1.0300 C.3   1 <1>   0.2090 
 13 C        1.2280     5.1440    -1.0100 C.ar  1 <1>   0.4610 
 14 C        2.4710     3.3570     1.5980 C.ar  1 <1>  -0.1500 
 15 C        2.1910     1.2850     0.4410 C.ar  1 <1>  -0.1500 
 16 N        1.2830     6.3360    -0.4220 N.ar  1 <1>  -0.1790 
 17 C        2.4600     4.6120    -1.4740 C.ar  1 <1>  -0.1500 
 18 C        3.8440     3.2540     1.4560 C.ar  1 <1>  -0.1500 
 19 C        3.5630     1.1820     0.2930 C.ar  1 <1>  -0.1500 
 20 C        2.4370     7.0680    -0.2190 C.ar  1 <1>   0.3610 
 21 C        3.6430     5.2700    -1.3200 C.ar  1 <1>  -0.1430 
 22 C        4.3920     2.1670     0.8000 C.ar  1 <1>  -0.1500 
 23 C        3.6640     6.5420    -0.6710 C.ar  1 <1>   0.0000 
 24 C        2.3890     8.3070     0.4300 C.ar  1 <1>  -0.1500 
 25 C        4.9350     4.6440    -1.8290 C.3   1 <1>  -0.0970 
 26 C        4.8290     7.2980    -0.4530 C.ar  1 <1>  -0.1500 
 27 C        3.5480     9.0130     0.6260 C.ar  1 <1>  -0.1430 
 28 C        4.7550     8.5090     0.1870 C.ar  1 <1>  -0.1430 
 29 C        3.7320    10.3560     1.2930 C.3   1 <1>  -0.0170 
 30 C        5.8860     9.4570     0.5080 C.3   1 <1>  -0.0170 
 31 C        5.1640    10.7550     0.9020 C.3   1 <1>  -0.1600 
 32 H       -2.7820     2.7870    -0.6630 H     1 <1>   0.0800 
 33 H       -0.6950     2.8240    -2.1420 H     1 <1>   0.0800 
 34 H        0.8490     2.5510    -1.4340 H     1 <1>   0.0800 
 35 H       -0.0750     3.4580     1.7280 H     1 <1>   0.0800 
 36 H       -0.2040     1.7660     1.9600 H     1 <1>   0.0800 
 37 H       -2.6390     1.6670     1.3060 H     1 <1>   0.4000 
 38 H       -3.0770     5.0090     0.1740 H     1 <1>   0.0800 
 39 H       -1.5970     4.9580     1.0850 H     1 <1>   0.0800 
 40 H       -1.2540     6.2310    -0.9850 H     1 <1>   0.0800 
 41 H       -1.8690     4.9100    -1.9240 H     1 <1>   0.0800 
 42 H        2.0600     4.2000     2.1210 H     1 <1>   0.1500 
 43 H        1.5630     0.5000     0.0510 H     1 <1>   0.1500 
 44 H        0.4120     6.6770    -0.0400 H     1 <1>   0.4570 
 45 H        2.4460     3.6580    -1.9640 H     1 <1>   0.1500 
 46 H        4.4870     4.0160     1.8610 H     1 <1>   0.1500 
 47 H        3.9780     0.3280    -0.2120 H     1 <1>   0.1500 
 48 H        5.4580     2.0810     0.6890 H     1 <1>   0.1500 
 49 H        1.4560     8.7120     0.7770 H     1 <1>   0.1500 
 50 H        4.7490     3.6810    -2.2730 H     1 <1>   0.0800 
 51 H        5.6240     4.5050    -1.0160 H     1 <1>   0.0800 
 52 H        5.3890     5.2750    -2.5720 H     1 <1>   0.0800 
 53 H        5.7860     6.9340    -0.7840 H     1 <1>   0.1500 
 54 H        3.0140    11.0800     0.9470 H     1 <1>   0.0800 
 55 H        3.6520    10.2440     2.3600 H     1 <1>   0.0800 
 56 H        6.4520     9.0730     1.3380 H     1 <1>   0.0800 
 57 H        6.5350     9.6060    -0.3380 H     1 <1>   0.0800 
 58 H        5.1210    11.4010     0.0420 H     1 <1>   0.0800 
 59 H        5.6700    11.2690     1.7000 H     1 <1>   0.0800 
@<TRIPOS>BOND
  1   1   2  ar  
  2   2   3  ar  
  3   2   4  1   
  4   4   5  1   
  5   4   6  1   
  6   4   7  1   
  7   5   8  1   
  8   5   9  1   
  9   5  32  1   
 10   6  10  1   
 11   6  33  1   
 12   6  34  1   
 13   7  11  1   
 14   7  35  1   
 15   7  36  1   
 16   8  37  1   
 17   9  12  1   
 18   9  38  1   
 19   9  39  1   
 20  10  12  1   
 21  10  13  1   
 22  11  14  ar  
 23  11  15  ar  
 24  12  40  1   
 25  12  41  1   
 26  13  16  ar  
 27  13  17  ar  
 28  14  18  ar  
 29  14  42  1   
 30  15  19  ar  
 31  15  43  1   
 32  16  20  ar  
 33  16  44  1   
 34  17  21  ar  
 35  17  45  1   
 36  18  22  ar  
 37  18  46  1   
 38  19  22  ar  
 39  19  47  1   
 40  20  23  ar  
 41  20  24  ar  
 42  21  23  ar  
 43  21  25  1   
 44  22  48  1   
 45  23  26  ar  
 46  24  27  ar  
 47  24  49  1   
 48  25  50  1   
 49  25  51  1   
 50  25  52  1   
 51  26  28  ar  
 52  26  53  1   
 53  27  28  ar  
 54  27  29  1   
 55  28  30  1   
 56  29  31  1   
 57  29  54  1   
 58  29  55  1   
 59  30  31  1   
 60  30  56  1   
 61  30  57  1   
 62  31  58  1   
 63  31  59  1   
@<TRIPOS>SUBSTRUCTURE
  1 ****  13 GROUP 4 **** **** 0

# MOE 2024.06 (io_trps.svl 2023.06)
