@<TRIPOS>MOLECULE
NONAME
55 58 1 0 0 
SMALL
USER_CHARGES


@<TRIPOS>ATOM
  1 O       -1.2490     0.4510    -1.7730 O.2   1 <1>  -0.5700 
  2 C       -1.5480     0.7580    -0.6400 C.2   1 <1>   0.5690 
  3 N       -2.1330    -0.1530     0.1900 N.am  1 <1>  -0.7300 
  4 C       -1.2570     2.2280    -0.1740 C.3   1 <1>   0.5640 
  5 C       -2.3960    -1.5770    -0.1310 C.3   1 <1>   0.2200 
  6 N       -0.3050     2.9370    -1.1210 N.4   1 <1>  -0.9590 
  7 C       -2.5870     3.0110    -0.1270 C.3   1 <1>  -0.1600 
  8 C       -0.7110     2.2990     1.2770 C.3   1 <1>  -0.1600 
  9 C       -3.8960    -1.8320    -0.0790 C.3   1 <1>  -0.0800 
 10 C       -1.9100    -2.4270     1.0350 C.3   1 <1>   0.1200 
 11 C        1.0330     2.3020    -1.2390 C.3   1 <1>   0.3430 
 12 C       -0.0680     4.3910    -0.9320 C.3   1 <1>   0.3430 
 13 C       -2.5670     3.8600     1.1450 C.3   1 <1>  -0.1600 
 14 C       -1.7570     3.0270     2.1290 C.3   1 <1>  -0.1600 
 15 C       -4.1420    -2.1240     1.4120 C.3   1 <1>   0.1200 
 16 C       -4.2960    -3.0190    -0.9790 C.3   1 <1>  -0.0170 
 17 O       -2.8870    -2.2610     2.0120 O.3   1 <1>  -0.5600 
 18 C        1.8730     3.3350    -1.9760 C.3   1 <1>  -0.1600 
 19 C        1.1870     4.6840    -1.7430 C.3   1 <1>  -0.1600 
 20 C       -5.7890    -3.3050    -0.9080 C.ar  1 <1>  -0.1430 
 21 C       -6.2970    -4.3800    -0.2050 C.ar  1 <1>  -0.1500 
 22 C       -6.7150    -2.5060    -1.5480 C.ar  1 <1>  -0.1500 
 23 C       -7.6650    -4.5930    -0.1710 C.ar  1 <1>   0.1600 
 24 C       -8.0640    -2.8070    -1.4510 C.ar  1 <1>   0.1600 
 25 N       -8.5610    -3.8300    -0.7760 N.ar  1 <1>  -0.6200 
 26 H       -2.3920     0.0740     1.1560 H     1 <1>   0.3700 
 27 H       -1.9410    -1.8560    -1.0670 H     1 <1>   0.0800 
 28 H       -0.7290     2.8020    -2.0490 H     1 <1>   0.4500 
 29 H       -2.7670     3.5980    -1.0100 H     1 <1>   0.0800 
 30 H       -3.4040     2.3160    -0.0320 H     1 <1>   0.0800 
 31 H       -0.5220     1.3220     1.6870 H     1 <1>   0.0800 
 32 H        0.2090     2.8500     1.3290 H     1 <1>   0.0800 
 33 H       -4.4500    -0.9660    -0.3930 H     1 <1>   0.0800 
 34 H       -0.9550    -2.1130     1.4170 H     1 <1>   0.0800 
 35 H       -1.8740    -3.4700     0.7710 H     1 <1>   0.0800 
 36 H        1.4520     2.1280    -0.2620 H     1 <1>   0.0800 
 37 H        0.9850     1.3690    -1.7800 H     1 <1>   0.0800 
 38 H       -0.9070     4.9790    -1.2710 H     1 <1>   0.0800 
 39 H        0.1180     4.6020     0.1080 H     1 <1>   0.0800 
 40 H       -2.0750     4.8010     0.9680 H     1 <1>   0.0800 
 41 H       -3.5610     4.0570     1.5140 H     1 <1>   0.0800 
 42 H       -2.4040     2.3070     2.6020 H     1 <1>   0.0800 
 43 H       -1.3060     3.6360     2.8960 H     1 <1>   0.0800 
 44 H       -4.6940    -3.0340     1.5730 H     1 <1>   0.0800 
 45 H       -4.6530    -1.3090     1.8930 H     1 <1>   0.0800 
 46 H       -3.7500    -3.9020    -0.6960 H     1 <1>   0.0800 
 47 H       -4.0390    -2.7950    -2.0000 H     1 <1>   0.0800 
 48 H        2.8850     3.3290    -1.6090 H     1 <1>   0.0800 
 49 H        1.8910     3.1000    -3.0270 H     1 <1>   0.0800 
 50 H        0.9190     5.1370    -2.6830 H     1 <1>   0.0800 
 51 H        1.8240     5.3670    -1.2080 H     1 <1>   0.0800 
 52 H       -5.6450    -5.0570     0.3170 H     1 <1>   0.1500 
 53 H       -6.4040    -1.6530    -2.1220 H     1 <1>   0.1500 
 54 H       -8.0420    -5.4350     0.3830 H     1 <1>   0.1500 
 55 H       -8.7720    -2.1730    -1.9580 H     1 <1>   0.1500 
@<TRIPOS>BOND
  1   1   2  2   
  2   2   3  am  
  3   2   4  1   
  4   3   5  1   
  5   3  26  1   
  6   4   6  1   
  7   4   7  1   
  8   4   8  1   
  9   5   9  1   
 10   5  10  1   
 11   5  27  1   
 12   6  11  1   
 13   6  12  1   
 14   6  28  1   
 15   7  13  1   
 16   7  29  1   
 17   7  30  1   
 18   8  14  1   
 19   8  31  1   
 20   8  32  1   
 21   9  15  1   
 22   9  16  1   
 23   9  33  1   
 24  10  17  1   
 25  10  34  1   
 26  10  35  1   
 27  11  18  1   
 28  11  36  1   
 29  11  37  1   
 30  12  19  1   
 31  12  38  1   
 32  12  39  1   
 33  13  14  1   
 34  13  40  1   
 35  13  41  1   
 36  14  42  1   
 37  14  43  1   
 38  15  17  1   
 39  15  44  1   
 40  15  45  1   
 41  16  20  1   
 42  16  46  1   
 43  16  47  1   
 44  18  19  1   
 45  18  48  1   
 46  18  49  1   
 47  19  50  1   
 48  19  51  1   
 49  20  21  ar  
 50  20  22  ar  
 51  21  23  ar  
 52  21  52  1   
 53  22  24  ar  
 54  22  53  1   
 55  23  25  ar  
 56  23  54  1   
 57  24  25  ar  
 58  24  55  1   
@<TRIPOS>SUBSTRUCTURE
  1 ****   3 GROUP 4 **** **** 0

# MOE 2024.06 (io_trps.svl 2023.06)
