@<TRIPOS>MOLECULE
NONAME
56 58 1 0 0 
SMALL
USER_CHARGES


@<TRIPOS>ATOM
  1 F       -0.5720     0.0630    -0.1240 F     1 <1>  -0.1900 
  2 C       -1.8520     0.3320    -0.0800 C.ar  1 <1>   0.1900 
  3 C       -2.4460     0.9400     1.0310 C.ar  1 <1>   0.0830 
  4 C       -2.5910    -0.0180    -1.1950 C.ar  1 <1>  -0.1500 
  5 O       -1.8280     1.3300     2.1830 O.3   1 <1>  -0.3630 
  6 C       -3.8090     1.1820     0.9790 C.ar  1 <1>  -0.1500 
  7 C       -3.9500     0.2380    -1.2130 C.ar  1 <1>  -0.1500 
  8 C       -0.4450     1.1680     2.4070 C.3   1 <1>   0.0400 
  9 C       -4.5890     0.8370    -0.1260 C.ar  1 <1>   0.0530 
 10 C       -6.0040     1.1080    -0.1340 C.2   1 <1>   0.0870 
 11 O       -6.4450     2.2420     0.3470 O.3   1 <1>  -0.0190 
 12 C       -7.0910     0.4050    -0.5560 C.2   1 <1>  -0.0860 
 13 N       -7.7440     2.3590     0.2740 N.2   1 <1>  -0.4100 
 14 C       -8.1590     1.2680    -0.2660 C.2   1 <1>   0.3720 
 15 C       -7.1960    -0.9050    -1.1250 C.2   1 <1>   0.7160 
 16 N       -9.5190     0.9980    -0.5000 N.pl3 1 <1>  -0.8210 
 17 O       -6.2700    -1.6930    -1.0960 O.2   1 <1>  -0.5700 
 18 N       -8.3680    -1.3120    -1.6700 N.am  1 <1>  -0.7300 
 19 C      -10.1890     0.2940     0.6310 C.3   1 <1>   0.1290 
 20 C      -10.3140     2.1740    -0.9550 C.3   1 <1>   0.1290 
 21 C       -8.7960    -2.7000    -1.8450 C.3   1 <1>   0.3200 
 22 C       -9.7900    -2.9810    -0.7400 C.2   1 <1>  -0.3320 
 23 N       -9.4740    -3.3440     0.5230 N.pl3 1 <1>   0.0480 
 24 C      -11.1380    -2.9060    -0.7920 C.2   1 <1>   0.0770 
 25 C      -10.6670    -3.4510     1.1510 C.2   1 <1>   0.0360 
 26 C       -8.1430    -3.5680     1.1360 C.3   1 <1>   0.0960 
 27 N      -11.6870    -3.1920     0.4010 N.2   1 <1>  -0.5650 
 28 C       -7.5580    -4.9470     0.7780 C.3   1 <1>  -0.0800 
 29 C       -8.4120    -6.0990     1.3280 C.3   1 <1>  -0.2400 
 30 C       -6.1280    -5.0580     1.3190 C.3   1 <1>  -0.2400 
 31 H       -2.1080    -0.4840    -2.0340 H     1 <1>   0.1500 
 32 H       -4.2770     1.6510     1.8260 H     1 <1>   0.1500 
 33 H       -4.5240    -0.0330    -2.0810 H     1 <1>   0.1500 
 34 H       -0.2160     1.5580     3.3820 H     1 <1>   0.0800 
 35 H        0.0980     1.7180     1.6590 H     1 <1>   0.0800 
 36 H       -0.2030     0.1210     2.3680 H     1 <1>   0.0800 
 37 H       -9.1430    -0.6470    -1.5280 H     1 <1>   0.3700 
 38 H       -9.5590    -0.4950     1.0040 H     1 <1>   0.0800 
 39 H      -11.1170    -0.1410     0.2990 H     1 <1>   0.0800 
 40 H      -10.3880     0.9840     1.4330 H     1 <1>   0.0800 
 41 H       -9.7890     2.6860    -1.7440 H     1 <1>   0.0800 
 42 H      -10.4640     2.8600    -0.1380 H     1 <1>   0.0800 
 43 H      -11.2690     1.8500    -1.3280 H     1 <1>   0.0800 
 44 H       -7.9570    -3.3730    -1.8030 H     1 <1>   0.0800 
 45 H       -9.2700    -2.8030    -2.8060 H     1 <1>   0.0800 
 46 H      -11.7550    -2.6470    -1.6380 H     1 <1>   0.1500 
 47 H      -10.7390    -3.7310     2.1870 H     1 <1>   0.1500 
 48 H       -8.2370    -3.4810     2.2030 H     1 <1>   0.0800 
 49 H       -7.4790    -2.7940     0.8040 H     1 <1>   0.0800 
 50 H       -7.5090    -5.0350    -0.2940 H     1 <1>   0.0800 
 51 H       -8.5020    -6.0300     2.3980 H     1 <1>   0.0800 
 52 H       -7.9620    -7.0450     1.0830 H     1 <1>   0.0800 
 53 H       -9.3970    -6.0820     0.8970 H     1 <1>   0.0800 
 54 H       -6.1170    -4.9790     2.3920 H     1 <1>   0.0800 
 55 H       -5.5120    -4.2750     0.9100 H     1 <1>   0.0800 
 56 H       -5.6950    -6.0030     1.0410 H     1 <1>   0.0800 
@<TRIPOS>BOND
  1   1   2  1   
  2   2   3  ar  
  3   2   4  ar  
  4   3   5  1   
  5   3   6  ar  
  6   4   7  ar  
  7   4  31  1   
  8   5   8  1   
  9   6   9  ar  
 10   6  32  1   
 11   7   9  ar  
 12   7  33  1   
 13   8  34  1   
 14   8  35  1   
 15   8  36  1   
 16   9  10  1   
 17  10  11  1   
 18  10  12  2   
 19  11  13  1   
 20  12  14  1   
 21  12  15  1   
 22  13  14  2   
 23  14  16  1   
 24  15  17  2   
 25  15  18  am  
 26  16  19  1   
 27  16  20  1   
 28  18  21  1   
 29  18  37  1   
 30  19  38  1   
 31  19  39  1   
 32  19  40  1   
 33  20  41  1   
 34  20  42  1   
 35  20  43  1   
 36  21  22  1   
 37  21  44  1   
 38  21  45  1   
 39  22  23  1   
 40  22  24  2   
 41  23  25  1   
 42  23  26  1   
 43  24  27  1   
 44  24  46  1   
 45  25  27  2   
 46  25  47  1   
 47  26  28  1   
 48  26  48  1   
 49  26  49  1   
 50  28  29  1   
 51  28  30  1   
 52  28  50  1   
 53  29  51  1   
 54  29  52  1   
 55  29  53  1   
 56  30  54  1   
 57  30  55  1   
 58  30  56  1   
@<TRIPOS>SUBSTRUCTURE
  1 ****  15 GROUP 4 **** **** 0

# MOE 2024.06 (io_trps.svl 2023.06)
