@<TRIPOS>MOLECULE
NONAME
48 50 1 0 0 
SMALL
USER_CHARGES


@<TRIPOS>ATOM
  1 O       -0.5730     2.9910    -2.6910 O.2   1 <1>  -0.5700 
  2 C       -0.3640     3.8870    -1.9140 C.2   1 <1>   0.5690 
  3 N       -1.2440     4.1690    -0.9300 N.am  1 <1>  -0.7300 
  4 C        0.8890     4.7510    -2.0520 C.3   1 <1>   0.1810 
  5 C       -1.1050     5.3140     0.0040 C.3   1 <1>   0.3640 
  6 O        1.2240     5.4050    -0.8480 O.3   1 <1>  -0.5600 
  7 C       -2.3730     6.1620    -0.1080 C.ar  1 <1>  -0.1440 
  8 C        0.1680     6.1660    -0.2690 C.3   1 <1>   0.2610 
  9 C       -3.0350     6.5770     1.0390 C.ar  1 <1>  -0.1500 
 10 C       -2.8830     6.5340    -1.3470 C.ar  1 <1>  -0.1500 
 11 C        0.6630     6.8440     1.0170 C.2   1 <1>   0.5690 
 12 C       -4.1830     7.3460     0.9520 C.ar  1 <1>  -0.1500 
 13 C       -4.0320     7.3010    -1.4350 C.ar  1 <1>  -0.1500 
 14 O       -0.1240     7.2290     1.8500 O.2   1 <1>  -0.5700 
 15 N        1.9970     7.0370     1.1860 N.am  1 <1>  -0.7300 
 16 C       -4.6830     7.7080    -0.2850 C.ar  1 <1>  -0.1500 
 17 C        2.6000     7.9210     2.1920 C.3   1 <1>   0.3200 
 18 C        3.5370     8.9070     1.5150 C.2   1 <1>  -0.3320 
 19 N        3.3090     9.6250     0.3860 N.pl3 1 <1>   0.0480 
 20 C        4.7680     9.2610     1.9470 C.2   1 <1>   0.0770 
 21 C        4.4310    10.3620     0.2250 C.2   1 <1>   0.0360 
 22 C        2.1890     9.5790    -0.5820 C.3   1 <1>   0.0960 
 23 N        5.3260    10.1760     1.1380 N.2   1 <1>  -0.5650 
 24 C        0.8700    10.0340     0.0410 C.3   1 <1>   0.1200 
 25 O       -0.1540     9.5760    -0.7850 O.3   1 <1>  -0.5600 
 26 C       -1.4280     9.7470    -0.2460 C.3   1 <1>   0.0400 
 27 H       -2.1100     3.6310    -0.8770 H     1 <1>   0.3700 
 28 H        0.7350     5.4930    -2.8140 H     1 <1>   0.0800 
 29 H        1.7200     4.1300    -2.3310 H     1 <1>   0.0800 
 30 H       -1.0390     4.9140     1.0020 H     1 <1>   0.0800 
 31 H       -0.0800     6.9450    -0.9660 H     1 <1>   0.0800 
 32 H       -2.6580     6.3100     2.0120 H     1 <1>   0.1500 
 33 H       -2.3930     6.2260    -2.2540 H     1 <1>   0.1500 
 34 H       -4.6860     7.6620     1.8500 H     1 <1>   0.1500 
 35 H       -4.4200     7.5790    -2.4000 H     1 <1>   0.1500 
 36 H        2.6420     6.6220     0.5080 H     1 <1>   0.3700 
 37 H       -5.5770     8.3040    -0.3530 H     1 <1>   0.1500 
 38 H        1.8320     8.4590     2.7220 H     1 <1>   0.0800 
 39 H        3.1440     7.3260     2.9060 H     1 <1>   0.0800 
 40 H        5.2930     8.9050     2.8180 H     1 <1>   0.1500 
 41 H        4.5570    11.0370    -0.6040 H     1 <1>   0.1500 
 42 H        2.4210    10.2110    -1.4190 H     1 <1>   0.0800 
 43 H        2.0940     8.5700    -0.9360 H     1 <1>   0.0800 
 44 H        0.8200    11.1080     0.0940 H     1 <1>   0.0800 
 45 H        0.7360     9.6110     1.0200 H     1 <1>   0.0800 
 46 H       -2.1470     9.3940    -0.9630 H     1 <1>   0.0800 
 47 H       -1.5970    10.7910    -0.0490 H     1 <1>   0.0800 
 48 H       -1.5150     9.1720     0.6600 H     1 <1>   0.0800 
@<TRIPOS>BOND
  1   1   2  2   
  2   2   3  am  
  3   2   4  1   
  4   3   5  1   
  5   3  27  1   
  6   4   6  1   
  7   4  28  1   
  8   4  29  1   
  9   5   7  1   
 10   5   8  1   
 11   5  30  1   
 12   6   8  1   
 13   7   9  ar  
 14   7  10  ar  
 15   8  11  1   
 16   8  31  1   
 17   9  12  ar  
 18   9  32  1   
 19  10  13  ar  
 20  10  33  1   
 21  11  14  2   
 22  11  15  am  
 23  12  16  ar  
 24  12  34  1   
 25  13  16  ar  
 26  13  35  1   
 27  15  17  1   
 28  15  36  1   
 29  16  37  1   
 30  17  18  1   
 31  17  38  1   
 32  17  39  1   
 33  18  19  1   
 34  18  20  2   
 35  19  21  1   
 36  19  22  1   
 37  20  23  1   
 38  20  40  1   
 39  21  23  2   
 40  21  41  1   
 41  22  24  1   
 42  22  42  1   
 43  22  43  1   
 44  24  25  1   
 45  24  44  1   
 46  24  45  1   
 47  25  26  1   
 48  26  46  1   
 49  26  47  1   
 50  26  48  1   
@<TRIPOS>SUBSTRUCTURE
  1 ****   8 GROUP 4 **** **** 0

# MOE 2024.06 (io_trps.svl 2023.06)
