@<TRIPOS>MOLECULE
NONAME
45 46 1 0 0 
SMALL
USER_CHARGES


@<TRIPOS>ATOM
  1 O       -0.1930    -0.7150    -0.3160 O.2   1 <1>  -0.5700 
  2 C       -0.4710    -1.8860    -0.1310 C.2   1 <1>   0.6900 
  3 N        0.5010    -2.8230     0.1210 N.am  1 <1>  -0.6600 
  4 N       -1.7670    -2.2670    -0.1740 N.am  1 <1>  -0.7300 
  5 C        1.9480    -2.4810     0.0400 C.3   1 <1>   0.0600 
  6 C        0.2050    -4.2370     0.4760 C.3   1 <1>   0.0600 
  7 C       -2.9220    -1.3300    -0.1890 C.3   1 <1>   0.2010 
  8 C       -4.2020    -1.9370     0.4030 C.2   1 <1>   0.5690 
  9 O       -4.1830    -3.1100     0.7150 O.2   1 <1>  -0.5700 
 10 N       -5.3340    -1.1710     0.5620 N.am  1 <1>  -0.6600 
 11 C       -6.5920    -1.7510     1.1250 C.3   1 <1>   0.1400 
 12 C       -5.4620     0.2600     0.1710 C.3   1 <1>   0.1400 
 13 C       -7.7640    -1.6510     0.1170 C.3   1 <1>   0.0000 
 14 C       -6.5860     0.4060    -0.8590 C.3   1 <1>  -0.1600 
 15 C       -9.0340    -2.2190     0.7850 C.3   1 <1>   0.2000 
 16 C       -7.9110    -0.1780    -0.3400 C.3   1 <1>  -0.1600 
 17 C       -7.5390    -2.6150    -1.0660 C.3   1 <1>  -0.1600 
 18 O      -10.1640    -1.8340     0.0850 O.3   1 <1>  -0.6800 
 19 C       -8.9150    -3.7350     0.6430 C.3   1 <1>  -0.1600 
 20 C       -8.0840    -3.9810    -0.6240 C.3   1 <1>  -0.1600 
 21 H       -2.0140    -3.2120     0.1220 H     1 <1>   0.3700 
 22 H        2.4480    -3.1710    -0.6160 H     1 <1>   0.0800 
 23 H        2.3870    -2.5380     1.0200 H     1 <1>   0.0800 
 24 H        2.0870    -1.4850    -0.3420 H     1 <1>   0.0800 
 25 H        1.0260    -4.6600     1.0290 H     1 <1>   0.0800 
 26 H        0.0540    -4.8100    -0.4220 H     1 <1>   0.0800 
 27 H       -0.6780    -4.2940     1.0890 H     1 <1>   0.0800 
 28 H       -2.6620    -0.4520     0.3740 H     1 <1>   0.0800 
 29 H       -3.1130    -1.0400    -1.2060 H     1 <1>   0.0800 
 30 H       -6.4350    -2.7780     1.4050 H     1 <1>   0.0800 
 31 H       -6.8440    -1.2090     2.0200 H     1 <1>   0.0800 
 32 H       -5.6970     0.8410     1.0470 H     1 <1>   0.0800 
 33 H       -4.5470     0.6420    -0.2440 H     1 <1>   0.0800 
 34 H       -6.7210     1.4480    -1.0890 H     1 <1>   0.0800 
 35 H       -6.2960    -0.0930    -1.7670 H     1 <1>   0.0800 
 36 H       -9.1540    -1.9030     1.8080 H     1 <1>   0.0800 
 37 H       -8.6570    -0.0940    -1.1120 H     1 <1>   0.0800 
 38 H       -8.2490     0.4120     0.4950 H     1 <1>   0.0800 
 39 H       -8.1000    -2.2790    -1.9210 H     1 <1>   0.0800 
 40 H       -6.5040    -2.6820    -1.3520 H     1 <1>   0.0800 
 41 H      -10.0910    -2.1670    -0.8290 H     1 <1>   0.4000 
 42 H       -8.3790    -4.1230     1.4910 H     1 <1>   0.0800 
 43 H       -9.8770    -4.2170     0.6060 H     1 <1>   0.0800 
 44 H       -7.2700    -4.6530    -0.4040 H     1 <1>   0.0800 
 45 H       -8.6880    -4.4140    -1.4030 H     1 <1>   0.0800 
@<TRIPOS>BOND
  1   1   2  2   
  2   2   3  am  
  3   2   4  am  
  4   3   5  1   
  5   3   6  1   
  6   4   7  1   
  7   4  21  1   
  8   5  22  1   
  9   5  23  1   
 10   5  24  1   
 11   6  25  1   
 12   6  26  1   
 13   6  27  1   
 14   7   8  1   
 15   7  28  1   
 16   7  29  1   
 17   8   9  2   
 18   8  10  am  
 19  10  11  1   
 20  10  12  1   
 21  11  13  1   
 22  11  30  1   
 23  11  31  1   
 24  12  14  1   
 25  12  32  1   
 26  12  33  1   
 27  13  15  1   
 28  13  16  1   
 29  13  17  1   
 30  14  16  1   
 31  14  34  1   
 32  14  35  1   
 33  15  18  1   
 34  15  19  1   
 35  15  36  1   
 36  16  37  1   
 37  16  38  1   
 38  17  20  1   
 39  17  39  1   
 40  17  40  1   
 41  18  41  1   
 42  19  20  1   
 43  19  42  1   
 44  19  43  1   
 45  20  44  1   
 46  20  45  1   
@<TRIPOS>SUBSTRUCTURE
  1 ****   8 GROUP 4 **** **** 0

# MOE 2024.06 (io_trps.svl 2023.06)
