@<TRIPOS>MOLECULE
NONAME
49 51 1 0 0 
SMALL
USER_CHARGES


@<TRIPOS>ATOM
  1 F        0.0290     1.0840    -1.8130 F     1 <1>  -0.1900 
  2 C       -0.2860     2.0970    -1.0510 C.ar  1 <1>   0.1900 
  3 C       -1.3460     2.9030    -1.4180 C.ar  1 <1>  -0.1500 
  4 C        0.4520     2.3270     0.0910 C.ar  1 <1>  -0.1500 
  5 C       -1.6850     3.9860    -0.6170 C.ar  1 <1>  -0.1440 
  6 C        0.1090     3.4020     0.8910 C.ar  1 <1>  -0.1500 
  7 C       -0.9540     4.2300     0.5470 C.ar  1 <1>  -0.1430 
  8 C       -2.8510     4.8790    -1.0530 C.3   1 <1>   0.0440 
  9 C       -1.3000     5.3880     1.4750 C.3   1 <1>  -0.0960 
 10 C       -4.1630     4.6730    -0.2970 C.2   1 <1>   0.5690 
 11 O       -4.2610     3.7310     0.4550 O.2   1 <1>  -0.5700 
 12 N       -5.2090     5.5470    -0.4850 N.am  1 <1>  -0.6600 
 13 C       -6.4900     5.3940     0.2770 C.3   1 <1>   0.1400 
 14 C       -5.2590     6.6520    -1.4820 C.3   1 <1>   0.1400 
 15 C       -7.6720     5.0990    -0.6800 C.3   1 <1>   0.0000 
 16 C       -6.3970     6.3930    -2.4760 C.3   1 <1>  -0.1600 
 17 C       -8.9980     4.9770     0.0910 C.3   1 <1>   0.2000 
 18 C       -7.7450     6.1990    -1.7620 C.3   1 <1>  -0.1600 
 19 C       -7.5340     3.6890    -1.2830 C.3   1 <1>  -0.1600 
 20 O       -9.0950     5.9420     1.0970 O.3   1 <1>  -0.5600 
 21 C       -9.0130     3.5580     0.6690 C.3   1 <1>  -0.1600 
 22 C       -8.0650     2.7320    -0.2110 C.3   1 <1>  -0.1600 
 23 C      -10.3680     6.0970     1.6400 C.3   1 <1>   0.0400 
 24 H       -1.8910     2.6750    -2.3140 H     1 <1>   0.1500 
 25 H        1.2710     1.6790     0.3460 H     1 <1>   0.1500 
 26 H        0.6730     3.5880     1.7880 H     1 <1>   0.1500 
 27 H       -3.0510     4.7130    -2.0950 H     1 <1>   0.0800 
 28 H       -2.5510     5.9030    -0.9450 H     1 <1>   0.0800 
 29 H       -0.6720     5.3840     2.3470 H     1 <1>   0.0800 
 30 H       -2.3210     5.3040     1.8020 H     1 <1>   0.0800 
 31 H       -1.1660     6.3250     0.9670 H     1 <1>   0.0800 
 32 H       -6.4050     4.6130     1.0130 H     1 <1>   0.0800 
 33 H       -6.6760     6.3110     0.8090 H     1 <1>   0.0800 
 34 H       -5.4370     7.5790    -0.9620 H     1 <1>   0.0800 
 35 H       -4.3330     6.7450    -2.0180 H     1 <1>   0.0800 
 36 H       -6.4690     7.2250    -3.1540 H     1 <1>   0.0800 
 37 H       -6.1610     5.5200    -3.0580 H     1 <1>   0.0800 
 38 H       -9.8180     5.1020    -0.5970 H     1 <1>   0.0800 
 39 H       -8.5070     5.9610    -2.4840 H     1 <1>   0.0800 
 40 H       -8.0240     7.1250    -1.2890 H     1 <1>   0.0800 
 41 H       -8.1540     3.6070    -2.1590 H     1 <1>   0.0800 
 42 H       -6.5220     3.4480    -1.5580 H     1 <1>   0.0800 
 43 H       -8.6460     3.5650     1.6810 H     1 <1>   0.0800 
 44 H      -10.0080     3.1520     0.6460 H     1 <1>   0.0800 
 45 H       -7.2440     2.3700     0.3850 H     1 <1>   0.0800 
 46 H       -8.5660     1.8910    -0.6580 H     1 <1>   0.0800 
 47 H      -10.3210     6.8760     2.3810 H     1 <1>   0.0800 
 48 H      -10.6760     5.1770     2.1040 H     1 <1>   0.0800 
 49 H      -11.0550     6.3800     0.8610 H     1 <1>   0.0800 
@<TRIPOS>BOND
  1   1   2  1   
  2   2   3  ar  
  3   2   4  ar  
  4   3   5  ar  
  5   3  24  1   
  6   4   6  ar  
  7   4  25  1   
  8   5   7  ar  
  9   5   8  1   
 10   6   7  ar  
 11   6  26  1   
 12   7   9  1   
 13   8  10  1   
 14   8  27  1   
 15   8  28  1   
 16   9  29  1   
 17   9  30  1   
 18   9  31  1   
 19  10  11  2   
 20  10  12  am  
 21  12  13  1   
 22  12  14  1   
 23  13  15  1   
 24  13  32  1   
 25  13  33  1   
 26  14  16  1   
 27  14  34  1   
 28  14  35  1   
 29  15  17  1   
 30  15  18  1   
 31  15  19  1   
 32  16  18  1   
 33  16  36  1   
 34  16  37  1   
 35  17  20  1   
 36  17  21  1   
 37  17  38  1   
 38  18  39  1   
 39  18  40  1   
 40  19  22  1   
 41  19  41  1   
 42  19  42  1   
 43  20  23  1   
 44  21  22  1   
 45  21  43  1   
 46  21  44  1   
 47  22  45  1   
 48  22  46  1   
 49  23  47  1   
 50  23  48  1   
 51  23  49  1   
@<TRIPOS>SUBSTRUCTURE
  1 ****  10 GROUP 4 **** **** 0

# MOE 2024.06 (io_trps.svl 2023.06)
