@<TRIPOS>MOLECULE
NONAME
38 40 1 0 0 
SMALL
USER_CHARGES


@<TRIPOS>ATOM
  1 O        4.3090     2.1750     1.1590 O.co2 1 <1>  -0.9000 
  2 C        3.3650     1.4040     0.9230 C.2   1 <1>   0.9060 
  3 O        3.3390     0.2360     1.2910 O.co2 1 <1>  -0.9000 
  4 C        2.2440     1.9120     0.0400 C.3   1 <1>  -0.1860 
  5 C        2.9260     2.4010    -1.2130 C.3   1 <1>   0.3430 
  6 C        1.5450     3.1670     0.5970 C.3   1 <1>  -0.1600 
  7 N        3.3780     3.7360    -0.7870 N.4   1 <1>  -0.9590 
  8 C        2.2670     4.3560    -0.0370 C.3   1 <1>   0.3430 
  9 C        4.1250     4.5490    -1.7680 C.3   1 <1>   0.4860 
 10 C        4.4320     5.9200    -1.1910 C.ar  1 <1>  -0.1430 
 11 C        5.3290     6.0730    -0.1030 C.ar  1 <1>   0.0000 
 12 C        3.8150     7.0140    -1.7400 C.ar  1 <1>  -0.1500 
 13 C        5.5580     7.3720     0.4190 C.ar  1 <1>   0.3100 
 14 C        6.0140     5.0010     0.5100 C.ar  1 <1>  -0.1500 
 15 C        4.0530     8.2920    -1.2360 C.ar  1 <1>  -0.1500 
 16 N        6.3830     7.5950     1.4800 N.ar  1 <1>  -0.6200 
 17 C        4.9030     8.4740    -0.1780 C.ar  1 <1>  -0.1430 
 18 C        6.8260     5.2600     1.5690 C.ar  1 <1>  -0.1500 
 19 C        6.9760     6.5750     2.0170 C.ar  1 <1>   0.1600 
 20 C        5.1440     9.8820     0.3570 C.3   1 <1>  -0.0970 
 21 H        1.5620     1.1060    -0.1580 H     1 <1>   0.0800 
 22 H        2.2240     2.4760    -2.0260 H     1 <1>   0.0800 
 23 H        3.7540     1.7620    -1.4810 H     1 <1>   0.0800 
 24 H        1.6160     3.2050     1.6710 H     1 <1>   0.0800 
 25 H        0.5070     3.1850     0.3190 H     1 <1>   0.0800 
 26 H        4.0450     3.4740    -0.0150 H     1 <1>   0.4500 
 27 H        2.6440     5.0320     0.7140 H     1 <1>   0.0800 
 28 H        1.6080     4.8840    -0.7070 H     1 <1>   0.0800 
 29 H        3.5370     4.6620    -2.6630 H     1 <1>   0.0800 
 30 H        5.0460     4.0520    -2.0270 H     1 <1>   0.0800 
 31 H        3.1350     6.9220    -2.5710 H     1 <1>   0.1500 
 32 H        5.9100     3.9870     0.1700 H     1 <1>   0.1500 
 33 H        3.5560     9.1300    -1.6940 H     1 <1>   0.1500 
 34 H        7.3530     4.4690     2.0730 H     1 <1>   0.1500 
 35 H        7.6240     6.7490     2.8590 H     1 <1>   0.1500 
 36 H        6.1900    10.1240     0.2870 H     1 <1>   0.0800 
 37 H        4.8500     9.9360     1.3900 H     1 <1>   0.0800 
 38 H        4.5850    10.6140    -0.1970 H     1 <1>   0.0800 
@<TRIPOS>BOND
  1   1   2  ar  
  2   2   3  ar  
  3   2   4  1   
  4   4   5  1   
  5   4   6  1   
  6   4  21  1   
  7   5   7  1   
  8   5  22  1   
  9   5  23  1   
 10   6   8  1   
 11   6  24  1   
 12   6  25  1   
 13   7   8  1   
 14   7   9  1   
 15   7  26  1   
 16   8  27  1   
 17   8  28  1   
 18   9  10  1   
 19   9  29  1   
 20   9  30  1   
 21  10  11  ar  
 22  10  12  ar  
 23  11  13  ar  
 24  11  14  ar  
 25  12  15  ar  
 26  12  31  1   
 27  13  16  ar  
 28  13  17  ar  
 29  14  18  ar  
 30  14  32  1   
 31  15  17  ar  
 32  15  33  1   
 33  16  19  ar  
 34  17  20  1   
 35  18  19  ar  
 36  18  34  1   
 37  19  35  1   
 38  20  36  1   
 39  20  37  1   
 40  20  38  1   
@<TRIPOS>SUBSTRUCTURE
  1 ****  11 GROUP 4 **** **** 0

# MOE 2024.06 (io_trps.svl 2023.06)
