@<TRIPOS>MOLECULE
NONAME
48 51 1 0 0 
SMALL
USER_CHARGES


@<TRIPOS>ATOM
  1 O       -0.9920     0.3520     1.9820 O.2   1 <1>  -0.5700 
  2 C       -0.3900    -0.4180     1.2710 C.2   1 <1>   0.5690 
  3 N        0.6780    -0.0640     0.5020 N.am  1 <1>  -0.4930 
  4 C       -0.8450    -1.8670     1.2850 C.3   1 <1>   0.1570 
  5 C        1.4290     1.1340     0.4030 C.2   1 <1>   0.0630 
  6 N       -0.4560    -2.5920     0.0570 N.pl3 1 <1>   0.0480 
  7 C        2.7970     1.1230     0.1050 C.2   1 <1>   0.3720 
  8 C        1.1080     2.4410     0.5230 C.2   1 <1>  -0.3320 
  9 C        0.7910    -3.1030    -0.2270 C.ar  1 <1>  -0.1520 
 10 C       -1.2570    -2.8280    -1.0250 C.2   1 <1>  -0.3020 
 11 N        3.3040     2.3130     0.0560 N.2   1 <1>  -0.7070 
 12 N        3.5190    -0.0610    -0.1510 N.pl3 1 <1>  -0.8210 
 13 N        2.2620     3.1300     0.3310 N.pl3 1 <1>   0.3140 
 14 C       -0.2380     3.0980     0.7930 C.3   1 <1>  -0.0600 
 15 C        0.7560    -3.6640    -1.5000 C.ar  1 <1>   0.0000 
 16 C        1.9730    -3.1170     0.5220 C.ar  1 <1>  -0.1500 
 17 C       -0.5550    -3.4770    -1.9830 C.2   1 <1>  -0.1500 
 18 C        4.9320    -0.0520     0.3120 C.3   1 <1>   0.2090 
 19 C        3.5010    -0.4260    -1.5930 C.3   1 <1>   0.2090 
 20 C        2.4470     4.5850     0.3830 C.3   1 <1>   0.0160 
 21 C        1.9060    -4.2540    -2.0340 C.ar  1 <1>  -0.1500 
 22 C        3.0970    -3.6990    -0.0160 C.ar  1 <1>  -0.1500 
 23 C        5.6970    -0.8700    -0.7160 C.3   1 <1>  -0.1600 
 24 C        4.9540    -0.5990    -2.0150 C.3   1 <1>  -0.1600 
 25 C        3.0650    -4.2690    -1.2940 C.ar  1 <1>  -0.1500 
 26 H        1.1840    -0.8380     0.0530 H     1 <1>   0.3700 
 27 H       -1.9140    -1.8950     1.3800 H     1 <1>   0.0800 
 28 H       -0.4140    -2.3620     2.1340 H     1 <1>   0.0800 
 29 H       -2.2870    -2.5170    -1.0530 H     1 <1>   0.1500 
 30 H       -1.0380     2.4220     0.5560 H     1 <1>   0.0800 
 31 H       -0.3620     3.9770     0.1870 H     1 <1>   0.0800 
 32 H       -0.3130     3.3680     1.8320 H     1 <1>   0.0800 
 33 H        2.0080    -2.6750     1.5020 H     1 <1>   0.1500 
 34 H       -0.8930    -3.8070    -2.9490 H     1 <1>   0.1500 
 35 H        5.0050    -0.4870     1.2940 H     1 <1>   0.0800 
 36 H        5.3230     0.9510     0.3400 H     1 <1>   0.0800 
 37 H        3.0160     0.3330    -2.1860 H     1 <1>   0.0800 
 38 H        2.9680    -1.3540    -1.7080 H     1 <1>   0.0800 
 39 H        2.0120     4.9640     1.2880 H     1 <1>   0.0800 
 40 H        1.9710     5.0290    -0.4700 H     1 <1>   0.0800 
 41 H        3.4980     4.8060     0.3670 H     1 <1>   0.0800 
 42 H        1.8640    -4.6870    -3.0170 H     1 <1>   0.1500 
 43 H        4.0160    -3.7180     0.5440 H     1 <1>   0.1500 
 44 H        5.6250    -1.9120    -0.4600 H     1 <1>   0.0800 
 45 H        6.7320    -0.5830    -0.7640 H     1 <1>   0.0800 
 46 H        5.2990     0.3240    -2.4470 H     1 <1>   0.0800 
 47 H        5.0690    -1.3920    -2.7310 H     1 <1>   0.0800 
 48 H        3.9580    -4.7190    -1.6890 H     1 <1>   0.1500 
@<TRIPOS>BOND
  1   1   2  2   
  2   2   3  am  
  3   2   4  1   
  4   3   5  1   
  5   3  26  1   
  6   4   6  1   
  7   4  27  1   
  8   4  28  1   
  9   5   7  1   
 10   5   8  2   
 11   6   9  1   
 12   6  10  1   
 13   7  11  2   
 14   7  12  1   
 15   8  13  1   
 16   8  14  1   
 17   9  15  ar  
 18   9  16  ar  
 19  10  17  2   
 20  10  29  1   
 21  11  13  1   
 22  12  18  1   
 23  12  19  1   
 24  13  20  1   
 25  14  30  1   
 26  14  31  1   
 27  14  32  1   
 28  15  17  1   
 29  15  21  ar  
 30  16  22  ar  
 31  16  33  1   
 32  17  34  1   
 33  18  23  1   
 34  18  35  1   
 35  18  36  1   
 36  19  24  1   
 37  19  37  1   
 38  19  38  1   
 39  20  39  1   
 40  20  40  1   
 41  20  41  1   
 42  21  25  ar  
 43  21  42  1   
 44  22  25  ar  
 45  22  43  1   
 46  23  24  1   
 47  23  44  1   
 48  23  45  1   
 49  24  46  1   
 50  24  47  1   
 51  25  48  1   
@<TRIPOS>SUBSTRUCTURE
  1 ****   3 GROUP 4 **** **** 0

# MOE 2024.06 (io_trps.svl 2023.06)
