@<TRIPOS>MOLECULE
NONAME
54 57 1 0 0 
SMALL
USER_CHARGES


@<TRIPOS>ATOM
  1 O        0.2330     1.3000    -0.7200 O.3   1 <1>  -0.3630 
  2 C        0.0570     2.5970    -0.3670 C.ar  1 <1>   0.0830 
  3 C       -0.0150     0.2200     0.1600 C.3   1 <1>   0.2000 
  4 C       -0.3210     3.0180     0.9040 C.ar  1 <1>  -0.1500 
  5 C        0.2750     3.5400    -1.3570 C.ar  1 <1>  -0.1500 
  6 C        0.5570    -1.0390    -0.4810 C.3   1 <1>  -0.1600 
  7 C       -1.5160    -0.0610     0.2140 C.3   1 <1>  -0.1600 
  8 C       -0.4700     4.3680     1.1720 C.ar  1 <1>  -0.1500 
  9 C        0.1250     4.8880    -1.0910 C.ar  1 <1>  -0.1500 
 10 C       -0.5000    -1.5060    -1.4890 C.3   1 <1>  -0.1600 
 11 C       -1.8250    -0.8700    -1.0500 C.3   1 <1>  -0.1600 
 12 C       -0.2420     5.3110     0.1790 C.ar  1 <1>  -0.1430 
 13 C       -0.3850     6.7900     0.4760 C.3   1 <1>   0.4860 
 14 N        0.9740     7.3620     0.5900 N.4   1 <1>  -0.8970 
 15 C        1.7750     6.9100     1.7830 C.3   1 <1>   0.4720 
 16 C        1.0950     8.7610     1.1250 C.3   1 <1>   0.4720 
 17 C        2.4350     8.3120     1.7710 C.3   1 <1>   0.2580 
 18 O        3.5100     8.3510     0.8450 O.3   1 <1>  -0.3400 
 19 C        3.9060     9.5460     0.3480 C.ar  1 <1>   0.0830 
 20 C        4.3010     9.5860    -0.9770 C.ar  1 <1>  -0.1500 
 21 C        3.9150    10.7100     1.1100 C.ar  1 <1>  -0.1500 
 22 C        4.6780    10.7820    -1.5620 C.ar  1 <1>   0.0830 
 23 C        4.2960    11.9070     0.5290 C.ar  1 <1>  -0.1500 
 24 O        5.0340    10.7320    -2.8690 O.3   1 <1>  -0.3630 
 25 C        4.6730    11.9490    -0.8020 C.ar  1 <1>  -0.1500 
 26 C        5.5320    11.8700    -3.5370 C.3   1 <1>   0.0400 
 27 H        0.4350     0.4230     1.1160 H     1 <1>   0.0800 
 28 H       -0.5070     2.3100     1.6890 H     1 <1>   0.1500 
 29 H        0.5610     3.2020    -2.3380 H     1 <1>   0.1500 
 30 H        0.6710    -1.7910     0.2790 H     1 <1>   0.0800 
 31 H        1.5130    -0.8590    -0.9390 H     1 <1>   0.0800 
 32 H       -2.1050     0.8370     0.2760 H     1 <1>   0.0800 
 33 H       -1.7200    -0.6700     1.0760 H     1 <1>   0.0800 
 34 H       -0.7680     4.6670     2.1630 H     1 <1>   0.1500 
 35 H        0.2970     5.5930    -1.8870 H     1 <1>   0.1500 
 36 H       -0.5640    -2.5800    -1.5110 H     1 <1>   0.0800 
 37 H       -0.2430    -1.1510    -2.4720 H     1 <1>   0.0800 
 38 H       -2.1750    -0.2080    -1.8240 H     1 <1>   0.0800 
 39 H       -2.5790    -1.6140    -0.8590 H     1 <1>   0.0800 
 40 H       -0.9320     6.9290     1.3940 H     1 <1>   0.0800 
 41 H       -0.9240     7.2690    -0.3240 H     1 <1>   0.0800 
 42 H        1.5410     7.2330    -0.2570 H     1 <1>   0.4500 
 43 H        2.4400     6.0970     1.5550 H     1 <1>   0.0000 
 44 H        1.1410     6.7480     2.6360 H     1 <1>   0.0000 
 45 H        0.3260     8.9680     1.8480 H     1 <1>   0.0000 
 46 H        1.1930     9.4980     0.3490 H     1 <1>   0.0000 
 47 H        2.6930     8.7270     2.7290 H     1 <1>   0.0000 
 48 H        4.3200     8.6880    -1.5670 H     1 <1>   0.1500 
 49 H        3.6470    10.7020     2.1500 H     1 <1>   0.1500 
 50 H        4.3050    12.8120     1.1140 H     1 <1>   0.1500 
 51 H        4.9610    12.8920    -1.2280 H     1 <1>   0.1500 
 52 H        5.7840    11.5840    -4.5430 H     1 <1>   0.0800 
 53 H        6.4130    12.2180    -3.0260 H     1 <1>   0.0800 
 54 H        4.7700    12.6290    -3.5540 H     1 <1>   0.0800 
@<TRIPOS>BOND
  1   1   2  1   
  2   1   3  1   
  3   2   4  ar  
  4   2   5  ar  
  5   3   6  1   
  6   3   7  1   
  7   3  27  1   
  8   4   8  ar  
  9   4  28  1   
 10   5   9  ar  
 11   5  29  1   
 12   6  10  1   
 13   6  30  1   
 14   6  31  1   
 15   7  11  1   
 16   7  32  1   
 17   7  33  1   
 18   8  12  ar  
 19   8  34  1   
 20   9  12  ar  
 21   9  35  1   
 22  10  11  1   
 23  10  36  1   
 24  10  37  1   
 25  11  38  1   
 26  11  39  1   
 27  12  13  1   
 28  13  14  1   
 29  13  40  1   
 30  13  41  1   
 31  14  15  1   
 32  14  16  1   
 33  14  42  1   
 34  15  17  1   
 35  15  43  1   
 36  15  44  1   
 37  16  17  1   
 38  16  45  1   
 39  16  46  1   
 40  17  18  1   
 41  17  47  1   
 42  18  19  1   
 43  19  20  ar  
 44  19  21  ar  
 45  20  22  ar  
 46  20  48  1   
 47  21  23  ar  
 48  21  49  1   
 49  22  24  1   
 50  22  25  ar  
 51  23  25  ar  
 52  23  50  1   
 53  24  26  1   
 54  25  51  1   
 55  26  52  1   
 56  26  53  1   
 57  26  54  1   
@<TRIPOS>SUBSTRUCTURE
  1 ****  14 GROUP 4 **** **** 0

# MOE 2024.06 (io_trps.svl 2023.06)
