@<TRIPOS>MOLECULE
NONAME
49 50 1 0 0 
SMALL
USER_CHARGES


@<TRIPOS>ATOM
  1 CL       2.2570     0.2490    -0.6060 Cl    1 <1>  -0.1770 
  2 C        1.1550     1.5800    -0.3340 C.ar  1 <1>   0.1770 
  3 C        1.4210     2.5660     0.6130 C.ar  1 <1>  -0.1440 
  4 C        0.0080     1.6100    -1.1070 C.ar  1 <1>  -0.1500 
  5 C        0.4950     3.5930     0.7610 C.ar  1 <1>  -0.1500 
  6 C        2.6710     2.5720     1.4900 C.3   1 <1>   0.3640 
  7 C       -0.9010     2.6390    -0.9450 C.ar  1 <1>  -0.1500 
  8 C       -0.6550     3.6290    -0.0100 C.ar  1 <1>  -0.1500 
  9 N        2.6700     1.3560     2.3360 N.am  1 <1>  -0.7300 
 10 C        3.9840     2.7480     0.6750 C.3   1 <1>   0.2610 
 11 C        3.7270     0.5260     2.4610 C.2   1 <1>   0.5690 
 12 O        5.1180     2.2070     1.3510 O.3   1 <1>  -0.5600 
 13 C        4.2110     4.2360     0.3970 C.2   1 <1>   0.5690 
 14 O        3.6730    -0.4420     3.1740 O.2   1 <1>  -0.5700 
 15 C        4.9990     0.8330     1.6680 C.3   1 <1>   0.1810 
 16 O        3.4660     4.8350    -0.3370 O.2   1 <1>  -0.5700 
 17 N        5.2660     4.8650     0.9840 N.am  1 <1>  -0.7300 
 18 C        5.5400     6.3340     0.9160 C.3   1 <1>   0.1400 
 19 C        6.4530     6.8120    -0.2630 C.3   1 <1>   0.5030 
 20 N        7.7560     6.0630    -0.3940 N.4   1 <1>  -0.9590 
 21 C        6.8120     8.2850    -0.0280 C.3   1 <1>  -0.2400 
 22 C        5.7070     6.7480    -1.6030 C.3   1 <1>  -0.2400 
 23 C        7.6340     4.6760    -0.9600 C.3   1 <1>   0.2630 
 24 C        8.5560     6.0020     0.8720 C.3   1 <1>   0.2630 
 25 H       -0.1690     0.8330    -1.8290 H     1 <1>   0.1500 
 26 H        0.6590     4.3810     1.4760 H     1 <1>   0.1500 
 27 H        2.6020     3.4110     2.1610 H     1 <1>   0.0800 
 28 H       -1.7950     2.6710    -1.5430 H     1 <1>   0.1500 
 29 H       -1.3600     4.4330     0.1150 H     1 <1>   0.1500 
 30 H        1.8030     1.1120     2.8180 H     1 <1>   0.3700 
 31 H        3.9050     2.2500    -0.2720 H     1 <1>   0.0800 
 32 H        4.9970     0.2660     0.7540 H     1 <1>   0.0800 
 33 H        5.8570     0.5510     2.2510 H     1 <1>   0.0800 
 34 H        5.8120     4.2980     1.6440 H     1 <1>   0.3700 
 35 H        4.5970     6.8490     0.8360 H     1 <1>   0.0800 
 36 H        5.9730     6.6400     1.8510 H     1 <1>   0.0800 
 37 H        8.2990     6.6090    -1.0760 H     1 <1>   0.4500 
 38 H        5.9170     8.8840    -0.0310 H     1 <1>   0.0800 
 39 H        7.4530     8.6580    -0.8070 H     1 <1>   0.0800 
 40 H        7.2870     8.4360     0.9240 H     1 <1>   0.0800 
 41 H        4.8290     7.3690    -1.5640 H     1 <1>   0.0800 
 42 H        5.3660     5.7550    -1.8260 H     1 <1>   0.0800 
 43 H        6.3230     7.1000    -2.4110 H     1 <1>   0.0800 
 44 H        7.0590     4.0440    -0.3050 H     1 <1>   0.0800 
 45 H        8.6110     4.2370    -1.0820 H     1 <1>   0.0800 
 46 H        7.1550     4.6990    -1.9240 H     1 <1>   0.0800 
 47 H        8.0170     5.4570     1.6300 H     1 <1>   0.0800 
 48 H        8.7650     6.9930     1.2400 H     1 <1>   0.0800 
 49 H        9.4950     5.5030     0.6960 H     1 <1>   0.0800 
@<TRIPOS>BOND
  1   1   2  1   
  2   2   3  ar  
  3   2   4  ar  
  4   3   5  ar  
  5   3   6  1   
  6   4   7  ar  
  7   4  25  1   
  8   5   8  ar  
  9   5  26  1   
 10   6   9  1   
 11   6  10  1   
 12   6  27  1   
 13   7   8  ar  
 14   7  28  1   
 15   8  29  1   
 16   9  11  am  
 17   9  30  1   
 18  10  12  1   
 19  10  13  1   
 20  10  31  1   
 21  11  14  2   
 22  11  15  1   
 23  12  15  1   
 24  13  16  2   
 25  13  17  am  
 26  15  32  1   
 27  15  33  1   
 28  17  18  1   
 29  17  34  1   
 30  18  19  1   
 31  18  35  1   
 32  18  36  1   
 33  19  20  1   
 34  19  21  1   
 35  19  22  1   
 36  20  23  1   
 37  20  24  1   
 38  20  37  1   
 39  21  38  1   
 40  21  39  1   
 41  21  40  1   
 42  22  41  1   
 43  22  42  1   
 44  22  43  1   
 45  23  44  1   
 46  23  45  1   
 47  23  46  1   
 48  24  47  1   
 49  24  48  1   
 50  24  49  1   
@<TRIPOS>SUBSTRUCTURE
  1 ****  13 GROUP 4 **** **** 0

# MOE 2024.06 (io_trps.svl 2023.06)
