@<TRIPOS>MOLECULE
NONAME
56 58 1 0 0 
SMALL
USER_CHARGES


@<TRIPOS>ATOM
  1 F       -0.1290     2.6640     1.8460 F     1 <1>  -0.1900 
  2 C       -1.2060     2.2910     1.2070 C.ar  1 <1>   0.1900 
  3 C       -1.2660     2.4720    -0.1660 C.ar  1 <1>  -0.1440 
  4 C       -2.2460     1.7440     1.9330 C.ar  1 <1>  -0.1500 
  5 C       -2.4230     2.0820    -0.8260 C.ar  1 <1>  -0.1500 
  6 C       -0.0950     3.0770    -0.9150 C.3   1 <1>   0.4870 
  7 C       -3.3940     1.3630     1.2600 C.ar  1 <1>  -0.1500 
  8 C       -3.4790     1.5320    -0.1140 C.ar  1 <1>  -0.1500 
  9 N        0.1090     4.4780    -0.4520 N.4   1 <1>  -0.9590 
 10 C       -1.0690     5.3420    -0.7670 C.3   1 <1>   0.3430 
 11 C        1.3940     5.0380    -0.9610 C.3   1 <1>   0.3430 
 12 C       -0.8630     6.7310    -0.1720 C.3   1 <1>  -0.1600 
 13 C        1.6260     6.4260    -0.3670 C.3   1 <1>  -0.1600 
 14 C        0.4420     7.3380    -0.6800 C.3   1 <1>   0.2200 
 15 N        0.6440     8.6510    -0.0520 N.am  1 <1>  -0.7300 
 16 C        0.3140     9.8260    -0.6510 C.2   1 <1>   0.5690 
 17 O       -0.2020     9.8400    -1.7430 O.2   1 <1>  -0.5700 
 18 C        0.6050    11.1350     0.0890 C.3   1 <1>  -0.0190 
 19 C       -0.1710    12.3420    -0.4820 C.3   1 <1>  -0.1600 
 20 C        2.1240    11.4310     0.1170 C.3   1 <1>  -0.1600 
 21 C        0.0180    13.6190     0.3650 C.3   1 <1>   0.2000 
 22 C        2.4690    12.9090     0.3940 C.3   1 <1>  -0.1600 
 23 O       -0.0050    14.7330    -0.4930 O.3   1 <1>  -0.5600 
 24 C        1.3500    13.6190     1.1600 C.3   1 <1>   0.2000 
 25 C       -1.2690    15.1150    -0.9410 C.3   1 <1>   0.0400 
 26 O        1.7460    14.9210     1.3850 O.3   1 <1>  -0.6800 
 27 H       -2.1610     1.6190     2.9990 H     1 <1>   0.1500 
 28 H       -2.5210     2.1930    -1.8940 H     1 <1>   0.1500 
 29 H       -0.2850     3.0570    -1.9760 H     1 <1>   0.0800 
 30 H        0.7870     2.4900    -0.7140 H     1 <1>   0.0800 
 31 H       -4.2200     0.9330     1.8020 H     1 <1>   0.1500 
 32 H       -4.3750     1.2290    -0.6290 H     1 <1>   0.1500 
 33 H        0.1730     4.4120     0.5750 H     1 <1>   0.4500 
 34 H       -1.1890     5.4240    -1.8360 H     1 <1>   0.0800 
 35 H       -1.9690     4.9090    -0.3580 H     1 <1>   0.0800 
 36 H        2.2140     4.3910    -0.6900 H     1 <1>   0.0800 
 37 H        1.3610     5.1100    -2.0370 H     1 <1>   0.0800 
 38 H       -0.8600     6.6680     0.9020 H     1 <1>   0.0800 
 39 H       -1.6830     7.3610    -0.4700 H     1 <1>   0.0800 
 40 H        2.5190     6.8440    -0.7990 H     1 <1>   0.0800 
 41 H        1.7700     6.3420     0.6950 H     1 <1>   0.0800 
 42 H        0.3750     7.4660    -1.7500 H     1 <1>   0.0800 
 43 H        1.0610     8.6640     0.8790 H     1 <1>   0.3700 
 44 H        0.2700    10.9960     1.1020 H     1 <1>   0.0800 
 45 H       -1.2180    12.1030    -0.5330 H     1 <1>   0.0800 
 46 H        0.1800    12.5220    -1.4850 H     1 <1>   0.0800 
 47 H        2.5840    10.8130     0.8690 H     1 <1>   0.0800 
 48 H        2.5600    11.1600    -0.8310 H     1 <1>   0.0800 
 49 H       -0.7860    13.7160     1.0750 H     1 <1>   0.0800 
 50 H        2.6070    13.4150    -0.5470 H     1 <1>   0.0800 
 51 H        3.3900    12.9700     0.9470 H     1 <1>   0.0800 
 52 H        1.2160    13.1460     2.1180 H     1 <1>   0.0800 
 53 H       -1.1550    15.9900    -1.5560 H     1 <1>   0.0800 
 54 H       -1.8920    15.3470    -0.0940 H     1 <1>   0.0800 
 55 H       -1.7010    14.3200    -1.5240 H     1 <1>   0.0800 
 56 H        1.4130    15.4360     0.6140 H     1 <1>   0.4000 
@<TRIPOS>BOND
  1   1   2  1   
  2   2   3  ar  
  3   2   4  ar  
  4   3   5  ar  
  5   3   6  1   
  6   4   7  ar  
  7   4  27  1   
  8   5   8  ar  
  9   5  28  1   
 10   6   9  1   
 11   6  29  1   
 12   6  30  1   
 13   7   8  ar  
 14   7  31  1   
 15   8  32  1   
 16   9  10  1   
 17   9  11  1   
 18   9  33  1   
 19  10  12  1   
 20  10  34  1   
 21  10  35  1   
 22  11  13  1   
 23  11  36  1   
 24  11  37  1   
 25  12  14  1   
 26  12  38  1   
 27  12  39  1   
 28  13  14  1   
 29  13  40  1   
 30  13  41  1   
 31  14  15  1   
 32  14  42  1   
 33  15  16  am  
 34  15  43  1   
 35  16  17  2   
 36  16  18  1   
 37  18  19  1   
 38  18  20  1   
 39  18  44  1   
 40  19  21  1   
 41  19  45  1   
 42  19  46  1   
 43  20  22  1   
 44  20  47  1   
 45  20  48  1   
 46  21  23  1   
 47  21  24  1   
 48  21  49  1   
 49  22  24  1   
 50  22  50  1   
 51  22  51  1   
 52  23  25  1   
 53  24  26  1   
 54  24  52  1   
 55  25  53  1   
 56  25  54  1   
 57  25  55  1   
 58  26  56  1   
@<TRIPOS>SUBSTRUCTURE
  1 ****  14 GROUP 4 **** **** 0

# MOE 2024.06 (io_trps.svl 2023.06)
