@<TRIPOS>MOLECULE
NONAME
47 49 1 0 0 
SMALL
USER_CHARGES


@<TRIPOS>ATOM
  1 F        0.3320    -1.0790     1.1630 F     1 <1>  -0.1900 
  2 C       -0.4540    -1.9900     0.6460 C.ar  1 <1>   0.1900 
  3 C       -0.0470    -2.8080    -0.4140 C.ar  1 <1>   0.0830 
  4 C       -1.7140    -2.1010     1.2010 C.ar  1 <1>  -0.1500 
  5 O        1.1640    -2.7940    -1.0430 O.3   1 <1>  -0.3630 
  6 C       -0.9550    -3.7390    -0.8920 C.ar  1 <1>  -0.1500 
  7 C       -2.5950    -3.0400     0.6980 C.ar  1 <1>  -0.1500 
  8 C        2.2260    -1.9560    -0.6460 C.3   1 <1>   0.0400 
  9 C       -2.2390    -3.8830    -0.3570 C.ar  1 <1>   0.0530 
 10 C       -3.1520    -4.8690    -0.8890 C.2   1 <1>   0.0870 
 11 O       -2.9910    -5.3260    -2.1090 O.3   1 <1>  -0.0190 
 12 C       -4.2420    -5.4980    -0.3810 C.2   1 <1>  -0.2330 
 13 N       -3.8960    -6.2080    -2.4460 N.2   1 <1>  -0.4100 
 14 C       -4.6650    -6.3280    -1.4200 C.2   1 <1>   0.3720 
 15 C       -4.8420    -5.3850     0.9040 C.2   1 <1>   1.0330 
 16 N       -5.7600    -7.1940    -1.4150 N.pl3 1 <1>  -0.8210 
 17 O       -5.6780    -4.4910     1.1290 O.co2 1 <1>  -0.9000 
 18 O       -4.4980    -6.1310     1.8360 O.co2 1 <1>  -0.9000 
 19 C       -7.0740    -6.5210    -1.2430 C.3   1 <1>   0.2090 
 20 C       -5.6120    -8.3470    -0.4900 C.3   1 <1>   0.2090 
 21 C       -8.2010    -7.5170    -1.5320 C.3   1 <1>  -0.1600 
 22 C       -6.7340    -9.3650    -0.7350 C.3   1 <1>  -0.1600 
 23 C       -8.1650    -8.7730    -0.6170 C.3   1 <1>  -0.1060 
 24 C       -9.1940    -9.8340    -1.0900 C.2   1 <1>   0.9060 
 25 C       -8.4430    -8.4110     0.8730 C.3   1 <1>  -0.1600 
 26 O      -10.1390    -9.5040    -1.8240 O.co2 1 <1>  -0.9000 
 27 O       -9.0680   -11.0080    -0.7110 O.co2 1 <1>  -0.9000 
 28 C       -9.8180    -7.7800     1.1400 C.3   1 <1>  -0.2400 
 29 H       -2.0050    -1.4630     2.0160 H     1 <1>   0.1500 
 30 H       -0.6530    -4.3750    -1.7030 H     1 <1>   0.1500 
 31 H       -3.5770    -3.1140     1.1340 H     1 <1>   0.1500 
 32 H        3.0700    -2.1640    -1.2790 H     1 <1>   0.0800 
 33 H        2.4760    -2.1690     0.3780 H     1 <1>   0.0800 
 34 H        1.9260    -0.9300    -0.7660 H     1 <1>   0.0800 
 35 H       -7.1380    -5.6930    -1.9270 H     1 <1>   0.0800 
 36 H       -7.1680    -6.1350    -0.2420 H     1 <1>   0.0800 
 37 H       -5.6330    -8.0060     0.5300 H     1 <1>   0.0800 
 38 H       -4.6580    -8.8150    -0.6610 H     1 <1>   0.0800 
 39 H       -8.1100    -7.8320    -2.5570 H     1 <1>   0.0800 
 40 H       -9.1500    -7.0240    -1.4480 H     1 <1>   0.0800 
 41 H       -6.6260   -10.1820    -0.0450 H     1 <1>   0.0800 
 42 H       -6.6060    -9.7700    -1.7230 H     1 <1>   0.0800 
 43 H       -7.6910    -7.7430     1.2530 H     1 <1>   0.0800 
 44 H       -8.3790    -9.3180     1.4500 H     1 <1>   0.0800 
 45 H       -9.8880    -6.8100     0.6830 H     1 <1>   0.0800 
 46 H       -9.9650    -7.6660     2.1980 H     1 <1>   0.0800 
 47 H      -10.6020    -8.4060     0.7500 H     1 <1>   0.0800 
@<TRIPOS>BOND
  1   1   2  1   
  2   2   3  ar  
  3   2   4  ar  
  4   3   5  1   
  5   3   6  ar  
  6   4   7  ar  
  7   4  29  1   
  8   5   8  1   
  9   6   9  ar  
 10   6  30  1   
 11   7   9  ar  
 12   7  31  1   
 13   8  32  1   
 14   8  33  1   
 15   8  34  1   
 16   9  10  1   
 17  10  11  1   
 18  10  12  2   
 19  11  13  1   
 20  12  14  1   
 21  12  15  1   
 22  13  14  2   
 23  14  16  1   
 24  15  17  ar  
 25  15  18  ar  
 26  16  19  1   
 27  16  20  1   
 28  19  21  1   
 29  19  35  1   
 30  19  36  1   
 31  20  22  1   
 32  20  37  1   
 33  20  38  1   
 34  21  23  1   
 35  21  39  1   
 36  21  40  1   
 37  22  23  1   
 38  22  41  1   
 39  22  42  1   
 40  23  24  1   
 41  23  25  1   
 42  24  26  ar  
 43  24  27  ar  
 44  25  28  1   
 45  25  43  1   
 46  25  44  1   
 47  28  45  1   
 48  28  46  1   
 49  28  47  1   
@<TRIPOS>SUBSTRUCTURE
  1 ****  12 GROUP 4 **** **** 0

# MOE 2024.06 (io_trps.svl 2023.06)
