@<TRIPOS>MOLECULE
NONAME
51 53 1 0 0 
SMALL
USER_CHARGES


@<TRIPOS>ATOM
  1 O        0.0870     0.1170    -1.8060 O.2   1 <1>  -0.5700 
  2 C        0.9210    -0.5550    -1.2470 C.2   1 <1>   0.5690 
  3 N        1.9160    -0.0470    -0.4670 N.am  1 <1>  -0.4930 
  4 C        0.8300    -2.0620    -1.4060 C.3   1 <1>  -0.0990 
  5 C        2.1630     1.3040    -0.1100 C.2   1 <1>   0.0630 
  6 C       -0.1220    -2.7210    -0.3830 C.3   1 <1>  -0.0800 
  7 C        3.1920     1.7840     0.7050 C.2   1 <1>   0.1080 
  8 C        1.4760     2.4100    -0.4620 C.2   1 <1>  -0.3020 
  9 C       -0.1460    -4.2470    -0.5820 C.3   1 <1>  -0.1600 
 10 C       -1.5540    -2.1600    -0.4870 C.3   1 <1>  -0.1600 
 11 N        3.1470     3.0710     0.8490 N.2   1 <1>  -0.7070 
 12 C        4.2610     0.9430     1.3670 C.3   1 <1>  -0.0590 
 13 N        2.0850     3.4600     0.1240 N.pl3 1 <1>   0.3140 
 14 C       -1.1550    -4.9360     0.3390 C.3   1 <1>   0.3430 
 15 C       -2.5370    -2.8880     0.4280 C.3   1 <1>   0.3430 
 16 C        1.6860     4.8670     0.0220 C.3   1 <1>   0.0160 
 17 N       -2.5080    -4.3450     0.1310 N.4   1 <1>  -0.9590 
 18 C       -3.5550    -5.0790     0.8930 C.3   1 <1>   0.4860 
 19 C       -3.6300    -6.4960     0.3610 C.ar  1 <1>  -0.1440 
 20 C       -3.1240    -7.5510     1.1080 C.ar  1 <1>  -0.1500 
 21 C       -4.2000    -6.7500    -0.8800 C.ar  1 <1>  -0.1500 
 22 C       -3.1740    -8.8420     0.6140 C.ar  1 <1>  -0.1500 
 23 C       -4.2480    -8.0420    -1.3720 C.ar  1 <1>  -0.1500 
 24 C       -3.7330    -9.0870    -0.6270 C.ar  1 <1>  -0.1500 
 25 H        2.5920    -0.7060    -0.0910 H     1 <1>   0.3700 
 26 H        1.8150    -2.4820    -1.3130 H     1 <1>   0.0800 
 27 H        0.4890    -2.2670    -2.4050 H     1 <1>   0.0800 
 28 H        0.2510    -2.5120     0.6080 H     1 <1>   0.0800 
 29 H        0.6070     2.5010    -1.0860 H     1 <1>   0.1500 
 30 H        0.8310    -4.6510    -0.3840 H     1 <1>   0.0800 
 31 H       -0.3900    -4.4850    -1.6030 H     1 <1>   0.0800 
 32 H       -1.9040    -2.2190    -1.5040 H     1 <1>   0.0800 
 33 H       -1.5600    -1.1190    -0.2110 H     1 <1>   0.0800 
 34 H        4.7630     0.3420     0.6330 H     1 <1>   0.0800 
 35 H        3.8170     0.3120     2.1140 H     1 <1>   0.0800 
 36 H        4.9820     1.5840     1.8410 H     1 <1>   0.0800 
 37 H       -0.8530    -4.8100     1.3670 H     1 <1>   0.0800 
 38 H       -1.1730    -5.9920     0.1180 H     1 <1>   0.0800 
 39 H       -3.5280    -2.4940     0.2710 H     1 <1>   0.0800 
 40 H       -2.2620    -2.7170     1.4570 H     1 <1>   0.0800 
 41 H        1.3630     5.0730    -0.9800 H     1 <1>   0.0800 
 42 H        2.5290     5.4870     0.2660 H     1 <1>   0.0800 
 43 H        0.8870     5.0550     0.7140 H     1 <1>   0.0800 
 44 H       -2.7320    -4.4740    -0.8630 H     1 <1>   0.4500 
 45 H       -4.5130    -4.6020     0.7630 H     1 <1>   0.0800 
 46 H       -3.3170    -5.0900     1.9440 H     1 <1>   0.0800 
 47 H       -2.6890    -7.3870     2.0800 H     1 <1>   0.1500 
 48 H       -4.6150    -5.9550    -1.4760 H     1 <1>   0.1500 
 49 H       -2.7810    -9.6610     1.1930 H     1 <1>   0.1500 
 50 H       -4.6890    -8.2400    -2.3350 H     1 <1>   0.1500 
 51 H       -3.7730   -10.0930    -1.0110 H     1 <1>   0.1500 
@<TRIPOS>BOND
  1   1   2  2   
  2   2   3  am  
  3   2   4  1   
  4   3   5  1   
  5   3  25  1   
  6   4   6  1   
  7   4  26  1   
  8   4  27  1   
  9   5   7  1   
 10   5   8  2   
 11   6   9  1   
 12   6  10  1   
 13   6  28  1   
 14   7  11  2   
 15   7  12  1   
 16   8  13  1   
 17   8  29  1   
 18   9  14  1   
 19   9  30  1   
 20   9  31  1   
 21  10  15  1   
 22  10  32  1   
 23  10  33  1   
 24  11  13  1   
 25  12  34  1   
 26  12  35  1   
 27  12  36  1   
 28  13  16  1   
 29  14  17  1   
 30  14  37  1   
 31  14  38  1   
 32  15  17  1   
 33  15  39  1   
 34  15  40  1   
 35  16  41  1   
 36  16  42  1   
 37  16  43  1   
 38  17  18  1   
 39  17  44  1   
 40  18  19  1   
 41  18  45  1   
 42  18  46  1   
 43  19  20  ar  
 44  19  21  ar  
 45  20  22  ar  
 46  20  47  1   
 47  21  23  ar  
 48  21  48  1   
 49  22  24  ar  
 50  22  49  1   
 51  23  24  ar  
 52  23  50  1   
 53  24  51  1   
@<TRIPOS>SUBSTRUCTURE
  1 ****   6 GROUP 4 **** **** 0

# MOE 2024.06 (io_trps.svl 2023.06)
