@<TRIPOS>MOLECULE
NONAME
49 53 1 0 0 
SMALL
USER_CHARGES


@<TRIPOS>ATOM
  1 O       -3.9590     2.3240    -2.1420 O.2   1 <1>  -0.5700 
  2 C       -3.3650     1.6210    -1.3470 C.2   1 <1>   0.5440 
  3 N       -3.5350     0.2600    -1.4080 N.am  1 <1>  -0.6600 
  4 C       -2.4980     2.2120    -0.3600 C.ar  1 <1>   0.0860 
  5 C       -4.4760    -0.3990    -2.3470 C.3   1 <1>   0.1400 
  6 C       -3.0310    -0.7060    -0.4050 C.3   1 <1>   0.1400 
  7 C       -1.1060     2.2220    -0.5020 C.ar  1 <1>   0.0000 
  8 C       -2.9450     2.7880     0.8140 C.ar  1 <1>  -0.1440 
  9 C       -4.5510    -1.8540    -1.8780 C.3   1 <1>   0.2000 
 10 C       -4.0380    -1.8560    -0.4380 C.3   1 <1>  -0.0800 
 11 C       -0.3300     2.7480     0.5050 C.ar  1 <1>   0.3970 
 12 C       -0.1480     1.8180    -1.4480 C.2   1 <1>   0.1080 
 13 C       -2.0580     3.2940     1.7490 C.ar  1 <1>   0.1660 
 14 C       -4.3760     2.9520     1.2710 C.3   1 <1>  -0.0170 
 15 O       -5.8490    -2.3400    -1.9130 O.3   1 <1>  -0.6800 
 16 C       -3.4530    -3.2140    -0.0130 C.3   1 <1>  -0.0160 
 17 O        0.9350     2.6230     0.1410 O.3   1 <1>  -0.0190 
 18 N       -0.7490     3.2920     1.6520 N.ar  1 <1>  -0.5670 
 19 N        1.0410     2.0600    -1.0430 N.2   1 <1>  -0.4100 
 20 C       -0.4680     1.1860    -2.7870 C.3   1 <1>  -0.0590 
 21 C       -2.7920     3.8620     2.9360 C.3   1 <1>  -0.0170 
 22 C       -4.2650     3.8900     2.4860 C.3   1 <1>  -0.1600 
 23 C       -2.9470    -3.1880     1.4220 C.ar  1 <1>   0.1670 
 24 N       -1.7590    -2.6360     1.6190 N.ar  1 <1>  -0.6200 
 25 C       -3.7250    -3.7240     2.4460 C.ar  1 <1>   0.1600 
 26 C       -1.4040    -2.6600     2.8930 C.ar  1 <1>   0.1600 
 27 N       -3.3740    -3.7430     3.7220 N.ar  1 <1>  -0.6200 
 28 C       -2.1860    -3.1940     3.9100 C.ar  1 <1>   0.1600 
 29 H       -5.4360     0.0860    -2.2890 H     1 <1>   0.0800 
 30 H       -4.0960    -0.3360    -3.3520 H     1 <1>   0.0800 
 31 H       -2.0530    -1.0460    -0.7020 H     1 <1>   0.0800 
 32 H       -2.9740    -0.2690     0.5780 H     1 <1>   0.0800 
 33 H       -3.9400    -2.4730    -2.5130 H     1 <1>   0.0800 
 34 H       -4.8410    -1.5910     0.2270 H     1 <1>   0.0800 
 35 H       -4.9910     3.3820     0.4970 H     1 <1>   0.0800 
 36 H       -4.7760     1.9970     1.5630 H     1 <1>   0.0800 
 37 H       -6.4490    -1.7450    -1.4230 H     1 <1>   0.4000 
 38 H       -2.6390    -3.4840    -0.6630 H     1 <1>   0.0800 
 39 H       -4.2100    -3.9700    -0.1150 H     1 <1>   0.0800 
 40 H       -1.1760     1.7940    -3.3210 H     1 <1>   0.0800 
 41 H       -0.8820     0.2060    -2.6420 H     1 <1>   0.0800 
 42 H        0.4270     1.1010    -3.3770 H     1 <1>   0.0800 
 43 H       -2.6580     3.2100     3.7800 H     1 <1>   0.0800 
 44 H       -2.4330     4.8470     3.1760 H     1 <1>   0.0800 
 45 H       -4.9300     3.5970     3.2790 H     1 <1>   0.0800 
 46 H       -4.5140     4.8900     2.1750 H     1 <1>   0.0800 
 47 H       -4.6790    -4.1550     2.2020 H     1 <1>   0.1500 
 48 H       -0.4490    -2.2350     3.1460 H     1 <1>   0.1500 
 49 H       -1.8120    -3.1670     4.9180 H     1 <1>   0.1500 
@<TRIPOS>BOND
  1   1   2  2   
  2   2   3  am  
  3   2   4  1   
  4   3   5  1   
  5   3   6  1   
  6   4   7  ar  
  7   4   8  ar  
  8   5   9  1   
  9   5  29  1   
 10   5  30  1   
 11   6  10  1   
 12   6  31  1   
 13   6  32  1   
 14   7  11  ar  
 15   7  12  1   
 16   8  13  ar  
 17   8  14  1   
 18   9  10  1   
 19   9  15  1   
 20   9  33  1   
 21  10  16  1   
 22  10  34  1   
 23  11  17  1   
 24  11  18  ar  
 25  12  19  2   
 26  12  20  1   
 27  13  18  ar  
 28  13  21  1   
 29  14  22  1   
 30  14  35  1   
 31  14  36  1   
 32  15  37  1   
 33  16  23  1   
 34  16  38  1   
 35  16  39  1   
 36  17  19  1   
 37  20  40  1   
 38  20  41  1   
 39  20  42  1   
 40  21  22  1   
 41  21  43  1   
 42  21  44  1   
 43  22  45  1   
 44  22  46  1   
 45  23  24  ar  
 46  23  25  ar  
 47  24  26  ar  
 48  25  27  ar  
 49  25  47  1   
 50  26  28  ar  
 51  26  48  1   
 52  27  28  ar  
 53  28  49  1   
@<TRIPOS>SUBSTRUCTURE
  1 ****   6 GROUP 4 **** **** 0

# MOE 2024.06 (io_trps.svl 2023.06)
