@<TRIPOS>MOLECULE
NONAME
51 53 1 0 0 
SMALL
USER_CHARGES


@<TRIPOS>ATOM
  1 O        0.0030     0.5800    -0.0480 O.2   1 <1>  -0.5700 
  2 C        0.1750     1.7450     0.2280 C.2   1 <1>   0.5690 
  3 N       -0.8840     2.6100     0.3100 N.am  1 <1>  -0.7300 
  4 C        1.6050     2.2620     0.5370 C.3   1 <1>   0.4940 
  5 C       -2.3010     2.2600     0.0330 C.3   1 <1>   0.0600 
  6 N        1.7230     3.7590     0.4300 N.pl3 1 <1>  -0.8690 
  7 C        2.6870     1.6280    -0.3440 C.ar  1 <1>  -0.1430 
  8 C        2.8020     4.5220     0.6510 C.ar  1 <1>   0.4100 
  9 C        3.4940     0.6200     0.1690 C.ar  1 <1>  -0.1500 
 10 C        2.8910     2.0520    -1.6520 C.ar  1 <1>  -0.1500 
 11 N        2.7220     5.7340     0.1560 N.ar  1 <1>  -0.6200 
 12 C        3.9440     4.0610     1.3330 C.ar  1 <1>  -0.1500 
 13 C        4.4960     0.0600    -0.6040 C.ar  1 <1>  -0.1500 
 14 C        3.8920     1.4910    -2.4250 C.ar  1 <1>  -0.1500 
 15 C        3.7770     6.5270     0.2920 C.ar  1 <1>   0.7710 
 16 C        5.0110     4.8860     1.4570 C.ar  1 <1>   0.2180 
 17 C        4.6980     0.4970    -1.9010 C.ar  1 <1>  -0.1500 
 18 N        4.8960     6.1230     0.9190 N.ar  1 <1>  -0.1790 
 19 N        3.7310     7.7810    -0.2180 N.pl3 1 <1>  -0.8380 
 20 C        6.3070     4.4930     2.1550 C.3   1 <1>  -0.0170 
 21 C        2.5370     8.2780    -0.9580 C.3   1 <1>   0.2090 
 22 C        4.7600     8.8550    -0.1380 C.3   1 <1>   0.2090 
 23 C        7.4990     4.4730     1.1900 C.3   1 <1>  -0.2400 
 24 C        2.9560     9.6210    -1.5390 C.3   1 <1>  -0.1600 
 25 C        4.0490    10.1180    -0.6030 C.3   1 <1>  -0.1600 
 26 H       -0.7240     3.5520     0.6760 H     1 <1>   0.3700 
 27 H        1.8000     1.9910     1.5580 H     1 <1>   0.0800 
 28 H       -2.3740     1.2510    -0.3400 H     1 <1>   0.0800 
 29 H       -2.7060     2.9310    -0.7050 H     1 <1>   0.0800 
 30 H       -2.8790     2.3360     0.9380 H     1 <1>   0.0800 
 31 H        1.0370     4.1570    -0.2160 H     1 <1>   0.4000 
 32 H        3.3460     0.2560     1.1700 H     1 <1>   0.1500 
 33 H        2.2720     2.8210    -2.0770 H     1 <1>   0.1500 
 34 H        3.9520     3.0650     1.7310 H     1 <1>   0.1500 
 35 H        5.1150    -0.7230    -0.2010 H     1 <1>   0.1500 
 36 H        4.0410     1.8240    -3.4380 H     1 <1>   0.1500 
 37 H        5.4740     0.0580    -2.5040 H     1 <1>   0.1500 
 38 H        5.6500     6.7950     0.9470 H     1 <1>   0.4570 
 39 H        6.1970     3.5110     2.5840 H     1 <1>   0.0800 
 40 H        6.5050     5.1750     2.9650 H     1 <1>   0.0800 
 41 H        1.7190     8.4090    -0.2670 H     1 <1>   0.0800 
 42 H        2.2410     7.5930    -1.7350 H     1 <1>   0.0800 
 43 H        5.5690     8.6290    -0.8130 H     1 <1>   0.0800 
 44 H        5.1330     8.9800     0.8650 H     1 <1>   0.0800 
 45 H        7.3110     3.7930     0.3750 H     1 <1>   0.0800 
 46 H        8.3820     4.1360     1.7070 H     1 <1>   0.0800 
 47 H        7.7020     5.4490     0.7880 H     1 <1>   0.0800 
 48 H        2.1270    10.3040    -1.6020 H     1 <1>   0.0800 
 49 H        3.3560     9.4670    -2.5260 H     1 <1>   0.0800 
 50 H        4.7220    10.8040    -1.0880 H     1 <1>   0.0800 
 51 H        3.6060    10.6080     0.2480 H     1 <1>   0.0800 
@<TRIPOS>BOND
  1   1   2  2   
  2   2   3  am  
  3   2   4  1   
  4   3   5  1   
  5   3  26  1   
  6   4   6  1   
  7   4   7  1   
  8   4  27  1   
  9   5  28  1   
 10   5  29  1   
 11   5  30  1   
 12   6   8  1   
 13   6  31  1   
 14   7   9  ar  
 15   7  10  ar  
 16   8  11  ar  
 17   8  12  ar  
 18   9  13  ar  
 19   9  32  1   
 20  10  14  ar  
 21  10  33  1   
 22  11  15  ar  
 23  12  16  ar  
 24  12  34  1   
 25  13  17  ar  
 26  13  35  1   
 27  14  17  ar  
 28  14  36  1   
 29  15  18  ar  
 30  15  19  1   
 31  16  18  ar  
 32  16  20  1   
 33  17  37  1   
 34  18  38  1   
 35  19  21  1   
 36  19  22  1   
 37  20  23  1   
 38  20  39  1   
 39  20  40  1   
 40  21  24  1   
 41  21  41  1   
 42  21  42  1   
 43  22  25  1   
 44  22  43  1   
 45  22  44  1   
 46  23  45  1   
 47  23  46  1   
 48  23  47  1   
 49  24  25  1   
 50  24  48  1   
 51  24  49  1   
 52  25  50  1   
 53  25  51  1   
@<TRIPOS>SUBSTRUCTURE
  1 ****   8 GROUP 4 **** **** 0

# MOE 2024.06 (io_trps.svl 2023.06)
