@<TRIPOS>MOLECULE
NONAME
43 45 1 0 0 
SMALL
USER_CHARGES


@<TRIPOS>ATOM
  1 O       -2.0880     0.6960    -2.1170 O.2   1 <1>  -0.5700 
  2 C       -1.8700     0.9710    -0.9550 C.2   1 <1>   0.5440 
  3 N       -1.9980    -0.0200    -0.0250 N.am  1 <1>  -0.7300 
  4 C       -1.5040     2.3170    -0.5800 C.ar  1 <1>   0.0860 
  5 C       -2.3190    -1.4340    -0.3300 C.3   1 <1>   0.2200 
  6 C       -0.8800     2.6300     0.6140 C.ar  1 <1>   0.1600 
  7 C       -1.7530     3.3960    -1.4060 C.ar  1 <1>   0.1600 
  8 C       -3.7870    -1.6890    -0.0310 C.3   1 <1>  -0.0800 
  9 C       -1.6380    -2.3330     0.6930 C.3   1 <1>   0.1200 
 10 N       -0.5600     3.8560     0.9650 N.ar  1 <1>  -0.6200 
 11 N       -1.4450     4.6370    -1.0900 N.ar  1 <1>  -0.6200 
 12 C       -3.7740    -1.9980     1.4730 C.3   1 <1>   0.1200 
 13 C       -4.3330    -2.8630    -0.8670 C.3   1 <1>  -0.0170 
 14 O       -2.4490    -2.2810     1.8260 O.3   1 <1>  -0.5600 
 15 C       -0.8640     4.8010     0.0880 C.ar  1 <1>   0.4770 
 16 C       -5.8020    -3.1270    -0.5730 C.ar  1 <1>  -0.1430 
 17 C       -0.5090     6.2270     0.4760 C.3   1 <1>  -0.0170 
 18 C       -6.7980    -2.2970    -1.0480 C.ar  1 <1>  -0.1500 
 19 C       -6.2180    -4.2080     0.1790 C.ar  1 <1>  -0.1500 
 20 C       -1.6430     6.9160     1.2490 C.3   1 <1>  -0.2400 
 21 C       -8.1220    -2.5770    -0.7530 C.ar  1 <1>   0.1600 
 22 C       -7.5700    -4.3970     0.4170 C.ar  1 <1>   0.1600 
 23 N       -8.5320    -3.6060    -0.0290 N.ar  1 <1>  -0.6200 
 24 H       -1.9780     0.1780     0.9780 H     1 <1>   0.3700 
 25 H       -2.0370    -1.6770    -1.3420 H     1 <1>   0.0800 
 26 H       -0.6320     1.8440     1.3050 H     1 <1>   0.1500 
 27 H       -2.2230     3.2250    -2.3610 H     1 <1>   0.1500 
 28 H       -4.3820    -0.8170    -0.2390 H     1 <1>   0.0800 
 29 H       -0.6440    -2.0050     0.9420 H     1 <1>   0.0800 
 30 H       -1.6120    -3.3530     0.3520 H     1 <1>   0.0800 
 31 H       -4.3870    -2.8420     1.7340 H     1 <1>   0.0800 
 32 H       -4.0870    -1.1420     2.0430 H     1 <1>   0.0800 
 33 H       -3.7630    -3.7550    -0.6760 H     1 <1>   0.0800 
 34 H       -4.2300    -2.6320    -1.9130 H     1 <1>   0.0800 
 35 H        0.3800     6.2130     1.0810 H     1 <1>   0.0800 
 36 H       -0.2900     6.7870    -0.4150 H     1 <1>   0.0800 
 37 H       -6.5570    -1.4370    -1.6450 H     1 <1>   0.1500 
 38 H       -5.5080    -4.9050     0.5830 H     1 <1>   0.1500 
 39 H       -1.8590     6.3700     2.1510 H     1 <1>   0.0800 
 40 H       -2.5330     6.9500     0.6450 H     1 <1>   0.0800 
 41 H       -1.3600     7.9200     1.5090 H     1 <1>   0.0800 
 42 H       -8.8850    -1.9180    -1.1320 H     1 <1>   0.1500 
 43 H       -7.8750    -5.2450     1.0060 H     1 <1>   0.1500 
@<TRIPOS>BOND
  1   1   2  2   
  2   2   3  am  
  3   2   4  1   
  4   3   5  1   
  5   3  24  1   
  6   4   6  ar  
  7   4   7  ar  
  8   5   8  1   
  9   5   9  1   
 10   5  25  1   
 11   6  10  ar  
 12   6  26  1   
 13   7  11  ar  
 14   7  27  1   
 15   8  12  1   
 16   8  13  1   
 17   8  28  1   
 18   9  14  1   
 19   9  29  1   
 20   9  30  1   
 21  10  15  ar  
 22  11  15  ar  
 23  12  14  1   
 24  12  31  1   
 25  12  32  1   
 26  13  16  1   
 27  13  33  1   
 28  13  34  1   
 29  15  17  1   
 30  16  18  ar  
 31  16  19  ar  
 32  17  20  1   
 33  17  35  1   
 34  17  36  1   
 35  18  21  ar  
 36  18  37  1   
 37  19  22  ar  
 38  19  38  1   
 39  20  39  1   
 40  20  40  1   
 41  20  41  1   
 42  21  23  ar  
 43  21  42  1   
 44  22  23  ar  
 45  22  43  1   
@<TRIPOS>SUBSTRUCTURE
  1 ****   3 GROUP 4 **** **** 0

# MOE 2024.06 (io_trps.svl 2023.06)
