@<TRIPOS>MOLECULE
NONAME
48 48 1 0 0 
SMALL
USER_CHARGES


@<TRIPOS>ATOM
  1 S       -0.0930     0.2890    -0.1510 S.o2  1 <1>   1.0900 
  2 O       -0.7340     0.6710     1.0840 O.2   1 <1>  -0.6500 
  3 O       -0.7040     0.6150    -1.4170 O.2   1 <1>  -0.6500 
  4 C        1.5380     1.0130    -0.1370 C.3   1 <1>  -0.0550 
  5 C        0.2140    -1.4660    -0.1080 C.3   1 <1>  -0.1350 
  6 C        1.4280     2.5330    -0.2350 C.3   1 <1>   0.1100 
  7 N        2.7600     3.1620    -0.1750 N.3   1 <1>  -0.8100 
  8 C        2.7290     4.4920    -0.8460 C.3   1 <1>   0.1100 
  9 C        3.2530     3.3020     1.2180 C.3   1 <1>   0.1100 
 10 C        3.9980     5.3620    -0.5990 C.3   1 <1>   0.4230 
 11 C        4.6920     3.8700     1.2700 C.3   1 <1>   0.3430 
 12 N        5.0880     4.5020    -0.0350 N.4   1 <1>  -0.9590 
 13 C        3.7260     6.5950     0.2940 C.3   1 <1>  -0.1600 
 14 C        6.4180     5.1760    -0.0350 C.3   1 <1>   0.3430 
 15 C        4.0450     7.9020    -0.4370 C.3   1 <1>   0.1200 
 16 C        7.5700     4.1830     0.2070 C.3   1 <1>  -0.0800 
 17 O        5.3390     7.8310    -0.9180 O.3   1 <1>  -0.6800 
 18 C        8.9090     4.9290     0.1290 C.3   1 <1>  -0.2400 
 19 C        7.5750     3.0240    -0.8050 C.3   1 <1>  -0.2400 
 20 H        2.1050     0.6550    -0.9730 H     1 <1>   0.0800 
 21 H        2.0390     0.7430     0.7700 H     1 <1>   0.0800 
 22 H       -0.7180    -1.9980    -0.1090 H     1 <1>   0.0800 
 23 H        0.7540    -1.7350     0.7790 H     1 <1>   0.0800 
 24 H        0.7770    -1.7730    -0.9670 H     1 <1>   0.0800 
 25 H        0.7950     2.9140     0.5510 H     1 <1>   0.0800 
 26 H        0.9570     2.7670    -1.1770 H     1 <1>   0.0800 
 27 H        1.8470     5.0320    -0.5460 H     1 <1>   0.0800 
 28 H        2.6400     4.3310    -1.9070 H     1 <1>   0.0800 
 29 H        3.2440     2.3480     1.7160 H     1 <1>   0.0800 
 30 H        2.5970     3.9560     1.7680 H     1 <1>   0.0800 
 31 H        4.3190     5.7310    -1.5610 H     1 <1>   0.0800 
 32 H        5.3720     3.0660     1.4960 H     1 <1>   0.0800 
 33 H        4.7610     4.5880     2.0700 H     1 <1>   0.0800 
 34 H        5.1280     3.7130    -0.6930 H     1 <1>   0.4500 
 35 H        4.3010     6.5690     1.2000 H     1 <1>   0.0800 
 36 H        2.6930     6.6340     0.5860 H     1 <1>   0.0800 
 37 H        6.4380     5.9470     0.7170 H     1 <1>   0.0800 
 38 H        6.5720     5.6530    -0.9890 H     1 <1>   0.0800 
 39 H        3.9740     8.7430     0.2340 H     1 <1>   0.0800 
 40 H        3.3810     8.0550    -1.2720 H     1 <1>   0.0800 
 41 H        7.4870     3.7810     1.2020 H     1 <1>   0.0800 
 42 H        5.6030     8.6890    -1.3170 H     1 <1>   0.4000 
 43 H        9.0600     5.3460    -0.8520 H     1 <1>   0.0800 
 44 H        9.7240     4.2590     0.3400 H     1 <1>   0.0800 
 45 H        8.9410     5.7280     0.8490 H     1 <1>   0.0800 
 46 H        7.6240     3.3980    -1.8130 H     1 <1>   0.0800 
 47 H        6.7000     2.4080    -0.7040 H     1 <1>   0.0800 
 48 H        8.4340     2.3950    -0.6410 H     1 <1>   0.0800 
@<TRIPOS>BOND
  1   1   2  2   
  2   1   3  2   
  3   1   4  1   
  4   1   5  1   
  5   4   6  1   
  6   4  20  1   
  7   4  21  1   
  8   5  22  1   
  9   5  23  1   
 10   5  24  1   
 11   6   7  1   
 12   6  25  1   
 13   6  26  1   
 14   7   8  1   
 15   7   9  1   
 16   8  10  1   
 17   8  27  1   
 18   8  28  1   
 19   9  11  1   
 20   9  29  1   
 21   9  30  1   
 22  10  12  1   
 23  10  13  1   
 24  10  31  1   
 25  11  12  1   
 26  11  32  1   
 27  11  33  1   
 28  12  14  1   
 29  12  34  1   
 30  13  15  1   
 31  13  35  1   
 32  13  36  1   
 33  14  16  1   
 34  14  37  1   
 35  14  38  1   
 36  15  17  1   
 37  15  39  1   
 38  15  40  1   
 39  16  18  1   
 40  16  19  1   
 41  16  41  1   
 42  17  42  1   
 43  18  43  1   
 44  18  44  1   
 45  18  45  1   
 46  19  46  1   
 47  19  47  1   
 48  19  48  1   
@<TRIPOS>SUBSTRUCTURE
  1 ****   7 GROUP 4 **** **** 0

# MOE 2024.06 (io_trps.svl 2023.06)
