@<TRIPOS>MOLECULE
NONAME
44 45 1 0 0 
SMALL
USER_CHARGES


@<TRIPOS>ATOM
  1 O        0.1520     0.6650     0.7780 O.3   1 <1>  -0.5600 
  2 C        0.2440     1.8080    -0.0180 C.3   1 <1>   0.2000 
  3 C       -0.0500    -0.5290     0.0920 C.3   1 <1>   0.1200 
  4 C        1.0340     2.8640     0.7710 C.3   1 <1>   0.2090 
  5 C       -1.1710     2.3080    -0.3490 C.3   1 <1>  -0.1600 
  6 C       -0.0920    -1.6550     1.1230 C.3   1 <1>  -0.1600 
  7 N        1.0310     4.1890     0.0650 N.pl3 1 <1>  -0.8380 
  8 C       -1.1140     3.6760    -1.0490 C.3   1 <1>  -0.1600 
  9 C       -0.3200    -3.0170     0.4570 C.3   1 <1>  -0.2400 
 10 C        2.1420     4.6630    -0.5440 C.ar  1 <1>   0.4100 
 11 C       -0.3300     4.7110    -0.2360 C.3   1 <1>   0.2090 
 12 N        2.7640     3.8200    -1.3470 N.ar  1 <1>  -0.6200 
 13 C        2.6060     5.9880    -0.3270 C.ar  1 <1>  -0.1440 
 14 C        3.8180     4.2600    -1.9920 C.ar  1 <1>   0.7710 
 15 C        3.6990     6.3910    -1.0260 C.ar  1 <1>   0.2110 
 16 C        1.8940     6.8930     0.6880 C.3   1 <1>  -0.0160 
 17 N        4.2910     5.5090    -1.8670 N.ar  1 <1>  -0.1790 
 18 N        4.4180     3.3940    -2.8040 N.pl3 1 <1>  -0.9000 
 19 C        2.7090     8.1070     1.1550 C.3   1 <1>  -0.2400 
 20 H        0.7910     1.5720    -0.9150 H     1 <1>   0.0800 
 21 H        0.7650    -0.6770    -0.5960 H     1 <1>   0.0800 
 22 H       -0.9810    -0.4770    -0.4440 H     1 <1>   0.0800 
 23 H        2.0450     2.5210     0.9030 H     1 <1>   0.0800 
 24 H        0.5860     2.9870     1.7410 H     1 <1>   0.0800 
 25 H       -1.7330     2.4000     0.5640 H     1 <1>   0.0800 
 26 H       -1.6710     1.6070    -0.9930 H     1 <1>   0.0800 
 27 H       -0.8880    -1.4630     1.8200 H     1 <1>   0.0800 
 28 H        0.8390    -1.6750     1.6620 H     1 <1>   0.0800 
 29 H       -2.1140     4.0380    -1.2100 H     1 <1>   0.0800 
 30 H       -0.6460     3.5690    -2.0120 H     1 <1>   0.0800 
 31 H       -1.2550    -3.0240    -0.0760 H     1 <1>   0.0800 
 32 H       -0.3470    -3.7900     1.2040 H     1 <1>   0.0800 
 33 H        0.4760    -3.2370    -0.2330 H     1 <1>   0.0800 
 34 H       -0.2610     5.6240    -0.8010 H     1 <1>   0.0800 
 35 H       -0.8420     4.9190     0.6890 H     1 <1>   0.0800 
 36 H        4.1270     7.3760    -0.9410 H     1 <1>   0.1500 
 37 H        1.6500     6.3090     1.5590 H     1 <1>   0.0800 
 38 H        0.9680     7.2430     0.2660 H     1 <1>   0.0800 
 39 H        5.1110     5.7500    -2.4140 H     1 <1>   0.4570 
 40 H        5.2420     3.5220    -3.3920 H     1 <1>   0.4000 
 41 H        4.0130     2.4530    -2.8590 H     1 <1>   0.4000 
 42 H        3.6530     7.7960     1.5680 H     1 <1>   0.0800 
 43 H        2.1650     8.6260     1.9250 H     1 <1>   0.0800 
 44 H        2.8750     8.7980     0.3480 H     1 <1>   0.0800 
@<TRIPOS>BOND
  1   1   2  1   
  2   1   3  1   
  3   2   4  1   
  4   2   5  1   
  5   2  20  1   
  6   3   6  1   
  7   3  21  1   
  8   3  22  1   
  9   4   7  1   
 10   4  23  1   
 11   4  24  1   
 12   5   8  1   
 13   5  25  1   
 14   5  26  1   
 15   6   9  1   
 16   6  27  1   
 17   6  28  1   
 18   7  10  1   
 19   7  11  1   
 20   8  11  1   
 21   8  29  1   
 22   8  30  1   
 23   9  31  1   
 24   9  32  1   
 25   9  33  1   
 26  10  12  ar  
 27  10  13  ar  
 28  11  34  1   
 29  11  35  1   
 30  12  14  ar  
 31  13  15  ar  
 32  13  16  1   
 33  14  17  ar  
 34  14  18  1   
 35  15  17  ar  
 36  15  36  1   
 37  16  19  1   
 38  16  37  1   
 39  16  38  1   
 40  17  39  1   
 41  18  40  1   
 42  18  41  1   
 43  19  42  1   
 44  19  43  1   
 45  19  44  1   
@<TRIPOS>SUBSTRUCTURE
  1 ****   7 GROUP 4 **** **** 0

# MOE 2024.06 (io_trps.svl 2023.06)
