@<TRIPOS>MOLECULE
NONAME
40 42 1 0 0 
SMALL
USER_CHARGES


@<TRIPOS>ATOM
  1 O        1.4090     0.5230     1.3350 O.2   1 <1>  -0.5700 
  2 C        1.5190     1.4260     0.5480 C.2   1 <1>   0.5690 
  3 N        0.8210     2.5660     0.5730 N.am  1 <1>  -0.7300 
  4 C        2.4930     1.4420    -0.5960 C.3   1 <1>  -0.0990 
  5 C        1.2080     3.5430    -0.4640 C.3   1 <1>   0.2810 
  6 C        2.5190     2.9280    -1.0070 C.3   1 <1>  -0.1600 
  7 C        1.3080     4.9980     0.0450 C.2   1 <1>   0.5690 
  8 O        0.5500     5.3540     0.9180 O.2   1 <1>  -0.5700 
  9 N        2.2320     5.8430    -0.5180 N.am  1 <1>  -0.4940 
 10 C        2.4460     7.2170    -0.2450 C.2   1 <1>  -0.0880 
 11 N        3.6590     7.7820     0.0140 N.pl3 1 <1>   0.3140 
 12 C        1.5390     8.2220    -0.1970 C.2   1 <1>  -0.1810 
 13 N        3.5460     9.1200     0.2030 N.2   1 <1>  -0.7070 
 14 C        4.9600     7.0630     0.1410 C.3   1 <1>   0.1760 
 15 C        2.2790     9.3640     0.0840 C.2   1 <1>   0.1390 
 16 C        0.0350     8.1770    -0.3950 C.3   1 <1>  -0.0590 
 17 C        5.6570     7.2940     1.4820 C.3   1 <1>  -0.1600 
 18 C        5.9960     7.5070    -0.8910 C.3   1 <1>  -0.1600 
 19 C        7.1290     6.9610     1.2220 C.3   1 <1>  -0.1600 
 20 C        7.3480     7.1090    -0.2900 C.3   1 <1>  -0.1600 
 21 H        0.2040     2.8380     1.3440 H     1 <1>   0.3700 
 22 H        2.1120     0.8210    -1.3850 H     1 <1>   0.0800 
 23 H        3.4580     1.0890    -0.2800 H     1 <1>   0.0800 
 24 H        0.4550     3.5160    -1.2320 H     1 <1>   0.0800 
 25 H        2.6070     3.0500    -2.0720 H     1 <1>   0.0800 
 26 H        3.3630     3.3940    -0.5280 H     1 <1>   0.0800 
 27 H        2.8430     5.4400    -1.2270 H     1 <1>   0.3700 
 28 H        4.7900     6.0090     0.0300 H     1 <1>   0.0800 
 29 H        1.8570    10.3500     0.1910 H     1 <1>   0.1500 
 30 H       -0.2440     7.3030    -0.9540 H     1 <1>   0.0800 
 31 H       -0.2970     9.0480    -0.9290 H     1 <1>   0.0800 
 32 H       -0.4530     8.1420     0.5620 H     1 <1>   0.0800 
 33 H        5.2380     6.6830     2.2620 H     1 <1>   0.0800 
 34 H        5.5790     8.3320     1.7590 H     1 <1>   0.0800 
 35 H        5.9630     8.5800    -0.9930 H     1 <1>   0.0800 
 36 H        5.8330     7.0500    -1.8500 H     1 <1>   0.0800 
 37 H        7.3350     5.9480     1.5200 H     1 <1>   0.0800 
 38 H        7.7730     7.6230     1.7770 H     1 <1>   0.0800 
 39 H        8.0930     7.8570    -0.5050 H     1 <1>   0.0800 
 40 H        7.6740     6.1690    -0.7020 H     1 <1>   0.0800 
@<TRIPOS>BOND
  1   1   2  2   
  2   2   3  am  
  3   2   4  1   
  4   3   5  1   
  5   3  21  1   
  6   4   6  1   
  7   4  22  1   
  8   4  23  1   
  9   5   6  1   
 10   5   7  1   
 11   5  24  1   
 12   6  25  1   
 13   6  26  1   
 14   7   8  2   
 15   7   9  am  
 16   9  10  1   
 17   9  27  1   
 18  10  11  1   
 19  10  12  2   
 20  11  13  1   
 21  11  14  1   
 22  12  15  1   
 23  12  16  1   
 24  13  15  2   
 25  14  17  1   
 26  14  18  1   
 27  14  28  1   
 28  15  29  1   
 29  16  30  1   
 30  16  31  1   
 31  16  32  1   
 32  17  19  1   
 33  17  33  1   
 34  17  34  1   
 35  18  20  1   
 36  18  35  1   
 37  18  36  1   
 38  19  20  1   
 39  19  37  1   
 40  19  38  1   
 41  20  39  1   
 42  20  40  1   
@<TRIPOS>SUBSTRUCTURE
  1 ****   9 GROUP 4 **** **** 0

# MOE 2024.06 (io_trps.svl 2023.06)
