@<TRIPOS>MOLECULE
NONAME
53 54 1 0 0 
SMALL
USER_CHARGES


@<TRIPOS>ATOM
  1 O        1.8120     2.5630    -1.0480 O.co2 1 <1>  -0.9000 
  2 C        1.4480     3.3310    -1.9450 C.2   1 <1>   0.9060 
  3 O        2.1250     3.5040    -2.9570 O.co2 1 <1>  -0.9000 
  4 C        0.3230     4.2950    -1.6640 C.3   1 <1>  -0.1860 
  5 C        0.1850     4.3620    -0.1640 C.3   1 <1>   0.3430 
  6 C       -1.0600     3.9910    -2.2650 C.3   1 <1>  -0.1600 
  7 N       -0.6130     5.5670     0.1440 N.4   1 <1>  -0.9590 
  8 C       -2.0680     5.0640    -1.7950 C.3   1 <1>  -0.1600 
  9 C       -2.0230     5.3440    -0.2780 C.3   1 <1>   0.3430 
 10 C       -0.3810     5.9880     1.5440 C.3   1 <1>   0.4860 
 11 C        0.4590     7.2600     1.5400 C.ar  1 <1>  -0.1430 
 12 C        1.7680     7.3110     1.0540 C.ar  1 <1>   0.0830 
 13 C       -0.1150     8.4180     2.0440 C.ar  1 <1>  -0.1500 
 14 O        2.3320     6.1820     0.5530 O.3   1 <1>  -0.3630 
 15 C        2.4750     8.5190     1.0310 C.ar  1 <1>   0.0830 
 16 C        0.5900     9.6070     2.0560 C.ar  1 <1>  -0.1500 
 17 C        3.4650     5.6170     1.1970 C.3   1 <1>   0.1200 
 18 O        3.7200     8.5340     0.4710 O.3   1 <1>  -0.3630 
 19 C        1.8760     9.6620     1.5500 C.ar  1 <1>  -0.1500 
 20 C        3.9740     4.3960     0.4010 C.3   1 <1>   0.3430 
 21 C        4.4540     9.7350     0.3430 C.3   1 <1>   0.0400 
 22 N        4.6990     4.7080    -0.8820 N.4   1 <1>  -0.9590 
 23 C        3.9620     5.6640    -1.7670 C.3   1 <1>   0.2630 
 24 C        4.8720     3.4250    -1.6400 C.3   1 <1>   0.2630 
 25 H        0.6650     5.2440    -2.0330 H     1 <1>   0.0800 
 26 H        1.1600     4.4090     0.2840 H     1 <1>   0.0800 
 27 H       -0.2970     3.4690     0.1990 H     1 <1>   0.0800 
 28 H       -0.9950     3.9820    -3.3410 H     1 <1>   0.0800 
 29 H       -1.3820     3.0130    -1.9470 H     1 <1>   0.0800 
 30 H       -0.2170     6.3200    -0.4340 H     1 <1>   0.4500 
 31 H       -3.0640     4.7600    -2.0680 H     1 <1>   0.0800 
 32 H       -1.8670     5.9840    -2.3170 H     1 <1>   0.0800 
 33 H       -2.4290     4.4980     0.2530 H     1 <1>   0.0800 
 34 H       -2.6230     6.2120    -0.0530 H     1 <1>   0.0800 
 35 H       -1.3220     6.1790     2.0320 H     1 <1>   0.0800 
 36 H        0.1350     5.2140     2.0900 H     1 <1>   0.0800 
 37 H       -1.1190     8.4140     2.4370 H     1 <1>   0.1500 
 38 H        0.1360    10.4990     2.4560 H     1 <1>   0.1500 
 39 H        4.2420     6.3510     1.2960 H     1 <1>   0.0800 
 40 H        3.1550     5.3050     2.1790 H     1 <1>   0.0800 
 41 H        2.3860    10.6070     1.5690 H     1 <1>   0.1500 
 42 H        3.1360     3.7550     0.1930 H     1 <1>   0.0800 
 43 H        4.6410     3.8360     1.0350 H     1 <1>   0.0800 
 44 H        5.3840     9.5120    -0.1480 H     1 <1>   0.0800 
 45 H        4.6480    10.1340     1.3230 H     1 <1>   0.0800 
 46 H        3.8890    10.4320    -0.2510 H     1 <1>   0.0800 
 47 H        5.6240     5.1030    -0.6750 H     1 <1>   0.4500 
 48 H        2.9670     5.3060    -1.9550 H     1 <1>   0.0800 
 49 H        4.4670     5.7660    -2.7130 H     1 <1>   0.0800 
 50 H        3.8940     6.6330    -1.3000 H     1 <1>   0.0800 
 51 H        3.9220     2.9370    -1.7840 H     1 <1>   0.0800 
 52 H        5.5140     2.7500    -1.1010 H     1 <1>   0.0800 
 53 H        5.2980     3.6140    -2.6110 H     1 <1>   0.0800 
@<TRIPOS>BOND
  1   1   2  ar  
  2   2   3  ar  
  3   2   4  1   
  4   4   5  1   
  5   4   6  1   
  6   4  25  1   
  7   5   7  1   
  8   5  26  1   
  9   5  27  1   
 10   6   8  1   
 11   6  28  1   
 12   6  29  1   
 13   7   9  1   
 14   7  10  1   
 15   7  30  1   
 16   8   9  1   
 17   8  31  1   
 18   8  32  1   
 19   9  33  1   
 20   9  34  1   
 21  10  11  1   
 22  10  35  1   
 23  10  36  1   
 24  11  12  ar  
 25  11  13  ar  
 26  12  14  1   
 27  12  15  ar  
 28  13  16  ar  
 29  13  37  1   
 30  14  17  1   
 31  15  18  1   
 32  15  19  ar  
 33  16  19  ar  
 34  16  38  1   
 35  17  20  1   
 36  17  39  1   
 37  17  40  1   
 38  18  21  1   
 39  19  41  1   
 40  20  22  1   
 41  20  42  1   
 42  20  43  1   
 43  21  44  1   
 44  21  45  1   
 45  21  46  1   
 46  22  23  1   
 47  22  24  1   
 48  22  47  1   
 49  23  48  1   
 50  23  49  1   
 51  23  50  1   
 52  24  51  1   
 53  24  52  1   
 54  24  53  1   
@<TRIPOS>SUBSTRUCTURE
  1 ****  14 GROUP 4 **** **** 0

# MOE 2024.06 (io_trps.svl 2023.06)
