@<TRIPOS>MOLECULE
NONAME
48 50 1 0 0 
SMALL
USER_CHARGES


@<TRIPOS>ATOM
  1 S        0.7060    -0.7900     2.4830 S.o2  1 <1>   1.5760 
  2 O        1.7660    -1.7270     2.7700 O.2   1 <1>  -0.6500 
  3 O        0.3350     0.2390     3.4230 O.2   1 <1>  -0.6500 
  4 N        0.9620    -0.0990     0.9680 N.am  1 <1>  -0.8490 
  5 N       -0.6650    -1.6700     2.1390 N.am  1 <1>  -0.9140 
  6 C        2.3180     0.4400     0.8610 C.3   1 <1>   0.1960 
  7 C       -0.0360     0.9340     0.6730 C.3   1 <1>   0.1960 
  8 C       -0.4040    -2.8520     1.3300 C.3   1 <1>   0.2760 
  9 C        2.5790     0.9320    -0.5660 C.3   1 <1>  -0.1600 
 10 C        0.1330     1.4310    -0.7650 C.3   1 <1>  -0.1600 
 11 C       -1.6820    -3.2950     0.6330 C.3   1 <1>  -0.0800 
 12 C       -0.1610    -4.0630     2.2300 C.3   1 <1>   0.1200 
 13 C        1.5460     1.9820    -0.9970 C.3   1 <1>  -0.0800 
 14 C       -2.3920    -4.1230     1.7100 C.3   1 <1>   0.1200 
 15 C       -2.5390    -2.1660     0.0300 C.3   1 <1>  -0.0170 
 16 O       -1.4280    -4.4410     2.6740 O.3   1 <1>  -0.5600 
 17 C        1.7460     2.3760    -2.4640 C.3   1 <1>  -0.2400 
 18 C       -3.7430    -2.7330    -0.7040 C.ar  1 <1>  -0.1430 
 19 C       -3.6430    -3.2350    -1.9850 C.ar  1 <1>  -0.1500 
 20 C       -4.9960    -2.7770    -0.1270 C.ar  1 <1>  -0.1500 
 21 C       -4.7690    -3.7480    -2.6080 C.ar  1 <1>   0.1600 
 22 C       -6.0580    -3.3110    -0.8370 C.ar  1 <1>   0.1600 
 23 N       -5.9730    -3.8000    -2.0640 N.ar  1 <1>  -0.6200 
 24 H       -0.9750    -2.0200     3.0430 H     1 <1>   0.4200 
 25 H        2.4470     1.2490     1.5620 H     1 <1>   0.0800 
 26 H        3.0350    -0.3290     1.0980 H     1 <1>   0.0800 
 27 H       -1.0270     0.5290     0.7880 H     1 <1>   0.0800 
 28 H        0.0700     1.7580     1.3610 H     1 <1>   0.0800 
 29 H        0.3970    -2.6830     0.6280 H     1 <1>   0.0800 
 30 H        3.5680     1.3510    -0.6190 H     1 <1>   0.0800 
 31 H        2.5450     0.0860    -1.2310 H     1 <1>   0.0800 
 32 H       -0.0620     0.6140    -1.4370 H     1 <1>   0.0800 
 33 H       -0.5930     2.2000    -0.9600 H     1 <1>   0.0800 
 34 H       -1.4080    -3.9680    -0.1600 H     1 <1>   0.0800 
 35 H        0.4720    -3.8550     3.0740 H     1 <1>   0.0800 
 36 H        0.2490    -4.8810     1.6640 H     1 <1>   0.0800 
 37 H        1.6760     2.8600    -0.3860 H     1 <1>   0.0800 
 38 H       -2.8040    -5.0330     1.3100 H     1 <1>   0.0800 
 39 H       -3.1650    -3.5570     2.2000 H     1 <1>   0.0800 
 40 H       -1.9410    -1.5920    -0.6550 H     1 <1>   0.0800 
 41 H       -2.8780    -1.4970     0.8020 H     1 <1>   0.0800 
 42 H        1.6240     1.5230    -3.1080 H     1 <1>   0.0800 
 43 H        2.7330     2.7790    -2.6110 H     1 <1>   0.0800 
 44 H        1.0290     3.1260    -2.7500 H     1 <1>   0.0800 
 45 H       -2.7030    -3.2330    -2.5050 H     1 <1>   0.1500 
 46 H       -5.1590    -2.4010     0.8670 H     1 <1>   0.1500 
 47 H       -4.6730    -4.1360    -3.6080 H     1 <1>   0.1500 
 48 H       -7.0290    -3.3390    -0.3730 H     1 <1>   0.1500 
@<TRIPOS>BOND
  1   1   2  2   
  2   1   3  2   
  3   1   4  am  
  4   1   5  am  
  5   4   6  1   
  6   4   7  1   
  7   5   8  1   
  8   5  24  1   
  9   6   9  1   
 10   6  25  1   
 11   6  26  1   
 12   7  10  1   
 13   7  27  1   
 14   7  28  1   
 15   8  11  1   
 16   8  12  1   
 17   8  29  1   
 18   9  13  1   
 19   9  30  1   
 20   9  31  1   
 21  10  13  1   
 22  10  32  1   
 23  10  33  1   
 24  11  14  1   
 25  11  15  1   
 26  11  34  1   
 27  12  16  1   
 28  12  35  1   
 29  12  36  1   
 30  13  17  1   
 31  13  37  1   
 32  14  16  1   
 33  14  38  1   
 34  14  39  1   
 35  15  18  1   
 36  15  40  1   
 37  15  41  1   
 38  17  42  1   
 39  17  43  1   
 40  17  44  1   
 41  18  19  ar  
 42  18  20  ar  
 43  19  21  ar  
 44  19  45  1   
 45  20  22  ar  
 46  20  46  1   
 47  21  23  ar  
 48  21  47  1   
 49  22  23  ar  
 50  22  48  1   
@<TRIPOS>SUBSTRUCTURE
  1 ****  15 GROUP 4 **** **** 0

# MOE 2024.06 (io_trps.svl 2023.06)
