@<TRIPOS>MOLECULE
NONAME
48 50 1 0 0 
SMALL
USER_CHARGES


@<TRIPOS>ATOM
  1 O       -0.7570     0.3970    -1.7310 O.2   1 <1>  -0.5700 
  2 C       -1.4430     0.9380    -0.8810 C.2   1 <1>   0.7160 
  3 N       -2.6260     0.3370    -0.5050 N.am  1 <1>  -0.6600 
  4 C       -0.9980     2.1890    -0.3130 C.2   1 <1>  -0.0860 
  5 C       -3.1990    -0.7830    -1.3310 C.3   1 <1>   0.1400 
  6 C       -3.3860     0.6860     0.7400 C.3   1 <1>   0.1400 
  7 C        0.1980     2.5690     0.2220 C.2   1 <1>  -0.3320 
  8 C       -1.7650     3.3530    -0.2310 C.2   1 <1>   0.1390 
  9 C       -4.3030    -1.5330    -0.5740 C.3   1 <1>   0.2000 
 10 C       -4.8730     0.7560     0.3930 C.3   1 <1>  -0.1600 
 11 N        0.0900     3.8600     0.5830 N.pl3 1 <1>   0.3140 
 12 C        1.4540     1.7260     0.3920 C.3   1 <1>  -0.0600 
 13 N       -1.1290     4.3460     0.3060 N.2   1 <1>  -0.7070 
 14 O       -4.8140    -2.5600    -1.3510 O.3   1 <1>  -0.6800 
 15 C       -5.4510    -0.6200    -0.0750 C.3   1 <1>  -0.1060 
 16 C        1.1200     4.7080     1.1960 C.3   1 <1>   0.0160 
 17 C       -6.0530    -1.4420     1.0690 C.2   1 <1>   0.9060 
 18 C       -6.5230    -0.3610    -1.1770 C.3   1 <1>  -0.0170 
 19 O       -5.8680    -1.1100     2.2450 O.co2 1 <1>  -0.9000 
 20 O       -6.6370    -2.4970     0.7770 O.co2 1 <1>  -0.9000 
 21 C       -7.5770     0.6830    -0.8120 C.ar  1 <1>  -0.1430 
 22 C       -8.5520     0.3930     0.1310 C.ar  1 <1>  -0.1500 
 23 C       -7.5800     1.9280    -1.4250 C.ar  1 <1>  -0.1500 
 24 C       -9.5120     1.3330     0.4600 C.ar  1 <1>  -0.1500 
 25 C       -8.5400     2.8700    -1.0970 C.ar  1 <1>  -0.1500 
 26 C       -9.5080     2.5730    -0.1540 C.ar  1 <1>  -0.1500 
 27 H       -3.6040    -0.3710    -2.2380 H     1 <1>   0.0800 
 28 H       -2.4170    -1.4780    -1.5840 H     1 <1>   0.0800 
 29 H       -3.2260    -0.0710     1.4900 H     1 <1>   0.0800 
 30 H       -3.0650     1.6250     1.1510 H     1 <1>   0.0800 
 31 H       -2.7820     3.4200    -0.5790 H     1 <1>   0.1500 
 32 H       -3.8360    -2.0080     0.2740 H     1 <1>   0.0800 
 33 H       -5.4270     1.1160     1.2430 H     1 <1>   0.0800 
 34 H       -4.9810     1.4940    -0.3800 H     1 <1>   0.0800 
 35 H        1.2810     0.7210     0.0500 H     1 <1>   0.0800 
 36 H        1.7420     1.6880     1.4270 H     1 <1>   0.0800 
 37 H        2.2600     2.1430    -0.1850 H     1 <1>   0.0800 
 38 H       -5.5630    -2.9430    -0.8200 H     1 <1>   0.4000 
 39 H        1.3930     4.2970     2.1490 H     1 <1>   0.0800 
 40 H        0.7280     5.6990     1.3280 H     1 <1>   0.0800 
 41 H        1.9770     4.7430     0.5490 H     1 <1>   0.0800 
 42 H       -6.0250    -0.0520    -2.0770 H     1 <1>   0.0800 
 43 H       -7.0380    -1.2760    -1.4140 H     1 <1>   0.0800 
 44 H       -8.5620    -0.5710     0.6150 H     1 <1>   0.1500 
 45 H       -6.8320     2.1670    -2.1580 H     1 <1>   0.1500 
 46 H      -10.2570     1.0930     1.1980 H     1 <1>   0.1500 
 47 H       -8.5330     3.8330    -1.5760 H     1 <1>   0.1500 
 48 H      -10.2540     3.3030     0.1040 H     1 <1>   0.1500 
@<TRIPOS>BOND
  1   1   2  2   
  2   2   3  am  
  3   2   4  1   
  4   3   5  1   
  5   3   6  1   
  6   4   7  2   
  7   4   8  1   
  8   5   9  1   
  9   5  27  1   
 10   5  28  1   
 11   6  10  1   
 12   6  29  1   
 13   6  30  1   
 14   7  11  1   
 15   7  12  1   
 16   8  13  2   
 17   8  31  1   
 18   9  14  1   
 19   9  15  1   
 20   9  32  1   
 21  10  15  1   
 22  10  33  1   
 23  10  34  1   
 24  11  13  1   
 25  11  16  1   
 26  12  35  1   
 27  12  36  1   
 28  12  37  1   
 29  14  38  1   
 30  15  17  1   
 31  15  18  1   
 32  16  39  1   
 33  16  40  1   
 34  16  41  1   
 35  17  19  ar  
 36  17  20  ar  
 37  18  21  1   
 38  18  42  1   
 39  18  43  1   
 40  21  22  ar  
 41  21  23  ar  
 42  22  24  ar  
 43  22  44  1   
 44  23  25  ar  
 45  23  45  1   
 46  24  26  ar  
 47  24  46  1   
 48  25  26  ar  
 49  25  47  1   
 50  26  48  1   
@<TRIPOS>SUBSTRUCTURE
  1 ****  10 GROUP 4 **** **** 0

# MOE 2024.06 (io_trps.svl 2023.06)
