@<TRIPOS>MOLECULE
NONAME
53 56 1 0 0 
SMALL
USER_CHARGES


@<TRIPOS>ATOM
  1 F       -0.2640    -0.2940    -0.4850 F     1 <1>  -0.1900 
  2 C       -0.5660    -1.5330    -0.7650 C.ar  1 <1>   0.1900 
  3 C        0.3280    -2.5270    -0.4220 C.ar  1 <1>  -0.1500 
  4 C       -1.7680    -1.7960    -1.3920 C.ar  1 <1>  -0.1500 
  5 C        0.0010    -3.8470    -0.7200 C.ar  1 <1>   0.0830 
  6 C       -2.0880    -3.1100    -1.6880 C.ar  1 <1>  -0.1500 
  7 O        0.8120    -4.8940    -0.4090 O.3   1 <1>  -0.3630 
  8 C       -1.2080    -4.1340    -1.3540 C.ar  1 <1>  -0.1440 
  9 C        2.1310    -4.6810     0.0570 C.3   1 <1>   0.0400 
 10 C       -1.5670    -5.5710    -1.6820 C.3   1 <1>   0.4870 
 11 N       -1.6790    -6.3260    -0.4130 N.4   1 <1>  -0.9590 
 12 C       -2.7800    -5.8230     0.4550 C.3   1 <1>   0.3430 
 13 C       -1.8880    -7.7790    -0.6080 C.3   1 <1>   0.3430 
 14 C       -3.3890    -7.0470     1.1370 C.3   1 <1>  -0.0800 
 15 C       -2.5380    -8.2490     0.6870 C.3   1 <1>  -0.0800 
 16 C       -4.8850    -7.1730     0.7800 C.3   1 <1>   0.4240 
 17 C       -3.3290    -9.5630     0.5140 C.3   1 <1>  -0.1600 
 18 O       -4.9670    -7.2720    -0.6010 O.3   1 <1>  -0.6800 
 19 C       -5.6560    -5.9160     1.2310 C.ar  1 <1>  -0.1430 
 20 C       -5.4890    -8.4760     1.3560 C.3   1 <1>  -0.1600 
 21 C       -4.4870    -9.6420     1.5160 C.3   1 <1>  -0.1600 
 22 C       -6.2540    -5.0310     0.3350 C.ar  1 <1>  -0.1500 
 23 C       -5.7470    -5.6260     2.5900 C.ar  1 <1>  -0.1500 
 24 C       -6.9170    -3.9020     0.7840 C.ar  1 <1>  -0.1500 
 25 C       -6.4080    -4.4970     3.0390 C.ar  1 <1>  -0.1500 
 26 C       -6.9950    -3.6320     2.1360 C.ar  1 <1>  -0.1500 
 27 H        1.2420    -2.2470     0.0650 H     1 <1>   0.1500 
 28 H       -2.4330    -0.9870    -1.6400 H     1 <1>   0.1500 
 29 H       -3.0230    -3.3200    -2.1790 H     1 <1>   0.1500 
 30 H        2.6130    -5.6360     0.1600 H     1 <1>   0.0800 
 31 H        2.0930    -4.1880     1.0130 H     1 <1>   0.0800 
 32 H        2.6650    -4.0810    -0.6600 H     1 <1>   0.0800 
 33 H       -0.7910    -5.9970    -2.2960 H     1 <1>   0.0800 
 34 H       -2.4990    -5.6120    -2.2210 H     1 <1>   0.0800 
 35 H       -0.7830    -6.1620     0.0740 H     1 <1>   0.4500 
 36 H       -2.4020    -5.1210     1.1810 H     1 <1>   0.0800 
 37 H       -3.5300    -5.3310    -0.1430 H     1 <1>   0.0800 
 38 H       -2.5770    -7.9390    -1.4220 H     1 <1>   0.0800 
 39 H       -0.9640    -8.2980    -0.8060 H     1 <1>   0.0800 
 40 H       -3.3040    -6.9340     2.2020 H     1 <1>   0.0800 
 41 H       -1.7620    -8.4070     1.4170 H     1 <1>   0.0800 
 42 H       -3.7370    -9.6320    -0.4800 H     1 <1>   0.0800 
 43 H       -2.6710   -10.4050     0.6500 H     1 <1>   0.0800 
 44 H       -5.9070    -7.4040    -0.8330 H     1 <1>   0.4000 
 45 H       -5.9060    -8.2860     2.3270 H     1 <1>   0.0800 
 46 H       -6.3110    -8.7890     0.7370 H     1 <1>   0.0800 
 47 H       -4.0790    -9.6230     2.5130 H     1 <1>   0.0800 
 48 H       -5.0060   -10.5790     1.4020 H     1 <1>   0.0800 
 49 H       -6.2200    -5.1920    -0.7270 H     1 <1>   0.1500 
 50 H       -5.3040    -6.2760     3.3240 H     1 <1>   0.1500 
 51 H       -7.3760    -3.2290     0.0790 H     1 <1>   0.1500 
 52 H       -6.4690    -4.2900     4.0950 H     1 <1>   0.1500 
 53 H       -7.5110    -2.7540     2.4850 H     1 <1>   0.1500 
@<TRIPOS>BOND
  1   1   2  1   
  2   2   3  ar  
  3   2   4  ar  
  4   3   5  ar  
  5   3  27  1   
  6   4   6  ar  
  7   4  28  1   
  8   5   7  1   
  9   5   8  ar  
 10   6   8  ar  
 11   6  29  1   
 12   7   9  1   
 13   8  10  1   
 14   9  30  1   
 15   9  31  1   
 16   9  32  1   
 17  10  11  1   
 18  10  33  1   
 19  10  34  1   
 20  11  12  1   
 21  11  13  1   
 22  11  35  1   
 23  12  14  1   
 24  12  36  1   
 25  12  37  1   
 26  13  15  1   
 27  13  38  1   
 28  13  39  1   
 29  14  15  1   
 30  14  16  1   
 31  14  40  1   
 32  15  17  1   
 33  15  41  1   
 34  16  18  1   
 35  16  19  1   
 36  16  20  1   
 37  17  21  1   
 38  17  42  1   
 39  17  43  1   
 40  18  44  1   
 41  19  22  ar  
 42  19  23  ar  
 43  20  21  1   
 44  20  45  1   
 45  20  46  1   
 46  21  47  1   
 47  21  48  1   
 48  22  24  ar  
 49  22  49  1   
 50  23  25  ar  
 51  23  50  1   
 52  24  26  ar  
 53  24  51  1   
 54  25  26  ar  
 55  25  52  1   
 56  26  53  1   
@<TRIPOS>SUBSTRUCTURE
  1 ****  12 GROUP 4 **** **** 0

# MOE 2024.06 (io_trps.svl 2023.06)
