@<TRIPOS>MOLECULE
NONAME
51 53 1 0 0 
SMALL
USER_CHARGES


@<TRIPOS>ATOM
  1 O       -2.8850     0.5710     2.6410 O.2   1 <1>  -0.5700 
  2 C       -2.6750     1.1370     1.5850 C.2   1 <1>   0.5440 
  3 N       -2.7410     0.4290     0.4110 N.am  1 <1>  -0.6600 
  4 C       -2.3470     2.5460     1.5670 C.ar  1 <1>   0.0860 
  5 C       -2.4090    -1.0330     0.4110 C.3   1 <1>   0.3640 
  6 C       -3.2830     1.0570    -0.8320 C.3   1 <1>   0.1400 
  7 C       -1.1600     2.9740     0.9780 C.ar  1 <1>  -0.1500 
  8 C       -3.1910     3.5070     2.1190 C.ar  1 <1>  -0.1500 
  9 C       -0.8840    -1.1820     0.3720 C.ar  1 <1>  -0.1430 
 10 C       -3.0590    -1.8650    -0.7350 C.3   1 <1>   0.2000 
 11 C       -3.4490     0.0700    -1.9950 C.3   1 <1>   0.1200 
 12 C       -0.8310     4.3220     0.9140 C.ar  1 <1>   0.0830 
 13 C       -2.8730     4.8530     2.0610 C.ar  1 <1>  -0.1500 
 14 C       -0.2580    -1.9950     1.3050 C.ar  1 <1>  -0.1500 
 15 C       -0.1050    -0.5260    -0.5740 C.ar  1 <1>  -0.1500 
 16 O       -3.9620    -1.1340    -1.5260 O.3   1 <1>  -0.5600 
 17 C       -3.8200    -3.0840    -0.1980 C.3   1 <1>   0.1200 
 18 O        0.3070     4.7990     0.3480 O.3   1 <1>  -0.3630 
 19 C       -1.6970     5.2570     1.4550 C.ar  1 <1>  -0.1500 
 20 C        1.1170    -2.1530     1.2940 C.ar  1 <1>  -0.1500 
 21 C        1.2700    -0.6820    -0.5880 C.ar  1 <1>  -0.1500 
 22 O       -2.9590    -3.9430     0.4810 O.3   1 <1>  -0.6800 
 23 C        1.3620     3.9630    -0.0770 C.3   1 <1>   0.2000 
 24 C        1.8830    -1.4970     0.3470 C.ar  1 <1>  -0.1500 
 25 C        2.6420     4.7930    -0.0170 C.3   1 <1>  -0.2400 
 26 C        1.0770     3.4940    -1.5060 C.3   1 <1>  -0.2400 
 27 H       -2.7520    -1.4480     1.3440 H     1 <1>   0.0800 
 28 H       -4.2480     1.4780    -0.6060 H     1 <1>   0.0800 
 29 H       -2.6410     1.8620    -1.1430 H     1 <1>   0.0800 
 30 H       -0.5090     2.2200     0.5780 H     1 <1>   0.1500 
 31 H       -4.1010     3.1860     2.5960 H     1 <1>   0.1500 
 32 H       -2.2890    -2.2190    -1.3980 H     1 <1>   0.0800 
 33 H       -2.5110    -0.1170    -2.4880 H     1 <1>   0.0800 
 34 H       -4.1410     0.4660    -2.7170 H     1 <1>   0.0800 
 35 H       -3.5370     5.5840     2.4890 H     1 <1>   0.1500 
 36 H       -0.8420    -2.5100     2.0500 H     1 <1>   0.1500 
 37 H       -0.5630     0.1150    -1.3030 H     1 <1>   0.1500 
 38 H       -4.2730    -3.6320    -1.0060 H     1 <1>   0.0800 
 39 H       -4.5820    -2.7680     0.4940 H     1 <1>   0.0800 
 40 H       -1.4410     6.3000     1.4020 H     1 <1>   0.1500 
 41 H        1.5900    -2.7850     2.0260 H     1 <1>   0.1500 
 42 H        1.8640    -0.1710    -1.3240 H     1 <1>   0.1500 
 43 H       -2.3170    -4.3540    -0.1320 H     1 <1>   0.4000 
 44 H        1.4500     3.1330     0.6030 H     1 <1>   0.0800 
 45 H        2.9510    -1.6200     0.3400 H     1 <1>   0.1500 
 46 H        2.5650     5.6490    -0.6640 H     1 <1>   0.0800 
 47 H        3.4820     4.2000    -0.3290 H     1 <1>   0.0800 
 48 H        2.8150     5.1240     0.9910 H     1 <1>   0.0800 
 49 H        0.9950     4.3410    -2.1640 H     1 <1>   0.0800 
 50 H        0.1670     2.9270    -1.5480 H     1 <1>   0.0800 
 51 H        1.8810     2.8690    -1.8510 H     1 <1>   0.0800 
@<TRIPOS>BOND
  1   1   2  2   
  2   2   3  am  
  3   2   4  1   
  4   3   5  1   
  5   3   6  1   
  6   4   7  ar  
  7   4   8  ar  
  8   5   9  1   
  9   5  10  1   
 10   5  27  1   
 11   6  11  1   
 12   6  28  1   
 13   6  29  1   
 14   7  12  ar  
 15   7  30  1   
 16   8  13  ar  
 17   8  31  1   
 18   9  14  ar  
 19   9  15  ar  
 20  10  16  1   
 21  10  17  1   
 22  10  32  1   
 23  11  16  1   
 24  11  33  1   
 25  11  34  1   
 26  12  18  1   
 27  12  19  ar  
 28  13  19  ar  
 29  13  35  1   
 30  14  20  ar  
 31  14  36  1   
 32  15  21  ar  
 33  15  37  1   
 34  17  22  1   
 35  17  38  1   
 36  17  39  1   
 37  18  23  1   
 38  19  40  1   
 39  20  24  ar  
 40  20  41  1   
 41  21  24  ar  
 42  21  42  1   
 43  22  43  1   
 44  23  25  1   
 45  23  26  1   
 46  23  44  1   
 47  24  45  1   
 48  25  46  1   
 49  25  47  1   
 50  25  48  1   
 51  26  49  1   
 52  26  50  1   
 53  26  51  1   
@<TRIPOS>SUBSTRUCTURE
  1 ****   3 GROUP 4 **** **** 0

# MOE 2024.06 (io_trps.svl 2023.06)
