@<TRIPOS>MOLECULE
NONAME
41 43 1 0 0 
SMALL
USER_CHARGES


@<TRIPOS>ATOM
  1 CL       2.7080     0.6010     0.8810 Cl    1 <1>  -0.1770 
  2 C        2.2750     2.1790     0.2770 C.ar  1 <1>   0.1770 
  3 C        2.1370     3.2450     1.1480 C.ar  1 <1>   0.1600 
  4 C        2.0520     2.3620    -1.0660 C.ar  1 <1>  -0.1500 
  5 N        1.7830     4.4710     0.7880 N.ar  1 <1>  -0.6200 
  6 C        1.7050     3.6370    -1.4560 C.ar  1 <1>  -0.1500 
  7 C        1.5880     4.6850    -0.5340 C.ar  1 <1>   0.3960 
  8 C        1.2690     6.0280    -1.0510 C.2   1 <1>   0.5440 
  9 O        0.6100     6.1360    -2.0730 O.2   1 <1>  -0.5700 
 10 N        1.7120     7.2240    -0.4970 N.am  1 <1>  -0.6600 
 11 C        1.9110     7.4180     0.9840 C.3   1 <1>   0.2200 
 12 C        2.1580     8.3030    -1.4330 C.3   1 <1>   0.1400 
 13 C        1.4730     8.8080     1.4760 C.3   1 <1>   0.1200 
 14 C        3.3720     7.1130     1.3850 C.3   1 <1>   0.3430 
 15 C        3.2490     9.2500    -0.8870 C.3   1 <1>  -0.0800 
 16 O        2.5060     9.7420     1.3580 O.3   1 <1>  -0.5600 
 17 N        4.3090     7.2260     0.2240 N.4   1 <1>  -0.9590 
 18 C        2.6770    10.2840     0.0930 C.3   1 <1>   0.1200 
 19 C        4.5310     8.5780    -0.3440 C.3   1 <1>   0.3430 
 20 C        5.5440     6.3740     0.4030 C.3   1 <1>   0.2370 
 21 C        5.2910     4.9840    -0.1830 C.2   1 <1>   0.9060 
 22 O        5.7430     3.9850     0.3740 O.co2 1 <1>  -0.9000 
 23 O        4.5290     4.9520    -1.1610 O.co2 1 <1>  -0.9000 
 24 H        2.3270     3.0620     2.1900 H     1 <1>   0.1500 
 25 H        2.1590     1.5530    -1.7660 H     1 <1>   0.1500 
 26 H        1.5440     3.8420    -2.4990 H     1 <1>   0.1500 
 27 H        1.2660     6.7330     1.5020 H     1 <1>   0.0800 
 28 H        2.5340     7.8330    -2.3280 H     1 <1>   0.0800 
 29 H        1.2930     8.8750    -1.7240 H     1 <1>   0.0800 
 30 H        1.2400     8.7470     2.5240 H     1 <1>   0.0800 
 31 H        0.5950     9.1530     0.9580 H     1 <1>   0.0800 
 32 H        3.4040     6.1030     1.7590 H     1 <1>   0.0800 
 33 H        3.6790     7.7690     2.1820 H     1 <1>   0.0800 
 34 H        3.5640     9.8330    -1.7320 H     1 <1>   0.0800 
 35 H        3.8240     6.6750    -0.5270 H     1 <1>   0.4500 
 36 H        1.7360    10.6820    -0.2510 H     1 <1>   0.0800 
 37 H        3.3670    11.1040     0.2000 H     1 <1>   0.0800 
 38 H        4.9810     9.2140     0.4010 H     1 <1>   0.0800 
 39 H        5.2270     8.4840    -1.1610 H     1 <1>   0.0800 
 40 H        6.3760     6.7980    -0.1270 H     1 <1>   0.0800 
 41 H        5.7990     6.2700     1.4410 H     1 <1>   0.0800 
@<TRIPOS>BOND
  1   1   2  1   
  2   2   3  ar  
  3   2   4  ar  
  4   3   5  ar  
  5   3  24  1   
  6   4   6  ar  
  7   4  25  1   
  8   5   7  ar  
  9   6   7  ar  
 10   6  26  1   
 11   7   8  1   
 12   8   9  2   
 13   8  10  am  
 14  10  11  1   
 15  10  12  1   
 16  11  13  1   
 17  11  14  1   
 18  11  27  1   
 19  12  15  1   
 20  12  28  1   
 21  12  29  1   
 22  13  16  1   
 23  13  30  1   
 24  13  31  1   
 25  14  17  1   
 26  14  32  1   
 27  14  33  1   
 28  15  18  1   
 29  15  19  1   
 30  15  34  1   
 31  16  18  1   
 32  17  19  1   
 33  17  20  1   
 34  17  35  1   
 35  18  36  1   
 36  18  37  1   
 37  19  38  1   
 38  19  39  1   
 39  20  21  1   
 40  20  40  1   
 41  20  41  1   
 42  21  22  ar  
 43  21  23  ar  
@<TRIPOS>SUBSTRUCTURE
  1 ****  10 GROUP 4 **** **** 0

# MOE 2024.06 (io_trps.svl 2023.06)
