@<TRIPOS>MOLECULE
NONAME
57 59 1 0 0 
SMALL
USER_CHARGES


@<TRIPOS>ATOM
  1 O       -0.8240     0.3780    -0.8560 O.2   1 <1>  -0.5700 
  2 C       -0.6150     1.4940    -0.4420 C.2   1 <1>   0.5690 
  3 N       -1.6240     2.3370    -0.0610 N.am  1 <1>  -0.6600 
  4 C        0.8360     1.9730    -0.3840 C.3   1 <1>   0.1810 
  5 C       -1.3450     3.7170     0.4560 C.3   1 <1>   0.3640 
  6 C       -3.0510     1.9000    -0.0310 C.3   1 <1>   0.0600 
  7 O        1.0390     3.0540     0.4950 O.3   1 <1>  -0.5600 
  8 C       -2.2320     4.7210    -0.3010 C.ar  1 <1>  -0.1440 
  9 C        0.1470     4.1370     0.3140 C.3   1 <1>   0.2610 
 10 C       -3.1570     5.5520     0.3350 C.ar  1 <1>  -0.1440 
 11 C       -2.1070     4.7970    -1.6850 C.ar  1 <1>  -0.1500 
 12 C        0.5280     5.2900     1.2630 C.2   1 <1>   0.5690 
 13 C       -3.8930     6.4570    -0.4160 C.ar  1 <1>  -0.1500 
 14 C       -3.4210     5.5110     1.8360 C.3   1 <1>  -0.0960 
 15 C       -2.8490     5.6970    -2.4250 C.ar  1 <1>  -0.1500 
 16 O       -0.1740     5.5180     2.2210 O.2   1 <1>  -0.5700 
 17 N        1.6530     6.0620     1.0480 N.am  1 <1>  -0.6600 
 18 C       -3.7410     6.5350    -1.7870 C.ar  1 <1>  -0.1500 
 19 C        2.6950     5.7950     0.0090 C.3   1 <1>   0.1400 
 20 C        2.0010     7.1730     1.9910 C.3   1 <1>   0.1400 
 21 C        3.0850     7.0920    -0.7310 C.3   1 <1>   0.3430 
 22 C        2.3810     8.4510     1.2250 C.3   1 <1>   0.3430 
 23 N        3.4720     8.2020     0.2110 N.4   1 <1>  -0.9590 
 24 C        3.8360     9.4340    -0.5460 C.3   1 <1>   0.3430 
 25 C        4.5440    10.4330     0.3670 C.3   1 <1>  -0.1600 
 26 C        5.0970    11.6000    -0.4480 C.3   1 <1>   0.1200 
 27 O        5.8580    12.3750     0.3990 O.3   1 <1>  -0.6800 
 28 H        1.1510     2.2670    -1.3680 H     1 <1>   0.0800 
 29 H        1.4580     1.1620    -0.0510 H     1 <1>   0.0800 
 30 H       -1.5910     3.7100     1.5010 H     1 <1>   0.0800 
 31 H       -3.4720     2.0900     0.9410 H     1 <1>   0.0800 
 32 H       -3.1330     0.8480    -0.2400 H     1 <1>   0.0800 
 33 H       -3.6160     2.4410    -0.7710 H     1 <1>   0.0800 
 34 H        0.2920     4.4890    -0.6880 H     1 <1>   0.0800 
 35 H       -1.4320     4.1400    -2.2050 H     1 <1>   0.1500 
 36 H       -4.6010     7.1100     0.0640 H     1 <1>   0.1500 
 37 H       -4.3400     6.0150     2.0750 H     1 <1>   0.0800 
 38 H       -2.6290     6.0020     2.3700 H     1 <1>   0.0800 
 39 H       -3.5110     4.4990     2.1830 H     1 <1>   0.0800 
 40 H       -2.7400     5.7420    -3.4950 H     1 <1>   0.1500 
 41 H       -4.3220     7.2400    -2.3550 H     1 <1>   0.1500 
 42 H        3.5650     5.3770     0.4880 H     1 <1>   0.0800 
 43 H        2.3510     5.0740    -0.7090 H     1 <1>   0.0800 
 44 H        1.1700     7.4000     2.6380 H     1 <1>   0.0800 
 45 H        2.8180     6.8630     2.6180 H     1 <1>   0.0800 
 46 H        2.2440     7.4050    -1.3290 H     1 <1>   0.0800 
 47 H        3.9030     6.8790    -1.4000 H     1 <1>   0.0800 
 48 H        2.6990     9.1970     1.9350 H     1 <1>   0.0800 
 49 H        1.5000     8.8230     0.7270 H     1 <1>   0.0800 
 50 H        4.3070     7.8920     0.7290 H     1 <1>   0.4500 
 51 H        4.5030     9.1740    -1.3520 H     1 <1>   0.0800 
 52 H        2.9530     9.8840    -0.9730 H     1 <1>   0.0800 
 53 H        5.3690     9.9440     0.8570 H     1 <1>   0.0800 
 54 H        3.8620    10.8190     1.1030 H     1 <1>   0.0800 
 55 H        4.3190    12.2140    -0.8710 H     1 <1>   0.0800 
 56 H        5.7480    11.2520    -1.2330 H     1 <1>   0.0800 
 57 H        5.3100    12.9780     0.9410 H     1 <1>   0.4000 
@<TRIPOS>BOND
  1   1   2  2   
  2   2   3  am  
  3   2   4  1   
  4   3   5  1   
  5   3   6  1   
  6   4   7  1   
  7   4  28  1   
  8   4  29  1   
  9   5   8  1   
 10   5   9  1   
 11   5  30  1   
 12   6  31  1   
 13   6  32  1   
 14   6  33  1   
 15   7   9  1   
 16   8  10  ar  
 17   8  11  ar  
 18   9  12  1   
 19   9  34  1   
 20  10  13  ar  
 21  10  14  1   
 22  11  15  ar  
 23  11  35  1   
 24  12  16  2   
 25  12  17  am  
 26  13  18  ar  
 27  13  36  1   
 28  14  37  1   
 29  14  38  1   
 30  14  39  1   
 31  15  18  ar  
 32  15  40  1   
 33  17  19  1   
 34  17  20  1   
 35  18  41  1   
 36  19  21  1   
 37  19  42  1   
 38  19  43  1   
 39  20  22  1   
 40  20  44  1   
 41  20  45  1   
 42  21  23  1   
 43  21  46  1   
 44  21  47  1   
 45  22  23  1   
 46  22  48  1   
 47  22  49  1   
 48  23  24  1   
 49  23  50  1   
 50  24  25  1   
 51  24  51  1   
 52  24  52  1   
 53  25  26  1   
 54  25  53  1   
 55  25  54  1   
 56  26  27  1   
 57  26  55  1   
 58  26  56  1   
 59  27  57  1   
@<TRIPOS>SUBSTRUCTURE
  1 ****  12 GROUP 4 **** **** 0

# MOE 2024.06 (io_trps.svl 2023.06)
