@<TRIPOS>MOLECULE
NONAME
46 48 1 0 0 
SMALL
USER_CHARGES


@<TRIPOS>ATOM
  1 O       -0.7090    -0.9190    -0.6690 O.2   1 <1>  -0.5700 
  2 C       -1.4160     0.0550    -0.5530 C.2   1 <1>   0.5690 
  3 N       -2.5830    -0.0010     0.1650 N.am  1 <1>  -0.6600 
  4 C       -0.9630     1.3210    -1.2660 C.3   1 <1>  -0.0990 
  5 C       -2.9870    -1.2910     0.8040 C.3   1 <1>   0.3200 
  6 C       -3.6390     1.0580     0.2020 C.3   1 <1>   0.1400 
  7 C       -0.4750     2.4100    -0.2960 C.3   1 <1>  -0.1600 
  8 C       -3.6340    -2.2070    -0.2190 C.2   1 <1>   0.0060 
  9 C       -3.7310     1.6900     1.5970 C.3   1 <1>   0.1200 
 10 C        0.0100     3.6590    -1.0410 C.3   1 <1>   0.0210 
 11 N       -4.8720    -2.5880    -0.2050 N.2   1 <1>  -0.5650 
 12 N       -2.9270    -2.7040    -1.2550 N.pl3 1 <1>   0.0330 
 13 O       -4.5240     2.8270     1.5400 O.3   1 <1>  -0.6800 
 14 C        0.4100     4.7760    -0.0910 C.2   1 <1>  -0.1810 
 15 C       -4.9760    -3.3770    -1.2920 C.2   1 <1>   0.0770 
 16 C       -3.7970    -3.4600    -1.9470 C.2   1 <1>  -0.3020 
 17 C        0.8310     6.0500    -0.5370 C.ar  1 <1>   0.0000 
 18 C        0.4470     4.7880     1.2640 C.2   1 <1>  -0.3020 
 19 C        1.1090     6.7970     0.6030 C.ar  1 <1>  -0.1520 
 20 C        1.0010     6.6330    -1.7980 C.ar  1 <1>  -0.1500 
 21 N        0.8700     6.0110     1.7000 N.pl3 1 <1>   0.0330 
 22 C        1.5530     8.1180     0.5090 C.ar  1 <1>  -0.1500 
 23 C        1.4390     7.9340    -1.8920 C.ar  1 <1>  -0.1500 
 24 C        1.7150     8.6770    -0.7370 C.ar  1 <1>  -0.1500 
 25 H       -1.7590     1.6890    -1.8850 H     1 <1>   0.0800 
 26 H       -0.1520     1.0580    -1.9240 H     1 <1>   0.0800 
 27 H       -3.6820    -1.1120     1.6050 H     1 <1>   0.0800 
 28 H       -2.1230    -1.7780     1.2220 H     1 <1>   0.0800 
 29 H       -4.5890     0.6160    -0.0510 H     1 <1>   0.0800 
 30 H       -3.4280     1.8230    -0.5200 H     1 <1>   0.0800 
 31 H        0.3310     2.0190     0.3010 H     1 <1>   0.0800 
 32 H       -1.2730     2.6920     0.3650 H     1 <1>   0.0800 
 33 H       -2.7600     1.9780     1.9620 H     1 <1>   0.0800 
 34 H       -4.1900     1.0090     2.2910 H     1 <1>   0.0800 
 35 H       -0.7730     4.0240    -1.6820 H     1 <1>   0.0800 
 36 H        0.8570     3.4090    -1.6550 H     1 <1>   0.0800 
 37 H       -1.9350    -2.4960    -1.4420 H     1 <1>   0.2700 
 38 H       -4.0660     3.5580     1.0810 H     1 <1>   0.4000 
 39 H       -5.9080    -3.8510    -1.5500 H     1 <1>   0.1500 
 40 H       -3.5370    -3.9980    -2.8400 H     1 <1>   0.1500 
 41 H        0.2020     4.0010     1.9550 H     1 <1>   0.1500 
 42 H        0.7880     6.0550    -2.6770 H     1 <1>   0.1500 
 43 H        1.0000     6.3030     2.6730 H     1 <1>   0.2700 
 44 H        1.7620     8.6810     1.4010 H     1 <1>   0.1500 
 45 H        1.5750     8.3950    -2.8540 H     1 <1>   0.1500 
 46 H        2.0560     9.6930    -0.8370 H     1 <1>   0.1500 
@<TRIPOS>BOND
  1   1   2  2   
  2   2   3  am  
  3   2   4  1   
  4   3   5  1   
  5   3   6  1   
  6   4   7  1   
  7   4  25  1   
  8   4  26  1   
  9   5   8  1   
 10   5  27  1   
 11   5  28  1   
 12   6   9  1   
 13   6  29  1   
 14   6  30  1   
 15   7  10  1   
 16   7  31  1   
 17   7  32  1   
 18   8  11  2   
 19   8  12  1   
 20   9  13  1   
 21   9  33  1   
 22   9  34  1   
 23  10  14  1   
 24  10  35  1   
 25  10  36  1   
 26  11  15  1   
 27  12  16  1   
 28  12  37  1   
 29  13  38  1   
 30  14  17  1   
 31  14  18  2   
 32  15  16  2   
 33  15  39  1   
 34  16  40  1   
 35  17  19  ar  
 36  17  20  ar  
 37  18  21  1   
 38  18  41  1   
 39  19  21  1   
 40  19  22  ar  
 41  20  23  ar  
 42  20  42  1   
 43  21  43  1   
 44  22  24  ar  
 45  22  44  1   
 46  23  24  ar  
 47  23  45  1   
 48  24  46  1   
@<TRIPOS>SUBSTRUCTURE
  1 ****   7 GROUP 4 **** **** 0

# MOE 2024.06 (io_trps.svl 2023.06)
