@<TRIPOS>MOLECULE
NONAME
47 49 1 0 0 
SMALL
USER_CHARGES


@<TRIPOS>ATOM
  1 S        0.6330    -0.2880    -1.6240 S.o2  1 <1>   1.4470 
  2 O        0.2990     0.2590    -2.9160 O.2   1 <1>  -0.6500 
  3 O        1.7380    -1.2170    -1.5090 O.2   1 <1>  -0.6500 
  4 N        1.1150     1.0240    -0.6610 N.am  1 <1>  -0.8490 
  5 C       -0.8550    -0.9110    -0.7930 C.ar  1 <1>  -0.0090 
  6 C        1.4150     0.6980     0.7630 C.3   1 <1>   0.2760 
  7 C        1.9630     1.9880    -1.3890 C.3   1 <1>   0.1960 
  8 C       -1.9370    -0.0770    -0.5490 C.ar  1 <1>  -0.1500 
  9 C       -0.9430    -2.2270    -0.3570 C.ar  1 <1>  -0.1500 
 10 C        1.3110     1.9410     1.6620 C.3   1 <1>   0.1200 
 11 C        2.7670    -0.0290     1.0140 C.3   1 <1>   0.3430 
 12 C        3.1700     2.5570    -0.6260 C.3   1 <1>  -0.0800 
 13 C       -3.0560    -0.5340     0.1270 C.ar  1 <1>  -0.1500 
 14 C       -2.0620    -2.6830     0.3180 C.ar  1 <1>  -0.1500 
 15 O        2.5170     2.6400     1.6900 O.3   1 <1>  -0.5600 
 16 N        3.7710     0.1210    -0.0930 N.4   1 <1>  -0.9590 
 17 C        2.7700     3.4270     0.5750 C.3   1 <1>   0.1200 
 18 C        4.2590     1.5250    -0.2770 C.3   1 <1>   0.3430 
 19 C       -3.1370    -1.8440     0.5800 C.ar  1 <1>  -0.0090 
 20 C        4.9070    -0.8260     0.0920 C.3   1 <1>   0.2630 
 21 S       -4.6020    -2.4430     1.4600 S.o2  1 <1>   1.2040 
 22 O       -4.2300    -3.5880     2.2610 O.2   1 <1>  -0.6500 
 23 O       -5.2750    -1.3190     2.0690 O.2   1 <1>  -0.6500 
 24 C       -5.6340    -3.0310     0.1320 C.3   1 <1>  -0.1350 
 25 H        0.6400     0.0420     1.1180 H     1 <1>   0.0800 
 26 H        2.3400     1.5330    -2.2920 H     1 <1>   0.0800 
 27 H        1.3340     2.8040    -1.7060 H     1 <1>   0.0800 
 28 H       -1.9050     0.9460    -0.8880 H     1 <1>   0.1500 
 29 H       -0.1280    -2.9080    -0.5430 H     1 <1>   0.1500 
 30 H        1.1150     1.6310     2.6740 H     1 <1>   0.0800 
 31 H        0.5110     2.5920     1.3510 H     1 <1>   0.0800 
 32 H        2.5510    -1.0760     1.1410 H     1 <1>   0.0800 
 33 H        3.1890     0.3250     1.9410 H     1 <1>   0.0800 
 34 H        3.6350     3.2450    -1.3090 H     1 <1>   0.0800 
 35 H       -3.8780     0.1410     0.3100 H     1 <1>   0.1500 
 36 H       -2.0990    -3.7080     0.6530 H     1 <1>   0.1500 
 37 H        3.2560    -0.1770    -0.9470 H     1 <1>   0.4500 
 38 H        1.9070     4.0370     0.3620 H     1 <1>   0.0800 
 39 H        3.5850     4.0810     0.8380 H     1 <1>   0.0800 
 40 H        4.7670     1.8480     0.6180 H     1 <1>   0.0800 
 41 H        4.9830     1.5270    -1.0760 H     1 <1>   0.0800 
 42 H        5.4470    -0.5920     0.9950 H     1 <1>   0.0800 
 43 H        5.5840    -0.7640    -0.7450 H     1 <1>   0.0800 
 44 H        4.5400    -1.8380     0.1580 H     1 <1>   0.0800 
 45 H       -5.1390    -3.8130    -0.4100 H     1 <1>   0.0800 
 46 H       -5.8670    -2.2320    -0.5440 H     1 <1>   0.0800 
 47 H       -6.5520    -3.4200     0.5280 H     1 <1>   0.0800 
@<TRIPOS>BOND
  1   1   2  2   
  2   1   3  2   
  3   1   4  am  
  4   1   5  1   
  5   4   6  1   
  6   4   7  1   
  7   5   8  ar  
  8   5   9  ar  
  9   6  10  1   
 10   6  11  1   
 11   6  25  1   
 12   7  12  1   
 13   7  26  1   
 14   7  27  1   
 15   8  13  ar  
 16   8  28  1   
 17   9  14  ar  
 18   9  29  1   
 19  10  15  1   
 20  10  30  1   
 21  10  31  1   
 22  11  16  1   
 23  11  32  1   
 24  11  33  1   
 25  12  17  1   
 26  12  18  1   
 27  12  34  1   
 28  13  19  ar  
 29  13  35  1   
 30  14  19  ar  
 31  14  36  1   
 32  15  17  1   
 33  16  18  1   
 34  16  20  1   
 35  16  37  1   
 36  17  38  1   
 37  17  39  1   
 38  18  40  1   
 39  18  41  1   
 40  19  21  1   
 41  20  42  1   
 42  20  43  1   
 43  20  44  1   
 44  21  22  2   
 45  21  23  2   
 46  21  24  1   
 47  24  45  1   
 48  24  46  1   
 49  24  47  1   
@<TRIPOS>SUBSTRUCTURE
  1 ****   5 GROUP 4 **** **** 0

# MOE 2024.06 (io_trps.svl 2023.06)
