@<TRIPOS>MOLECULE
NONAME
56 58 1 0 0 
SMALL
USER_CHARGES


@<TRIPOS>ATOM
  1 CL      -0.3470     0.7520    -0.1530 Cl    1 <1>  -0.1770 
  2 C       -2.0310     1.0430     0.2420 C.ar  1 <1>   0.1770 
  3 C       -2.3670     2.1720     0.9790 C.ar  1 <1>  -0.1440 
  4 C       -2.9920     0.1340    -0.1850 C.ar  1 <1>  -0.1440 
  5 C       -3.7010     2.3950     1.2810 C.ar  1 <1>  -0.1500 
  6 C       -1.3030     3.1500     1.4570 C.3   1 <1>  -0.0960 
  7 C       -4.3200     0.3770     0.1290 C.ar  1 <1>  -0.1500 
  8 C       -2.6100    -1.1090    -0.9750 C.3   1 <1>  -0.0960 
  9 C       -4.6760     1.5140     0.8380 C.ar  1 <1>   0.0830 
 10 O       -5.9770     1.7340     1.1460 O.3   1 <1>  -0.3630 
 11 C       -6.8740     2.4940     0.3180 C.3   1 <1>   0.3410 
 12 C       -8.2930     2.4800     0.9930 C.2   1 <1>   0.5690 
 13 C       -6.2970     3.9240     0.2400 C.3   1 <1>  -0.2400 
 14 C       -6.9000     1.8080    -1.0650 C.3   1 <1>  -0.2400 
 15 O       -8.4240     1.8130     1.9990 O.2   1 <1>  -0.5700 
 16 N       -9.3980     3.1720     0.5120 N.am  1 <1>  -0.6600 
 17 C      -10.6950     3.1290     1.2640 C.3   1 <1>   0.1400 
 18 C       -9.5510     3.9120    -0.7720 C.3   1 <1>   0.1400 
 19 C      -11.7530     2.3450     0.4640 C.3   1 <1>   0.0000 
 20 C      -10.5730     3.1910    -1.6600 C.3   1 <1>  -0.1600 
 21 C      -13.0710     2.2570     1.2590 C.3   1 <1>   0.2000 
 22 C      -11.9200     2.9940    -0.9400 C.3   1 <1>  -0.1600 
 23 C      -11.3880     0.8540     0.3390 C.3   1 <1>  -0.1600 
 24 O      -13.8700     3.3750     1.1090 O.3   1 <1>  -0.6800 
 25 C      -13.7990     1.0130     0.7530 C.3   1 <1>  -0.1600 
 26 C      -12.7150     0.1130     0.1460 C.3   1 <1>  -0.1600 
 27 H       -3.9970     3.2470     1.8650 H     1 <1>   0.1500 
 28 H       -1.7420     3.9550     2.0180 H     1 <1>   0.0800 
 29 H       -0.7810     3.5650     0.6130 H     1 <1>   0.0800 
 30 H       -0.5950     2.6420     2.0870 H     1 <1>   0.0800 
 31 H       -5.0900    -0.3110    -0.1680 H     1 <1>   0.1500 
 32 H       -3.4780    -1.6960    -1.2140 H     1 <1>   0.0800 
 33 H       -1.9360    -1.7160    -0.3980 H     1 <1>   0.0800 
 34 H       -2.1250    -0.8260    -1.8920 H     1 <1>   0.0800 
 35 H       -6.9440     4.5960    -0.2820 H     1 <1>   0.0800 
 36 H       -5.3530     3.9270    -0.2730 H     1 <1>   0.0800 
 37 H       -6.1660     4.3090     1.2350 H     1 <1>   0.0800 
 38 H       -7.5950     2.2700    -1.7330 H     1 <1>   0.0800 
 39 H       -7.1970     0.7820    -0.9470 H     1 <1>   0.0800 
 40 H       -5.9340     1.8510    -1.5330 H     1 <1>   0.0800 
 41 H      -10.5680     2.6840     2.2350 H     1 <1>   0.0800 
 42 H      -11.0420     4.1360     1.4220 H     1 <1>   0.0800 
 43 H       -9.9020     4.9080    -0.5570 H     1 <1>   0.0800 
 44 H       -8.6280     4.0060    -1.3030 H     1 <1>   0.0800 
 45 H      -10.7310     3.7690    -2.5530 H     1 <1>   0.0800 
 46 H      -10.1680     2.2430    -1.9620 H     1 <1>   0.0800 
 47 H      -12.8580     2.1410     2.3100 H     1 <1>   0.0800 
 48 H      -12.5750     2.4040    -1.5560 H     1 <1>   0.0800 
 49 H      -12.3640     3.9680    -0.8310 H     1 <1>   0.0800 
 50 H      -10.6920     0.6480    -0.4530 H     1 <1>   0.0800 
 51 H      -10.9400     0.5220     1.2610 H     1 <1>   0.0800 
 52 H      -14.1390     3.4580     0.1760 H     1 <1>   0.4000 
 53 H      -14.2940     0.5180     1.5690 H     1 <1>   0.0800 
 54 H      -14.5220     1.2650    -0.0030 H     1 <1>   0.0800 
 55 H      -12.6870    -0.8520     0.6250 H     1 <1>   0.0800 
 56 H      -12.9050    -0.0280    -0.9040 H     1 <1>   0.0800 
@<TRIPOS>BOND
  1   1   2  1   
  2   2   3  ar  
  3   2   4  ar  
  4   3   5  ar  
  5   3   6  1   
  6   4   7  ar  
  7   4   8  1   
  8   5   9  ar  
  9   5  27  1   
 10   6  28  1   
 11   6  29  1   
 12   6  30  1   
 13   7   9  ar  
 14   7  31  1   
 15   8  32  1   
 16   8  33  1   
 17   8  34  1   
 18   9  10  1   
 19  10  11  1   
 20  11  12  1   
 21  11  13  1   
 22  11  14  1   
 23  12  15  2   
 24  12  16  am  
 25  13  35  1   
 26  13  36  1   
 27  13  37  1   
 28  14  38  1   
 29  14  39  1   
 30  14  40  1   
 31  16  17  1   
 32  16  18  1   
 33  17  19  1   
 34  17  41  1   
 35  17  42  1   
 36  18  20  1   
 37  18  43  1   
 38  18  44  1   
 39  19  21  1   
 40  19  22  1   
 41  19  23  1   
 42  20  22  1   
 43  20  45  1   
 44  20  46  1   
 45  21  24  1   
 46  21  25  1   
 47  21  47  1   
 48  22  48  1   
 49  22  49  1   
 50  23  26  1   
 51  23  50  1   
 52  23  51  1   
 53  24  52  1   
 54  25  26  1   
 55  25  53  1   
 56  25  54  1   
 57  26  55  1   
 58  26  56  1   
@<TRIPOS>SUBSTRUCTURE
  1 ****  11 GROUP 4 **** **** 0

# MOE 2024.06 (io_trps.svl 2023.06)
