@<TRIPOS>MOLECULE
NONAME
40 41 1 0 0 
SMALL
USER_CHARGES


@<TRIPOS>ATOM
  1 O        0.7340    -0.4740     0.1270 O.2   1 <1>  -0.5700 
  2 C        0.3580    -1.6210     0.1530 C.2   1 <1>   0.5690 
  3 N        0.7840    -2.5580    -0.7550 N.am  1 <1>  -0.6600 
  4 C       -0.6360    -2.0020     1.2380 C.3   1 <1>  -0.0990 
  5 C        0.4100    -4.0050    -0.6960 C.3   1 <1>   0.1400 
  6 C        1.7320    -2.2120    -1.8490 C.3   1 <1>   0.0600 
  7 C       -0.6600    -3.5060     1.5460 C.3   1 <1>  -0.1600 
  8 C       -0.7770    -4.2930     0.2420 C.3   1 <1>   0.2200 
  9 N       -0.8320    -5.7310     0.5660 N.am  1 <1>  -0.7300 
 10 C       -1.2600    -6.7080    -0.2760 C.2   1 <1>   0.7150 
 11 O       -1.5830    -6.4000    -1.4050 O.2   1 <1>  -0.5700 
 12 C       -1.2780    -8.0600     0.2070 C.2   1 <1>  -0.2370 
 13 N       -2.2520    -9.0110    -0.0330 N.pl3 1 <1>   0.0480 
 14 C       -0.3210    -8.6370     1.0060 C.2   1 <1>  -0.1500 
 15 C       -1.8770   -10.1440     0.6170 C.2   1 <1>  -0.3020 
 16 C       -3.5450    -8.9390    -0.7810 C.3   1 <1>   0.1760 
 17 C       -0.6990    -9.9480     1.2610 C.2   1 <1>  -0.1500 
 18 C       -3.3230    -9.0060    -2.2970 C.3   1 <1>  -0.2400 
 19 C       -4.3990    -7.7340    -0.3670 C.3   1 <1>  -0.2400 
 20 H       -1.6090    -1.6840     0.9100 H     1 <1>   0.0800 
 21 H       -0.3970    -1.4550     2.1320 H     1 <1>   0.0800 
 22 H        1.2680    -4.5570    -0.3570 H     1 <1>   0.0800 
 23 H        0.1550    -4.3460    -1.6850 H     1 <1>   0.0800 
 24 H        1.9700    -1.1620    -1.8330 H     1 <1>   0.0800 
 25 H        1.2900    -2.4480    -2.8010 H     1 <1>   0.0800 
 26 H        2.6430    -2.7730    -1.7320 H     1 <1>   0.0800 
 27 H       -1.4950    -3.7250     2.1890 H     1 <1>   0.0800 
 28 H        0.2530    -3.7740     2.0490 H     1 <1>   0.0800 
 29 H       -1.6890    -4.0190    -0.2650 H     1 <1>   0.0800 
 30 H       -0.6000    -6.0010     1.5200 H     1 <1>   0.3700 
 31 H        0.5800    -8.1810     1.3760 H     1 <1>   0.1500 
 32 H       -2.4650   -11.0440     0.5950 H     1 <1>   0.1500 
 33 H       -4.1020    -9.8180    -0.5090 H     1 <1>   0.0800 
 34 H       -0.1480   -10.6560     1.8570 H     1 <1>   0.1500 
 35 H       -2.8180    -8.1300    -2.6580 H     1 <1>   0.0800 
 36 H       -4.2690    -9.0760    -2.8010 H     1 <1>   0.0800 
 37 H       -2.7390    -9.8740    -2.5450 H     1 <1>   0.0800 
 38 H       -3.9850    -6.8130    -0.7290 H     1 <1>   0.0800 
 39 H       -4.4860    -7.6910     0.7040 H     1 <1>   0.0800 
 40 H       -5.3860    -7.8330    -0.7820 H     1 <1>   0.0800 
@<TRIPOS>BOND
  1   1   2  2   
  2   2   3  am  
  3   2   4  1   
  4   3   5  1   
  5   3   6  1   
  6   4   7  1   
  7   4  20  1   
  8   4  21  1   
  9   5   8  1   
 10   5  22  1   
 11   5  23  1   
 12   6  24  1   
 13   6  25  1   
 14   6  26  1   
 15   7   8  1   
 16   7  27  1   
 17   7  28  1   
 18   8   9  1   
 19   8  29  1   
 20   9  10  am  
 21   9  30  1   
 22  10  11  2   
 23  10  12  1   
 24  12  13  1   
 25  12  14  2   
 26  13  15  1   
 27  13  16  1   
 28  14  17  1   
 29  14  31  1   
 30  15  17  2   
 31  15  32  1   
 32  16  18  1   
 33  16  19  1   
 34  16  33  1   
 35  17  34  1   
 36  18  35  1   
 37  18  36  1   
 38  18  37  1   
 39  19  38  1   
 40  19  39  1   
 41  19  40  1   
@<TRIPOS>SUBSTRUCTURE
  1 ****   9 GROUP 4 **** **** 0

# MOE 2024.06 (io_trps.svl 2023.06)
