@<TRIPOS>MOLECULE
NONAME
46 47 1 0 0 
SMALL
USER_CHARGES


@<TRIPOS>ATOM
  1 F       -0.3590    -2.5440    -1.4230 F     1 <1>  -0.1900 
  2 C        0.8560    -2.1040    -1.2230 C.ar  1 <1>   0.1900 
  3 C        1.4440    -2.3080     0.0160 C.ar  1 <1>  -0.1440 
  4 C        1.5060    -1.4670    -2.2620 C.ar  1 <1>  -0.1500 
  5 C        2.7380    -1.8460     0.2090 C.ar  1 <1>  -0.1500 
  6 C        0.6820    -3.0190     1.1130 C.3   1 <1>   0.4870 
  7 C        2.7970    -1.0160    -2.0540 C.ar  1 <1>  -0.1500 
  8 C        3.4080    -1.2050    -0.8230 C.ar  1 <1>  -0.1500 
  9 N        0.4800    -4.4370     0.7150 N.4   1 <1>  -0.9590 
 10 C       -0.5650    -5.1110     1.5390 C.3   1 <1>   0.4810 
 11 C        1.7570    -5.2000     0.6360 C.3   1 <1>   0.3430 
 12 C       -0.9080    -6.4590     0.9140 C.2   1 <1>  -0.0380 
 13 C        1.9560    -5.6970    -0.7950 C.3   1 <1>  -0.1600 
 14 N       -0.3320    -7.5810     1.4810 N.pl3 1 <1>  -0.6000 
 15 C       -1.7280    -6.5920    -0.1740 C.2   1 <1>  -0.1240 
 16 C        3.2570    -6.4970    -0.9210 C.3   1 <1>  -0.2400 
 17 C       -0.5500    -8.8350     0.9640 C.2   1 <1>  -0.0500 
 18 C       -1.9680    -7.8860    -0.7370 C.2   1 <1>   0.5410 
 19 C       -2.4260    -5.4150    -0.8640 C.3   1 <1>  -0.1020 
 20 C       -1.3440    -9.0120    -0.1220 C.2   1 <1>  -0.1240 
 21 O       -2.6800    -8.0200    -1.7300 O.2   1 <1>  -0.5700 
 22 C       -1.5900   -10.4000    -0.7020 C.3   1 <1>  -0.1020 
 23 H        1.0150    -1.3270    -3.2090 H     1 <1>   0.1500 
 24 H        3.2410    -1.9710     1.1540 H     1 <1>   0.1500 
 25 H       -0.2720    -2.5320     1.2440 H     1 <1>   0.0800 
 26 H        1.2260    -2.9630     2.0420 H     1 <1>   0.0800 
 27 H        3.3280    -0.5150    -2.8470 H     1 <1>   0.1500 
 28 H        4.4130    -0.8460    -0.6710 H     1 <1>   0.1500 
 29 H        0.1110    -4.4090    -0.2460 H     1 <1>   0.4500 
 30 H       -1.4540    -4.5040     1.5710 H     1 <1>   0.0800 
 31 H       -0.2180    -5.2530     2.5490 H     1 <1>   0.0800 
 32 H        1.7360    -6.0430     1.3070 H     1 <1>   0.0800 
 33 H        2.5890    -4.5700     0.9090 H     1 <1>   0.0800 
 34 H        2.0020    -4.8620    -1.4720 H     1 <1>   0.0800 
 35 H        1.1370    -6.3340    -1.0830 H     1 <1>   0.0800 
 36 H        0.2320    -7.5270     2.3410 H     1 <1>   0.4000 
 37 H        4.1080    -5.8880    -0.6650 H     1 <1>   0.0800 
 38 H        3.3810    -6.8380    -1.9350 H     1 <1>   0.0800 
 39 H        3.2390    -7.3600    -0.2770 H     1 <1>   0.0800 
 40 H       -0.0710    -9.6680     1.4560 H     1 <1>   0.1500 
 41 H       -3.4870    -5.5990    -0.8970 H     1 <1>   0.0800 
 42 H       -2.0780    -5.3320    -1.8790 H     1 <1>   0.0800 
 43 H       -2.2740    -4.4730    -0.3740 H     1 <1>   0.0800 
 44 H       -1.2580   -10.4340    -1.7250 H     1 <1>   0.0800 
 45 H       -2.6420   -10.6240    -0.6790 H     1 <1>   0.0800 
 46 H       -1.0660   -11.1550    -0.1440 H     1 <1>   0.0800 
@<TRIPOS>BOND
  1   1   2  1   
  2   2   3  ar  
  3   2   4  ar  
  4   3   5  ar  
  5   3   6  1   
  6   4   7  ar  
  7   4  23  1   
  8   5   8  ar  
  9   5  24  1   
 10   6   9  1   
 11   6  25  1   
 12   6  26  1   
 13   7   8  ar  
 14   7  27  1   
 15   8  28  1   
 16   9  10  1   
 17   9  11  1   
 18   9  29  1   
 19  10  12  1   
 20  10  30  1   
 21  10  31  1   
 22  11  13  1   
 23  11  32  1   
 24  11  33  1   
 25  12  14  1   
 26  12  15  2   
 27  13  16  1   
 28  13  34  1   
 29  13  35  1   
 30  14  17  1   
 31  14  36  1   
 32  15  18  1   
 33  15  19  1   
 34  16  37  1   
 35  16  38  1   
 36  16  39  1   
 37  17  20  2   
 38  17  40  1   
 39  18  20  1   
 40  18  21  2   
 41  19  41  1   
 42  19  42  1   
 43  19  43  1   
 44  20  22  1   
 45  22  44  1   
 46  22  45  1   
 47  22  46  1   
@<TRIPOS>SUBSTRUCTURE
  1 ****   9 GROUP 4 **** **** 0

# MOE 2024.06 (io_trps.svl 2023.06)
