@<TRIPOS>MOLECULE
NONAME
53 55 1 0 0 
SMALL
USER_CHARGES


@<TRIPOS>ATOM
  1 O       -1.3290     0.3240    -0.9740 O.2   1 <1>  -0.5700 
  2 C       -2.1640     1.2070    -1.0650 C.2   1 <1>   0.5440 
  3 N       -3.4660     0.8180    -1.2990 N.am  1 <1>  -0.6600 
  4 C       -1.7920     2.6000    -0.8800 C.ar  1 <1>   0.0860 
  5 C       -3.7270    -0.5460    -1.8270 C.3   1 <1>   0.1400 
  6 C       -4.5780     1.3570    -0.4700 C.3   1 <1>   0.1400 
  7 C       -0.7720     2.9560    -0.0010 C.ar  1 <1>  -0.1500 
  8 C       -2.4350     3.6260    -1.5710 C.ar  1 <1>  -0.1500 
  9 C       -3.8830    -1.5100    -0.6310 C.3   1 <1>   0.4230 
 10 C       -4.7780     0.4180     0.7290 C.3   1 <1>  -0.1600 
 11 C       -0.4140     4.2840     0.2000 C.ar  1 <1>   0.0830 
 12 C       -2.0900     4.9510    -1.3780 C.ar  1 <1>  -0.1500 
 13 N       -3.9290    -2.9800    -1.0220 N.4   1 <1>  -0.9590 
 14 C       -5.0290    -1.0670     0.3300 C.3   1 <1>   0.0000 
 15 O        0.5760     4.6580     1.0540 O.3   1 <1>  -0.3620 
 16 C       -1.0820     5.2900    -0.4910 C.ar  1 <1>  -0.1430 
 17 C       -4.4780    -3.8800     0.0440 C.3   1 <1>   0.3430 
 18 C       -4.5830    -3.2810    -2.3380 C.3   1 <1>   0.2630 
 19 C       -4.9870    -1.9440     1.6170 C.3   1 <1>  -0.1600 
 20 C       -6.4070    -1.2100    -0.3780 C.3   1 <1>   0.1200 
 21 C        1.3880     3.7100     1.7100 C.3   1 <1>   0.0400 
 22 C       -0.7110     6.7520    -0.2870 C.3   1 <1>  -0.0970 
 23 C       -4.2520    -3.2860     1.4330 C.3   1 <1>  -0.1600 
 24 O       -7.4270    -0.6400     0.3640 O.3   1 <1>  -0.6800 
 25 H       -4.6080    -0.5190    -2.4410 H     1 <1>   0.0800 
 26 H       -2.8950    -0.8530    -2.4380 H     1 <1>   0.0800 
 27 H       -4.3420     2.3460    -0.1150 H     1 <1>   0.0800 
 28 H       -5.4770     1.4230    -1.0590 H     1 <1>   0.0800 
 29 H       -0.2680     2.1650     0.5200 H     1 <1>   0.1500 
 30 H       -3.2140     3.3840    -2.2720 H     1 <1>   0.1500 
 31 H       -2.9760    -1.3840    -0.0610 H     1 <1>   0.0800 
 32 H       -3.8910     0.4870     1.3360 H     1 <1>   0.0800 
 33 H       -5.5870     0.7940     1.3310 H     1 <1>   0.0800 
 34 H       -2.6100     5.7180    -1.9250 H     1 <1>   0.1500 
 35 H       -2.9340    -3.2360    -1.1220 H     1 <1>   0.4500 
 36 H       -5.5380    -4.0120    -0.1010 H     1 <1>   0.0800 
 37 H       -4.0110    -4.8500    -0.0190 H     1 <1>   0.0800 
 38 H       -5.6210    -2.9910    -2.3190 H     1 <1>   0.0800 
 39 H       -4.5270    -4.3370    -2.5490 H     1 <1>   0.0800 
 40 H       -4.0890    -2.7520    -3.1360 H     1 <1>   0.0800 
 41 H       -4.4950    -1.4180     2.4190 H     1 <1>   0.0800 
 42 H       -5.9870    -2.1410     1.9640 H     1 <1>   0.0800 
 43 H       -6.6640    -2.2410    -0.5380 H     1 <1>   0.0800 
 44 H       -6.4130    -0.7080    -1.3290 H     1 <1>   0.0800 
 45 H        2.1260     4.2420     2.2820 H     1 <1>   0.0800 
 46 H        1.8720     3.0940     0.9720 H     1 <1>   0.0800 
 47 H        0.7750     3.1180     2.3660 H     1 <1>   0.0800 
 48 H       -1.3250     7.3990    -0.8870 H     1 <1>   0.0800 
 49 H        0.3180     6.9060    -0.5570 H     1 <1>   0.0800 
 50 H       -0.8390     7.0180     0.7470 H     1 <1>   0.0800 
 51 H       -4.5980    -3.9820     2.1770 H     1 <1>   0.0800 
 52 H       -3.1950    -3.1550     1.5920 H     1 <1>   0.0800 
 53 H       -7.5450    -1.0780     1.2310 H     1 <1>   0.4000 
@<TRIPOS>BOND
  1   1   2  2   
  2   2   3  am  
  3   2   4  1   
  4   3   5  1   
  5   3   6  1   
  6   4   7  ar  
  7   4   8  ar  
  8   5   9  1   
  9   5  25  1   
 10   5  26  1   
 11   6  10  1   
 12   6  27  1   
 13   6  28  1   
 14   7  11  ar  
 15   7  29  1   
 16   8  12  ar  
 17   8  30  1   
 18   9  13  1   
 19   9  14  1   
 20   9  31  1   
 21  10  14  1   
 22  10  32  1   
 23  10  33  1   
 24  11  15  1   
 25  11  16  ar  
 26  12  16  ar  
 27  12  34  1   
 28  13  17  1   
 29  13  18  1   
 30  13  35  1   
 31  14  19  1   
 32  14  20  1   
 33  15  21  1   
 34  16  22  1   
 35  17  23  1   
 36  17  36  1   
 37  17  37  1   
 38  18  38  1   
 39  18  39  1   
 40  18  40  1   
 41  19  23  1   
 42  19  41  1   
 43  19  42  1   
 44  20  24  1   
 45  20  43  1   
 46  20  44  1   
 47  21  45  1   
 48  21  46  1   
 49  21  47  1   
 50  22  48  1   
 51  22  49  1   
 52  22  50  1   
 53  23  51  1   
 54  23  52  1   
 55  24  53  1   
@<TRIPOS>SUBSTRUCTURE
  1 ****   3 GROUP 4 **** **** 0

# MOE 2024.06 (io_trps.svl 2023.06)
