@<TRIPOS>MOLECULE
NONAME
51 53 1 0 0 
SMALL
USER_CHARGES


@<TRIPOS>ATOM
  1 O       -0.8400    -0.3070    -0.1720 O.2   1 <1>  -0.5700 
  2 C       -1.7740     0.4650    -0.2690 C.2   1 <1>   0.7160 
  3 N       -3.0060    -0.0340    -0.5680 N.am  1 <1>  -0.7300 
  4 C       -1.6010     1.8760    -0.0730 C.2   1 <1>  -0.0860 
  5 C       -3.4210    -1.4160    -0.8990 C.3   1 <1>   0.2200 
  6 C       -2.6170     2.8430    -0.0750 C.2   1 <1>   0.3720 
  7 C       -0.4800     2.6130     0.1740 C.2   1 <1>   0.0870 
  8 C       -2.8820    -2.4410     0.1140 C.3   1 <1>   0.1200 
  9 C       -2.9870    -1.7230    -2.3320 C.3   1 <1>  -0.2400 
 10 N       -2.1490     4.0170     0.1630 N.2   1 <1>  -0.4100 
 11 N       -3.9830     2.6020    -0.2950 N.pl3 1 <1>  -0.8210 
 12 O       -0.8630     3.8570     0.3120 O.3   1 <1>  -0.0190 
 13 C        0.9220     2.3010     0.2960 C.ar  1 <1>   0.0530 
 14 O       -3.5230    -3.6670    -0.0820 O.3   1 <1>  -0.5600 
 15 C       -4.8190     2.7760     0.9270 C.3   1 <1>   0.2090 
 16 C       -4.5780     3.4200    -1.3920 C.3   1 <1>   0.2090 
 17 C        1.5700     1.4280    -0.5780 C.ar  1 <1>  -0.1500 
 18 C        1.6930     2.8910     1.2990 C.ar  1 <1>  -0.1500 
 19 C       -3.0560    -4.6790     0.7490 C.3   1 <1>   0.0400 
 20 C       -6.1030     3.4450     0.4610 C.3   1 <1>  -0.1600 
 21 C       -5.6740     4.2580    -0.7490 C.3   1 <1>  -0.1600 
 22 C        2.9170     1.1450    -0.4560 C.ar  1 <1>  -0.1500 
 23 C        3.0410     2.6160     1.4270 C.ar  1 <1>  -0.1500 
 24 C        3.6660     1.7410     0.5550 C.ar  1 <1>   0.0830 
 25 O        4.9880     1.5190     0.7470 O.3   1 <1>  -0.3620 
 26 C        5.7100     0.6200    -0.0650 C.3   1 <1>   0.0400 
 27 H       -3.7390     0.6860    -0.6420 H     1 <1>   0.3700 
 28 H       -4.4960    -1.4500    -0.8460 H     1 <1>   0.0800 
 29 H       -3.0860    -2.1100     1.1170 H     1 <1>   0.0800 
 30 H       -1.8240    -2.5830    -0.0210 H     1 <1>   0.0800 
 31 H       -1.9150    -1.7070    -2.4100 H     1 <1>   0.0800 
 32 H       -3.4080    -1.0050    -3.0120 H     1 <1>   0.0800 
 33 H       -3.3330    -2.7020    -2.6120 H     1 <1>   0.0800 
 34 H       -5.0200     1.8230     1.3870 H     1 <1>   0.0800 
 35 H       -4.3120     3.4110     1.6360 H     1 <1>   0.0800 
 36 H       -3.8440     4.0450    -1.8730 H     1 <1>   0.0800 
 37 H       -5.0040     2.7560    -2.1240 H     1 <1>   0.0800 
 38 H        1.0060     0.9630    -1.3670 H     1 <1>   0.1500 
 39 H        1.2250     3.5740     1.9860 H     1 <1>   0.1500 
 40 H       -3.6090    -5.5750     0.5290 H     1 <1>   0.0800 
 41 H       -3.2130    -4.3980     1.7760 H     1 <1>   0.0800 
 42 H       -2.0100    -4.8420     0.5550 H     1 <1>   0.0800 
 43 H       -6.8080     2.6870     0.1660 H     1 <1>   0.0800 
 44 H       -6.5390     4.0540     1.2330 H     1 <1>   0.0800 
 45 H       -5.2500     5.1950    -0.4300 H     1 <1>   0.0800 
 46 H       -6.4840     4.4500    -1.4290 H     1 <1>   0.0800 
 47 H        3.3640     0.4620    -1.1520 H     1 <1>   0.1500 
 48 H        3.6210     3.0780     2.2050 H     1 <1>   0.1500 
 49 H        6.7270     0.6000     0.2810 H     1 <1>   0.0800 
 50 H        5.6760     0.9640    -1.0830 H     1 <1>   0.0800 
 51 H        5.2730    -0.3590     0.0270 H     1 <1>   0.0800 
@<TRIPOS>BOND
  1   1   2  2   
  2   2   3  am  
  3   2   4  1   
  4   3   5  1   
  5   3  27  1   
  6   4   6  1   
  7   4   7  2   
  8   5   8  1   
  9   5   9  1   
 10   5  28  1   
 11   6  10  2   
 12   6  11  1   
 13   7  12  1   
 14   7  13  1   
 15   8  14  1   
 16   8  29  1   
 17   8  30  1   
 18   9  31  1   
 19   9  32  1   
 20   9  33  1   
 21  10  12  1   
 22  11  15  1   
 23  11  16  1   
 24  13  17  ar  
 25  13  18  ar  
 26  14  19  1   
 27  15  20  1   
 28  15  34  1   
 29  15  35  1   
 30  16  21  1   
 31  16  36  1   
 32  16  37  1   
 33  17  22  ar  
 34  17  38  1   
 35  18  23  ar  
 36  18  39  1   
 37  19  40  1   
 38  19  41  1   
 39  19  42  1   
 40  20  21  1   
 41  20  43  1   
 42  20  44  1   
 43  21  45  1   
 44  21  46  1   
 45  22  24  ar  
 46  22  47  1   
 47  23  24  ar  
 48  23  48  1   
 49  24  25  1   
 50  25  26  1   
 51  26  49  1   
 52  26  50  1   
 53  26  51  1   
@<TRIPOS>SUBSTRUCTURE
  1 ****   4 GROUP 4 **** **** 0

# MOE 2024.06 (io_trps.svl 2023.06)
