@<TRIPOS>MOLECULE
NONAME
57 60 1 0 0 
SMALL
USER_CHARGES


@<TRIPOS>ATOM
  1 O       -1.2190     0.1240     2.1100 O.2   1 <1>  -0.5700 
  2 C       -1.6500     0.6720     1.1230 C.2   1 <1>   0.5690 
  3 N       -2.3270    -0.0610     0.1780 N.am  1 <1>  -0.6600 
  4 C       -1.4070     2.1860     1.0180 C.3   1 <1>  -0.0190 
  5 C       -2.9490     0.3850    -1.0960 C.3   1 <1>   0.1400 
  6 C       -2.5700    -1.5150     0.3670 C.3   1 <1>   0.1400 
  7 C       -2.6810     3.0150     1.2680 C.3   1 <1>  -0.1600 
  8 C       -0.6850     2.6340    -0.2700 C.3   1 <1>  -0.1600 
  9 C       -3.9950    -0.6850    -1.3980 C.3   1 <1>   0.2000 
 10 C       -3.3490    -1.9730    -0.8750 C.3   1 <1>  -0.0800 
 11 C       -2.3750     4.5200     1.2690 C.3   1 <1>  -0.1600 
 12 C       -0.3910     4.1400    -0.2500 C.3   1 <1>  -0.1600 
 13 O       -5.1300    -0.3930    -0.6560 O.3   1 <1>  -0.6800 
 14 C       -4.3420    -3.1250    -0.6110 C.3   1 <1>  -0.0170 
 15 C       -1.6720     4.9670    -0.0260 C.3   1 <1>  -0.0800 
 16 C       -3.7410    -4.4860    -0.2400 C.ar  1 <1>  -0.1440 
 17 C       -1.3830     6.4790     0.0410 C.3   1 <1>  -0.1600 
 18 C       -4.5960    -5.5380     0.1760 C.ar  1 <1>   0.0000 
 19 C       -2.4030    -4.7650    -0.2950 C.ar  1 <1>  -0.1500 
 20 C       -0.8460     7.0580    -1.2740 C.3   1 <1>  -0.2400 
 21 C       -4.0070    -6.7790     0.5210 C.ar  1 <1>   0.3100 
 22 C       -6.0050    -5.4330     0.2630 C.ar  1 <1>  -0.1500 
 23 C       -1.9240    -6.0300     0.0660 C.ar  1 <1>   0.1600 
 24 N       -2.6720    -7.0080     0.4620 N.ar  1 <1>  -0.6200 
 25 C       -4.8330    -7.8340     0.9430 C.ar  1 <1>  -0.1500 
 26 C       -6.7820    -6.4810     0.6760 C.ar  1 <1>  -0.1500 
 27 C       -6.1910    -7.6980     1.0230 C.ar  1 <1>  -0.1500 
 28 H       -0.7360     2.4210     1.8260 H     1 <1>   0.0800 
 29 H       -3.3970     1.3580    -1.0290 H     1 <1>   0.0800 
 30 H       -2.2000     0.3840    -1.8680 H     1 <1>   0.0800 
 31 H       -1.6360    -2.0390     0.4730 H     1 <1>   0.0800 
 32 H       -3.1530    -1.6580     1.2620 H     1 <1>   0.0800 
 33 H       -3.4190     2.8110     0.5170 H     1 <1>   0.0800 
 34 H       -3.1000     2.7390     2.2210 H     1 <1>   0.0800 
 35 H        0.2390     2.0900    -0.3670 H     1 <1>   0.0800 
 36 H       -1.2850     2.4240    -1.1330 H     1 <1>   0.0800 
 37 H       -4.2670    -0.7310    -2.4390 H     1 <1>   0.0800 
 38 H       -2.6400    -2.2880    -1.6190 H     1 <1>   0.0800 
 39 H       -1.7470     4.7500     2.1130 H     1 <1>   0.0800 
 40 H       -3.2960     5.0640     1.3880 H     1 <1>   0.0800 
 41 H        0.0650     4.4090    -1.1860 H     1 <1>   0.0800 
 42 H        0.3160     4.3550     0.5340 H     1 <1>   0.0800 
 43 H       -4.8570    -0.2040     0.2660 H     1 <1>   0.4000 
 44 H       -4.9460    -3.2580    -1.4920 H     1 <1>   0.0800 
 45 H       -4.9990    -2.8230     0.1860 H     1 <1>   0.0800 
 46 H       -2.3440     4.7880    -0.8490 H     1 <1>   0.0800 
 47 H       -2.2960     6.9960     0.2830 H     1 <1>   0.0800 
 48 H       -0.6800     6.6800     0.8310 H     1 <1>   0.0800 
 49 H       -1.6700    -4.0490    -0.6110 H     1 <1>   0.1500 
 50 H       -1.5080     6.8220    -2.0880 H     1 <1>   0.0800 
 51 H        0.1320     6.6720    -1.4960 H     1 <1>   0.0800 
 52 H       -0.7710     8.1280    -1.1960 H     1 <1>   0.0800 
 53 H       -6.4870    -4.5110    -0.0020 H     1 <1>   0.1500 
 54 H       -0.8620    -6.1990     0.0100 H     1 <1>   0.1500 
 55 H       -4.3550    -8.7610     1.2020 H     1 <1>   0.1500 
 56 H       -7.8520    -6.3840     0.7380 H     1 <1>   0.1500 
 57 H       -6.8120    -8.5160     1.3470 H     1 <1>   0.1500 
@<TRIPOS>BOND
  1   1   2  2   
  2   2   3  am  
  3   2   4  1   
  4   3   5  1   
  5   3   6  1   
  6   4   7  1   
  7   4   8  1   
  8   4  28  1   
  9   5   9  1   
 10   5  29  1   
 11   5  30  1   
 12   6  10  1   
 13   6  31  1   
 14   6  32  1   
 15   7  11  1   
 16   7  33  1   
 17   7  34  1   
 18   8  12  1   
 19   8  35  1   
 20   8  36  1   
 21   9  10  1   
 22   9  13  1   
 23   9  37  1   
 24  10  14  1   
 25  10  38  1   
 26  11  15  1   
 27  11  39  1   
 28  11  40  1   
 29  12  15  1   
 30  12  41  1   
 31  12  42  1   
 32  13  43  1   
 33  14  16  1   
 34  14  44  1   
 35  14  45  1   
 36  15  17  1   
 37  15  46  1   
 38  16  18  ar  
 39  16  19  ar  
 40  17  20  1   
 41  17  47  1   
 42  17  48  1   
 43  18  21  ar  
 44  18  22  ar  
 45  19  23  ar  
 46  19  49  1   
 47  20  50  1   
 48  20  51  1   
 49  20  52  1   
 50  21  24  ar  
 51  21  25  ar  
 52  22  26  ar  
 53  22  53  1   
 54  23  24  ar  
 55  23  54  1   
 56  25  27  ar  
 57  25  55  1   
 58  26  27  ar  
 59  26  56  1   
 60  27  57  1   
@<TRIPOS>SUBSTRUCTURE
  1 ****   6 GROUP 4 **** **** 0

# MOE 2024.06 (io_trps.svl 2023.06)
