@<TRIPOS>MOLECULE
NONAME
49 51 1 0 0 
SMALL
USER_CHARGES


@<TRIPOS>ATOM
  1 F        0.6220     1.0520     2.1620 F     1 <1>  -0.1900 
  2 C        1.4240     1.2510     1.1460 C.ar  1 <1>   0.1900 
  3 C        1.6750     2.5400     0.7090 C.ar  1 <1>   0.1900 
  4 C        1.9990     0.1570     0.5230 C.ar  1 <1>  -0.1440 
  5 F        1.1140     3.5610     1.3070 F     1 <1>  -0.1900 
  6 C        2.5140     2.7720    -0.3630 C.ar  1 <1>  -0.1500 
  7 C        2.8480     0.3820    -0.5600 C.ar  1 <1>   0.0830 
  8 C        1.7050    -1.2420     1.0230 C.3   1 <1>   0.4860 
  9 C        3.1010     1.6860    -0.9960 C.ar  1 <1>  -0.1500 
 10 O        3.3940    -0.7120    -1.1570 O.3   1 <1>  -0.3630 
 11 N        1.1490    -2.0950    -0.0730 N.4   1 <1>  -0.9590 
 12 C        4.4370    -0.5840    -2.1060 C.3   1 <1>   0.0400 
 13 C       -0.2740    -1.8910    -0.4870 C.3   1 <1>   0.4230 
 14 C        1.3920    -3.5340     0.2370 C.3   1 <1>   0.2630 
 15 C       -1.2680    -1.6620     0.6500 C.3   1 <1>  -0.1600 
 16 C       -0.4890    -0.7080    -1.4240 C.3   1 <1>  -0.1600 
 17 C       -2.5070    -1.0800    -0.0440 C.3   1 <1>  -0.0800 
 18 C       -2.0000    -0.4480    -1.3630 C.3   1 <1>  -0.0800 
 19 C       -3.3180    -0.1310     0.8630 C.3   1 <1>   0.1400 
 20 C       -2.3660     1.0410    -1.5160 C.3   1 <1>  -0.0990 
 21 N       -4.2430     0.6840     0.0400 N.am  1 <1>  -0.6600 
 22 C       -3.8090     1.2720    -1.1160 C.2   1 <1>   0.5690 
 23 C       -5.6190     0.8820     0.5700 C.3   1 <1>   0.0600 
 24 O       -4.5110     1.9530    -1.8230 O.2   1 <1>  -0.5700 
 25 H        2.7010     3.7800    -0.6920 H     1 <1>   0.1500 
 26 H        1.0320    -1.2170     1.8640 H     1 <1>   0.0800 
 27 H        2.6360    -1.6650     1.3640 H     1 <1>   0.0800 
 28 H        3.7500     1.8820    -1.8310 H     1 <1>   0.1500 
 29 H        1.7380    -1.8430    -0.8870 H     1 <1>   0.4500 
 30 H        4.7800    -1.5680    -2.3690 H     1 <1>   0.0800 
 31 H        5.2460    -0.0250    -1.6670 H     1 <1>   0.0800 
 32 H        4.0600    -0.0860    -2.9820 H     1 <1>   0.0800 
 33 H       -0.6020    -2.7650    -1.0270 H     1 <1>   0.0800 
 34 H        0.8220    -3.8330     1.1010 H     1 <1>   0.0800 
 35 H        2.4390    -3.7030     0.4370 H     1 <1>   0.0800 
 36 H        1.1030    -4.1510    -0.5980 H     1 <1>   0.0800 
 37 H       -1.5050    -2.5760     1.1650 H     1 <1>   0.0800 
 38 H       -0.8990    -0.9360     1.3480 H     1 <1>   0.0800 
 39 H        0.0270     0.1650    -1.0790 H     1 <1>   0.0800 
 40 H       -0.1770    -0.9350    -2.4280 H     1 <1>   0.0800 
 41 H       -3.1590    -1.8980    -0.3080 H     1 <1>   0.0800 
 42 H       -2.4740    -0.9800    -2.1730 H     1 <1>   0.0800 
 43 H       -2.6610     0.5400     1.3920 H     1 <1>   0.0800 
 44 H       -3.8720    -0.7030     1.5880 H     1 <1>   0.0800 
 45 H       -2.2230     1.3570    -2.5340 H     1 <1>   0.0800 
 46 H       -1.7540     1.6560    -0.8830 H     1 <1>   0.0800 
 47 H       -6.1180    -0.0680     0.6520 H     1 <1>   0.0800 
 48 H       -6.1910     1.5140    -0.0890 H     1 <1>   0.0800 
 49 H       -5.5740     1.3480     1.5380 H     1 <1>   0.0800 
@<TRIPOS>BOND
  1   1   2  1   
  2   2   3  ar  
  3   2   4  ar  
  4   3   5  1   
  5   3   6  ar  
  6   4   7  ar  
  7   4   8  1   
  8   6   9  ar  
  9   6  25  1   
 10   7   9  ar  
 11   7  10  1   
 12   8  11  1   
 13   8  26  1   
 14   8  27  1   
 15   9  28  1   
 16  10  12  1   
 17  11  13  1   
 18  11  14  1   
 19  11  29  1   
 20  12  30  1   
 21  12  31  1   
 22  12  32  1   
 23  13  15  1   
 24  13  16  1   
 25  13  33  1   
 26  14  34  1   
 27  14  35  1   
 28  14  36  1   
 29  15  17  1   
 30  15  37  1   
 31  15  38  1   
 32  16  18  1   
 33  16  39  1   
 34  16  40  1   
 35  17  18  1   
 36  17  19  1   
 37  17  41  1   
 38  18  20  1   
 39  18  42  1   
 40  19  21  1   
 41  19  43  1   
 42  19  44  1   
 43  20  22  1   
 44  20  45  1   
 45  20  46  1   
 46  21  22  am  
 47  21  23  1   
 48  22  24  2   
 49  23  47  1   
 50  23  48  1   
 51  23  49  1   
@<TRIPOS>SUBSTRUCTURE
  1 ****  16 GROUP 4 **** **** 0

# MOE 2024.06 (io_trps.svl 2023.06)
