@<TRIPOS>MOLECULE
NONAME
40 41 1 0 0 
SMALL
USER_CHARGES


@<TRIPOS>ATOM
  1 F       -0.3100     1.3630    -0.8730 F     1 <1>  -0.3400 
  2 C        0.3750     2.4970    -0.8880 C.3   1 <1>   1.3000 
  3 F       -0.4780     3.5000    -0.7620 F     1 <1>  -0.3400 
  4 F        0.9720     2.6240    -2.0670 F     1 <1>  -0.3400 
  5 O        1.3300     2.5590     0.1600 O.3   1 <1>  -0.3630 
  6 C        2.3500     1.6700     0.1360 C.ar  1 <1>   0.0830 
  7 C        3.6160     2.0790    -0.2740 C.ar  1 <1>  -0.1440 
  8 C        2.1330     0.3630     0.5470 C.ar  1 <1>  -0.1500 
  9 C        4.6520     1.1570    -0.2950 C.ar  1 <1>  -0.1500 
 10 C        3.8750     3.5150    -0.6860 C.3   1 <1>   0.4870 
 11 C        3.1740    -0.5460     0.5260 C.ar  1 <1>  -0.1500 
 12 C        4.4310    -0.1510     0.1020 C.ar  1 <1>  -0.1500 
 13 N        3.7040     4.3820     0.5130 N.4   1 <1>  -0.9590 
 14 C        3.5430     5.8250     0.1090 C.3   1 <1>   0.4860 
 15 C        4.8400     4.1850     1.4660 C.3   1 <1>   0.2630 
 16 C        4.8220     6.4460    -0.4660 C.ar  1 <1>   0.1670 
 17 N        5.2330     5.9400    -1.6240 N.ar  1 <1>  -0.6200 
 18 C        5.4780     7.4740     0.2140 C.ar  1 <1>  -0.1430 
 19 C        6.3310     6.4740    -2.1360 C.ar  1 <1>   0.1600 
 20 C        6.6260     8.0060    -0.3390 C.ar  1 <1>  -0.1500 
 21 C        4.9800     8.0460     1.5370 C.3   1 <1>  -0.0970 
 22 C        7.0540     7.4890    -1.5410 C.ar  1 <1>  -0.1500 
 23 H        1.1600     0.0490     0.8830 H     1 <1>   0.1500 
 24 H        5.6390     1.4400    -0.6210 H     1 <1>   0.1500 
 25 H        3.1770     3.7980    -1.4570 H     1 <1>   0.0800 
 26 H        4.8730     3.6150    -1.0830 H     1 <1>   0.0800 
 27 H        3.0080    -1.5640     0.8390 H     1 <1>   0.1500 
 28 H        5.2370    -0.8650     0.0830 H     1 <1>   0.1500 
 29 H        2.8340     4.0560     0.9580 H     1 <1>   0.4500 
 30 H        3.2270     6.3970     0.9630 H     1 <1>   0.0800 
 31 H        2.7710     5.9040    -0.6370 H     1 <1>   0.0800 
 32 H        5.7700     4.4760     1.0030 H     1 <1>   0.0800 
 33 H        4.9090     3.1480     1.7550 H     1 <1>   0.0800 
 34 H        4.6940     4.7780     2.3540 H     1 <1>   0.0800 
 35 H        6.6760     6.0840    -3.0800 H     1 <1>   0.1500 
 36 H        7.1750     8.8010     0.1380 H     1 <1>   0.1500 
 37 H        4.9250     7.2790     2.2890 H     1 <1>   0.0800 
 38 H        4.0100     8.4930     1.4110 H     1 <1>   0.0800 
 39 H        5.6470     8.8100     1.8980 H     1 <1>   0.0800 
 40 H        7.9400     7.8730    -2.0160 H     1 <1>   0.1500 
@<TRIPOS>BOND
  1   1   2  1   
  2   2   3  1   
  3   2   4  1   
  4   2   5  1   
  5   5   6  1   
  6   6   7  ar  
  7   6   8  ar  
  8   7   9  ar  
  9   7  10  1   
 10   8  11  ar  
 11   8  23  1   
 12   9  12  ar  
 13   9  24  1   
 14  10  13  1   
 15  10  25  1   
 16  10  26  1   
 17  11  12  ar  
 18  11  27  1   
 19  12  28  1   
 20  13  14  1   
 21  13  15  1   
 22  13  29  1   
 23  14  16  1   
 24  14  30  1   
 25  14  31  1   
 26  15  32  1   
 27  15  33  1   
 28  15  34  1   
 29  16  17  ar  
 30  16  18  ar  
 31  17  19  ar  
 32  18  20  ar  
 33  18  21  1   
 34  19  22  ar  
 35  19  35  1   
 36  20  22  ar  
 37  20  36  1   
 38  21  37  1   
 39  21  38  1   
 40  21  39  1   
 41  22  40  1   
@<TRIPOS>SUBSTRUCTURE
  1 ****  10 GROUP 4 **** **** 0

# MOE 2024.06 (io_trps.svl 2023.06)
