@<TRIPOS>MOLECULE
NONAME
43 45 1 0 0 
SMALL
USER_CHARGES


@<TRIPOS>ATOM
  1 F       -0.5490    -1.0430     0.5170 F     1 <1>  -0.1900 
  2 C        0.6770    -1.4160     0.2640 C.ar  1 <1>   0.1900 
  3 C        1.2360    -2.4720     0.9770 C.ar  1 <1>  -0.1440 
  4 C        1.3630    -0.7330    -0.7220 C.ar  1 <1>  -0.1500 
  5 C        2.5410    -2.8490     0.6790 C.ar  1 <1>  -0.1500 
  6 C        0.4710    -3.2220     2.0680 C.3   1 <1>   0.0450 
  7 C        2.6550    -1.1400    -0.9850 C.ar  1 <1>   0.1900 
  8 C        3.2580    -2.1830    -0.3040 C.ar  1 <1>  -0.1500 
  9 C        0.3350    -4.7060     1.7630 C.2   1 <1>   0.5690 
 10 F        3.3340    -0.5170    -1.9100 F     1 <1>  -0.1900 
 11 O        1.0630    -5.4720     2.3500 O.2   1 <1>  -0.5700 
 12 N       -0.5860    -5.1540     0.8550 N.am  1 <1>  -0.6600 
 13 C       -1.4680    -4.3210    -0.0020 C.3   1 <1>   0.1400 
 14 C       -0.7820    -6.5950     0.5660 C.3   1 <1>   0.1400 
 15 C       -2.1250    -5.3090    -0.9670 C.3   1 <1>   0.2000 
 16 C       -2.0610    -6.6640    -0.2680 C.3   1 <1>  -0.0800 
 17 O       -3.4410    -4.9660    -1.2310 O.3   1 <1>  -0.6800 
 18 C       -2.0970    -7.8520    -1.2420 C.3   1 <1>   0.0210 
 19 C       -1.9210    -9.1640    -0.5040 C.2   1 <1>   0.1080 
 20 N       -2.7470    -9.5740     0.4080 N.2   1 <1>  -0.7070 
 21 C       -0.8730   -10.0560    -0.7040 C.2   1 <1>  -0.1500 
 22 N       -2.2420   -10.7530     0.8190 N.pl3 1 <1>   0.3000 
 23 C       -1.1060   -11.0660     0.1610 C.2   1 <1>  -0.3320 
 24 C       -0.3000   -12.3290     0.4040 C.3   1 <1>  -0.0600 
 25 H        0.9130     0.0790    -1.2600 H     1 <1>   0.1500 
 26 H        3.0030    -3.6650     1.2130 H     1 <1>   0.1500 
 27 H       -0.5090    -2.8110     2.2200 H     1 <1>   0.0800 
 28 H        1.0030    -3.1160     2.9950 H     1 <1>   0.0800 
 29 H        4.2680    -2.4670    -0.5420 H     1 <1>   0.1500 
 30 H       -2.2060    -3.8340     0.6110 H     1 <1>   0.0800 
 31 H       -0.8930    -3.5950    -0.5470 H     1 <1>   0.0800 
 32 H        0.0660    -6.9570     0.0100 H     1 <1>   0.0800 
 33 H       -0.8760    -7.1620     1.4780 H     1 <1>   0.0800 
 34 H       -1.5830    -5.3180    -1.8970 H     1 <1>   0.0800 
 35 H       -2.8800    -6.7540     0.4240 H     1 <1>   0.0800 
 36 H       -3.9940    -5.1160    -0.4400 H     1 <1>   0.4000 
 37 H       -1.3220    -7.7510    -1.9790 H     1 <1>   0.0800 
 38 H       -3.0440    -7.8680    -1.7510 H     1 <1>   0.0800 
 39 H       -0.0630    -9.9410    -1.4020 H     1 <1>   0.1500 
 40 H       -2.6950   -11.3170     1.5480 H     1 <1>   0.2700 
 41 H        0.5600   -12.3480    -0.2420 H     1 <1>   0.0800 
 42 H       -0.9000   -13.1980     0.2020 H     1 <1>   0.0800 
 43 H        0.0380   -12.3640     1.4250 H     1 <1>   0.0800 
@<TRIPOS>BOND
  1   1   2  1   
  2   2   3  ar  
  3   2   4  ar  
  4   3   5  ar  
  5   3   6  1   
  6   4   7  ar  
  7   4  25  1   
  8   5   8  ar  
  9   5  26  1   
 10   6   9  1   
 11   6  27  1   
 12   6  28  1   
 13   7   8  ar  
 14   7  10  1   
 15   8  29  1   
 16   9  11  2   
 17   9  12  am  
 18  12  13  1   
 19  12  14  1   
 20  13  15  1   
 21  13  30  1   
 22  13  31  1   
 23  14  16  1   
 24  14  32  1   
 25  14  33  1   
 26  15  16  1   
 27  15  17  1   
 28  15  34  1   
 29  16  18  1   
 30  16  35  1   
 31  17  36  1   
 32  18  19  1   
 33  18  37  1   
 34  18  38  1   
 35  19  20  2   
 36  19  21  1   
 37  20  22  1   
 38  21  23  2   
 39  21  39  1   
 40  22  23  1   
 41  22  40  1   
 42  23  24  1   
 43  24  41  1   
 44  24  42  1   
 45  24  43  1   
@<TRIPOS>SUBSTRUCTURE
  1 ****  12 GROUP 4 **** **** 0

# MOE 2024.06 (io_trps.svl 2023.06)
