@<TRIPOS>MOLECULE
F1913-0655
42 43 1 0 0 
SMALL
USER_CHARGES


@<TRIPOS>ATOM
  1 O       -0.0340     0.3210     0.1790 O.2   1 <1>  -0.5700 
  2 C        0.0250     1.4280    -0.3210 C.2   1 <1>   0.7800 
  3 O        1.1560     2.1370    -0.2810 O.3   1 <1>  -0.4300 
  4 N       -1.0550     2.0050    -0.9410 N.am  1 <1>  -0.6600 
  5 C        2.3690     1.7830     0.3470 C.3   1 <1>   0.2800 
  6 C       -2.3920     1.3570    -0.9390 C.3   1 <1>   0.1400 
  7 C       -1.0070     3.3430    -1.5890 C.3   1 <1>   0.1400 
  8 C        3.3030     2.9690     0.1030 C.3   1 <1>  -0.2400 
  9 C        2.1540     1.6130     1.8560 C.3   1 <1>  -0.2400 
 10 C        2.9610     0.5300    -0.3070 C.3   1 <1>  -0.2400 
 11 C       -3.3910     2.2660    -0.2170 C.3   1 <1>  -0.1600 
 12 C       -1.9820     4.2840    -0.8770 C.3   1 <1>  -0.1600 
 13 C       -3.3990     3.6790    -0.8310 C.3   1 <1>   0.0630 
 14 C       -4.4490     4.6140    -0.2050 C.ar  1 <1>   0.1670 
 15 N       -5.3950     4.9830    -1.0610 N.ar  1 <1>  -0.6200 
 16 C       -4.4120     5.0340     1.1320 C.ar  1 <1>   0.0730 
 17 C       -6.3400     5.7860    -0.6050 C.ar  1 <1>   0.1600 
 18 C       -3.3970     4.6480     2.0660 C.1   1 <1>   0.4840 
 19 C       -5.4170     5.8770     1.5800 C.ar  1 <1>  -0.1500 
 20 C       -6.3960     6.2560     0.6910 C.ar  1 <1>  -0.1500 
 21 N       -2.5960     4.3570     2.8240 N.1   1 <1>  -0.5570 
 22 H       -2.3530     0.4000    -0.4470 H     1 <1>   0.0800 
 23 H       -2.7050     1.1950    -1.9560 H     1 <1>   0.0800 
 24 H       -1.2840     3.2400    -2.6240 H     1 <1>   0.0800 
 25 H       -0.0140     3.7580    -1.5530 H     1 <1>   0.0800 
 26 H        2.8890     3.8630     0.5320 H     1 <1>   0.0800 
 27 H        3.4460     3.1190    -0.9520 H     1 <1>   0.0800 
 28 H        4.2620     2.7880     0.5530 H     1 <1>   0.0800 
 29 H        1.6680     2.4810     2.2640 H     1 <1>   0.0800 
 30 H        3.1000     1.4870     2.3500 H     1 <1>   0.0800 
 31 H        1.5590     0.7450     2.0680 H     1 <1>   0.0800 
 32 H        3.0280     0.6590    -1.3710 H     1 <1>   0.0800 
 33 H        2.3650    -0.3380    -0.0930 H     1 <1>   0.0800 
 34 H        3.9480     0.3470     0.0780 H     1 <1>   0.0800 
 35 H       -3.1210     2.2930     0.8220 H     1 <1>   0.0800 
 36 H       -4.3740     1.8370    -0.2900 H     1 <1>   0.0800 
 37 H       -2.0110     5.2230    -1.3990 H     1 <1>   0.0800 
 38 H       -1.6010     4.4670     0.1100 H     1 <1>   0.0800 
 39 H       -3.6860     3.5420    -1.8620 H     1 <1>   0.0800 
 40 H       -7.1070     6.0840    -1.3010 H     1 <1>   0.1500 
 41 H       -5.4350     6.2280     2.5990 H     1 <1>   0.1500 
 42 H       -7.1960     6.9090     0.9950 H     1 <1>   0.1500 
@<TRIPOS>BOND
  1   1   2  2   
  2   2   3  1   
  3   2   4  am  
  4   3   5  1   
  5   4   6  1   
  6   4   7  1   
  7   5   8  1   
  8   5   9  1   
  9   5  10  1   
 10   6  11  1   
 11   6  22  1   
 12   6  23  1   
 13   7  12  1   
 14   7  24  1   
 15   7  25  1   
 16   8  26  1   
 17   8  27  1   
 18   8  28  1   
 19   9  29  1   
 20   9  30  1   
 21   9  31  1   
 22  10  32  1   
 23  10  33  1   
 24  10  34  1   
 25  11  13  1   
 26  11  35  1   
 27  11  36  1   
 28  12  13  1   
 29  12  37  1   
 30  12  38  1   
 31  13  14  1   
 32  13  39  1   
 33  14  15  ar  
 34  14  16  ar  
 35  15  17  ar  
 36  16  18  1   
 37  16  19  ar  
 38  17  20  ar  
 39  17  40  1   
 40  18  21  3   
 41  19  20  ar  
 42  19  41  1   
 43  20  42  1   
@<TRIPOS>SUBSTRUCTURE
  1 ****  12 GROUP 4 **** **** 0

# MOE 2024.06 (io_trps.svl 2023.06)
