@<TRIPOS>MOLECULE
NONAME
53 55 1 0 0 
SMALL
USER_CHARGES


@<TRIPOS>ATOM
  1 F        2.0670     1.0180    -0.9380 F     1 <1>  -0.1900 
  2 C        1.8830     2.2950    -0.7300 C.ar  1 <1>   0.1900 
  3 C        1.7590     3.1360    -1.8190 C.ar  1 <1>  -0.1500 
  4 C        1.8160     2.7550     0.5710 C.ar  1 <1>  -0.1500 
  5 C        1.5670     4.4870    -1.5910 C.ar  1 <1>  -0.1500 
  6 C        1.6220     4.1090     0.7910 C.ar  1 <1>  -0.1500 
  7 C        1.5030     4.9800    -0.2930 C.ar  1 <1>   0.0830 
  8 O        1.3300     6.3190    -0.1650 O.3   1 <1>  -0.3630 
  9 C        1.3610     6.9470     1.1090 C.3   1 <1>   0.1810 
 10 C        1.2910     8.4710     0.9940 C.2   1 <1>   0.5690 
 11 O        0.6260     9.0500     1.8190 O.2   1 <1>  -0.5700 
 12 N        1.9830     9.1900     0.0410 N.am  1 <1>  -0.6600 
 13 C        3.0830     8.6340    -0.8150 C.3   1 <1>   0.1400 
 14 C        1.5250    10.5660    -0.3110 C.3   1 <1>   0.1400 
 15 C        4.3620     9.4930    -0.7680 C.3   1 <1>   0.3430 
 16 C        2.2820    11.6140     0.5100 C.3   1 <1>  -0.1600 
 17 N        4.4060    10.3480     0.4660 N.4   1 <1>  -0.9590 
 18 C        3.7840    11.6790     0.2370 C.3   1 <1>   0.3430 
 19 C        5.7480    10.4200     1.1350 C.3   1 <1>   0.3430 
 20 C        6.9360    10.7240     0.2010 C.3   1 <1>  -0.0800 
 21 C        8.2290    10.6620     1.0300 C.3   1 <1>   0.1200 
 22 C        6.8570    12.0850    -0.5220 C.3   1 <1>  -0.1600 
 23 O        9.3150    10.8670     0.1890 O.3   1 <1>  -0.5600 
 24 C        8.1670    12.3590    -1.2750 C.3   1 <1>  -0.1600 
 25 C        9.3880    12.1390    -0.3750 C.3   1 <1>   0.1200 
 26 H        1.8120     2.7380    -2.8170 H     1 <1>   0.1500 
 27 H        1.9120     2.0640     1.3900 H     1 <1>   0.1500 
 28 H        1.4610     5.1640    -2.4200 H     1 <1>   0.1500 
 29 H        1.5630     4.4560     1.8060 H     1 <1>   0.1500 
 30 H        2.2700     6.6690     1.6070 H     1 <1>   0.0800 
 31 H        0.5150     6.5950     1.6720 H     1 <1>   0.0800 
 32 H        2.7400     8.5420    -1.8320 H     1 <1>   0.0800 
 33 H        3.3480     7.6470    -0.4820 H     1 <1>   0.0800 
 34 H        0.4700    10.6520    -0.1010 H     1 <1>   0.0800 
 35 H        1.6550    10.7410    -1.3660 H     1 <1>   0.0800 
 36 H        4.4090    10.1170    -1.6460 H     1 <1>   0.0800 
 37 H        5.2120     8.8310    -0.7970 H     1 <1>   0.0800 
 38 H        2.1050    11.4420     1.5580 H     1 <1>   0.0800 
 39 H        1.8630    12.5790     0.2840 H     1 <1>   0.0800 
 40 H        3.7440     9.8870     1.1150 H     1 <1>   0.4500 
 41 H        4.2230    12.4070     0.9010 H     1 <1>   0.0800 
 42 H        3.9600    12.0020    -0.7760 H     1 <1>   0.0800 
 43 H        5.9420     9.4720     1.6110 H     1 <1>   0.0800 
 44 H        5.7160    11.1650     1.9140 H     1 <1>   0.0800 
 45 H        7.0160     9.9400    -0.5300 H     1 <1>   0.0800 
 46 H        8.3540     9.6900     1.4780 H     1 <1>   0.0800 
 47 H        8.2500    11.4100     1.8050 H     1 <1>   0.0800 
 48 H        6.7000    12.8720     0.1970 H     1 <1>   0.0800 
 49 H        6.0510    12.1000    -1.2320 H     1 <1>   0.0800 
 50 H        8.1760    13.3680    -1.6480 H     1 <1>   0.0800 
 51 H        8.2490    11.7000    -2.1220 H     1 <1>   0.0800 
 52 H       10.2970    12.1930    -0.9500 H     1 <1>   0.0800 
 53 H        9.4330    12.8680     0.4170 H     1 <1>   0.0800 
@<TRIPOS>BOND
  1   1   2  1   
  2   2   3  ar  
  3   2   4  ar  
  4   3   5  ar  
  5   3  26  1   
  6   4   6  ar  
  7   4  27  1   
  8   5   7  ar  
  9   5  28  1   
 10   6   7  ar  
 11   6  29  1   
 12   7   8  1   
 13   8   9  1   
 14   9  10  1   
 15   9  30  1   
 16   9  31  1   
 17  10  11  2   
 18  10  12  am  
 19  12  13  1   
 20  12  14  1   
 21  13  15  1   
 22  13  32  1   
 23  13  33  1   
 24  14  16  1   
 25  14  34  1   
 26  14  35  1   
 27  15  17  1   
 28  15  36  1   
 29  15  37  1   
 30  16  18  1   
 31  16  38  1   
 32  16  39  1   
 33  17  18  1   
 34  17  19  1   
 35  17  40  1   
 36  18  41  1   
 37  18  42  1   
 38  19  20  1   
 39  19  43  1   
 40  19  44  1   
 41  20  21  1   
 42  20  22  1   
 43  20  45  1   
 44  21  23  1   
 45  21  46  1   
 46  21  47  1   
 47  22  24  1   
 48  22  48  1   
 49  22  49  1   
 50  23  25  1   
 51  24  25  1   
 52  24  50  1   
 53  24  51  1   
 54  25  52  1   
 55  25  53  1   
@<TRIPOS>SUBSTRUCTURE
  1 ****  13 GROUP 4 **** **** 0

# MOE 2024.06 (io_trps.svl 2023.06)
