@<TRIPOS>MOLECULE
NONAME
47 49 1 0 0 
SMALL
USER_CHARGES


@<TRIPOS>ATOM
  1 O        0.7450     3.1040    -2.0530 O.2   1 <1>  -0.5700 
  2 C        1.8830     2.8750    -1.6620 C.2   1 <1>   0.4690 
  3 C        2.2240     2.8650    -0.2670 C.ar  1 <1>   0.0860 
  4 C        2.9130     2.6360    -2.5970 C.2   1 <1>  -0.1360 
  5 C        3.5500     2.5760     0.1170 C.ar  1 <1>   0.1000 
  6 C        1.2740     3.1580     0.7180 C.ar  1 <1>  -0.1500 
  7 C        4.1830     2.3530    -2.2200 C.2   1 <1>  -0.0380 
  8 N        4.5140     2.2740    -0.8740 N.pl3 1 <1>  -0.5690 
  9 C        3.8610     2.6250     1.4840 C.ar  1 <1>  -0.1500 
 10 C        1.6060     3.1880     2.0520 C.ar  1 <1>  -0.1500 
 11 C        5.2440     2.1290    -3.2900 C.3   1 <1>  -0.1020 
 12 C        5.9140     1.8600    -0.4490 C.3   1 <1>   0.2700 
 13 C        2.9110     2.9230     2.4340 C.ar  1 <1>  -0.1500 
 14 C        6.8030     3.0490    -0.0880 C.2   1 <1>   0.5690 
 15 O        7.9180     2.8320     0.3240 O.2   1 <1>  -0.5700 
 16 N        6.2700     4.3000    -0.2320 N.am  1 <1>  -0.4940 
 17 C        6.6880     5.5850     0.1830 C.2   1 <1>  -0.0880 
 18 N        7.9580     6.0690     0.2900 N.pl3 1 <1>   0.3140 
 19 C        5.8640     6.5990     0.5420 C.2   1 <1>  -0.1810 
 20 N        7.9590     7.3540     0.7040 N.2   1 <1>  -0.7070 
 21 C        9.2270     5.4140    -0.0470 C.3   1 <1>   0.0160 
 22 C        6.7100     7.6600     0.8530 C.2   1 <1>   0.1080 
 23 C        4.3450     6.6030     0.6080 C.3   1 <1>  -0.0590 
 24 C        6.2710     9.0380     1.3150 C.3   1 <1>   0.0210 
 25 C        6.0230     9.9680     0.1230 C.3   1 <1>  -0.2400 
 26 H        2.6220     2.6960    -3.6280 H     1 <1>   0.1500 
 27 H        0.2610     3.3670     0.4160 H     1 <1>   0.1500 
 28 H        4.8570     2.4380     1.8370 H     1 <1>   0.1500 
 29 H        0.8630     3.4160     2.7960 H     1 <1>   0.1500 
 30 H        6.0810     2.7870    -3.1350 H     1 <1>   0.0800 
 31 H        4.8460     2.3300    -4.2680 H     1 <1>   0.0800 
 32 H        5.5810     1.1080    -3.2760 H     1 <1>   0.0800 
 33 H        6.4010     1.2980    -1.2210 H     1 <1>   0.0800 
 34 H        5.8520     1.2020     0.3970 H     1 <1>   0.0800 
 35 H        3.1750     2.9530     3.4780 H     1 <1>   0.1500 
 36 H        5.3000     4.2600    -0.5620 H     1 <1>   0.3700 
 37 H        9.0960     4.8150    -0.9280 H     1 <1>   0.0800 
 38 H        9.5300     4.7950     0.7760 H     1 <1>   0.0800 
 39 H        9.9740     6.1640    -0.2270 H     1 <1>   0.0800 
 40 H        3.9430     5.6500     0.3190 H     1 <1>   0.0800 
 41 H        3.9530     7.3550    -0.0510 H     1 <1>   0.0800 
 42 H        4.0250     6.8150     1.6120 H     1 <1>   0.0800 
 43 H        7.0440     9.4530     1.9380 H     1 <1>   0.0800 
 44 H        5.3790     8.9540     1.9080 H     1 <1>   0.0800 
 45 H        6.9250    10.0600    -0.4570 H     1 <1>   0.0800 
 46 H        5.7300    10.9440     0.4670 H     1 <1>   0.0800 
 47 H        5.2490     9.5700    -0.5060 H     1 <1>   0.0800 
@<TRIPOS>BOND
  1   1   2  2   
  2   2   3  1   
  3   2   4  1   
  4   3   5  ar  
  5   3   6  ar  
  6   4   7  2   
  7   4  26  1   
  8   5   8  1   
  9   5   9  ar  
 10   6  10  ar  
 11   6  27  1   
 12   7   8  1   
 13   7  11  1   
 14   8  12  1   
 15   9  13  ar  
 16   9  28  1   
 17  10  13  ar  
 18  10  29  1   
 19  11  30  1   
 20  11  31  1   
 21  11  32  1   
 22  12  14  1   
 23  12  33  1   
 24  12  34  1   
 25  13  35  1   
 26  14  15  2   
 27  14  16  am  
 28  16  17  1   
 29  16  36  1   
 30  17  18  1   
 31  17  19  2   
 32  18  20  1   
 33  18  21  1   
 34  19  22  1   
 35  19  23  1   
 36  20  22  2   
 37  21  37  1   
 38  21  38  1   
 39  21  39  1   
 40  22  24  1   
 41  23  40  1   
 42  23  41  1   
 43  23  42  1   
 44  24  25  1   
 45  24  43  1   
 46  24  44  1   
 47  25  45  1   
 48  25  46  1   
 49  25  47  1   
@<TRIPOS>SUBSTRUCTURE
  1 ****  16 GROUP 4 **** **** 0

# MOE 2024.06 (io_trps.svl 2023.06)
