@<TRIPOS>MOLECULE
NONAME
50 52 1 0 0 
SMALL
USER_CHARGES


@<TRIPOS>ATOM
  1 O       -2.6290    -2.3920    -3.6660 O.co2 1 <1>  -0.9000 
  2 C       -2.6120    -1.4660    -2.8340 C.2   1 <1>   0.9790 
  3 O       -2.1210    -0.3710    -3.1570 O.co2 1 <1>  -0.9000 
  4 C       -3.1700    -1.6730    -1.5040 C.ar  1 <1>  -0.1790 
  5 C       -3.6460    -2.9240    -1.1210 C.ar  1 <1>  -0.1500 
  6 C       -3.2630    -0.6440    -0.5650 C.ar  1 <1>  -0.1500 
  7 C       -4.2050    -3.1610     0.1230 C.ar  1 <1>   0.1170 
  8 C       -3.8100    -0.8600     0.6870 C.ar  1 <1>  -0.1500 
  9 N       -4.6660    -4.4550     0.3850 N.am  1 <1>  -0.5470 
 10 C       -4.2810    -2.1140     1.0330 C.ar  1 <1>  -0.1500 
 11 C       -5.7430    -4.8610     1.1230 C.2   1 <1>   0.5690 
 12 O       -6.3440    -4.1580     1.9000 O.2   1 <1>  -0.5700 
 13 C       -6.3010    -6.2660     0.8860 C.3   1 <1>   0.4040 
 14 N       -7.7850    -6.2820     0.5780 N.4   1 <1>  -0.9590 
 15 C       -8.3780    -7.6500     0.4100 C.3   1 <1>   0.4230 
 16 C       -8.0220    -5.4180    -0.6240 C.3   1 <1>   0.3430 
 17 C       -9.8870    -7.5060     0.1480 C.3   1 <1>  -0.1600 
 18 C       -8.1800    -8.5640     1.6440 C.3   1 <1>  -0.1600 
 19 C       -9.5170    -5.2500    -0.8760 C.3   1 <1>  -0.1600 
 20 C      -10.2000    -6.6070    -1.0520 C.3   1 <1>  -0.1600 
 21 C       -6.8300    -9.3040     1.7700 C.3   1 <1>   0.0960 
 22 N       -6.3210    -9.7620     0.4620 N.pl3 1 <1>   0.3140 
 23 N       -5.6620    -8.9290    -0.3680 N.2   1 <1>  -0.7070 
 24 C       -6.4530   -10.9870    -0.0770 C.2   1 <1>  -0.3020 
 25 C       -5.3760    -9.6570    -1.4080 C.2   1 <1>   0.1390 
 26 C       -5.8510   -10.9560    -1.2840 C.2   1 <1>  -0.1500 
 27 H       -3.5730    -3.7220    -1.8390 H     1 <1>   0.1500 
 28 H       -2.8970     0.3320    -0.8390 H     1 <1>   0.1500 
 29 H       -3.8670    -0.0480     1.3900 H     1 <1>   0.1500 
 30 H       -4.2050    -5.1490    -0.2070 H     1 <1>   0.3700 
 31 H       -4.7030    -2.2710     2.0080 H     1 <1>   0.1500 
 32 H       -6.1070    -6.8350     1.7740 H     1 <1>   0.0800 
 33 H       -5.7590    -6.7060     0.0700 H     1 <1>   0.0800 
 34 H       -8.2520    -5.8110     1.3660 H     1 <1>   0.4500 
 35 H       -7.9400    -8.1210    -0.4560 H     1 <1>   0.0800 
 36 H       -7.5600    -5.8650    -1.4900 H     1 <1>   0.0800 
 37 H       -7.5860    -4.4410    -0.4750 H     1 <1>   0.0800 
 38 H      -10.3720    -7.1140     1.0260 H     1 <1>   0.0800 
 39 H      -10.3100    -8.4780    -0.0440 H     1 <1>   0.0800 
 40 H       -8.9220    -9.3430     1.5950 H     1 <1>   0.0800 
 41 H       -8.3840    -8.0180     2.5480 H     1 <1>   0.0800 
 42 H       -9.6590    -4.6600    -1.7650 H     1 <1>   0.0800 
 43 H       -9.9620    -4.7110    -0.0570 H     1 <1>   0.0800 
 44 H      -11.2650    -6.4720    -1.1440 H     1 <1>   0.0800 
 45 H       -9.8470    -7.0750    -1.9570 H     1 <1>   0.0800 
 46 H       -6.9470   -10.1630     2.4070 H     1 <1>   0.0800 
 47 H       -6.0820    -8.6800     2.2170 H     1 <1>   0.0800 
 48 H       -6.9520   -11.8040     0.4130 H     1 <1>   0.1500 
 49 H       -4.8330    -9.2940    -2.2660 H     1 <1>   0.1500 
 50 H       -5.7440   -11.7450    -2.0090 H     1 <1>   0.1500 
@<TRIPOS>BOND
  1   1   2  ar  
  2   2   3  ar  
  3   2   4  1   
  4   4   5  ar  
  5   4   6  ar  
  6   5   7  ar  
  7   5  27  1   
  8   6   8  ar  
  9   6  28  1   
 10   7   9  1   
 11   7  10  ar  
 12   8  10  ar  
 13   8  29  1   
 14   9  11  am  
 15   9  30  1   
 16  10  31  1   
 17  11  12  2   
 18  11  13  1   
 19  13  14  1   
 20  13  32  1   
 21  13  33  1   
 22  14  15  1   
 23  14  16  1   
 24  14  34  1   
 25  15  17  1   
 26  15  18  1   
 27  15  35  1   
 28  16  19  1   
 29  16  36  1   
 30  16  37  1   
 31  17  20  1   
 32  17  38  1   
 33  17  39  1   
 34  18  21  1   
 35  18  40  1   
 36  18  41  1   
 37  19  20  1   
 38  19  42  1   
 39  19  43  1   
 40  20  44  1   
 41  20  45  1   
 42  21  22  1   
 43  21  46  1   
 44  21  47  1   
 45  22  23  1   
 46  22  24  1   
 47  23  25  2   
 48  24  26  2   
 49  24  48  1   
 50  25  26  1   
 51  25  49  1   
 52  26  50  1   
@<TRIPOS>SUBSTRUCTURE
  1 ****  13 GROUP 4 **** **** 0

# MOE 2024.06 (io_trps.svl 2023.06)
