@<TRIPOS>MOLECULE
NONAME
46 48 1 0 0 
SMALL
USER_CHARGES


@<TRIPOS>ATOM
  1 O       -0.1200    -0.0840     1.2960 O.2   1 <1>  -0.5700 
  2 C       -1.0920     0.5850     1.0450 C.2   1 <1>   0.5690 
  3 N       -2.2440     0.0260     0.5670 N.am  1 <1>  -0.6600 
  4 C       -0.9940     2.0820     1.2570 C.3   1 <1>  -0.0990 
  5 C       -3.4890     0.7310     0.1730 C.3   1 <1>   0.1400 
  6 C       -2.3920    -1.4390     0.3810 C.3   1 <1>   0.1400 
  7 C       -0.4510     2.7750     0.0050 C.3   1 <1>   0.0200 
  8 C       -4.3510    -0.3410    -0.4900 C.3   1 <1>   0.2000 
  9 C       -3.8820    -1.6610     0.1130 C.3   1 <1>  -0.0800 
 10 C       -0.4090     4.2820     0.2040 C.2   1 <1>  -0.3320 
 11 O       -5.6960    -0.1390    -0.2310 O.3   1 <1>  -0.6800 
 12 C       -4.1710    -2.8780    -0.7790 C.3   1 <1>   0.0210 
 13 N       -1.4600     5.1260     0.0750 N.pl3 1 <1>   0.3140 
 14 C        0.6570     5.0390     0.5370 C.2   1 <1>  -0.1500 
 15 C       -3.5790    -4.1400    -0.1830 C.2   1 <1>   0.1080 
 16 N       -1.0990     6.3960     0.3210 N.2   1 <1>  -0.7070 
 17 C       -2.8430     4.8000    -0.2950 C.3   1 <1>   0.0160 
 18 C        0.1670     6.3370     0.5950 C.2   1 <1>   0.1390 
 19 N       -3.8870    -4.5690     1.0020 N.2   1 <1>  -0.7070 
 20 C       -2.6480    -4.9590    -0.8130 C.2   1 <1>  -0.1500 
 21 N       -3.1520    -5.6860     1.1610 N.pl3 1 <1>   0.3000 
 22 C       -2.3920    -5.9420     0.0750 C.2   1 <1>  -0.3320 
 23 C       -1.4530    -7.1270    -0.0480 C.3   1 <1>  -0.0600 
 24 H       -1.9500     2.4830     1.5300 H     1 <1>   0.0800 
 25 H       -0.3230     2.2660     2.0770 H     1 <1>   0.0800 
 26 H       -3.9720     1.1140     1.0550 H     1 <1>   0.0800 
 27 H       -3.2750     1.5260    -0.5180 H     1 <1>   0.0800 
 28 H       -1.7950    -1.7470    -0.4600 H     1 <1>   0.0800 
 29 H       -2.0680    -1.9740     1.2590 H     1 <1>   0.0800 
 30 H       -1.0500     2.5310    -0.8540 H     1 <1>   0.0800 
 31 H        0.5470     2.4150    -0.1830 H     1 <1>   0.0800 
 32 H       -4.2030    -0.3180    -1.5570 H     1 <1>   0.0800 
 33 H       -4.3520    -1.8090     1.0700 H     1 <1>   0.0800 
 34 H       -5.9030    -0.3830     0.6930 H     1 <1>   0.4000 
 35 H       -3.7640    -2.7240    -1.7620 H     1 <1>   0.0800 
 36 H       -5.2350    -3.0090    -0.8740 H     1 <1>   0.0800 
 37 H        1.6720     4.7380     0.7240 H     1 <1>   0.1500 
 38 H       -2.8420     4.2200    -1.1980 H     1 <1>   0.0800 
 39 H       -3.3860     5.7130    -0.4570 H     1 <1>   0.0800 
 40 H       -3.3010     4.2480     0.5030 H     1 <1>   0.0800 
 41 H        0.7610     7.2020     0.8390 H     1 <1>   0.1500 
 42 H       -2.2360    -4.8150    -1.7960 H     1 <1>   0.1500 
 43 H       -3.1900    -6.2470     2.0190 H     1 <1>   0.2700 
 44 H       -0.9610    -7.1120    -1.0040 H     1 <1>   0.0800 
 45 H       -2.0020    -8.0480     0.0400 H     1 <1>   0.0800 
 46 H       -0.7030    -7.0890     0.7230 H     1 <1>   0.0800 
@<TRIPOS>BOND
  1   1   2  2   
  2   2   3  am  
  3   2   4  1   
  4   3   5  1   
  5   3   6  1   
  6   4   7  1   
  7   4  24  1   
  8   4  25  1   
  9   5   8  1   
 10   5  26  1   
 11   5  27  1   
 12   6   9  1   
 13   6  28  1   
 14   6  29  1   
 15   7  10  1   
 16   7  30  1   
 17   7  31  1   
 18   8   9  1   
 19   8  11  1   
 20   8  32  1   
 21   9  12  1   
 22   9  33  1   
 23  10  13  1   
 24  10  14  2   
 25  11  34  1   
 26  12  15  1   
 27  12  35  1   
 28  12  36  1   
 29  13  16  1   
 30  13  17  1   
 31  14  18  1   
 32  14  37  1   
 33  15  19  2   
 34  15  20  1   
 35  16  18  2   
 36  17  38  1   
 37  17  39  1   
 38  17  40  1   
 39  18  41  1   
 40  19  21  1   
 41  20  22  2   
 42  20  42  1   
 43  21  22  1   
 44  21  43  1   
 45  22  23  1   
 46  23  44  1   
 47  23  45  1   
 48  23  46  1   
@<TRIPOS>SUBSTRUCTURE
  1 ****   3 GROUP 4 **** **** 0

# MOE 2024.06 (io_trps.svl 2023.06)
