@<TRIPOS>MOLECULE
NONAME
56 60 1 0 0 
SMALL
USER_CHARGES


@<TRIPOS>ATOM
  1 O       -1.0710     5.2980    -1.3560 O.2   1 <1>  -0.5700 
  2 C       -0.9090     4.2230    -0.8100 C.2   1 <1>   0.5440 
  3 N       -2.0130     3.5370    -0.3470 N.am  1 <1>  -0.6600 
  4 C        0.4360     3.7070    -0.6490 C.ar  1 <1>   0.0860 
  5 C       -3.3990     3.9010    -0.7830 C.3   1 <1>   0.1400 
  6 C       -1.9650     2.5310     0.7510 C.3   1 <1>   0.1400 
  7 C        1.4710     4.4890    -0.1630 C.ar  1 <1>  -0.1500 
  8 C        0.7860     2.4050    -0.9750 C.ar  1 <1>  -0.1500 
  9 C       -4.2370     4.4290     0.3970 C.3   1 <1>   0.1440 
 10 C       -2.7800     3.0290     1.9510 C.3   1 <1>  -0.1600 
 11 C        2.7370     3.9560    -0.0080 C.ar  1 <1>   0.1660 
 12 C        2.0810     1.9600    -0.7850 C.ar  1 <1>   0.1660 
 13 C       -5.6400     4.7130    -0.1070 C.ar  1 <1>   0.1660 
 14 C       -4.2180     3.4040     1.5520 C.3   1 <1>  -0.1600 
 15 C       -3.7620     5.8350     0.8530 C.3   1 <1>  -0.1600 
 16 N        3.0550     2.7090    -0.3020 N.ar  1 <1>  -0.6200 
 17 C        3.8640     4.8130     0.5280 C.3   1 <1>  -0.0970 
 18 C        2.4600     0.5370    -1.1370 C.3   1 <1>  -0.0970 
 19 N       -6.5460     3.8070    -0.3880 N.ar  1 <1>  -0.6200 
 20 C       -5.8560     6.0480    -0.2570 C.ar  1 <1>  -0.1440 
 21 C       -4.6420     6.8600     0.1180 C.3   1 <1>  -0.0170 
 22 C       -7.7230     4.2750    -0.8250 C.ar  1 <1>   0.6200 
 23 C       -7.0850     6.4470    -0.7130 C.ar  1 <1>   0.1600 
 24 N       -8.0230     5.5710    -0.9960 N.ar  1 <1>  -0.6200 
 25 C       -8.7570     3.2980    -1.1410 C.ar  1 <1>   0.0000 
 26 C       -8.4400     2.0020    -1.5590 C.ar  1 <1>  -0.1500 
 27 C      -10.1170     3.6100    -1.0400 C.ar  1 <1>  -0.1500 
 28 C       -9.4180     1.0710    -1.8580 C.ar  1 <1>  -0.1500 
 29 C      -11.1010     2.6850    -1.3390 C.ar  1 <1>  -0.1500 
 30 C      -10.7540     1.4120    -1.7490 C.ar  1 <1>  -0.1500 
 31 H       -3.8740     3.0240    -1.1860 H     1 <1>   0.0800 
 32 H       -3.3700     4.6390    -1.5660 H     1 <1>   0.0800 
 33 H       -0.9520     2.3530     1.0660 H     1 <1>   0.0800 
 34 H       -2.3750     1.6020     0.3910 H     1 <1>   0.0800 
 35 H        1.2730     5.5140     0.0890 H     1 <1>   0.1500 
 36 H        0.0390     1.7480    -1.3790 H     1 <1>   0.1500 
 37 H       -2.2820     3.8820     2.3800 H     1 <1>   0.0800 
 38 H       -2.8070     2.2590     2.7020 H     1 <1>   0.0800 
 39 H       -4.7310     2.5130     1.2330 H     1 <1>   0.0800 
 40 H       -4.7510     3.7940     2.4010 H     1 <1>   0.0800 
 41 H       -2.7170     6.0030     0.6630 H     1 <1>   0.0800 
 42 H       -3.9330     5.9460     1.9090 H     1 <1>   0.0800 
 43 H        3.5290     5.8110     0.7390 H     1 <1>   0.0800 
 44 H        4.6550     4.8590    -0.1990 H     1 <1>   0.0800 
 45 H        4.2500     4.3760     1.4300 H     1 <1>   0.0800 
 46 H        1.6190    -0.0070    -1.5230 H     1 <1>   0.0800 
 47 H        2.8280     0.0370    -0.2600 H     1 <1>   0.0800 
 48 H        3.2380     0.5490    -1.8790 H     1 <1>   0.0800 
 49 H       -4.1480     7.2080    -0.7730 H     1 <1>   0.0800 
 50 H       -4.8930     7.6940     0.7500 H     1 <1>   0.0800 
 51 H       -7.3030     7.4930    -0.8480 H     1 <1>   0.1500 
 52 H       -7.4060     1.7180    -1.6510 H     1 <1>   0.1500 
 53 H      -10.4070     4.5960    -0.7220 H     1 <1>   0.1500 
 54 H       -9.1400     0.0820    -2.1770 H     1 <1>   0.1500 
 55 H      -12.1390     2.9570    -1.2510 H     1 <1>   0.1500 
 56 H      -11.5180     0.6900    -1.9820 H     1 <1>   0.1500 
@<TRIPOS>BOND
  1   1   2  2   
  2   2   3  am  
  3   2   4  1   
  4   3   5  1   
  5   3   6  1   
  6   4   7  ar  
  7   4   8  ar  
  8   5   9  1   
  9   5  31  1   
 10   5  32  1   
 11   6  10  1   
 12   6  33  1   
 13   6  34  1   
 14   7  11  ar  
 15   7  35  1   
 16   8  12  ar  
 17   8  36  1   
 18   9  13  1   
 19   9  14  1   
 20   9  15  1   
 21  10  14  1   
 22  10  37  1   
 23  10  38  1   
 24  11  16  ar  
 25  11  17  1   
 26  12  16  ar  
 27  12  18  1   
 28  13  19  ar  
 29  13  20  ar  
 30  14  39  1   
 31  14  40  1   
 32  15  21  1   
 33  15  41  1   
 34  15  42  1   
 35  17  43  1   
 36  17  44  1   
 37  17  45  1   
 38  18  46  1   
 39  18  47  1   
 40  18  48  1   
 41  19  22  ar  
 42  20  21  1   
 43  20  23  ar  
 44  21  49  1   
 45  21  50  1   
 46  22  24  ar  
 47  22  25  1   
 48  23  24  ar  
 49  23  51  1   
 50  25  26  ar  
 51  25  27  ar  
 52  26  28  ar  
 53  26  52  1   
 54  27  29  ar  
 55  27  53  1   
 56  28  30  ar  
 57  28  54  1   
 58  29  30  ar  
 59  29  55  1   
 60  30  56  1   
@<TRIPOS>SUBSTRUCTURE
  1 ****   5 GROUP 4 **** **** 0

# MOE 2024.06 (io_trps.svl 2023.06)
