@<TRIPOS>MOLECULE
NONAME
58 61 1 0 0 
SMALL
USER_CHARGES


@<TRIPOS>ATOM
  1 F        5.1010     4.3790    -1.1330 F     1 <1>  -0.1900 
  2 C        4.7760     3.1240    -1.3080 C.ar  1 <1>   0.1900 
  3 C        3.5110     2.6910    -0.9360 C.ar  1 <1>  -0.1440 
  4 C        5.7300     2.2760    -1.8380 C.ar  1 <1>  -0.1500 
  5 C        3.2120     1.3450    -1.1000 C.ar  1 <1>  -0.1500 
  6 C        2.4730     3.6450    -0.3720 C.3   1 <1>   0.4870 
  7 C        5.4140     0.9380    -1.9920 C.ar  1 <1>  -0.1500 
  8 C        4.1600     0.4770    -1.6210 C.ar  1 <1>  -0.1500 
  9 N        3.0200     4.3070     0.8450 N.4   1 <1>  -0.9590 
 10 C        3.4670     3.3480     1.9090 C.3   1 <1>   0.3430 
 11 C        2.1290     5.3570     1.3940 C.3   1 <1>   0.3430 
 12 C        4.8560     3.7520     2.4630 C.3   1 <1>   0.2090 
 13 C        2.9740     6.4990     1.9620 C.3   1 <1>  -0.1600 
 14 N        5.1210     5.2360     2.3400 N.pl3 1 <1>  -0.8380 
 15 C        4.0580     6.0970     2.9740 C.3   1 <1>   0.2090 
 16 C        6.2280     5.8250     1.7910 C.ar  1 <1>   0.7710 
 17 N        6.1310     7.0870     1.4090 N.ar  1 <1>  -0.6200 
 18 N        7.3730     5.1270     1.6440 N.ar  1 <1>  -0.1790 
 19 C        7.1850     7.6790     0.8790 C.ar  1 <1>   0.4100 
 20 C        8.4710     5.6840     1.0770 C.ar  1 <1>   0.2110 
 21 N        7.0690     8.9870     0.5340 N.pl3 1 <1>  -0.8380 
 22 C        8.3870     6.9740     0.6790 C.ar  1 <1>  -0.1500 
 23 C        8.2040     9.9710     0.5310 C.3   1 <1>   0.2090 
 24 C        5.7660     9.6220     0.1670 C.3   1 <1>   0.2090 
 25 C        8.3490    10.6140    -0.8580 C.3   1 <1>   0.2000 
 26 C        5.8790    10.2530    -1.2270 C.3   1 <1>  -0.1600 
 27 O        9.3280    11.5910    -0.8200 O.3   1 <1>  -0.6800 
 28 C        7.0390    11.2600    -1.3210 C.3   1 <1>  -0.1600 
 29 H        6.6960     2.6480    -2.1320 H     1 <1>   0.1500 
 30 H        2.2430     0.9510    -0.8360 H     1 <1>   0.1500 
 31 H        1.5730     3.1040    -0.1280 H     1 <1>   0.0800 
 32 H        2.2330     4.3860    -1.1180 H     1 <1>   0.0800 
 33 H        6.1360     0.2530    -2.4060 H     1 <1>   0.1500 
 34 H        3.9210    -0.5670    -1.7500 H     1 <1>   0.1500 
 35 H        3.8720     4.8070     0.5410 H     1 <1>   0.4500 
 36 H        3.5280     2.3450     1.5200 H     1 <1>   0.0800 
 37 H        2.7510     3.3370     2.7140 H     1 <1>   0.0800 
 38 H        1.4950     4.9430     2.1620 H     1 <1>   0.0800 
 39 H        1.4970     5.7520     0.6150 H     1 <1>   0.0800 
 40 H        5.5940     3.1930     1.9150 H     1 <1>   0.0800 
 41 H        4.9230     3.4530     3.4960 H     1 <1>   0.0800 
 42 H        2.3050     7.1850     2.4520 H     1 <1>   0.0800 
 43 H        3.4240     7.0470     1.1530 H     1 <1>   0.0800 
 44 H        3.6130     5.5830     3.8100 H     1 <1>   0.0800 
 45 H        4.5100     6.9940     3.3700 H     1 <1>   0.0800 
 46 H        7.3950     4.1860     2.0190 H     1 <1>   0.4570 
 47 H        9.3680     5.0950     0.9600 H     1 <1>   0.1500 
 48 H        9.2160     7.4650     0.2050 H     1 <1>   0.1500 
 49 H        9.1300     9.5040     0.8120 H     1 <1>   0.0800 
 50 H        7.9890    10.7380     1.2550 H     1 <1>   0.0800 
 51 H        5.5220    10.3770     0.8950 H     1 <1>   0.0800 
 52 H        4.9720     8.8960     0.1600 H     1 <1>   0.0800 
 53 H        8.6680     9.8660    -1.5630 H     1 <1>   0.0800 
 54 H        4.9550    10.7480    -1.4670 H     1 <1>   0.0800 
 55 H        6.0240     9.4680    -1.9490 H     1 <1>   0.0800 
 56 H        8.9920    12.3960    -0.3820 H     1 <1>   0.4000 
 57 H        7.1410    11.5950    -2.3390 H     1 <1>   0.0800 
 58 H        6.8100    12.1070    -0.6980 H     1 <1>   0.0800 
@<TRIPOS>BOND
  1   1   2  1   
  2   2   3  ar  
  3   2   4  ar  
  4   3   5  ar  
  5   3   6  1   
  6   4   7  ar  
  7   4  29  1   
  8   5   8  ar  
  9   5  30  1   
 10   6   9  1   
 11   6  31  1   
 12   6  32  1   
 13   7   8  ar  
 14   7  33  1   
 15   8  34  1   
 16   9  10  1   
 17   9  11  1   
 18   9  35  1   
 19  10  12  1   
 20  10  36  1   
 21  10  37  1   
 22  11  13  1   
 23  11  38  1   
 24  11  39  1   
 25  12  14  1   
 26  12  40  1   
 27  12  41  1   
 28  13  15  1   
 29  13  42  1   
 30  13  43  1   
 31  14  15  1   
 32  14  16  1   
 33  15  44  1   
 34  15  45  1   
 35  16  17  ar  
 36  16  18  ar  
 37  17  19  ar  
 38  18  20  ar  
 39  18  46  1   
 40  19  21  1   
 41  19  22  ar  
 42  20  22  ar  
 43  20  47  1   
 44  21  23  1   
 45  21  24  1   
 46  22  48  1   
 47  23  25  1   
 48  23  49  1   
 49  23  50  1   
 50  24  26  1   
 51  24  51  1   
 52  24  52  1   
 53  25  27  1   
 54  25  28  1   
 55  25  53  1   
 56  26  28  1   
 57  26  54  1   
 58  26  55  1   
 59  27  56  1   
 60  28  57  1   
 61  28  58  1   
@<TRIPOS>SUBSTRUCTURE
  1 ****  16 GROUP 4 **** **** 0

# MOE 2024.06 (io_trps.svl 2023.06)
