@<TRIPOS>MOLECULE
NONAME
46 47 1 0 0 
SMALL
USER_CHARGES


@<TRIPOS>ATOM
  1 S        0.3000    -0.6740     1.9030 S.o2  1 <1>   1.4470 
  2 O        0.1910     0.0900     3.1280 O.2   1 <1>  -0.6500 
  3 O        0.7120    -2.0600     1.9720 O.2   1 <1>  -0.6500 
  4 N       -1.1980    -0.6020     1.1170 N.am  1 <1>  -0.8490 
  5 C        1.3960     0.2240     0.7680 C.ar  1 <1>  -0.0090 
  6 C       -1.2540    -1.4760    -0.0700 C.3   1 <1>   0.1960 
  7 C       -2.3130    -0.9210     2.0130 C.3   1 <1>   0.1960 
  8 C        1.0120     1.4440     0.2260 C.ar  1 <1>  -0.1500 
  9 C        2.6450    -0.2770     0.4200 C.ar  1 <1>  -0.1500 
 10 C       -2.5520    -1.2220    -0.8550 C.3   1 <1>   0.2000 
 11 C       -3.6470    -0.6540     1.3000 C.3   1 <1>  -0.1600 
 12 C        1.8340     2.1470    -0.6390 C.ar  1 <1>   0.0820 
 13 C        3.4810     0.4140    -0.4410 C.ar  1 <1>  -0.1500 
 14 O       -2.5510    -2.0090    -1.9950 O.3   1 <1>  -0.6800 
 15 C       -3.8090    -1.5050     0.0070 C.3   1 <1>  -0.1060 
 16 O        1.3570     3.3240    -1.1110 O.3   1 <1>  -0.3630 
 17 C        3.0800     1.6250    -0.9730 C.ar  1 <1>  -0.1500 
 18 C       -3.8770    -3.0130     0.3440 C.2   1 <1>   0.9060 
 19 C       -5.0790    -1.0600    -0.7740 C.3   1 <1>  -0.1600 
 20 C        2.1090     4.1180    -2.0020 C.3   1 <1>   0.0400 
 21 O       -3.6190    -3.8410    -0.5440 O.co2 1 <1>  -0.9000 
 22 O       -4.1720    -3.3780     1.4880 O.co2 1 <1>  -0.9000 
 23 C       -6.4020    -1.2380    -0.0100 C.3   1 <1>  -0.1600 
 24 C       -7.5980    -0.8600    -0.8880 C.3   1 <1>  -0.2400 
 25 H       -0.4210    -1.2630    -0.7170 H     1 <1>   0.0800 
 26 H       -1.2040    -2.5110     0.2300 H     1 <1>   0.0800 
 27 H       -2.2520    -1.9510     2.3310 H     1 <1>   0.0800 
 28 H       -2.2640    -0.3010     2.8920 H     1 <1>   0.0800 
 29 H        0.0510     1.8570     0.4790 H     1 <1>   0.1500 
 30 H        2.9660    -1.2210     0.8290 H     1 <1>   0.1500 
 31 H       -2.5510    -0.1980    -1.1840 H     1 <1>   0.0800 
 32 H       -4.4380    -0.8850     1.9910 H     1 <1>   0.0800 
 33 H       -3.7100     0.3930     1.0680 H     1 <1>   0.0800 
 34 H        4.4450     0.0060    -0.6960 H     1 <1>   0.1500 
 35 H       -2.9160    -2.9010    -1.6990 H     1 <1>   0.4000 
 36 H        3.7430     2.1440    -1.6390 H     1 <1>   0.1500 
 37 H       -4.9760    -0.0280    -1.0610 H     1 <1>   0.0800 
 38 H       -5.1360    -1.6410    -1.6790 H     1 <1>   0.0800 
 39 H        1.5310     4.9930    -2.2370 H     1 <1>   0.0800 
 40 H        2.2990     3.5530    -2.8980 H     1 <1>   0.0800 
 41 H        3.0280     4.4050    -1.5230 H     1 <1>   0.0800 
 42 H       -6.5050    -2.2650     0.3020 H     1 <1>   0.0800 
 43 H       -6.4100    -0.6230     0.8720 H     1 <1>   0.0800 
 44 H       -7.6310    -1.4890    -1.7610 H     1 <1>   0.0800 
 45 H       -7.5270     0.1670    -1.2000 H     1 <1>   0.0800 
 46 H       -8.5130    -0.9920    -0.3370 H     1 <1>   0.0800 
@<TRIPOS>BOND
  1   1   2  2   
  2   1   3  2   
  3   1   4  am  
  4   1   5  1   
  5   4   6  1   
  6   4   7  1   
  7   5   8  ar  
  8   5   9  ar  
  9   6  10  1   
 10   6  25  1   
 11   6  26  1   
 12   7  11  1   
 13   7  27  1   
 14   7  28  1   
 15   8  12  ar  
 16   8  29  1   
 17   9  13  ar  
 18   9  30  1   
 19  10  14  1   
 20  10  15  1   
 21  10  31  1   
 22  11  15  1   
 23  11  32  1   
 24  11  33  1   
 25  12  16  1   
 26  12  17  ar  
 27  13  17  ar  
 28  13  34  1   
 29  14  35  1   
 30  15  18  1   
 31  15  19  1   
 32  16  20  1   
 33  17  36  1   
 34  18  21  ar  
 35  18  22  ar  
 36  19  23  1   
 37  19  37  1   
 38  19  38  1   
 39  20  39  1   
 40  20  40  1   
 41  20  41  1   
 42  23  24  1   
 43  23  42  1   
 44  23  43  1   
 45  24  44  1   
 46  24  45  1   
 47  24  46  1   
@<TRIPOS>SUBSTRUCTURE
  1 ****   4 GROUP 4 **** **** 0

# MOE 2024.06 (io_trps.svl 2023.06)
