@<TRIPOS>MOLECULE
NONAME
64 66 1 0 0 
SMALL
USER_CHARGES


@<TRIPOS>ATOM
  1 O       -0.7810    -0.5760     3.1000 O.2   1 <1>  -0.5700 
  2 C       -1.1770     0.0200     2.1280 C.2   1 <1>   0.5690 
  3 N       -1.8080    -0.6530     1.1070 N.am  1 <1>  -0.6600 
  4 C       -0.9940     1.5530     2.1430 C.3   1 <1>   0.1710 
  5 C       -2.3550    -2.0190     1.3610 C.3   1 <1>   0.3200 
  6 C       -1.9030    -0.1550    -0.2990 C.3   1 <1>   0.1400 
  7 N       -0.4260     2.2140     0.9290 N.3   1 <1>  -0.8100 
  8 C       -3.7590    -2.0750     0.7940 C.2   1 <1>  -0.3320 
  9 C       -3.0590     0.8470    -0.4620 C.3   1 <1>   0.3430 
 10 C       -0.3570     3.6780     1.1560 C.3   1 <1>   0.1100 
 11 C        0.9630     1.7370     0.7060 C.3   1 <1>   0.1100 
 12 N       -4.1570    -2.8900    -0.2030 N.pl3 1 <1>   0.0330 
 13 C       -4.8370    -1.3360     1.1330 C.2   1 <1>   0.0770 
 14 N       -3.1050     1.4620    -1.8270 N.4   1 <1>  -0.9590 
 15 C        0.2360     4.4530    -0.0390 C.3   1 <1>   0.2090 
 16 C        1.5970     2.3600    -0.5510 C.3   1 <1>   0.2090 
 17 C       -5.4440    -2.5540    -0.4380 C.2   1 <1>   0.0060 
 18 N       -5.8790    -1.6100     0.3300 N.2   1 <1>  -0.5650 
 19 C       -1.9970     2.4540    -2.0000 C.3   1 <1>   0.2630 
 20 C       -4.4380     2.1050    -2.0390 C.3   1 <1>   0.2630 
 21 N        1.4910     3.8500    -0.5770 N.pl3 1 <1>  -0.8380 
 22 C       -6.2910    -3.2340    -1.4930 C.3   1 <1>  -0.0600 
 23 C        2.6680     4.5540    -0.3460 C.ar  1 <1>   0.1000 
 24 C        3.3220     5.1700    -1.4050 C.ar  1 <1>  -0.1500 
 25 C        3.2140     4.6570     0.9280 C.ar  1 <1>  -0.1500 
 26 C        4.4960     5.8760    -1.2070 C.ar  1 <1>  -0.1440 
 27 C        4.3860     5.3600     1.1360 C.ar  1 <1>  -0.1500 
 28 C        5.0260     5.9690     0.0700 C.ar  1 <1>  -0.1500 
 29 C        5.2050     6.5470    -2.3690 C.3   1 <1>  -0.0970 
 30 H       -0.3700     1.7890     2.9890 H     1 <1>   0.0800 
 31 H       -1.9600     1.9770     2.3450 H     1 <1>   0.0800 
 32 H       -2.3920    -2.2250     2.4180 H     1 <1>   0.0800 
 33 H       -1.7190    -2.7530     0.8970 H     1 <1>   0.0800 
 34 H       -2.0590    -0.9880    -0.9620 H     1 <1>   0.0800 
 35 H       -0.9710     0.3000    -0.5730 H     1 <1>   0.0800 
 36 H       -2.9540     1.6250     0.2760 H     1 <1>   0.0800 
 37 H       -3.9850     0.3300    -0.2820 H     1 <1>   0.0800 
 38 H        0.2520     3.8830     2.0220 H     1 <1>   0.0800 
 39 H       -1.3420     4.0610     1.3570 H     1 <1>   0.0800 
 40 H        0.9750     0.6670     0.5990 H     1 <1>   0.0800 
 41 H        1.5780     1.9810     1.5570 H     1 <1>   0.0800 
 42 H       -3.6250    -3.6280    -0.6750 H     1 <1>   0.2700 
 43 H       -4.9140    -0.5970     1.9150 H     1 <1>   0.1500 
 44 H       -3.0020     0.7110    -2.5260 H     1 <1>   0.4500 
 45 H        0.4330     5.4670     0.2680 H     1 <1>   0.0800 
 46 H       -0.4870     4.5010    -0.8300 H     1 <1>   0.0800 
 47 H        1.1170     1.9630    -1.4260 H     1 <1>   0.0800 
 48 H        2.6350     2.0770    -0.5970 H     1 <1>   0.0800 
 49 H       -2.0980     3.2490    -1.2790 H     1 <1>   0.0800 
 50 H       -2.0200     2.8790    -2.9900 H     1 <1>   0.0800 
 51 H       -1.0390     1.9860    -1.8480 H     1 <1>   0.0800 
 52 H       -4.5900     2.8980    -1.3240 H     1 <1>   0.0800 
 53 H       -5.2260     1.3780    -1.9180 H     1 <1>   0.0800 
 54 H       -4.5020     2.5190    -3.0330 H     1 <1>   0.0800 
 55 H       -5.8460    -3.1170    -2.4640 H     1 <1>   0.0800 
 56 H       -7.2740    -2.7970    -1.5080 H     1 <1>   0.0800 
 57 H       -6.3880    -4.2810    -1.2680 H     1 <1>   0.0800 
 58 H        2.8930     5.0830    -2.3850 H     1 <1>   0.1500 
 59 H        2.7190     4.1840     1.7530 H     1 <1>   0.1500 
 60 H        4.8020     5.4350     2.1250 H     1 <1>   0.1500 
 61 H        5.9380     6.5150     0.2380 H     1 <1>   0.1500 
 62 H        4.6450     6.4310    -3.2790 H     1 <1>   0.0800 
 63 H        6.1770     6.1070    -2.5050 H     1 <1>   0.0800 
 64 H        5.3220     7.5970    -2.1690 H     1 <1>   0.0800 
@<TRIPOS>BOND
  1   1   2  2   
  2   2   3  am  
  3   2   4  1   
  4   3   5  1   
  5   3   6  1   
  6   4   7  1   
  7   4  30  1   
  8   4  31  1   
  9   5   8  1   
 10   5  32  1   
 11   5  33  1   
 12   6   9  1   
 13   6  34  1   
 14   6  35  1   
 15   7  10  1   
 16   7  11  1   
 17   8  12  1   
 18   8  13  2   
 19   9  14  1   
 20   9  36  1   
 21   9  37  1   
 22  10  15  1   
 23  10  38  1   
 24  10  39  1   
 25  11  16  1   
 26  11  40  1   
 27  11  41  1   
 28  12  17  1   
 29  12  42  1   
 30  13  18  1   
 31  13  43  1   
 32  14  19  1   
 33  14  20  1   
 34  14  44  1   
 35  15  21  1   
 36  15  45  1   
 37  15  46  1   
 38  16  21  1   
 39  16  47  1   
 40  16  48  1   
 41  17  18  2   
 42  17  22  1   
 43  19  49  1   
 44  19  50  1   
 45  19  51  1   
 46  20  52  1   
 47  20  53  1   
 48  20  54  1   
 49  21  23  1   
 50  22  55  1   
 51  22  56  1   
 52  22  57  1   
 53  23  24  ar  
 54  23  25  ar  
 55  24  26  ar  
 56  24  58  1   
 57  25  27  ar  
 58  25  59  1   
 59  26  28  ar  
 60  26  29  1   
 61  27  28  ar  
 62  27  60  1   
 63  28  61  1   
 64  29  62  1   
 65  29  63  1   
 66  29  64  1   
@<TRIPOS>SUBSTRUCTURE
  1 ****   7 GROUP 4 **** **** 0

# MOE 2024.06 (io_trps.svl 2023.06)
