@<TRIPOS>MOLECULE
NONAME
52 54 1 0 0 
SMALL
USER_CHARGES


@<TRIPOS>ATOM
  1 CL       0.0660     0.3530     0.7540 Cl    1 <1>  -0.1770 
  2 C        0.0230    -1.3850     0.8770 C.ar  1 <1>   0.1770 
  3 C        1.0570    -2.1330     0.3590 C.ar  1 <1>  -0.1500 
  4 C       -1.0520    -1.9880     1.5030 C.ar  1 <1>  -0.1500 
  5 C        1.0350    -3.5230     0.4500 C.ar  1 <1>   0.1170 
  6 C       -1.0840    -3.3650     1.5970 C.ar  1 <1>  -0.1500 
  7 N        2.0920    -4.3060    -0.0360 N.am  1 <1>  -0.5470 
  8 C       -0.0610    -4.1570     1.0670 C.ar  1 <1>   0.0860 
  9 C        3.0890    -4.0660    -0.9380 C.2   1 <1>   0.5690 
 10 C       -0.1380    -5.6030     1.1550 C.2   1 <1>   0.5440 
 11 O        3.1920    -3.0410    -1.5630 O.2   1 <1>  -0.5700 
 12 C        4.1020    -5.1740    -1.1760 C.3   1 <1>  -0.0990 
 13 O        0.8350    -6.2490     1.5070 O.2   1 <1>  -0.5700 
 14 N       -1.2880    -6.2800     0.8190 N.am  1 <1>  -0.6600 
 15 C        4.7800    -5.6750     0.1100 C.3   1 <1>  -0.2400 
 16 C       -2.2850    -5.7930    -0.1730 C.3   1 <1>   0.1400 
 17 C       -1.4650    -7.7390     1.0220 C.3   1 <1>   0.1400 
 18 C       -3.1360    -7.0140    -0.5520 C.3   1 <1>   0.2000 
 19 C       -2.2440    -8.2100    -0.2060 C.3   1 <1>  -0.0800 
 20 O       -4.2800    -7.0570     0.2550 O.3   1 <1>  -0.5600 
 21 C       -2.9990    -9.5330     0.0160 C.3   1 <1>   0.0200 
 22 C       -5.3760    -6.3480    -0.2310 C.3   1 <1>   0.0400 
 23 C       -2.0740   -10.7260     0.1910 C.2   1 <1>  -0.0400 
 24 O       -2.5970   -11.8860     0.4890 O.3   1 <1>  -0.0190 
 25 C       -0.7440   -10.8910     0.1020 C.2   1 <1>  -0.1500 
 26 N       -1.6920   -12.8140     0.6070 N.2   1 <1>  -0.4100 
 27 C       -0.5650   -12.2430     0.3800 C.2   1 <1>   0.1080 
 28 C        0.7700   -12.9530     0.4140 C.3   1 <1>  -0.0590 
 29 H        1.8790    -1.6240    -0.1080 H     1 <1>   0.1500 
 30 H       -1.8410    -1.3800     1.9090 H     1 <1>   0.1500 
 31 H       -1.9110    -3.8440     2.0940 H     1 <1>   0.1500 
 32 H        2.1110    -5.2470     0.3800 H     1 <1>   0.3700 
 33 H        3.6050    -5.9900    -1.6670 H     1 <1>   0.0800 
 34 H        4.8570    -4.8020    -1.8470 H     1 <1>   0.0800 
 35 H        4.0620    -6.1220     0.7760 H     1 <1>   0.0800 
 36 H        5.2600    -4.8570     0.6190 H     1 <1>   0.0800 
 37 H        5.5260    -6.4120    -0.1300 H     1 <1>   0.0800 
 38 H       -2.8930    -5.0100     0.2410 H     1 <1>   0.0800 
 39 H       -1.7640    -5.4280    -1.0410 H     1 <1>   0.0800 
 40 H       -0.5200    -8.2460     1.1160 H     1 <1>   0.0800 
 41 H       -2.0430    -7.8940     1.9170 H     1 <1>   0.0800 
 42 H       -3.4280    -7.0160    -1.5880 H     1 <1>   0.0800 
 43 H       -1.5440    -8.3400    -1.0120 H     1 <1>   0.0800 
 44 H       -3.6410    -9.7230    -0.8250 H     1 <1>   0.0800 
 45 H       -3.6240    -9.4550     0.8900 H     1 <1>   0.0800 
 46 H       -6.1750    -6.4400     0.4840 H     1 <1>   0.0800 
 47 H       -5.6850    -6.7720    -1.1710 H     1 <1>   0.0800 
 48 H       -5.1160    -5.3110    -0.3490 H     1 <1>   0.0800 
 49 H        0.0330   -10.1860    -0.1250 H     1 <1>   0.1500 
 50 H        1.2710   -12.8330    -0.5280 H     1 <1>   0.0800 
 51 H        0.6230   -14.0010     0.6000 H     1 <1>   0.0800 
 52 H        1.3800   -12.5420     1.1970 H     1 <1>   0.0800 
@<TRIPOS>BOND
  1   1   2  1   
  2   2   3  ar  
  3   2   4  ar  
  4   3   5  ar  
  5   3  29  1   
  6   4   6  ar  
  7   4  30  1   
  8   5   7  1   
  9   5   8  ar  
 10   6   8  ar  
 11   6  31  1   
 12   7   9  am  
 13   7  32  1   
 14   8  10  1   
 15   9  11  2   
 16   9  12  1   
 17  10  13  2   
 18  10  14  am  
 19  12  15  1   
 20  12  33  1   
 21  12  34  1   
 22  14  16  1   
 23  14  17  1   
 24  15  35  1   
 25  15  36  1   
 26  15  37  1   
 27  16  18  1   
 28  16  38  1   
 29  16  39  1   
 30  17  19  1   
 31  17  40  1   
 32  17  41  1   
 33  18  19  1   
 34  18  20  1   
 35  18  42  1   
 36  19  21  1   
 37  19  43  1   
 38  20  22  1   
 39  21  23  1   
 40  21  44  1   
 41  21  45  1   
 42  22  46  1   
 43  22  47  1   
 44  22  48  1   
 45  23  24  1   
 46  23  25  2   
 47  24  26  1   
 48  25  27  1   
 49  25  49  1   
 50  26  27  2   
 51  27  28  1   
 52  28  50  1   
 53  28  51  1   
 54  28  52  1   
@<TRIPOS>SUBSTRUCTURE
  1 ****  14 GROUP 4 **** **** 0

# MOE 2024.06 (io_trps.svl 2023.06)
