@<TRIPOS>MOLECULE
NONAME
44 45 1 0 0 
SMALL
USER_CHARGES


@<TRIPOS>ATOM
  1 O        0.4570     0.2270    -1.5180 O.2   1 <1>  -0.5700 
  2 C        1.4080    -0.3290    -1.0020 C.2   1 <1>   0.7150 
  3 N        2.2970     0.4250    -0.3050 N.am  1 <1>  -0.7300 
  4 C        1.6300    -1.7490    -1.1070 C.2   1 <1>  -0.2370 
  5 C        2.3010     1.8920    -0.2560 C.3   1 <1>   0.3640 
  6 N        0.8250    -2.6240    -1.8020 N.pl3 1 <1>   0.0480 
  7 C        2.6500    -2.4890    -0.5570 C.2   1 <1>  -0.1500 
  8 C        3.7590     2.3230    -0.1770 C.ar  1 <1>  -0.1430 
  9 C        1.4150     2.3530     0.9190 C.3   1 <1>  -0.1600 
 10 C        1.3460    -3.8690    -1.6770 C.2   1 <1>  -0.3020 
 11 C       -0.4010    -2.3160    -2.5650 C.3   1 <1>   0.0160 
 12 C        2.4700    -3.8190    -0.9170 C.2   1 <1>  -0.1500 
 13 C        4.5210     2.0970     0.9620 C.ar  1 <1>   0.1600 
 14 C        4.3580     2.9430    -1.2570 C.ar  1 <1>  -0.1500 
 15 C        1.1000     3.8670     1.0340 C.3   1 <1>   0.0000 
 16 N        5.7930     2.4320     1.1070 N.ar  1 <1>  -0.6200 
 17 C        5.6810     3.3030    -1.1230 C.ar  1 <1>  -0.1500 
 18 C        0.0560     4.0470     2.1470 C.3   1 <1>  -0.2400 
 19 C        2.3360     4.6970     1.4130 C.3   1 <1>  -0.2400 
 20 C        0.5080     4.4150    -0.2730 C.3   1 <1>  -0.2400 
 21 C        6.3420     3.0290     0.0620 C.ar  1 <1>   0.1600 
 22 H        3.1640    -0.0190    -0.0130 H     1 <1>   0.3700 
 23 H        1.8750     2.2570    -1.1750 H     1 <1>   0.0800 
 24 H        3.4640    -2.1370     0.0520 H     1 <1>   0.1500 
 25 H        1.8420     2.0140     1.8440 H     1 <1>   0.0800 
 26 H        0.4730     1.8430     0.8080 H     1 <1>   0.0800 
 27 H        0.8970    -4.7330    -2.1330 H     1 <1>   0.1500 
 28 H       -0.1660    -1.6190    -3.3480 H     1 <1>   0.0800 
 29 H       -1.1280    -1.8790    -1.9050 H     1 <1>   0.0800 
 30 H       -0.8010    -3.2160    -2.9930 H     1 <1>   0.0800 
 31 H        3.1110    -4.6380    -0.6360 H     1 <1>   0.1500 
 32 H        4.0630     1.6100     1.8060 H     1 <1>   0.1500 
 33 H        3.8190     3.1400    -2.1680 H     1 <1>   0.1500 
 34 H        6.2000     3.7900    -1.9280 H     1 <1>   0.1500 
 35 H        0.4370     3.6830     3.0850 H     1 <1>   0.0800 
 36 H       -0.8450     3.5080     1.9140 H     1 <1>   0.0800 
 37 H       -0.1980     5.0860     2.2680 H     1 <1>   0.0800 
 38 H        2.8150     4.2900     2.2860 H     1 <1>   0.0800 
 39 H        2.0550     5.7130     1.6280 H     1 <1>   0.0800 
 40 H        3.0520     4.7260     0.6130 H     1 <1>   0.0800 
 41 H       -0.3360     3.8240    -0.5830 H     1 <1>   0.0800 
 42 H        1.2380     4.4100    -1.0620 H     1 <1>   0.0800 
 43 H        0.1780     5.4300    -0.1390 H     1 <1>   0.0800 
 44 H        7.3760     3.3140     0.1550 H     1 <1>   0.1500 
@<TRIPOS>BOND
  1   1   2  2   
  2   2   3  am  
  3   2   4  1   
  4   3   5  1   
  5   3  22  1   
  6   4   6  1   
  7   4   7  2   
  8   5   8  1   
  9   5   9  1   
 10   5  23  1   
 11   6  10  1   
 12   6  11  1   
 13   7  12  1   
 14   7  24  1   
 15   8  13  ar  
 16   8  14  ar  
 17   9  15  1   
 18   9  25  1   
 19   9  26  1   
 20  10  12  2   
 21  10  27  1   
 22  11  28  1   
 23  11  29  1   
 24  11  30  1   
 25  12  31  1   
 26  13  16  ar  
 27  13  32  1   
 28  14  17  ar  
 29  14  33  1   
 30  15  18  1   
 31  15  19  1   
 32  15  20  1   
 33  16  21  ar  
 34  17  21  ar  
 35  17  34  1   
 36  18  35  1   
 37  18  36  1   
 38  18  37  1   
 39  19  38  1   
 40  19  39  1   
 41  19  40  1   
 42  20  41  1   
 43  20  42  1   
 44  20  43  1   
 45  21  44  1   
@<TRIPOS>SUBSTRUCTURE
  1 ****   3 GROUP 4 **** **** 0

# MOE 2024.06 (io_trps.svl 2023.06)
