@<TRIPOS>MOLECULE
NONAME
48 49 1 0 0 
SMALL
USER_CHARGES


@<TRIPOS>ATOM
  1 CL      -0.7790    -0.2470    -1.4250 Cl    1 <1>  -0.1770 
  2 C       -1.7720    -1.1900    -0.3430 C.ar  1 <1>   0.1770 
  3 C       -1.8520    -2.5590    -0.5190 C.ar  1 <1>  -0.1500 
  4 C       -2.4640    -0.5530     0.6690 C.ar  1 <1>  -0.1500 
  5 C       -2.6410    -3.3140     0.3370 C.ar  1 <1>  -0.1440 
  6 C       -3.2510    -1.3050     1.5240 C.ar  1 <1>  -0.1500 
  7 C       -3.3370    -2.6790     1.3560 C.ar  1 <1>  -0.1500 
  8 C       -2.7480    -4.8200     0.1610 C.3   1 <1>  -0.0160 
  9 C       -3.9910    -5.1650    -0.6610 C.3   1 <1>   0.1400 
 10 N       -4.0890    -6.6370    -0.8570 N.am  1 <1>  -0.7300 
 11 C       -4.8960    -7.4510    -0.1200 C.2   1 <1>   0.5690 
 12 O       -5.5820    -7.0250     0.7800 O.2   1 <1>  -0.5700 
 13 C       -4.9850    -8.9600    -0.4140 C.3   1 <1>   0.4040 
 14 N       -6.3120    -9.5720     0.0020 N.4   1 <1>  -0.9590 
 15 C       -6.3320   -11.0740     0.0430 C.3   1 <1>   0.4230 
 16 C       -7.3910    -9.0010    -0.8650 C.3   1 <1>   0.3430 
 17 C       -7.7250   -11.5600     0.4880 C.3   1 <1>  -0.1600 
 18 C       -5.2600   -11.6470     0.9850 C.3   1 <1>  -0.0990 
 19 C       -8.7650    -9.4570    -0.3850 C.3   1 <1>  -0.1600 
 20 C       -8.8590   -10.9820    -0.3630 C.3   1 <1>  -0.1600 
 21 C       -5.1260   -13.1240     0.7190 C.2   1 <1>   0.5690 
 22 O       -5.0880   -13.4960    -0.4220 O.2   1 <1>  -0.5700 
 23 N       -5.0500   -14.0000     1.7330 N.am  1 <1>  -0.8000 
 24 H       -1.2970    -3.0160    -1.3180 H     1 <1>   0.1500 
 25 H       -2.3850     0.5130     0.7840 H     1 <1>   0.1500 
 26 H       -3.7960    -0.8240     2.3180 H     1 <1>   0.1500 
 27 H       -3.9530    -3.2510     2.0290 H     1 <1>   0.1500 
 28 H       -2.8160    -5.2860     1.1280 H     1 <1>   0.0800 
 29 H       -1.8670    -5.1880    -0.3340 H     1 <1>   0.0800 
 30 H       -3.9420    -4.6760    -1.6190 H     1 <1>   0.0800 
 31 H       -4.8680    -4.8010    -0.1490 H     1 <1>   0.0800 
 32 H       -3.4770    -6.9990    -1.5930 H     1 <1>   0.3700 
 33 H       -4.1790    -9.4240     0.1230 H     1 <1>   0.0800 
 34 H       -4.8240    -9.1230    -1.4650 H     1 <1>   0.0800 
 35 H       -6.5030    -9.2100     0.9490 H     1 <1>   0.4500 
 36 H       -6.1450   -11.4470    -0.9530 H     1 <1>   0.0800 
 37 H       -7.2480    -9.3220    -1.8840 H     1 <1>   0.0800 
 38 H       -7.3540    -7.9230    -0.8390 H     1 <1>   0.0800 
 39 H       -7.8900   -11.3000     1.5190 H     1 <1>   0.0800 
 40 H       -7.7700   -12.6340     0.4190 H     1 <1>   0.0800 
 41 H       -5.5210   -11.4780     2.0130 H     1 <1>   0.0800 
 42 H       -4.2920   -11.2310     0.7960 H     1 <1>   0.0800 
 43 H       -9.5170    -9.0630    -1.0470 H     1 <1>   0.0800 
 44 H       -8.9570    -9.0550     0.5950 H     1 <1>   0.0800 
 45 H       -9.8120   -11.2850     0.0410 H     1 <1>   0.0800 
 46 H       -8.7910   -11.3670    -1.3680 H     1 <1>   0.0800 
 47 H       -4.9400   -14.9960     1.5200 H     1 <1>   0.3700 
 48 H       -5.0370   -13.7620     2.7250 H     1 <1>   0.3700 
@<TRIPOS>BOND
  1   1   2  1   
  2   2   3  ar  
  3   2   4  ar  
  4   3   5  ar  
  5   3  24  1   
  6   4   6  ar  
  7   4  25  1   
  8   5   7  ar  
  9   5   8  1   
 10   6   7  ar  
 11   6  26  1   
 12   7  27  1   
 13   8   9  1   
 14   8  28  1   
 15   8  29  1   
 16   9  10  1   
 17   9  30  1   
 18   9  31  1   
 19  10  11  am  
 20  10  32  1   
 21  11  12  2   
 22  11  13  1   
 23  13  14  1   
 24  13  33  1   
 25  13  34  1   
 26  14  15  1   
 27  14  16  1   
 28  14  35  1   
 29  15  17  1   
 30  15  18  1   
 31  15  36  1   
 32  16  19  1   
 33  16  37  1   
 34  16  38  1   
 35  17  20  1   
 36  17  39  1   
 37  17  40  1   
 38  18  21  1   
 39  18  41  1   
 40  18  42  1   
 41  19  20  1   
 42  19  43  1   
 43  19  44  1   
 44  20  45  1   
 45  20  46  1   
 46  21  22  2   
 47  21  23  am  
 48  23  47  1   
 49  23  48  1   
@<TRIPOS>SUBSTRUCTURE
  1 ****  11 GROUP 4 **** **** 0

# MOE 2024.06 (io_trps.svl 2023.06)
