@<TRIPOS>MOLECULE
NONAME
49 52 1 0 0 
SMALL
USER_CHARGES


@<TRIPOS>ATOM
  1 CL      -1.7110     4.0230    -2.5570 Cl    1 <1>  -0.1400 
  2 C       -0.7320     5.0310    -1.5240 C.2   1 <1>   0.1400 
  3 C        0.0580     4.4780    -0.5540 C.2   1 <1>   0.1910 
  4 C       -0.7720     6.4160    -1.7090 C.2   1 <1>  -0.1500 
  5 N        0.8360     5.2710     0.2670 N.pl3 1 <1>  -0.5760 
  6 C        0.0050     7.1940    -0.8890 C.2   1 <1>  -0.1800 
  7 C        1.6420     4.7080     1.2660 C.2   1 <1>   0.9370 
  8 C        0.8180     6.6210     0.1050 C.cat 1 <1>   0.7390 
  9 O        1.6610     3.5070     1.4050 O.2   1 <1>  -0.5700 
 10 C        2.4220     5.5540     2.0910 C.2   1 <1>  -0.1360 
 11 N        1.5930     7.3870     0.9070 N.pl3 1 <1>  -0.6450 
 12 C        2.3950     6.8880     1.9110 C.2   1 <1>   0.2030 
 13 C        3.1990     7.8940     2.7430 C.3   1 <1>   0.2480 
 14 N        3.9340     8.8520     1.8740 N.3   1 <1>  -0.8100 
 15 C        4.3760    10.0270     2.6940 C.3   1 <1>   0.1100 
 16 C        5.1010     8.1880     1.2390 C.3   1 <1>   0.1100 
 17 C        4.9670    11.1940     1.8670 C.3   1 <1>   0.3430 
 18 C        5.3440     8.7260    -0.1780 C.3   1 <1>  -0.1600 
 19 N        4.6440    10.9800     0.4340 N.4   1 <1>  -0.9590 
 20 C        5.6940    10.2120    -0.2690 C.3   1 <1>   0.3430 
 21 C        4.1610    12.1680    -0.3070 C.3   1 <1>   0.5230 
 22 C        3.3570    11.6520    -1.4820 C.2   1 <1>  -0.1400 
 23 S        1.9590    10.6430    -1.1200 S.3   1 <1>  -0.0800 
 24 C        3.4970    11.8020    -2.8130 C.2   1 <1>  -0.1500 
 25 C        1.5950    10.4620    -2.8270 C.2   1 <1>  -0.1100 
 26 C        2.4940    11.1250    -3.5770 C.2   1 <1>  -0.1500 
 27 H        0.0750     3.4050    -0.4250 H     1 <1>   0.1500 
 28 H       -1.4050     6.8300    -2.4780 H     1 <1>   0.1500 
 29 H       -0.0060     8.2620    -0.9990 H     1 <1>   0.1500 
 30 H        3.0140     5.0690     2.8440 H     1 <1>   0.1500 
 31 H        1.6250     8.3990     0.7430 H     1 <1>   0.4500 
 32 H        3.8860     7.3800     3.3960 H     1 <1>   0.0800 
 33 H        2.5010     8.4340     3.3630 H     1 <1>   0.0800 
 34 H        5.0940     9.7200     3.4370 H     1 <1>   0.0800 
 35 H        3.5260    10.4190     3.2290 H     1 <1>   0.0800 
 36 H        4.9260     7.1280     1.1500 H     1 <1>   0.0800 
 37 H        5.9870     8.3090     1.8430 H     1 <1>   0.0800 
 38 H        6.0340    11.2410     2.0070 H     1 <1>   0.0800 
 39 H        4.5450    12.1220     2.2190 H     1 <1>   0.0800 
 40 H        4.4820     8.5260    -0.7900 H     1 <1>   0.0800 
 41 H        6.1590     8.1730    -0.6110 H     1 <1>   0.0800 
 42 H        3.8500    10.3190     0.4790 H     1 <1>   0.4500 
 43 H        5.7360    10.4980    -1.3080 H     1 <1>   0.0800 
 44 H        6.6580    10.4000     0.1750 H     1 <1>   0.0800 
 45 H        4.9890    12.7690    -0.6460 H     1 <1>   0.0800 
 46 H        3.5240    12.7700     0.3200 H     1 <1>   0.0800 
 47 H        4.2640    12.3690    -3.3160 H     1 <1>   0.1500 
 48 H        0.7350     9.8790    -3.1060 H     1 <1>   0.1500 
 49 H        2.4930    11.1750    -4.6540 H     1 <1>   0.1500 
@<TRIPOS>BOND
  1   1   2  1   
  2   2   3  2   
  3   2   4  1   
  4   3   5  1   
  5   3  27  1   
  6   4   6  2   
  7   4  28  1   
  8   5   7  1   
  9   5   8  ar  
 10   6   8  1   
 11   6  29  1   
 12   7   9  2   
 13   7  10  1   
 14   8  11  ar  
 15  10  12  2   
 16  10  30  1   
 17  11  12  1   
 18  11  31  1   
 19  12  13  1   
 20  13  14  1   
 21  13  32  1   
 22  13  33  1   
 23  14  15  1   
 24  14  16  1   
 25  15  17  1   
 26  15  34  1   
 27  15  35  1   
 28  16  18  1   
 29  16  36  1   
 30  16  37  1   
 31  17  19  1   
 32  17  38  1   
 33  17  39  1   
 34  18  20  1   
 35  18  40  1   
 36  18  41  1   
 37  19  20  1   
 38  19  21  1   
 39  19  42  1   
 40  20  43  1   
 41  20  44  1   
 42  21  22  1   
 43  21  45  1   
 44  21  46  1   
 45  22  23  1   
 46  22  24  2   
 47  23  25  1   
 48  24  26  1   
 49  24  47  1   
 50  25  26  2   
 51  25  48  1   
 52  26  49  1   
@<TRIPOS>SUBSTRUCTURE
  1 ****  11 GROUP 4 **** **** 0

# MOE 2024.06 (io_trps.svl 2023.06)
