@<TRIPOS>MOLECULE
NONAME
55 57 1 0 0 
SMALL
USER_CHARGES


@<TRIPOS>ATOM
  1 O       -0.0610     0.8070     1.8930 O.2   1 <1>  -0.5700 
  2 C        0.6330    -0.1430     1.6060 C.2   1 <1>   0.5690 
  3 N        1.8600     0.0300     1.0000 N.am  1 <1>  -0.6600 
  4 C        0.0860    -1.5410     1.9560 C.3   1 <1>   0.1710 
  5 C        2.3890     1.4000     0.6990 C.3   1 <1>   0.1400 
  6 C        2.7840    -1.1130     0.7460 C.3   1 <1>   0.0600 
  7 N        0.0710    -2.5450     0.8530 N.3   1 <1>  -0.8100 
  8 C        2.0830     1.9210    -0.7360 C.3   1 <1>   0.0000 
  9 C       -0.7650    -2.0740    -0.2810 C.3   1 <1>   0.1100 
 10 C       -0.4350    -3.8500     1.3410 C.3   1 <1>   0.1100 
 11 C        2.7660     1.0590    -1.8240 C.3   1 <1>  -0.1600 
 12 C        2.6590     3.3530    -0.8630 C.3   1 <1>  -0.1600 
 13 C        0.5460     1.9420    -0.9360 C.3   1 <1>   0.1200 
 14 C       -0.8220    -3.1000    -1.4270 C.3   1 <1>   0.2090 
 15 C       -0.4930    -4.9130     0.2260 C.3   1 <1>   0.2090 
 16 C        4.2940     1.1880    -1.7900 C.3   1 <1>   0.1200 
 17 C        4.1940     3.3650    -0.8890 C.3   1 <1>   0.1200 
 18 O        0.1870     2.4220    -2.1910 O.3   1 <1>  -0.6800 
 19 N       -1.3110    -4.4200    -0.9230 N.pl3 1 <1>  -0.8380 
 20 O        4.6480     2.5310    -1.9090 O.3   1 <1>  -0.5600 
 21 C       -2.5880    -4.8820    -1.1610 C.ar  1 <1>   0.7200 
 22 N       -2.8710    -6.1190    -0.7520 N.ar  1 <1>  -0.6200 
 23 N       -3.4330    -4.0540    -1.7760 N.ar  1 <1>  -0.6200 
 24 C       -4.0850    -6.5490    -0.9890 C.ar  1 <1>   0.1600 
 25 C       -4.6410    -4.5100    -1.9980 C.ar  1 <1>   0.1600 
 26 C       -5.0250    -5.7720    -1.6200 C.ar  1 <1>  -0.1500 
 27 H       -0.9170    -1.4150     2.3270 H     1 <1>   0.0800 
 28 H        0.6810    -1.9230     2.7650 H     1 <1>   0.0800 
 29 H        3.4470     1.4030     0.8820 H     1 <1>   0.0800 
 30 H        1.9620     2.0900     1.4070 H     1 <1>   0.0800 
 31 H        2.7700    -1.7940     1.5780 H     1 <1>   0.0800 
 32 H        3.7920    -0.7680     0.6070 H     1 <1>   0.0800 
 33 H        2.4670    -1.6440    -0.1350 H     1 <1>   0.0800 
 34 H       -0.3590    -1.1590    -0.6720 H     1 <1>   0.0800 
 35 H       -1.7690    -1.8780     0.0550 H     1 <1>   0.0800 
 36 H       -1.4250    -3.7300     1.7460 H     1 <1>   0.0800 
 37 H        0.2070    -4.2090     2.1260 H     1 <1>   0.0800 
 38 H        2.4430     1.3750    -2.8000 H     1 <1>   0.0800 
 39 H        2.4790     0.0300    -1.7260 H     1 <1>   0.0800 
 40 H        2.3100     3.9700    -0.0530 H     1 <1>   0.0800 
 41 H        2.3290     3.8110    -1.7780 H     1 <1>   0.0800 
 42 H        0.0740     2.5620    -0.1930 H     1 <1>   0.0800 
 43 H        0.1430     0.9500    -0.8530 H     1 <1>   0.0800 
 44 H        0.1650    -3.2250    -1.8340 H     1 <1>   0.0800 
 45 H       -1.4480    -2.7250    -2.2160 H     1 <1>   0.0800 
 46 H       -0.8950    -5.8250     0.6310 H     1 <1>   0.0800 
 47 H        0.5040    -5.1220    -0.1180 H     1 <1>   0.0800 
 48 H        4.7300     0.6630    -2.6210 H     1 <1>   0.0800 
 49 H        4.7120     0.8010    -0.8780 H     1 <1>   0.0800 
 50 H        4.6210     3.0350     0.0420 H     1 <1>   0.0800 
 51 H        4.5560     4.3570    -1.0980 H     1 <1>   0.0800 
 52 H        0.5590     3.3120    -2.3320 H     1 <1>   0.4000 
 53 H       -4.3370    -7.5470    -0.6730 H     1 <1>   0.1500 
 54 H       -5.3400    -3.8600    -2.4950 H     1 <1>   0.1500 
 55 H       -6.0170    -6.1360    -1.8090 H     1 <1>   0.1500 
@<TRIPOS>BOND
  1   1   2  2   
  2   2   3  am  
  3   2   4  1   
  4   3   5  1   
  5   3   6  1   
  6   4   7  1   
  7   4  27  1   
  8   4  28  1   
  9   5   8  1   
 10   5  29  1   
 11   5  30  1   
 12   6  31  1   
 13   6  32  1   
 14   6  33  1   
 15   7   9  1   
 16   7  10  1   
 17   8  11  1   
 18   8  12  1   
 19   8  13  1   
 20   9  14  1   
 21   9  34  1   
 22   9  35  1   
 23  10  15  1   
 24  10  36  1   
 25  10  37  1   
 26  11  16  1   
 27  11  38  1   
 28  11  39  1   
 29  12  17  1   
 30  12  40  1   
 31  12  41  1   
 32  13  18  1   
 33  13  42  1   
 34  13  43  1   
 35  14  19  1   
 36  14  44  1   
 37  14  45  1   
 38  15  19  1   
 39  15  46  1   
 40  15  47  1   
 41  16  20  1   
 42  16  48  1   
 43  16  49  1   
 44  17  20  1   
 45  17  50  1   
 46  17  51  1   
 47  18  52  1   
 48  19  21  1   
 49  21  22  ar  
 50  21  23  ar  
 51  22  24  ar  
 52  23  25  ar  
 53  24  26  ar  
 54  24  53  1   
 55  25  26  ar  
 56  25  54  1   
 57  26  55  1   
@<TRIPOS>SUBSTRUCTURE
  1 ****   9 GROUP 4 **** **** 0

# MOE 2024.06 (io_trps.svl 2023.06)
