@<TRIPOS>MOLECULE
NONAME
54 57 1 0 0 
SMALL
USER_CHARGES


@<TRIPOS>ATOM
  1 O       -0.8400     3.7550     2.0950 O.2   1 <1>  -0.5700 
  2 C       -0.7490     2.9300     1.2070 C.2   1 <1>   0.5690 
  3 N       -1.9070     2.4710     0.5990 N.am  1 <1>  -0.6600 
  4 C        0.6910     2.4280     0.8250 C.3   1 <1>   0.3410 
  5 C       -3.2370     3.0870     0.9130 C.3   1 <1>   0.1400 
  6 C       -1.9930     1.5000    -0.5280 C.3   1 <1>   0.1400 
  7 O        0.8300     2.4280    -0.5860 O.3   1 <1>  -0.5600 
  8 C        1.7790     3.3610     1.4000 C.3   1 <1>  -0.2400 
  9 C        0.9050     1.0070     1.3810 C.3   1 <1>  -0.2400 
 10 C       -3.7740     3.8610    -0.3070 C.3   1 <1>   0.1430 
 11 C       -2.4860     2.2250    -1.7850 C.3   1 <1>  -0.1600 
 12 C        1.9980     1.9530    -1.1940 C.3   1 <1>   0.0400 
 13 C       -5.1310     4.4390     0.0530 C.ar  1 <1>   0.1670 
 14 C       -3.8340     2.9280    -1.5370 C.3   1 <1>  -0.1600 
 15 C       -2.9370     5.1400    -0.5850 C.3   1 <1>  -0.1600 
 16 N       -6.2480     3.7580     0.1500 N.ar  1 <1>  -0.6200 
 17 C       -5.0570     5.7770     0.2890 C.ar  1 <1>  -0.1440 
 18 C       -3.6520     6.3000     0.1260 C.3   1 <1>  -0.0160 
 19 C       -7.3350     4.4650     0.4870 C.ar  1 <1>   0.6200 
 20 C       -6.2120     6.4280     0.6320 C.ar  1 <1>   0.1600 
 21 N       -7.3530     5.7840     0.7310 N.ar  1 <1>  -0.6200 
 22 C       -8.5960     3.7420     0.5990 C.ar  1 <1>   0.0000 
 23 C       -9.8250     4.3700     0.3760 C.ar  1 <1>  -0.1500 
 24 C       -8.6360     2.3850     0.9340 C.ar  1 <1>  -0.1500 
 25 C      -11.0230     3.6870     0.4800 C.ar  1 <1>  -0.1500 
 26 C       -9.8300     1.6950     1.0400 C.ar  1 <1>  -0.1500 
 27 C      -11.0280     2.3450     0.8130 C.ar  1 <1>  -0.1500 
 28 H       -3.1690     3.7490     1.7580 H     1 <1>   0.0800 
 29 H       -3.9300     2.3060     1.1720 H     1 <1>   0.0800 
 30 H       -2.6890     0.7230    -0.2630 H     1 <1>   0.0800 
 31 H       -1.0490     1.0310    -0.7280 H     1 <1>   0.0800 
 32 H        1.6830     4.3410     0.9680 H     1 <1>   0.0800 
 33 H        2.7680     2.9820     1.2260 H     1 <1>   0.0800 
 34 H        1.6570     3.4530     2.4640 H     1 <1>   0.0800 
 35 H        0.2530     0.3030     0.9020 H     1 <1>   0.0800 
 36 H        0.6800     1.0040     2.4330 H     1 <1>   0.0800 
 37 H        1.9240     0.6880     1.2680 H     1 <1>   0.0800 
 38 H       -2.5940     1.5140    -2.5850 H     1 <1>   0.0800 
 39 H       -1.7410     2.9420    -2.0850 H     1 <1>   0.0800 
 40 H        1.8670     2.0320    -2.2580 H     1 <1>   0.0800 
 41 H        2.1540     0.9210    -0.9370 H     1 <1>   0.0800 
 42 H        2.8380     2.5550    -0.9010 H     1 <1>   0.0800 
 43 H       -4.1320     3.4820    -2.4100 H     1 <1>   0.0800 
 44 H       -4.5850     2.1760    -1.3640 H     1 <1>   0.0800 
 45 H       -2.9370     5.3450    -1.6410 H     1 <1>   0.0800 
 46 H       -1.9150     5.0490    -0.2630 H     1 <1>   0.0800 
 47 H       -3.6220     7.2030    -0.4590 H     1 <1>   0.0800 
 48 H       -3.2140     6.4740     1.0950 H     1 <1>   0.0800 
 49 H       -6.2030     7.4870     0.8290 H     1 <1>   0.1500 
 50 H       -9.8410     5.4140     0.1150 H     1 <1>   0.1500 
 51 H       -7.7140     1.8610     1.1150 H     1 <1>   0.1500 
 52 H      -11.9520     4.2010     0.3030 H     1 <1>   0.1500 
 53 H       -9.8260     0.6500     1.2990 H     1 <1>   0.1500 
 54 H      -11.9590     1.8120     0.8950 H     1 <1>   0.1500 
@<TRIPOS>BOND
  1   1   2  2   
  2   2   3  am  
  3   2   4  1   
  4   3   5  1   
  5   3   6  1   
  6   4   7  1   
  7   4   8  1   
  8   4   9  1   
  9   5  10  1   
 10   5  28  1   
 11   5  29  1   
 12   6  11  1   
 13   6  30  1   
 14   6  31  1   
 15   7  12  1   
 16   8  32  1   
 17   8  33  1   
 18   8  34  1   
 19   9  35  1   
 20   9  36  1   
 21   9  37  1   
 22  10  13  1   
 23  10  14  1   
 24  10  15  1   
 25  11  14  1   
 26  11  38  1   
 27  11  39  1   
 28  12  40  1   
 29  12  41  1   
 30  12  42  1   
 31  13  16  ar  
 32  13  17  ar  
 33  14  43  1   
 34  14  44  1   
 35  15  18  1   
 36  15  45  1   
 37  15  46  1   
 38  16  19  ar  
 39  17  18  1   
 40  17  20  ar  
 41  18  47  1   
 42  18  48  1   
 43  19  21  ar  
 44  19  22  1   
 45  20  21  ar  
 46  20  49  1   
 47  22  23  ar  
 48  22  24  ar  
 49  23  25  ar  
 50  23  50  1   
 51  24  26  ar  
 52  24  51  1   
 53  25  27  ar  
 54  25  52  1   
 55  26  27  ar  
 56  26  53  1   
 57  27  54  1   
@<TRIPOS>SUBSTRUCTURE
  1 ****  10 GROUP 4 **** **** 0

# MOE 2024.06 (io_trps.svl 2023.06)
