@<TRIPOS>MOLECULE
NONAME
47 49 1 0 0 
SMALL
USER_CHARGES


@<TRIPOS>ATOM
  1 O       -0.6530     0.3410    -1.3550 O.2   1 <1>  -0.5700 
  2 C       -1.6780     0.9960    -1.2770 C.2   1 <1>   0.7150 
  3 N       -2.8770     0.3250    -1.1450 N.am  1 <1>  -0.6600 
  4 C       -1.6350     2.4420    -1.3240 C.2   1 <1>   0.0550 
  5 C       -4.1200     0.9440    -0.6180 C.3   1 <1>   0.1400 
  6 C       -2.9690    -1.1540    -1.0620 C.3   1 <1>   0.1400 
  7 O       -0.7040     3.1210    -0.6600 O.3   1 <1>  -0.2800 
  8 C       -2.4350     3.3380    -1.9680 C.2   1 <1>  -0.1500 
  9 C       -4.9650    -0.2190    -0.0900 C.3   1 <1>   0.2000 
 10 C       -4.0240    -1.4170     0.0130 C.3   1 <1>  -0.0800 
 11 C       -0.8800     4.4140    -0.8500 C.2   1 <1>   0.1600 
 12 C       -1.9480     4.6060    -1.6590 C.2   1 <1>  -0.1500 
 13 O       -5.4980     0.0660     1.1570 O.3   1 <1>  -0.6800 
 14 C       -4.7580    -2.7610    -0.1360 C.3   1 <1>  -0.0170 
 15 C       -0.0020     5.3560    -0.2320 C.1   1 <1>  -0.0200 
 16 C       -3.8040    -3.9390    -0.0300 C.ar  1 <1>   0.1670 
 17 C        0.7280     6.1460     0.2800 C.1   1 <1>  -0.2000 
 18 N       -3.1760    -4.2920    -1.1400 N.ar  1 <1>  -0.6200 
 19 C       -3.6260    -4.5840     1.1940 C.ar  1 <1>   0.1600 
 20 C        1.6490     7.1230     0.9190 C.3   1 <1>   0.4800 
 21 C       -2.3640    -5.3180    -0.9460 C.ar  1 <1>   0.1600 
 22 N       -2.8150    -5.6100     1.3890 N.ar  1 <1>  -0.6200 
 23 O        1.1040     8.3700     0.7670 O.3   1 <1>  -0.6800 
 24 C        1.7750     6.8630     2.4160 C.3   1 <1>  -0.2400 
 25 C        3.0060     7.1330     0.2250 C.3   1 <1>  -0.2400 
 26 C       -2.1890    -5.9540     0.2770 C.ar  1 <1>   0.1600 
 27 H       -3.8780     1.6380     0.1700 H     1 <1>   0.0800 
 28 H       -4.6420     1.4510    -1.4100 H     1 <1>   0.0800 
 29 H       -3.2870    -1.5410    -2.0160 H     1 <1>   0.0800 
 30 H       -2.0260    -1.6040    -0.7980 H     1 <1>   0.0800 
 31 H       -3.2770     3.1320    -2.6040 H     1 <1>   0.1500 
 32 H       -5.7780    -0.4130    -0.7690 H     1 <1>   0.0800 
 33 H       -3.5150    -1.3940     0.9610 H     1 <1>   0.0800 
 34 H       -2.3460     5.5430    -2.0030 H     1 <1>   0.1500 
 35 H       -4.7840     0.2490     1.7990 H     1 <1>   0.4000 
 36 H       -5.2600    -2.8030    -1.0870 H     1 <1>   0.0800 
 37 H       -5.5110    -2.8380     0.6290 H     1 <1>   0.0800 
 38 H       -4.1770    -4.2340     2.0490 H     1 <1>   0.1500 
 39 H       -1.8080    -5.6720    -1.7960 H     1 <1>   0.1500 
 40 H        1.6910     9.0240     1.1800 H     1 <1>   0.4000 
 41 H        2.1820     5.8810     2.5790 H     1 <1>   0.0800 
 42 H        0.8060     6.9050     2.8790 H     1 <1>   0.0800 
 43 H        2.4260     7.5820     2.8770 H     1 <1>   0.0800 
 44 H        3.4590     6.1610     0.3030 H     1 <1>   0.0800 
 45 H        3.6640     7.8520     0.6760 H     1 <1>   0.0800 
 46 H        2.8830     7.3620    -0.8190 H     1 <1>   0.0800 
 47 H       -1.5040    -6.7810     0.3350 H     1 <1>   0.1500 
@<TRIPOS>BOND
  1   1   2  2   
  2   2   3  am  
  3   2   4  1   
  4   3   5  1   
  5   3   6  1   
  6   4   7  1   
  7   4   8  2   
  8   5   9  1   
  9   5  27  1   
 10   5  28  1   
 11   6  10  1   
 12   6  29  1   
 13   6  30  1   
 14   7  11  1   
 15   8  12  1   
 16   8  31  1   
 17   9  10  1   
 18   9  13  1   
 19   9  32  1   
 20  10  14  1   
 21  10  33  1   
 22  11  12  2   
 23  11  15  1   
 24  12  34  1   
 25  13  35  1   
 26  14  16  1   
 27  14  36  1   
 28  14  37  1   
 29  15  17  3   
 30  16  18  ar  
 31  16  19  ar  
 32  17  20  1   
 33  18  21  ar  
 34  19  22  ar  
 35  19  38  1   
 36  20  23  1   
 37  20  24  1   
 38  20  25  1   
 39  21  26  ar  
 40  21  39  1   
 41  22  26  ar  
 42  23  40  1   
 43  24  41  1   
 44  24  42  1   
 45  24  43  1   
 46  25  44  1   
 47  25  45  1   
 48  25  46  1   
 49  26  47  1   
@<TRIPOS>SUBSTRUCTURE
  1 ****   2 GROUP 4 **** **** 0

# MOE 2024.06 (io_trps.svl 2023.06)
