@<TRIPOS>MOLECULE
NONAME
48 49 1 0 0 
SMALL
USER_CHARGES


@<TRIPOS>ATOM
  1 O       -0.9280    -0.8730     1.9350 O.2   1 <1>  -0.5700 
  2 C       -1.4410    -0.0100     1.2600 C.2   1 <1>   0.5690 
  3 N       -1.9910    -0.2970     0.0350 N.am  1 <1>  -0.6600 
  4 C       -1.4640     1.4000     1.8450 C.3   1 <1>   0.0440 
  5 C       -1.9840    -1.6970    -0.4950 C.3   1 <1>   0.3210 
  6 C       -2.5800     0.7350    -0.8850 C.3   1 <1>   0.1400 
  7 C       -0.4810     2.3570     1.1740 C.ar  1 <1>  -0.1440 
  8 C       -3.4030    -2.2360    -0.6230 C.2   1 <1>   0.0460 
  9 C       -4.1080     0.8910    -0.7510 C.3   1 <1>   0.1200 
 10 C       -0.8830     3.6320     0.8100 C.ar  1 <1>  -0.1500 
 11 C        0.8240     1.9650     0.9240 C.ar  1 <1>  -0.1500 
 12 N       -4.0060    -2.3150    -1.8290 N.2   1 <1>  -0.5650 
 13 C       -4.2300    -2.6720     0.3570 C.2   1 <1>  -0.3320 
 14 O       -4.5260     0.6130     0.5420 O.3   1 <1>  -0.6800 
 15 C        0.0050     4.4980     0.1960 C.ar  1 <1>  -0.1500 
 16 C        1.7100     2.8320     0.3090 C.ar  1 <1>  -0.1500 
 17 C       -5.1760    -2.7940    -1.5600 C.2   1 <1>   0.0360 
 18 N       -5.3770    -3.0310    -0.2480 N.pl3 1 <1>   0.0330 
 19 C       -4.0200    -2.7780     1.8590 C.3   1 <1>  -0.0600 
 20 C        1.3100     4.1080    -0.0630 C.ar  1 <1>  -0.1430 
 21 C        2.2760     5.0760    -0.7430 C.3   1 <1>   0.0630 
 22 C        2.7590     4.5160    -2.0840 C.3   1 <1>  -0.2400 
 23 C        3.4630     5.3960     0.1720 C.3   1 <1>  -0.2400 
 24 H       -1.2160     1.3380     2.8880 H     1 <1>   0.0800 
 25 H       -2.4640     1.7840     1.7820 H     1 <1>   0.0800 
 26 H       -1.4270    -2.3480     0.1540 H     1 <1>   0.0800 
 27 H       -1.5070    -1.7130    -1.4580 H     1 <1>   0.0800 
 28 H       -2.3480     0.4790    -1.9040 H     1 <1>   0.0800 
 29 H       -2.1250     1.6900    -0.7060 H     1 <1>   0.0800 
 30 H       -4.6110     0.2090    -1.4140 H     1 <1>   0.0800 
 31 H       -4.4100     1.8930    -1.0000 H     1 <1>   0.0800 
 32 H       -1.8890     3.9600     1.0030 H     1 <1>   0.1500 
 33 H        1.1590     0.9810     1.2060 H     1 <1>   0.1500 
 34 H       -4.2240    -0.2990     0.7510 H     1 <1>   0.4000 
 35 H       -0.3300     5.4830    -0.0790 H     1 <1>   0.1500 
 36 H        2.7170     2.5050     0.1230 H     1 <1>   0.1500 
 37 H       -5.9340    -2.9910    -2.2980 H     1 <1>   0.1500 
 38 H       -6.2240    -3.4060     0.1880 H     1 <1>   0.2700 
 39 H       -3.0210    -2.4840     2.1240 H     1 <1>   0.0800 
 40 H       -4.1690    -3.7920     2.1840 H     1 <1>   0.0800 
 41 H       -4.7120    -2.1380     2.3780 H     1 <1>   0.0800 
 42 H        1.7580     5.9990    -0.9410 H     1 <1>   0.0800 
 43 H        3.3280     3.6160    -1.9410 H     1 <1>   0.0800 
 44 H        3.3770     5.2380    -2.5890 H     1 <1>   0.0800 
 45 H        1.9140     4.2910    -2.7110 H     1 <1>   0.0800 
 46 H        4.0480     4.5150     0.3630 H     1 <1>   0.0800 
 47 H        3.1050     5.7800     1.1110 H     1 <1>   0.0800 
 48 H        4.0950     6.1380    -0.2830 H     1 <1>   0.0800 
@<TRIPOS>BOND
  1   1   2  2   
  2   2   3  am  
  3   2   4  1   
  4   3   5  1   
  5   3   6  1   
  6   4   7  1   
  7   4  24  1   
  8   4  25  1   
  9   5   8  1   
 10   5  26  1   
 11   5  27  1   
 12   6   9  1   
 13   6  28  1   
 14   6  29  1   
 15   7  10  ar  
 16   7  11  ar  
 17   8  12  1   
 18   8  13  2   
 19   9  14  1   
 20   9  30  1   
 21   9  31  1   
 22  10  15  ar  
 23  10  32  1   
 24  11  16  ar  
 25  11  33  1   
 26  12  17  2   
 27  13  18  1   
 28  13  19  1   
 29  14  34  1   
 30  15  20  ar  
 31  15  35  1   
 32  16  20  ar  
 33  16  36  1   
 34  17  18  1   
 35  17  37  1   
 36  18  38  1   
 37  19  39  1   
 38  19  40  1   
 39  19  41  1   
 40  20  21  1   
 41  21  22  1   
 42  21  23  1   
 43  21  42  1   
 44  22  43  1   
 45  22  44  1   
 46  22  45  1   
 47  23  46  1   
 48  23  47  1   
 49  23  48  1   
@<TRIPOS>SUBSTRUCTURE
  1 ****   3 GROUP 4 **** **** 0

# MOE 2024.06 (io_trps.svl 2023.06)
