@<TRIPOS>MOLECULE
NONAME
35 36 1 0 0 
SMALL
USER_CHARGES


@<TRIPOS>ATOM
  1 CL      -0.5780    -0.0760     0.2190 Cl    1 <1>  -0.1770 
  2 C       -0.4230    -1.8030     0.4200 C.ar  1 <1>   0.1770 
  3 C        0.7780    -2.4390     0.1370 C.ar  1 <1>  -0.1440 
  4 C       -1.5210    -2.5130     0.8670 C.ar  1 <1>  -0.1500 
  5 C        0.8540    -3.8130     0.3070 C.ar  1 <1>  -0.1500 
  6 C        1.9900    -1.6560    -0.3450 C.3   1 <1>  -0.0960 
  7 C       -1.4240    -3.8830     1.0300 C.ar  1 <1>  -0.1500 
  8 C       -0.2390    -4.5620     0.7450 C.ar  1 <1>   0.0860 
  9 C       -0.1400    -6.0000     0.9030 C.2   1 <1>   0.5440 
 10 O        0.7260    -6.4610     1.6240 O.2   1 <1>  -0.5700 
 11 N       -1.0020    -6.8580     0.2610 N.am  1 <1>  -0.6600 
 12 C       -1.1690    -8.2800     0.7170 C.3   1 <1>   0.1400 
 13 C       -1.8680    -6.4780    -0.8890 C.3   1 <1>   0.1400 
 14 C       -2.6000    -8.8220     0.4990 C.3   1 <1>   0.2000 
 15 C       -3.3530    -6.5930    -0.5100 C.3   1 <1>  -0.1600 
 16 O       -2.6890    -9.4400    -0.7390 O.3   1 <1>  -0.6800 
 17 C       -3.6410    -7.6940     0.5440 C.3   1 <1>  -0.1860 
 18 C       -5.0430    -8.2530     0.4240 C.2   1 <1>   0.9060 
 19 O       -5.8890    -7.9100     1.2530 O.co2 1 <1>  -0.9000 
 20 O       -5.2900    -9.0380    -0.5020 O.co2 1 <1>  -0.9000 
 21 H       -2.4390    -1.9960     1.0850 H     1 <1>   0.1500 
 22 H        1.7730    -4.3360     0.1030 H     1 <1>   0.1500 
 23 H        2.8300    -2.3060    -0.5120 H     1 <1>   0.0800 
 24 H        2.2680    -0.9210     0.3900 H     1 <1>   0.0800 
 25 H        1.7590    -1.1520    -1.2670 H     1 <1>   0.0800 
 26 H       -2.2720    -4.4440     1.3860 H     1 <1>   0.1500 
 27 H       -0.4600    -8.9110     0.2120 H     1 <1>   0.0800 
 28 H       -0.9570    -8.3210     1.7700 H     1 <1>   0.0800 
 29 H       -1.6460    -5.4860    -1.2400 H     1 <1>   0.0800 
 30 H       -1.6620    -7.1610    -1.6970 H     1 <1>   0.0800 
 31 H       -2.8280    -9.5710     1.2390 H     1 <1>   0.0800 
 32 H       -3.7170    -5.6520    -0.1430 H     1 <1>   0.0800 
 33 H       -3.9030    -6.8130    -1.4090 H     1 <1>   0.0800 
 34 H       -3.6720    -9.5020    -0.9290 H     1 <1>   0.4000 
 35 H       -3.5720    -7.2450     1.5170 H     1 <1>   0.0800 
@<TRIPOS>BOND
  1   1   2  1   
  2   2   3  ar  
  3   2   4  ar  
  4   3   5  ar  
  5   3   6  1   
  6   4   7  ar  
  7   4  21  1   
  8   5   8  ar  
  9   5  22  1   
 10   6  23  1   
 11   6  24  1   
 12   6  25  1   
 13   7   8  ar  
 14   7  26  1   
 15   8   9  1   
 16   9  10  2   
 17   9  11  am  
 18  11  12  1   
 19  11  13  1   
 20  12  14  1   
 21  12  27  1   
 22  12  28  1   
 23  13  15  1   
 24  13  29  1   
 25  13  30  1   
 26  14  16  1   
 27  14  17  1   
 28  14  31  1   
 29  15  17  1   
 30  15  32  1   
 31  15  33  1   
 32  16  34  1   
 33  17  18  1   
 34  17  35  1   
 35  18  19  ar  
 36  18  20  ar  
@<TRIPOS>SUBSTRUCTURE
  1 ****  11 GROUP 4 **** **** 0

# MOE 2024.06 (io_trps.svl 2023.06)
