@<TRIPOS>MOLECULE
NONAME
58 60 1 0 0 
SMALL
USER_CHARGES


@<TRIPOS>ATOM
  1 O       -0.0840    -0.8240    -1.3410 O.2   1 <1>  -0.5700 
  2 C       -0.4220    -0.1450    -0.4030 C.2   1 <1>   0.5690 
  3 N       -1.2730    -0.6190     0.5400 N.am  1 <1>  -0.7300 
  4 C        0.0860     1.2930    -0.3180 C.3   1 <1>  -0.0190 
  5 C       -1.9490    -1.9350     0.5040 C.3   1 <1>   0.2200 
  6 C        0.1060     1.8650     1.1180 C.3   1 <1>  -0.1600 
  7 C       -0.7410     2.1980    -1.2520 C.3   1 <1>  -0.1600 
  8 C       -3.4380    -1.7690     0.2260 C.3   1 <1>  -0.0800 
  9 C       -1.9880    -2.5040     1.9150 C.3   1 <1>   0.1200 
 10 C        0.5470     3.3300     1.1320 C.3   1 <1>   0.1400 
 11 C       -0.2930     3.6600    -1.1820 C.3   1 <1>   0.1400 
 12 C       -4.0230    -1.4930     1.6160 C.3   1 <1>   0.1200 
 13 C       -3.8090    -0.7160    -0.8360 C.3   1 <1>  -0.0170 
 14 O       -3.0340    -1.8300     2.5460 O.3   1 <1>  -0.5600 
 15 N       -0.3500     4.1070     0.2360 N.am  1 <1>  -0.6600 
 16 C       -5.3120    -0.6590    -1.0540 C.ar  1 <1>  -0.1440 
 17 C       -1.2460     5.0150     0.7480 C.2   1 <1>   0.5690 
 18 C       -6.1000     0.3060    -0.4590 C.ar  1 <1>  -0.1500 
 19 C       -5.9660    -1.5690    -1.8590 C.ar  1 <1>  -0.1500 
 20 O       -1.4050     5.1320     1.9410 O.2   1 <1>  -0.5700 
 21 C       -2.0960     5.8710    -0.1900 C.3   1 <1>  -0.0990 
 22 C       -7.4660     0.3110    -0.6880 C.ar  1 <1>   0.1600 
 23 C       -7.3380    -1.4750    -2.0230 C.ar  1 <1>   0.1600 
 24 C       -2.7450     7.1190     0.4460 C.3   1 <1>  -0.0800 
 25 N       -8.1040    -0.5570    -1.4550 N.ar  1 <1>  -0.6200 
 26 C       -3.7400     7.7550    -0.5330 C.3   1 <1>  -0.2400 
 27 C       -1.6900     8.1580     0.8500 C.3   1 <1>  -0.2400 
 28 H       -1.5420    -0.0390     1.3370 H     1 <1>   0.3700 
 29 H        1.1000     1.2850    -0.6800 H     1 <1>   0.0800 
 30 H       -1.4620    -2.5980    -0.1930 H     1 <1>   0.0800 
 31 H        0.7750     1.2870     1.7310 H     1 <1>   0.0800 
 32 H       -0.8740     1.8190     1.5590 H     1 <1>   0.0800 
 33 H       -1.7820     2.1430    -0.9850 H     1 <1>   0.0800 
 34 H       -0.6460     1.8480    -2.2650 H     1 <1>   0.0800 
 35 H       -3.8200    -2.7210    -0.0990 H     1 <1>   0.0800 
 36 H       -1.0720    -2.3440     2.4560 H     1 <1>   0.0800 
 37 H       -2.2300    -3.5520     1.8990 H     1 <1>   0.0800 
 38 H        1.5610     3.4180     0.7820 H     1 <1>   0.0800 
 39 H        0.5100     3.7130     2.1380 H     1 <1>   0.0800 
 40 H       -0.9250     4.2550    -1.8140 H     1 <1>   0.0800 
 41 H        0.7190     3.7540    -1.5400 H     1 <1>   0.0800 
 42 H       -4.8990    -2.0900     1.8050 H     1 <1>   0.0800 
 43 H       -4.2550    -0.4520     1.7540 H     1 <1>   0.0800 
 44 H       -3.3210    -0.9580    -1.7650 H     1 <1>   0.0800 
 45 H       -3.4660     0.2580    -0.5370 H     1 <1>   0.0800 
 46 H       -5.6680     1.0550     0.1800 H     1 <1>   0.1500 
 47 H       -5.4220    -2.3480    -2.3610 H     1 <1>   0.1500 
 48 H       -1.4860     6.1970    -1.0100 H     1 <1>   0.0800 
 49 H       -2.8700     5.2360    -0.5790 H     1 <1>   0.0800 
 50 H       -8.0650     1.0710    -0.2160 H     1 <1>   0.1500 
 51 H       -7.8320    -2.1930    -2.6550 H     1 <1>   0.1500 
 52 H       -3.2880     6.8170     1.3280 H     1 <1>   0.0800 
 53 H       -3.2400     8.0760    -1.4300 H     1 <1>   0.0800 
 54 H       -4.2100     8.6100    -0.0800 H     1 <1>   0.0800 
 55 H       -4.5090     7.0510    -0.7980 H     1 <1>   0.0800 
 56 H       -1.1270     8.4860    -0.0060 H     1 <1>   0.0800 
 57 H       -1.0080     7.7420     1.5710 H     1 <1>   0.0800 
 58 H       -2.1630     9.0130     1.2980 H     1 <1>   0.0800 
@<TRIPOS>BOND
  1   1   2  2   
  2   2   3  am  
  3   2   4  1   
  4   3   5  1   
  5   3  28  1   
  6   4   6  1   
  7   4   7  1   
  8   4  29  1   
  9   5   8  1   
 10   5   9  1   
 11   5  30  1   
 12   6  10  1   
 13   6  31  1   
 14   6  32  1   
 15   7  11  1   
 16   7  33  1   
 17   7  34  1   
 18   8  12  1   
 19   8  13  1   
 20   8  35  1   
 21   9  14  1   
 22   9  36  1   
 23   9  37  1   
 24  10  15  1   
 25  10  38  1   
 26  10  39  1   
 27  11  15  1   
 28  11  40  1   
 29  11  41  1   
 30  12  14  1   
 31  12  42  1   
 32  12  43  1   
 33  13  16  1   
 34  13  44  1   
 35  13  45  1   
 36  15  17  am  
 37  16  18  ar  
 38  16  19  ar  
 39  17  20  2   
 40  17  21  1   
 41  18  22  ar  
 42  18  46  1   
 43  19  23  ar  
 44  19  47  1   
 45  21  24  1   
 46  21  48  1   
 47  21  49  1   
 48  22  25  ar  
 49  22  50  1   
 50  23  25  ar  
 51  23  51  1   
 52  24  26  1   
 53  24  27  1   
 54  24  52  1   
 55  26  53  1   
 56  26  54  1   
 57  26  55  1   
 58  27  56  1   
 59  27  57  1   
 60  27  58  1   
@<TRIPOS>SUBSTRUCTURE
  1 ****   7 GROUP 4 **** **** 0

# MOE 2024.06 (io_trps.svl 2023.06)
