@<TRIPOS>MOLECULE
NONAME
54 56 1 0 0 
SMALL
USER_CHARGES


@<TRIPOS>ATOM
  1 O        1.7580     1.5720    -2.2620 O.2   1 <1>  -0.5700 
  2 C        2.2240     1.1500    -1.2160 C.2   1 <1>   0.7160 
  3 N        2.3920    -0.2110    -1.0950 N.am  1 <1>  -0.7300 
  4 C        2.6040     2.0360    -0.1100 C.2   1 <1>   0.4300 
  5 C        2.0680    -1.2370    -2.1200 C.3   1 <1>   0.0600 
  6 N        3.1160     1.6350     1.0090 N.2   1 <1>  -0.4100 
  7 N        2.4730     3.3740    -0.1230 N.2   1 <1>  -0.5650 
  8 O        3.3340     2.6730     1.7480 O.3   1 <1>  -0.0190 
  9 C        2.9400     3.6820     1.0160 C.2   1 <1>   0.2980 
 10 C        3.0670     5.0920     1.5880 C.3   1 <1>   0.2900 
 11 N        4.3820     5.7300     1.3020 N.3   1 <1>  -0.8100 
 12 C        5.5040     5.0640     1.9710 C.3   1 <1>   0.1100 
 13 C        4.3490     7.1690     1.5650 C.3   1 <1>   0.1100 
 14 C        6.8020     5.5980     1.3690 C.3   1 <1>  -0.1600 
 15 C        5.5950     7.7930     0.9420 C.3   1 <1>  -0.1600 
 16 C        6.8610     7.1260     1.4880 C.3   1 <1>   0.4230 
 17 N        8.0600     7.6840     0.8060 N.4   1 <1>  -0.9590 
 18 C        8.2020     7.3710    -0.6570 C.3   1 <1>   0.3430 
 19 C        9.3500     7.4040     1.5170 C.3   1 <1>   0.3430 
 20 C        9.3560     8.1880    -1.2870 C.3   1 <1>   0.1100 
 21 C       10.5330     8.1430     0.8420 C.3   1 <1>   0.1100 
 22 N       10.0930     9.0030    -0.2840 N.3   1 <1>  -0.8100 
 23 C       11.2480     9.7080    -0.8830 C.3   1 <1>   0.1100 
 24 C       10.8040    10.8670    -1.7840 C.3   1 <1>   0.1200 
 25 O       11.9270    11.5070    -2.2840 O.3   1 <1>  -0.6800 
 26 H        2.7850    -0.5510    -0.2130 H     1 <1>   0.3700 
 27 H        1.6620    -0.7740    -3.0040 H     1 <1>   0.0800 
 28 H        1.3410    -1.9260    -1.7260 H     1 <1>   0.0800 
 29 H        2.9590    -1.7750    -2.3890 H     1 <1>   0.0800 
 30 H        2.8900     5.0660     2.6490 H     1 <1>   0.0800 
 31 H        2.2890     5.6830     1.1360 H     1 <1>   0.0800 
 32 H        5.4660     4.0010     1.8010 H     1 <1>   0.0800 
 33 H        5.4660     5.2420     3.0330 H     1 <1>   0.0800 
 34 H        4.3110     7.3550     2.6260 H     1 <1>   0.0800 
 35 H        3.4750     7.6050     1.1090 H     1 <1>   0.0800 
 36 H        6.8260     5.2880     0.3400 H     1 <1>   0.0800 
 37 H        7.6290     5.1480     1.8860 H     1 <1>   0.0800 
 38 H        5.6070     8.8440     1.1660 H     1 <1>   0.0800 
 39 H        5.5180     7.6680    -0.1220 H     1 <1>   0.0800 
 40 H        6.9180     7.3680     2.5370 H     1 <1>   0.0800 
 41 H        8.0040     8.7140     0.8190 H     1 <1>   0.4500 
 42 H        7.2890     7.6010    -1.1810 H     1 <1>   0.0800 
 43 H        8.3980     6.3200    -0.7920 H     1 <1>   0.0800 
 44 H        9.5510     6.3450     1.5190 H     1 <1>   0.0800 
 45 H        9.2790     7.7270     2.5430 H     1 <1>   0.0800 
 46 H        8.9380     8.8330    -2.0400 H     1 <1>   0.0800 
 47 H       10.0330     7.5120    -1.7830 H     1 <1>   0.0800 
 48 H       11.2470     7.4180     0.4900 H     1 <1>   0.0800 
 49 H       11.0280     8.7480     1.5830 H     1 <1>   0.0800 
 50 H       11.8470     9.0170    -1.4540 H     1 <1>   0.0800 
 51 H       11.8560    10.1170    -0.0950 H     1 <1>   0.0800 
 52 H       10.2210    11.5850    -1.2350 H     1 <1>   0.0800 
 53 H       10.2430    10.5080    -2.6280 H     1 <1>   0.0800 
 54 H       12.3750    12.0290    -1.5890 H     1 <1>   0.4000 
@<TRIPOS>BOND
  1   1   2  2   
  2   2   3  am  
  3   2   4  1   
  4   3   5  1   
  5   3  26  1   
  6   4   6  2   
  7   4   7  1   
  8   5  27  1   
  9   5  28  1   
 10   5  29  1   
 11   6   8  1   
 12   7   9  2   
 13   8   9  1   
 14   9  10  1   
 15  10  11  1   
 16  10  30  1   
 17  10  31  1   
 18  11  12  1   
 19  11  13  1   
 20  12  14  1   
 21  12  32  1   
 22  12  33  1   
 23  13  15  1   
 24  13  34  1   
 25  13  35  1   
 26  14  16  1   
 27  14  36  1   
 28  14  37  1   
 29  15  16  1   
 30  15  38  1   
 31  15  39  1   
 32  16  17  1   
 33  16  40  1   
 34  17  18  1   
 35  17  19  1   
 36  17  41  1   
 37  18  20  1   
 38  18  42  1   
 39  18  43  1   
 40  19  21  1   
 41  19  44  1   
 42  19  45  1   
 43  20  22  1   
 44  20  46  1   
 45  20  47  1   
 46  21  22  1   
 47  21  48  1   
 48  21  49  1   
 49  22  23  1   
 50  23  24  1   
 51  23  50  1   
 52  23  51  1   
 53  24  25  1   
 54  24  52  1   
 55  24  53  1   
 56  25  54  1   
@<TRIPOS>SUBSTRUCTURE
  1 ****  14 GROUP 4 **** **** 0

# MOE 2024.06 (io_trps.svl 2023.06)
