@<TRIPOS>MOLECULE
NONAME
52 53 1 0 0 
SMALL
USER_CHARGES


@<TRIPOS>ATOM
  1 F       -2.4880    -1.4730     2.9550 F     1 <1>  -0.1900 
  2 C       -2.4580    -1.5660     1.6490 C.ar  1 <1>   0.1900 
  3 C       -2.1830    -0.4400     0.8820 C.ar  1 <1>   0.0830 
  4 C       -2.7120    -2.8030     1.0890 C.ar  1 <1>  -0.1500 
  5 O       -1.9490     0.7440     1.5110 O.3   1 <1>  -0.3630 
  6 C       -2.1640    -0.5890    -0.5030 C.ar  1 <1>  -0.1500 
  7 C       -2.7090    -2.9370    -0.2940 C.ar  1 <1>  -0.1430 
  8 C       -1.5540     1.8960     0.8000 C.3   1 <1>   0.0400 
  9 C       -2.4240    -1.8240    -1.0780 C.ar  1 <1>  -0.1500 
 10 C       -3.0310    -4.2720    -0.9620 C.3   1 <1>   0.4610 
 11 N       -4.5290    -4.5330    -0.7630 N.4   1 <1>  -0.9590 
 12 C       -2.1220    -5.4480    -0.5180 C.2   1 <1>   0.9060 
 13 C       -4.8710    -5.9870    -1.0350 C.3   1 <1>   0.3430 
 14 C       -5.3380    -3.5800    -1.5820 C.3   1 <1>   0.2630 
 15 O       -2.1870    -5.8570     0.6500 O.co2 1 <1>  -0.9000 
 16 O       -1.6390    -6.1570    -1.4030 O.co2 1 <1>  -0.9000 
 17 C       -4.8600    -6.8870     0.2400 C.3   1 <1>   0.3430 
 18 N       -4.4720    -8.3340     0.0510 N.4   1 <1>  -0.9590 
 19 C       -4.3710    -8.9630     1.3940 C.3   1 <1>   0.3430 
 20 C       -3.1360    -8.4880    -0.6170 C.3   1 <1>   0.3430 
 21 C       -4.9890   -10.3610     1.3830 C.3   1 <1>  -0.1600 
 22 C       -2.9390    -9.8920    -1.1980 C.3   1 <1>  -0.1600 
 23 C       -4.5810   -11.2660     0.2070 C.3   1 <1>  -0.1600 
 24 C       -3.1240   -11.0810    -0.2380 C.3   1 <1>  -0.1600 
 25 H       -2.8950    -3.6390     1.7430 H     1 <1>   0.1500 
 26 H       -1.9470     0.2440    -1.1450 H     1 <1>   0.1500 
 27 H       -1.3890     2.6850     1.5120 H     1 <1>   0.0800 
 28 H       -2.3400     2.1760     0.1220 H     1 <1>   0.0800 
 29 H       -0.6410     1.6850     0.2720 H     1 <1>   0.0800 
 30 H       -2.3960    -1.9060    -2.1520 H     1 <1>   0.1500 
 31 H       -2.8420    -4.1690    -2.0150 H     1 <1>   0.0800 
 32 H       -4.6700    -4.3190     0.2360 H     1 <1>   0.4500 
 33 H       -4.1680    -6.3770    -1.7530 H     1 <1>   0.0800 
 34 H       -5.8530    -6.0450    -1.4750 H     1 <1>   0.0800 
 35 H       -5.1470    -3.7330    -2.6320 H     1 <1>   0.0800 
 36 H       -5.0810    -2.5630    -1.3310 H     1 <1>   0.0800 
 37 H       -6.3900    -3.7200    -1.3950 H     1 <1>   0.0800 
 38 H       -5.8400    -6.8500     0.6830 H     1 <1>   0.0800 
 39 H       -4.1830    -6.4570     0.9560 H     1 <1>   0.0800 
 40 H       -5.1620    -8.8630    -0.4940 H     1 <1>   0.4500 
 41 H       -4.8810    -8.3640     2.1320 H     1 <1>   0.0800 
 42 H       -3.3340    -9.0260     1.6870 H     1 <1>   0.0800 
 43 H       -2.3420    -8.2500     0.0760 H     1 <1>   0.0800 
 44 H       -3.0540    -7.7990    -1.4370 H     1 <1>   0.0800 
 45 H       -6.0610   -10.2810     1.4150 H     1 <1>   0.0800 
 46 H       -4.6900   -10.8430     2.2990 H     1 <1>   0.0800 
 47 H       -1.9320    -9.9280    -1.5780 H     1 <1>   0.0800 
 48 H       -3.5850   -10.0120    -2.0490 H     1 <1>   0.0800 
 49 H       -5.2370   -11.1050    -0.6310 H     1 <1>   0.0800 
 50 H       -4.7210   -12.2900     0.5130 H     1 <1>   0.0800 
 51 H       -2.4690   -10.9900     0.6130 H     1 <1>   0.0800 
 52 H       -2.8240   -11.9720    -0.7660 H     1 <1>   0.0800 
@<TRIPOS>BOND
  1   1   2  1   
  2   2   3  ar  
  3   2   4  ar  
  4   3   5  1   
  5   3   6  ar  
  6   4   7  ar  
  7   4  25  1   
  8   5   8  1   
  9   6   9  ar  
 10   6  26  1   
 11   7   9  ar  
 12   7  10  1   
 13   8  27  1   
 14   8  28  1   
 15   8  29  1   
 16   9  30  1   
 17  10  11  1   
 18  10  12  1   
 19  10  31  1   
 20  11  13  1   
 21  11  14  1   
 22  11  32  1   
 23  12  15  ar  
 24  12  16  ar  
 25  13  17  1   
 26  13  33  1   
 27  13  34  1   
 28  14  35  1   
 29  14  36  1   
 30  14  37  1   
 31  17  18  1   
 32  17  38  1   
 33  17  39  1   
 34  18  19  1   
 35  18  20  1   
 36  18  40  1   
 37  19  21  1   
 38  19  41  1   
 39  19  42  1   
 40  20  22  1   
 41  20  43  1   
 42  20  44  1   
 43  21  23  1   
 44  21  45  1   
 45  21  46  1   
 46  22  24  1   
 47  22  47  1   
 48  22  48  1   
 49  23  24  1   
 50  23  49  1   
 51  23  50  1   
 52  24  51  1   
 53  24  52  1   
@<TRIPOS>SUBSTRUCTURE
  1 ****  10 GROUP 4 **** **** 0

# MOE 2024.06 (io_trps.svl 2023.06)
