@<TRIPOS>MOLECULE
NONAME
41 42 1 0 0 
SMALL
USER_CHARGES


@<TRIPOS>ATOM
  1 O        0.2660     0.1890     2.9050 O.3   1 <1>  -0.6800 
  2 C        0.8980    -0.3170     1.7840 C.3   1 <1>   0.1200 
  3 C        2.3990    -0.0230     1.9210 C.3   1 <1>   0.3430 
  4 N        3.2050    -0.5910     0.7940 N.4   1 <1>  -0.9590 
  5 C        3.2790    -2.0780     0.8170 C.3   1 <1>   0.5230 
  6 C        4.5460     0.0510     0.6490 C.3   1 <1>   0.3430 
  7 C        2.3320    -2.5840    -0.2660 C.2   1 <1>   0.0070 
  8 C        4.5510     1.1630    -0.4150 C.3   1 <1>   0.0630 
  9 N        1.6760    -1.7940    -1.0630 N.2   1 <1>  -0.5650 
 10 N        2.0910    -3.8980    -0.4940 N.pl3 1 <1>   0.0330 
 11 C        5.9720     1.6990    -0.5230 C.ar  1 <1>  -0.1440 
 12 C        3.5590     2.3070    -0.1430 C.3   1 <1>  -0.2400 
 13 C        0.9750    -2.6340    -1.8490 C.2   1 <1>   0.0770 
 14 C        1.2160    -3.9190    -1.5140 C.2   1 <1>  -0.3020 
 15 C        6.7030     1.4900    -1.6840 C.ar  1 <1>  -0.1500 
 16 C        6.5620     2.3890     0.5290 C.ar  1 <1>  -0.1500 
 17 C        8.0020     1.9550    -1.7900 C.ar  1 <1>  -0.1500 
 18 C        7.8610     2.8530     0.4230 C.ar  1 <1>  -0.1500 
 19 C        8.5830     2.6360    -0.7360 C.ar  1 <1>  -0.1500 
 20 H       -0.7070     0.0760     2.8520 H     1 <1>   0.4000 
 21 H        0.4880     0.1700     0.9150 H     1 <1>   0.0800 
 22 H        0.7000    -1.3740     1.7430 H     1 <1>   0.0800 
 23 H        2.7510    -0.4210     2.8580 H     1 <1>   0.0800 
 24 H        2.5210     1.0470     1.9450 H     1 <1>   0.0800 
 25 H        2.6720    -0.4290    -0.0850 H     1 <1>   0.4500 
 26 H        2.9860    -2.4590     1.7810 H     1 <1>   0.0800 
 27 H        4.2790    -2.4090     0.5950 H     1 <1>   0.0800 
 28 H        5.2740    -0.6850     0.3510 H     1 <1>   0.0800 
 29 H        4.8640     0.4590     1.5950 H     1 <1>   0.0800 
 30 H        4.2880     0.7160    -1.3590 H     1 <1>   0.0800 
 31 H        2.4770    -4.7210    -0.0160 H     1 <1>   0.2700 
 32 H        3.7110     2.7340     0.8330 H     1 <1>   0.0800 
 33 H        2.5430     1.9660    -0.2230 H     1 <1>   0.0800 
 34 H        3.7020     3.0850    -0.8730 H     1 <1>   0.0800 
 35 H        0.3230    -2.2700    -2.6290 H     1 <1>   0.1500 
 36 H        0.8200    -4.8240    -1.9420 H     1 <1>   0.1500 
 37 H        6.2730     0.9670    -2.5210 H     1 <1>   0.1500 
 38 H        6.0230     2.5790     1.4400 H     1 <1>   0.1500 
 39 H        8.5630     1.7890    -2.6940 H     1 <1>   0.1500 
 40 H        8.3130     3.3880     1.2410 H     1 <1>   0.1500 
 41 H        9.5940     2.9980    -0.8190 H     1 <1>   0.1500 
@<TRIPOS>BOND
  1   1   2  1   
  2   1  20  1   
  3   2   3  1   
  4   2  21  1   
  5   2  22  1   
  6   3   4  1   
  7   3  23  1   
  8   3  24  1   
  9   4   5  1   
 10   4   6  1   
 11   4  25  1   
 12   5   7  1   
 13   5  26  1   
 14   5  27  1   
 15   6   8  1   
 16   6  28  1   
 17   6  29  1   
 18   7   9  2   
 19   7  10  1   
 20   8  11  1   
 21   8  12  1   
 22   8  30  1   
 23   9  13  1   
 24  10  14  1   
 25  10  31  1   
 26  11  15  ar  
 27  11  16  ar  
 28  12  32  1   
 29  12  33  1   
 30  12  34  1   
 31  13  14  2   
 32  13  35  1   
 33  14  36  1   
 34  15  17  ar  
 35  15  37  1   
 36  16  18  ar  
 37  16  38  1   
 38  17  19  ar  
 39  17  39  1   
 40  18  19  ar  
 41  18  40  1   
 42  19  41  1   
@<TRIPOS>SUBSTRUCTURE
  1 ****   6 GROUP 4 **** **** 0

# MOE 2024.06 (io_trps.svl 2023.06)
