@<TRIPOS>MOLECULE
NONAME
31 33 1 0 0 
SMALL
USER_CHARGES


@<TRIPOS>ATOM
  1 F       -0.5010    -0.6720    -0.3310 F     1 <1>  -0.1900 
  2 C       -0.2510    -1.9130    -0.0120 C.ar  1 <1>   0.1900 
  3 C        1.0040    -2.4310    -0.2640 C.ar  1 <1>  -0.1500 
  4 C       -1.2480    -2.6710     0.5690 C.ar  1 <1>  -0.1500 
  5 C        1.2600    -3.7460     0.0780 C.ar  1 <1>  -0.1500 
  6 C       -0.9720    -3.9840     0.9020 C.ar  1 <1>  -0.1500 
  7 C        0.2830    -4.5600     0.6650 C.ar  1 <1>   0.0280 
  8 C        0.4950    -5.9320     1.0420 C.2   1 <1>  -0.1780 
  9 C        1.4730    -6.8370     0.7490 C.2   1 <1>   0.1140 
 10 N        2.5760    -6.5600    -0.0860 N.pl3 1 <1>  -0.8380 
 11 C        1.4700    -8.2000     1.2550 C.2   1 <1>   0.4950 
 12 C        3.8630    -6.7640     0.6540 C.3   1 <1>   0.2090 
 13 C        2.5680    -7.4630    -1.2810 C.3   1 <1>   0.2090 
 14 O        0.6590    -8.7080     1.9890 O.2   1 <1>  -0.5700 
 15 C        2.6660    -9.0010     0.7400 C.3   1 <1>  -0.0190 
 16 C        3.9320    -8.2240     1.1690 C.3   1 <1>  -0.1600 
 17 C        2.6050    -8.9390    -0.8050 C.3   1 <1>  -0.1600 
 18 H        1.7600    -1.8150    -0.7160 H     1 <1>   0.1500 
 19 H       -2.2140    -2.2380     0.7530 H     1 <1>   0.1500 
 20 H        2.2380    -4.1430    -0.1130 H     1 <1>   0.1500 
 21 H       -1.7460    -4.5800     1.3530 H     1 <1>   0.1500 
 22 H       -0.2880    -6.3060     1.6770 H     1 <1>   0.1500 
 23 H        3.9070    -6.0750     1.4820 H     1 <1>   0.0800 
 24 H        4.6940    -6.5540     0.0010 H     1 <1>   0.0800 
 25 H        3.4170    -7.2460    -1.9060 H     1 <1>   0.0800 
 26 H        1.6750    -7.2800    -1.8550 H     1 <1>   0.0800 
 27 H        2.6560   -10.0100     1.1120 H     1 <1>   0.0800 
 28 H        4.0060    -8.2160     2.2430 H     1 <1>   0.0800 
 29 H        4.8160    -8.7030     0.7870 H     1 <1>   0.0800 
 30 H        3.4550    -9.4380    -1.2360 H     1 <1>   0.0800 
 31 H        1.7220    -9.4440    -1.1540 H     1 <1>   0.0800 
@<TRIPOS>BOND
  1   1   2  1   
  2   2   3  ar  
  3   2   4  ar  
  4   3   5  ar  
  5   3  18  1   
  6   4   6  ar  
  7   4  19  1   
  8   5   7  ar  
  9   5  20  1   
 10   6   7  ar  
 11   6  21  1   
 12   7   8  1   
 13   8   9  2   
 14   8  22  1   
 15   9  10  1   
 16   9  11  1   
 17  10  12  1   
 18  10  13  1   
 19  11  14  2   
 20  11  15  1   
 21  12  16  1   
 22  12  23  1   
 23  12  24  1   
 24  13  17  1   
 25  13  25  1   
 26  13  26  1   
 27  15  16  1   
 28  15  17  1   
 29  15  27  1   
 30  16  28  1   
 31  16  29  1   
 32  17  30  1   
 33  17  31  1   
@<TRIPOS>SUBSTRUCTURE
  1 ****   8 GROUP 4 **** **** 0

# MOE 2024.06 (io_trps.svl 2023.06)
