@<TRIPOS>MOLECULE
NONAME
55 57 1 0 0 
SMALL
USER_CHARGES


@<TRIPOS>ATOM
  1 O        0.7630    -1.9980    -0.3100 O.3   1 <1>  -0.3630 
  2 C       -0.5000    -2.2710    -0.6290 C.ar  1 <1>   0.3920 
  3 C        1.6900    -1.3560    -1.1620 C.3   1 <1>   0.2000 
  4 N       -0.9680    -1.9170    -1.8250 N.ar  1 <1>  -0.6200 
  5 C       -1.2630    -2.9230     0.3160 C.ar  1 <1>  -0.1500 
  6 C        2.3160    -2.4040    -2.0830 C.3   1 <1>  -0.2400 
  7 C        2.7430    -0.7010    -0.2710 C.3   1 <1>  -0.2400 
  8 C       -2.2170    -2.2270    -2.0720 C.ar  1 <1>   0.7710 
  9 C       -2.5710    -3.2270     0.0220 C.ar  1 <1>   0.4610 
 10 N       -3.0100    -2.8640    -1.1920 N.ar  1 <1>  -0.1790 
 11 N       -2.6890    -1.8940    -3.2720 N.pl3 1 <1>  -0.9000 
 12 N       -3.4060    -3.9030     0.8580 N.pl3 1 <1>  -0.8380 
 13 C       -3.0700    -5.2690     1.3530 C.3   1 <1>   0.2090 
 14 C       -4.8340    -3.5320     1.0720 C.3   1 <1>   0.2090 
 15 C       -4.2340    -6.2360     0.9890 C.3   1 <1>   0.4230 
 16 C       -5.7660    -4.6520     0.5480 C.3   1 <1>  -0.1600 
 17 N       -3.9210    -7.7100     1.1540 N.4   1 <1>  -0.9590 
 18 C       -5.0060    -5.7620    -0.3540 C.3   1 <1>   0.0000 
 19 C       -2.7920    -8.1690     0.3170 C.3   1 <1>   0.3430 
 20 C       -3.7220    -8.1170     2.5820 C.3   1 <1>   0.2630 
 21 C       -4.2240    -6.8010    -1.3130 C.3   1 <1>  -0.1600 
 22 C       -5.8530    -5.2850    -1.6320 C.3   1 <1>   0.1200 
 23 C       -2.8350    -7.4000    -0.9900 C.3   1 <1>  -0.1600 
 24 O       -5.3480    -4.0810    -2.1500 O.3   1 <1>  -0.6800 
 25 H        1.1790    -0.5970    -1.7310 H     1 <1>   0.0800 
 26 H       -0.8350    -3.1770     1.2660 H     1 <1>   0.1500 
 27 H        2.7990    -3.1730    -1.5070 H     1 <1>   0.0800 
 28 H        3.0510    -1.9400    -2.7150 H     1 <1>   0.0800 
 29 H        1.5660    -2.8450    -2.7140 H     1 <1>   0.0800 
 30 H        3.2490    -1.4410     0.3230 H     1 <1>   0.0800 
 31 H        2.2790     0.0210     0.3770 H     1 <1>   0.0800 
 32 H        3.4710    -0.1930    -0.8770 H     1 <1>   0.0800 
 33 H       -3.9330    -3.1810    -1.4970 H     1 <1>   0.4570 
 34 H       -3.6340    -2.0270    -3.6320 H     1 <1>   0.4000 
 35 H       -2.0560    -1.4100    -3.9170 H     1 <1>   0.4000 
 36 H       -2.1400    -5.5860     0.9200 H     1 <1>   0.0800 
 37 H       -2.9510    -5.2330     2.4220 H     1 <1>   0.0800 
 38 H       -5.0100    -3.3670     2.1240 H     1 <1>   0.0800 
 39 H       -5.0530    -2.6050     0.5660 H     1 <1>   0.0800 
 40 H       -4.9050    -6.0890     1.8140 H     1 <1>   0.0800 
 41 H       -6.3050    -5.0940     1.3710 H     1 <1>   0.0800 
 42 H       -6.5680    -4.0730     0.1200 H     1 <1>   0.0800 
 43 H       -4.7530    -8.2100     0.8040 H     1 <1>   0.4500 
 44 H       -1.8490    -7.9940     0.8100 H     1 <1>   0.0800 
 45 H       -2.8870    -9.2270     0.1270 H     1 <1>   0.0800 
 46 H       -2.8480    -7.6400     2.9950 H     1 <1>   0.0800 
 47 H       -3.5920    -9.1860     2.6520 H     1 <1>   0.0800 
 48 H       -4.5800    -7.8410     3.1750 H     1 <1>   0.0800 
 49 H       -4.8800    -7.6360    -1.5080 H     1 <1>   0.0800 
 50 H       -3.9860    -6.3610    -2.2730 H     1 <1>   0.0800 
 51 H       -6.9040    -5.1570    -1.4250 H     1 <1>   0.0800 
 52 H       -5.9170    -5.9720    -2.4640 H     1 <1>   0.0800 
 53 H       -2.0920    -6.6230    -0.9810 H     1 <1>   0.0800 
 54 H       -2.5440    -8.0730    -1.7800 H     1 <1>   0.0800 
 55 H       -5.9220    -3.8140    -2.9070 H     1 <1>   0.4000 
@<TRIPOS>BOND
  1   1   2  1   
  2   1   3  1   
  3   2   4  ar  
  4   2   5  ar  
  5   3   6  1   
  6   3   7  1   
  7   3  25  1   
  8   4   8  ar  
  9   5   9  ar  
 10   5  26  1   
 11   6  27  1   
 12   6  28  1   
 13   6  29  1   
 14   7  30  1   
 15   7  31  1   
 16   7  32  1   
 17   8  10  ar  
 18   8  11  1   
 19   9  10  ar  
 20   9  12  1   
 21  10  33  1   
 22  11  34  1   
 23  11  35  1   
 24  12  13  1   
 25  12  14  1   
 26  13  15  1   
 27  13  36  1   
 28  13  37  1   
 29  14  16  1   
 30  14  38  1   
 31  14  39  1   
 32  15  17  1   
 33  15  18  1   
 34  15  40  1   
 35  16  18  1   
 36  16  41  1   
 37  16  42  1   
 38  17  19  1   
 39  17  20  1   
 40  17  43  1   
 41  18  21  1   
 42  18  22  1   
 43  19  23  1   
 44  19  44  1   
 45  19  45  1   
 46  20  46  1   
 47  20  47  1   
 48  20  48  1   
 49  21  23  1   
 50  21  49  1   
 51  21  50  1   
 52  22  24  1   
 53  22  51  1   
 54  22  52  1   
 55  23  53  1   
 56  23  54  1   
 57  24  55  1   
@<TRIPOS>SUBSTRUCTURE
  1 ****   9 GROUP 4 **** **** 0

# MOE 2024.06 (io_trps.svl 2023.06)
