@<TRIPOS>MOLECULE
NONAME
39 40 1 0 0 
SMALL
USER_CHARGES


@<TRIPOS>ATOM
  1 S        0.4650     0.2450    -1.3180 S.o2  1 <1>   1.3330 
  2 O        0.8190    -1.0140    -1.9360 O.2   1 <1>  -0.6500 
  3 O       -0.5030     1.1080    -1.9560 O.2   1 <1>  -0.6500 
  4 N       -0.1170    -0.0900     0.2440 N.am  1 <1>  -0.8490 
  5 C        1.9790     1.1630    -1.0230 C.3   1 <1>  -0.0550 
  6 C       -0.9570    -1.2910     0.2730 C.3   1 <1>   0.1160 
  7 C       -0.8420     1.0350     0.8450 C.3   1 <1>   0.1160 
  8 C        3.1200     0.3220    -0.4090 C.3   1 <1>  -0.0800 
  9 C        4.4600     1.0340    -0.3110 C.3   1 <1>   0.2200 
 10 C        2.8840    -0.1530     1.0300 C.3   1 <1>   0.1200 
 11 N        4.2890     2.4190     0.1860 N.am  1 <1>  -0.7300 
 12 C        5.1330     0.2070     0.7750 C.3   1 <1>   0.1200 
 13 O        4.1170    -0.0770     1.6880 O.3   1 <1>  -0.5600 
 14 C        4.3360     3.5510    -0.5680 C.2   1 <1>   0.7160 
 15 O        4.4190     3.4370    -1.7760 O.2   1 <1>  -0.5700 
 16 C        4.2650     4.8420     0.0770 C.2   1 <1>  -0.0860 
 17 C        4.1860     5.1560     1.4130 C.2   1 <1>  -0.3020 
 18 C        4.2650     6.0840    -0.5890 C.2   1 <1>  -0.1500 
 19 N        4.1410     6.4980     1.5790 N.pl3 1 <1>   0.0330 
 20 C        4.1900     7.0630     0.3460 C.2   1 <1>  -0.3020 
 21 H        2.3230     1.5510    -1.9620 H     1 <1>   0.0800 
 22 H        1.7660     2.0040    -0.3930 H     1 <1>   0.0800 
 23 H       -1.3010    -1.4830     1.2740 H     1 <1>   0.0800 
 24 H       -0.3900    -2.1460    -0.0570 H     1 <1>   0.0800 
 25 H       -1.8070    -1.1690    -0.3780 H     1 <1>   0.0800 
 26 H       -1.1090     0.8010     1.8620 H     1 <1>   0.0800 
 27 H       -1.7400     1.2460     0.2870 H     1 <1>   0.0800 
 28 H       -0.2250     1.9170     0.8510 H     1 <1>   0.0800 
 29 H        3.2590    -0.5540    -1.0200 H     1 <1>   0.0800 
 30 H        5.0100     1.0230    -1.2380 H     1 <1>   0.0800 
 31 H        2.5290    -1.1690     1.0630 H     1 <1>   0.0800 
 32 H        2.1980     0.4880     1.5560 H     1 <1>   0.0800 
 33 H        4.1890     2.5020     1.1980 H     1 <1>   0.3700 
 34 H        5.9320     0.7310     1.2680 H     1 <1>   0.0800 
 35 H        5.4930    -0.7270     0.3780 H     1 <1>   0.0800 
 36 H        4.1640     4.4800     2.2490 H     1 <1>   0.1500 
 37 H        4.3180     6.1920    -1.6600 H     1 <1>   0.1500 
 38 H        4.0850     7.0060     2.4710 H     1 <1>   0.2700 
 39 H        4.1690     8.1290     0.1990 H     1 <1>   0.1500 
@<TRIPOS>BOND
  1   1   2  2   
  2   1   3  2   
  3   1   4  am  
  4   1   5  1   
  5   4   6  1   
  6   4   7  1   
  7   5   8  1   
  8   5  21  1   
  9   5  22  1   
 10   6  23  1   
 11   6  24  1   
 12   6  25  1   
 13   7  26  1   
 14   7  27  1   
 15   7  28  1   
 16   8   9  1   
 17   8  10  1   
 18   8  29  1   
 19   9  11  1   
 20   9  12  1   
 21   9  30  1   
 22  10  13  1   
 23  10  31  1   
 24  10  32  1   
 25  11  14  am  
 26  11  33  1   
 27  12  13  1   
 28  12  34  1   
 29  12  35  1   
 30  14  15  2   
 31  14  16  1   
 32  16  17  2   
 33  16  18  1   
 34  17  19  1   
 35  17  36  1   
 36  18  20  2   
 37  18  37  1   
 38  19  20  1   
 39  19  38  1   
 40  20  39  1   
@<TRIPOS>SUBSTRUCTURE
  1 ****   5 GROUP 4 **** **** 0

# MOE 2024.06 (io_trps.svl 2023.06)
