@<TRIPOS>MOLECULE
NONAME
55 57 1 0 0 
SMALL
USER_CHARGES


@<TRIPOS>ATOM
  1 O        0.0730     0.7920    -2.0080 O.2   1 <1>  -0.5700 
  2 C        1.1980     1.1270    -1.6880 C.2   1 <1>   0.5440 
  3 N        1.3040     2.3370    -1.0620 N.am  1 <1>  -0.5470 
  4 C        2.3420     0.2980    -1.9850 C.ar  1 <1>   0.0860 
  5 C        2.3690     2.9570    -0.3830 C.ar  1 <1>   0.1170 
  6 C        2.3310    -1.0830    -1.7050 C.ar  1 <1>   0.4100 
  7 C        3.4930     0.8350    -2.5490 C.ar  1 <1>  -0.1500 
  8 C        2.5160     4.3470    -0.4500 C.ar  1 <1>   0.0820 
  9 C        3.2710     2.2190     0.3730 C.ar  1 <1>  -0.1500 
 10 N        3.3670    -1.8890    -1.9270 N.ar  1 <1>  -0.6200 
 11 N        1.2120    -1.6730    -1.1600 N.pl3 1 <1>  -0.8690 
 12 C        4.5580    -0.0030    -2.7840 C.ar  1 <1>  -0.1500 
 13 O        1.5900     5.0340    -1.1830 O.3   1 <1>  -0.3620 
 14 C        3.5690     4.9720     0.2110 C.ar  1 <1>  -0.1500 
 15 C        4.3170     2.8430     1.0280 C.ar  1 <1>  -0.1500 
 16 C        4.4430    -1.3420    -2.4550 C.ar  1 <1>   0.1600 
 17 C        0.9620    -3.1530    -1.0910 C.3   1 <1>   0.2090 
 18 C        1.6600     6.4350    -1.3420 C.3   1 <1>   0.0400 
 19 C        4.4750     4.2160     0.9510 C.ar  1 <1>   0.0830 
 20 C        0.9330    -3.6890     0.3630 C.3   1 <1>   0.2800 
 21 O        5.5310     4.7420     1.6250 O.3   1 <1>  -0.3630 
 22 O        0.1790    -2.8060     1.1090 O.3   1 <1>  -0.6800 
 23 C        2.3390    -3.7130     1.0110 C.3   1 <1>  -0.1600 
 24 C        0.2330    -5.0650     0.4270 C.3   1 <1>  -0.1600 
 25 C        5.7600     6.1340     1.6610 C.3   1 <1>   0.0400 
 26 C        2.9910    -5.1010     0.9320 C.3   1 <1>  -0.1600 
 27 C        0.6430    -5.8630     1.6720 C.3   1 <1>  -0.1600 
 28 C        2.1540    -6.1620     1.6730 C.3   1 <1>  -0.1600 
 29 H        0.4750     2.9230    -1.1750 H     1 <1>   0.3700 
 30 H        3.5470     1.8820    -2.7910 H     1 <1>   0.1500 
 31 H        3.1590     1.1540     0.4610 H     1 <1>   0.1500 
 32 H        0.3490    -1.1170    -1.2860 H     1 <1>   0.4000 
 33 H        5.4690     0.3710    -3.2150 H     1 <1>   0.1500 
 34 H        3.6870     6.0330     0.1560 H     1 <1>   0.1500 
 35 H        5.0150     2.2680     1.6090 H     1 <1>   0.1500 
 36 H        5.2820    -1.9920    -2.6380 H     1 <1>   0.1500 
 37 H        1.7050    -3.6940    -1.6500 H     1 <1>   0.0800 
 38 H        0.0120    -3.3570    -1.5530 H     1 <1>   0.0800 
 39 H        0.8380     6.7420    -1.9630 H     1 <1>   0.0800 
 40 H        2.5910     6.6860    -1.8190 H     1 <1>   0.0800 
 41 H        1.5810     6.9010    -0.3760 H     1 <1>   0.0800 
 42 H        0.4910    -1.9120     0.8550 H     1 <1>   0.4000 
 43 H        2.2640    -3.4480     2.0520 H     1 <1>   0.0800 
 44 H        2.9790    -2.9910     0.5390 H     1 <1>   0.0800 
 45 H        0.5060    -5.6430    -0.4380 H     1 <1>   0.0800 
 46 H       -0.8350    -4.9320     0.4020 H     1 <1>   0.0800 
 47 H        6.6320     6.3120     2.2640 H     1 <1>   0.0800 
 48 H        4.9070     6.6170     2.1030 H     1 <1>   0.0800 
 49 H        5.9310     6.4870     0.6600 H     1 <1>   0.0800 
 50 H        3.9820    -5.0660     1.3500 H     1 <1>   0.0800 
 51 H        3.0870    -5.3790    -0.1040 H     1 <1>   0.0800 
 52 H        0.0890    -6.7840     1.7240 H     1 <1>   0.0800 
 53 H        0.3940    -5.2820     2.5450 H     1 <1>   0.0800 
 54 H        2.4860    -6.2290     2.6950 H     1 <1>   0.0800 
 55 H        2.3320    -7.1200     1.2140 H     1 <1>   0.0800 
@<TRIPOS>BOND
  1   1   2  2   
  2   2   3  am  
  3   2   4  1   
  4   3   5  1   
  5   3  29  1   
  6   4   6  ar  
  7   4   7  ar  
  8   5   8  ar  
  9   5   9  ar  
 10   6  10  ar  
 11   6  11  1   
 12   7  12  ar  
 13   7  30  1   
 14   8  13  1   
 15   8  14  ar  
 16   9  15  ar  
 17   9  31  1   
 18  10  16  ar  
 19  11  17  1   
 20  11  32  1   
 21  12  16  ar  
 22  12  33  1   
 23  13  18  1   
 24  14  19  ar  
 25  14  34  1   
 26  15  19  ar  
 27  15  35  1   
 28  16  36  1   
 29  17  20  1   
 30  17  37  1   
 31  17  38  1   
 32  18  39  1   
 33  18  40  1   
 34  18  41  1   
 35  19  21  1   
 36  20  22  1   
 37  20  23  1   
 38  20  24  1   
 39  21  25  1   
 40  22  42  1   
 41  23  26  1   
 42  23  43  1   
 43  23  44  1   
 44  24  27  1   
 45  24  45  1   
 46  24  46  1   
 47  25  47  1   
 48  25  48  1   
 49  25  49  1   
 50  26  28  1   
 51  26  50  1   
 52  26  51  1   
 53  27  28  1   
 54  27  52  1   
 55  27  53  1   
 56  28  54  1   
 57  28  55  1   
@<TRIPOS>SUBSTRUCTURE
  1 ****   4 GROUP 4 **** **** 0

# MOE 2024.06 (io_trps.svl 2023.06)
