@<TRIPOS>MOLECULE
NONAME
51 53 1 0 0 
SMALL
USER_CHARGES


@<TRIPOS>ATOM
  1 O        0.5470     0.5380    -1.4540 O.3   1 <1>  -0.5600 
  2 C        1.7390    -0.2050    -1.4240 C.3   1 <1>   0.2000 
  3 C        0.7580     1.9170    -1.5440 C.3   1 <1>   0.1200 
  4 C        2.5870     0.2190    -0.1930 C.3   1 <1>   0.3340 
  5 C        1.3460    -1.6920    -1.4190 C.3   1 <1>   0.1200 
  6 C        1.5600     2.4140    -0.3300 C.3   1 <1>   0.1100 
  7 N        2.8410     1.6850    -0.1940 N.3   1 <1>  -0.8100 
  8 C        3.9070    -0.5510    -0.1400 C.ar  1 <1>  -0.1440 
  9 O        2.4250    -2.5050    -1.7560 O.3   1 <1>  -0.6800 
 10 C        3.5980     2.1090     1.0000 C.3   1 <1>   0.2530 
 11 C        4.1280    -1.4930     0.8520 C.ar  1 <1>  -0.1500 
 12 C        4.8980    -0.3240    -1.0790 C.ar  1 <1>  -0.1500 
 13 C        3.8880     3.6060     0.9640 C.ar  1 <1>  -0.1440 
 14 C        5.3130    -2.2060     0.9160 C.ar  1 <1>   0.0820 
 15 C        6.0940    -1.0150    -1.0230 C.ar  1 <1>  -0.1500 
 16 C        4.7690     4.1550     0.0280 C.ar  1 <1>   0.0730 
 17 C        3.2530     4.4290     1.8850 C.ar  1 <1>  -0.1500 
 18 O        5.3790    -3.1120     1.9320 O.3   1 <1>  -0.3620 
 19 C        6.3270    -1.9570    -0.0240 C.ar  1 <1>   0.0820 
 20 C        5.4690     3.3630    -0.9480 C.1   1 <1>   0.4840 
 21 C        4.9820     5.5300     0.0450 C.ar  1 <1>  -0.1500 
 22 C        3.4790     5.7920     1.8850 C.ar  1 <1>  -0.1500 
 23 C        6.0720    -4.3310     1.7700 C.3   1 <1>   0.0400 
 24 O        7.5180    -2.6170     0.0640 O.3   1 <1>  -0.3630 
 25 N        6.0670     2.7850    -1.7310 N.1   1 <1>  -0.5570 
 26 C        4.3450     6.3450     0.9620 C.ar  1 <1>  -0.1500 
 27 C        8.6390    -2.2280    -0.6990 C.3   1 <1>   0.0400 
 28 H        2.2750     0.0060    -2.3330 H     1 <1>   0.0800 
 29 H        1.2850     2.1300    -2.4580 H     1 <1>   0.0800 
 30 H       -0.2040     2.3960    -1.5780 H     1 <1>   0.0800 
 31 H        2.0170    -0.0270     0.6860 H     1 <1>   0.0800 
 32 H        0.5770    -1.8680    -2.1510 H     1 <1>   0.0800 
 33 H        0.9900    -1.9880    -0.4480 H     1 <1>   0.0800 
 34 H        0.9650     2.2890     0.5590 H     1 <1>   0.0800 
 35 H        1.7500     3.4650    -0.4610 H     1 <1>   0.0800 
 36 H        3.2110    -2.2920    -1.2040 H     1 <1>   0.4000 
 37 H        3.0410     1.8590     1.8880 H     1 <1>   0.0800 
 38 H        4.5380     1.5850     1.0480 H     1 <1>   0.0800 
 39 H        3.3760    -1.6930     1.5950 H     1 <1>   0.1500 
 40 H        4.7430     0.4050    -1.8570 H     1 <1>   0.1500 
 41 H        6.8300    -0.7910    -1.7710 H     1 <1>   0.1500 
 42 H        2.5750     4.0120     2.6090 H     1 <1>   0.1500 
 43 H        5.6570     5.9710    -0.6700 H     1 <1>   0.1500 
 44 H        2.9820     6.4230     2.6030 H     1 <1>   0.1500 
 45 H        5.6950    -5.0290     2.4950 H     1 <1>   0.0800 
 46 H        7.1190    -4.1590     1.9410 H     1 <1>   0.0800 
 47 H        5.9030    -4.7030     0.7750 H     1 <1>   0.0800 
 48 H        4.5240     7.4070     0.9590 H     1 <1>   0.1500 
 49 H        9.4800    -2.8200    -0.3850 H     1 <1>   0.0800 
 50 H        8.8390    -1.1860    -0.5210 H     1 <1>   0.0800 
 51 H        8.4340    -2.4090    -1.7390 H     1 <1>   0.0800 
@<TRIPOS>BOND
  1   1   2  1   
  2   1   3  1   
  3   2   4  1   
  4   2   5  1   
  5   2  28  1   
  6   3   6  1   
  7   3  29  1   
  8   3  30  1   
  9   4   7  1   
 10   4   8  1   
 11   4  31  1   
 12   5   9  1   
 13   5  32  1   
 14   5  33  1   
 15   6   7  1   
 16   6  34  1   
 17   6  35  1   
 18   7  10  1   
 19   8  11  ar  
 20   8  12  ar  
 21   9  36  1   
 22  10  13  1   
 23  10  37  1   
 24  10  38  1   
 25  11  14  ar  
 26  11  39  1   
 27  12  15  ar  
 28  12  40  1   
 29  13  16  ar  
 30  13  17  ar  
 31  14  18  1   
 32  14  19  ar  
 33  15  19  ar  
 34  15  41  1   
 35  16  20  1   
 36  16  21  ar  
 37  17  22  ar  
 38  17  42  1   
 39  18  23  1   
 40  19  24  1   
 41  20  25  3   
 42  21  26  ar  
 43  21  43  1   
 44  22  26  ar  
 45  22  44  1   
 46  23  45  1   
 47  23  46  1   
 48  23  47  1   
 49  24  27  1   
 50  26  48  1   
 51  27  49  1   
 52  27  50  1   
 53  27  51  1   
@<TRIPOS>SUBSTRUCTURE
  1 ****   8 GROUP 4 **** **** 0

# MOE 2024.06 (io_trps.svl 2023.06)
