@<TRIPOS>MOLECULE
NONAME
50 54 1 0 0 
SMALL
USER_CHARGES


@<TRIPOS>ATOM
  1 O        0.1210     1.1790    -2.9690 O.2   1 <1>  -0.5700 
  2 C        0.0010     1.6500    -1.8540 C.2   1 <1>   0.7160 
  3 N       -1.1130     1.3240    -1.1080 N.am  1 <1>  -0.6600 
  4 C        1.0110     2.5530    -1.3840 C.2   1 <1>  -0.0860 
  5 C       -1.6150     2.1360     0.0490 C.3   1 <1>   0.1400 
  6 C       -2.0260     0.2110    -1.4980 C.3   1 <1>   0.1400 
  7 C        1.6090     2.7210    -0.1720 C.2   1 <1>   0.0870 
  8 C        1.6230     3.5270    -2.1700 C.2   1 <1>   0.1390 
  9 C       -3.0070     2.7250    -0.2450 C.3   1 <1>   0.1440 
 10 C       -3.4210     0.7630    -1.8170 C.3   1 <1>  -0.1600 
 11 O        2.4370     3.7290    -0.2940 O.3   1 <1>  -0.0190 
 12 C        1.4780     2.0260     1.0830 C.ar  1 <1>   0.0530 
 13 N        2.4600     4.2250    -1.4940 N.2   1 <1>  -0.4100 
 14 C       -3.4680     3.4800     0.9880 C.ar  1 <1>   0.1660 
 15 C       -3.9810     1.5980    -0.6520 C.3   1 <1>  -0.1600 
 16 C       -2.9350     3.8490    -1.3140 C.3   1 <1>  -0.1600 
 17 C        1.2500     0.6510     1.1330 C.ar  1 <1>  -0.1500 
 18 C        1.5600     2.7120     2.2940 C.ar  1 <1>  -0.1500 
 19 N       -3.8860     2.9320     2.1070 N.ar  1 <1>  -0.6200 
 20 C       -3.3790     4.8290     0.8120 C.ar  1 <1>  -0.1430 
 21 C       -2.8520     5.1850    -0.5550 C.3   1 <1>  -0.0170 
 22 C        1.0950    -0.0080     2.3380 C.ar  1 <1>  -0.1500 
 23 C        1.4060     2.0580     3.5020 C.ar  1 <1>  -0.1500 
 24 C       -4.2240     3.8000     3.0490 C.ar  1 <1>   0.4770 
 25 C       -3.7560     5.6360     1.8560 C.ar  1 <1>   0.1600 
 26 C        1.1710     0.6950     3.5270 C.ar  1 <1>  -0.1500 
 27 N       -4.1860     5.1250     2.9910 N.ar  1 <1>  -0.6200 
 28 C       -4.7190     3.2090     4.3470 C.3   1 <1>  -0.0970 
 29 H       -0.9470     2.9450     0.2780 H     1 <1>   0.0800 
 30 H       -1.6730     1.5040     0.9190 H     1 <1>   0.0800 
 31 H       -2.0910    -0.4860    -0.6800 H     1 <1>   0.0800 
 32 H       -1.6420    -0.3200    -2.3530 H     1 <1>   0.0800 
 33 H        1.4140     3.6760    -3.2160 H     1 <1>   0.1500 
 34 H       -4.0850    -0.0580    -2.0210 H     1 <1>   0.0800 
 35 H       -3.3620     1.3600    -2.7110 H     1 <1>   0.0800 
 36 H       -4.9380     2.0130    -0.9170 H     1 <1>   0.0800 
 37 H       -4.1350     0.9510     0.1940 H     1 <1>   0.0800 
 38 H       -3.8440     3.8530    -1.8890 H     1 <1>   0.0800 
 39 H       -2.1110     3.7260    -1.9940 H     1 <1>   0.0800 
 40 H        1.1950     0.0890     0.2180 H     1 <1>   0.1500 
 41 H        1.7420     3.7730     2.2870 H     1 <1>   0.1500 
 42 H       -3.4470     5.9470    -1.0270 H     1 <1>   0.0800 
 43 H       -1.8300     5.5150    -0.4740 H     1 <1>   0.0800 
 44 H        0.9180    -1.0700     2.3540 H     1 <1>   0.1500 
 45 H        1.4690     2.6090     4.4250 H     1 <1>   0.1500 
 46 H       -3.7050     6.7080     1.7650 H     1 <1>   0.1500 
 47 H        1.0500     0.1840     4.4670 H     1 <1>   0.1500 
 48 H       -4.2580     2.2540     4.5180 H     1 <1>   0.0800 
 49 H       -5.7840     3.0840     4.2940 H     1 <1>   0.0800 
 50 H       -4.4810     3.8630     5.1650 H     1 <1>   0.0800 
@<TRIPOS>BOND
  1   1   2  2   
  2   2   3  am  
  3   2   4  1   
  4   3   5  1   
  5   3   6  1   
  6   4   7  2   
  7   4   8  1   
  8   5   9  1   
  9   5  29  1   
 10   5  30  1   
 11   6  10  1   
 12   6  31  1   
 13   6  32  1   
 14   7  11  1   
 15   7  12  1   
 16   8  13  2   
 17   8  33  1   
 18   9  14  1   
 19   9  15  1   
 20   9  16  1   
 21  10  15  1   
 22  10  34  1   
 23  10  35  1   
 24  11  13  1   
 25  12  17  ar  
 26  12  18  ar  
 27  14  19  ar  
 28  14  20  ar  
 29  15  36  1   
 30  15  37  1   
 31  16  21  1   
 32  16  38  1   
 33  16  39  1   
 34  17  22  ar  
 35  17  40  1   
 36  18  23  ar  
 37  18  41  1   
 38  19  24  ar  
 39  20  21  1   
 40  20  25  ar  
 41  21  42  1   
 42  21  43  1   
 43  22  26  ar  
 44  22  44  1   
 45  23  26  ar  
 46  23  45  1   
 47  24  27  ar  
 48  24  28  1   
 49  25  27  ar  
 50  25  46  1   
 51  26  47  1   
 52  28  48  1   
 53  28  49  1   
 54  28  50  1   
@<TRIPOS>SUBSTRUCTURE
  1 ****   5 GROUP 4 **** **** 0

# MOE 2024.06 (io_trps.svl 2023.06)
