@<TRIPOS>MOLECULE
NONAME
46 49 1 0 0 
SMALL
USER_CHARGES


@<TRIPOS>ATOM
  1 O       -3.3080     1.1620    -1.5990 O.2   1 <1>  -0.5700 
  2 C       -2.5500     1.0540    -0.6630 C.2   1 <1>   0.6300 
  3 N       -2.1450    -0.1670    -0.2310 N.am  1 <1>  -0.7300 
  4 C       -2.0830     2.2910     0.0880 C.3   1 <1>   0.0000 
  5 C       -2.5260    -1.4430    -0.8710 C.3   1 <1>   0.2200 
  6 C       -0.5660     2.3270     0.1390 C.2   1 <1>   0.6300 
  7 C       -2.9100     2.7940     1.2460 C.3   1 <1>  -0.2000 
  8 C       -2.8400     3.5900    -0.0190 C.3   1 <1>  -0.2000 
  9 C       -3.7700    -1.9850    -0.1890 C.3   1 <1>  -0.0800 
 10 C       -1.4970    -2.5170    -0.5430 C.3   1 <1>   0.1200 
 11 O        0.0750     2.5650    -0.8500 O.2   1 <1>  -0.5700 
 12 N        0.0690     2.0910     1.3040 N.am  1 <1>  -0.8000 
 13 C       -3.1900    -2.7690     0.9950 C.3   1 <1>   0.1200 
 14 C       -4.5900    -2.8760    -1.1410 C.3   1 <1>  -0.0170 
 15 O       -1.8340    -2.9870     0.7260 O.3   1 <1>  -0.5600 
 16 C       -5.9130    -3.2970    -0.5090 C.ar  1 <1>  -0.1440 
 17 C       -7.0060    -2.4060    -0.3850 C.ar  1 <1>   0.0000 
 18 C       -6.0770    -4.5670    -0.0380 C.ar  1 <1>  -0.1500 
 19 C       -8.1820    -2.8920     0.2370 C.ar  1 <1>   0.3100 
 20 C       -7.0030    -1.0660    -0.8400 C.ar  1 <1>  -0.1500 
 21 C       -7.2870    -4.9480     0.5530 C.ar  1 <1>   0.1600 
 22 N       -8.3060    -4.1620     0.6980 N.ar  1 <1>  -0.6200 
 23 C       -9.2790    -2.0290     0.3860 C.ar  1 <1>  -0.1500 
 24 C       -8.0910    -0.2510    -0.6800 C.ar  1 <1>  -0.1500 
 25 C       -9.2440    -0.7350    -0.0580 C.ar  1 <1>  -0.1500 
 26 H       -1.5450    -0.2650     0.5900 H     1 <1>   0.3700 
 27 H       -2.6470    -1.3020    -1.9330 H     1 <1>   0.0800 
 28 H       -3.8350     2.2960     1.4780 H     1 <1>   0.1000 
 29 H       -2.4320     3.2050     2.1180 H     1 <1>   0.1000 
 30 H       -2.2720     4.5040    -0.0400 H     1 <1>   0.1000 
 31 H       -3.6990     3.6270    -0.6670 H     1 <1>   0.1000 
 32 H       -4.3930    -1.1830     0.1640 H     1 <1>   0.0800 
 33 H       -0.4890    -2.1420    -0.5380 H     1 <1>   0.0800 
 34 H       -1.5760    -3.3420    -1.2300 H     1 <1>   0.0800 
 35 H        1.0880     2.1530     1.3290 H     1 <1>   0.3700 
 36 H       -0.4050     1.9640     2.1970 H     1 <1>   0.3700 
 37 H       -3.6720    -3.7200     1.1420 H     1 <1>   0.0800 
 38 H       -3.2530    -2.1930     1.9020 H     1 <1>   0.0800 
 39 H       -4.0190    -3.7490    -1.4050 H     1 <1>   0.0800 
 40 H       -4.7930    -2.3490    -2.0570 H     1 <1>   0.0800 
 41 H       -5.2940    -5.3000    -0.1050 H     1 <1>   0.1500 
 42 H       -6.1310    -0.6680    -1.3250 H     1 <1>   0.1500 
 43 H       -7.3740    -5.9600     0.9120 H     1 <1>   0.1500 
 44 H      -10.1560    -2.4240     0.8640 H     1 <1>   0.1500 
 45 H       -8.0710     0.7680    -1.0300 H     1 <1>   0.1500 
 46 H      -10.0920    -0.0840     0.0630 H     1 <1>   0.1500 
@<TRIPOS>BOND
  1   1   2  2   
  2   2   3  am  
  3   2   4  1   
  4   3   5  1   
  5   3  26  1   
  6   4   6  1   
  7   4   7  1   
  8   4   8  1   
  9   5   9  1   
 10   5  10  1   
 11   5  27  1   
 12   6  11  2   
 13   6  12  am  
 14   7   8  1   
 15   7  28  1   
 16   7  29  1   
 17   8  30  1   
 18   8  31  1   
 19   9  13  1   
 20   9  14  1   
 21   9  32  1   
 22  10  15  1   
 23  10  33  1   
 24  10  34  1   
 25  12  35  1   
 26  12  36  1   
 27  13  15  1   
 28  13  37  1   
 29  13  38  1   
 30  14  16  1   
 31  14  39  1   
 32  14  40  1   
 33  16  17  ar  
 34  16  18  ar  
 35  17  19  ar  
 36  17  20  ar  
 37  18  21  ar  
 38  18  41  1   
 39  19  22  ar  
 40  19  23  ar  
 41  20  24  ar  
 42  20  42  1   
 43  21  22  ar  
 44  21  43  1   
 45  23  25  ar  
 46  23  44  1   
 47  24  25  ar  
 48  24  45  1   
 49  25  46  1   
@<TRIPOS>SUBSTRUCTURE
  1 ****   9 GROUP 4 **** **** 0

# MOE 2024.06 (io_trps.svl 2023.06)
