@<TRIPOS>MOLECULE
NONAME
56 60 1 0 0 
SMALL
USER_CHARGES


@<TRIPOS>ATOM
  1 O       -0.4960     0.1260     2.1950 O.2   1 <1>  -0.5700 
  2 C       -1.2200     0.7780     1.4830 C.2   1 <1>   0.5690 
  3 N       -2.0740     0.1700     0.6010 N.am  1 <1>  -0.6600 
  4 C       -1.1770     2.2950     1.6280 C.3   1 <1>  -0.0990 
  5 C       -3.1470     0.8110    -0.2010 C.3   1 <1>   0.1400 
  6 C       -2.1100    -1.3030     0.4310 C.3   1 <1>   0.1400 
  7 C       -0.0670     3.0110     0.8210 C.3   1 <1>   0.0000 
  8 C       -3.8510    -0.3400    -0.9200 C.3   1 <1>   0.2000 
  9 C       -3.4980    -1.6020    -0.1370 C.3   1 <1>  -0.0800 
 10 C        1.3420     2.5310     1.2470 C.3   1 <1>  -0.1600 
 11 C       -0.2230     2.7790    -0.7020 C.3   1 <1>  -0.1600 
 12 C       -0.1610     4.5340     1.0860 C.3   1 <1>  -0.1600 
 13 O       -5.2250    -0.1640    -0.9390 O.3   1 <1>  -0.6800 
 14 C       -3.5680    -2.8720    -1.0030 C.3   1 <1>  -0.0170 
 15 C        2.4160     3.2980     0.4620 C.3   1 <1>   0.2800 
 16 C        0.8660     3.5320    -1.4910 C.3   1 <1>  -0.0800 
 17 C        0.9240     5.3030     0.3080 C.3   1 <1>  -0.0800 
 18 C       -3.2460    -4.1230    -0.2010 C.ar  1 <1>   0.1670 
 19 O        3.6560     2.8590     0.8580 O.3   1 <1>  -0.6800 
 20 C        2.2530     3.0360    -1.0410 C.3   1 <1>  -0.1600 
 21 C        2.3110     4.8010     0.7510 C.3   1 <1>  -0.1600 
 22 C        0.7470     5.0400    -1.2000 C.3   1 <1>  -0.1600 
 23 N       -1.9640    -4.4090    -0.0440 N.ar  1 <1>  -0.6200 
 24 C       -4.2780    -4.8980     0.3250 C.ar  1 <1>   0.1600 
 25 C       -1.7840    -5.5060     0.6730 C.ar  1 <1>   0.1600 
 26 N       -4.1010    -5.9970     1.0410 N.ar  1 <1>  -0.6200 
 27 C       -2.8170    -6.2740     1.1970 C.ar  1 <1>   0.1600 
 28 H       -2.1320     2.7070     1.3680 H     1 <1>   0.0800 
 29 H       -1.0280     2.5040     2.6710 H     1 <1>   0.0800 
 30 H       -3.8260     1.3260     0.4560 H     1 <1>   0.0800 
 31 H       -2.7280     1.4930    -0.9160 H     1 <1>   0.0800 
 32 H       -1.3380    -1.5940    -0.2610 H     1 <1>   0.0800 
 33 H       -1.9500    -1.8090     1.3690 H     1 <1>   0.0800 
 34 H       -3.5020    -0.3990    -1.9380 H     1 <1>   0.0800 
 35 H       -4.1660    -1.7040     0.7010 H     1 <1>   0.0800 
 36 H        1.4530     1.4800     1.0500 H     1 <1>   0.0800 
 37 H        1.4820     2.6910     2.3010 H     1 <1>   0.0800 
 38 H       -0.1540     1.7280    -0.9240 H     1 <1>   0.0800 
 39 H       -1.1880     3.1250    -1.0260 H     1 <1>   0.0800 
 40 H       -1.1300     4.8990     0.7940 H     1 <1>   0.0800 
 41 H       -0.0460     4.7280     2.1390 H     1 <1>   0.0800 
 42 H       -5.5770    -0.1280    -0.0280 H     1 <1>   0.4000 
 43 H       -2.8770    -2.7970    -1.8240 H     1 <1>   0.0800 
 44 H       -4.5550    -2.9600    -1.4220 H     1 <1>   0.0800 
 45 H        0.7400     3.3530    -2.5460 H     1 <1>   0.0800 
 46 H        0.8380     6.3580     0.5070 H     1 <1>   0.0800 
 47 H        4.3410     3.3320     0.3540 H     1 <1>   0.4000 
 48 H        3.0160     3.5520    -1.5940 H     1 <1>   0.0800 
 49 H        2.3410     1.9810    -1.2370 H     1 <1>   0.0800 
 50 H        2.4400     4.9780     1.8050 H     1 <1>   0.0800 
 51 H        3.0750     5.3370     0.2170 H     1 <1>   0.0800 
 52 H       -0.2160     5.3980    -1.5210 H     1 <1>   0.0800 
 53 H        1.4950     5.5790    -1.7550 H     1 <1>   0.0800 
 54 H       -5.2950    -4.5970     0.1490 H     1 <1>   0.1500 
 55 H       -0.7700    -5.8140     0.8540 H     1 <1>   0.1500 
 56 H       -2.5700    -7.1510     1.7680 H     1 <1>   0.1500 
@<TRIPOS>BOND
  1   1   2  2   
  2   2   3  am  
  3   2   4  1   
  4   3   5  1   
  5   3   6  1   
  6   4   7  1   
  7   4  28  1   
  8   4  29  1   
  9   5   8  1   
 10   5  30  1   
 11   5  31  1   
 12   6   9  1   
 13   6  32  1   
 14   6  33  1   
 15   7  10  1   
 16   7  11  1   
 17   7  12  1   
 18   8   9  1   
 19   8  13  1   
 20   8  34  1   
 21   9  14  1   
 22   9  35  1   
 23  10  15  1   
 24  10  36  1   
 25  10  37  1   
 26  11  16  1   
 27  11  38  1   
 28  11  39  1   
 29  12  17  1   
 30  12  40  1   
 31  12  41  1   
 32  13  42  1   
 33  14  18  1   
 34  14  43  1   
 35  14  44  1   
 36  15  19  1   
 37  15  20  1   
 38  15  21  1   
 39  16  20  1   
 40  16  22  1   
 41  16  45  1   
 42  17  21  1   
 43  17  22  1   
 44  17  46  1   
 45  18  23  ar  
 46  18  24  ar  
 47  19  47  1   
 48  20  48  1   
 49  20  49  1   
 50  21  50  1   
 51  21  51  1   
 52  22  52  1   
 53  22  53  1   
 54  23  25  ar  
 55  24  26  ar  
 56  24  54  1   
 57  25  27  ar  
 58  25  55  1   
 59  26  27  ar  
 60  27  56  1   
@<TRIPOS>SUBSTRUCTURE
  1 ****   3 GROUP 4 **** **** 0

# MOE 2024.06 (io_trps.svl 2023.06)
