@<TRIPOS>MOLECULE
NONAME
39 41 1 0 0 
SMALL
USER_CHARGES


@<TRIPOS>ATOM
  1 CL      -2.5590     1.4540     0.3820 Cl    1 <1>  -0.1770 
  2 C       -1.2960     2.5690    -0.0640 C.ar  1 <1>   0.1770 
  3 C       -1.0580     3.6960     0.7030 C.ar  1 <1>   0.1600 
  4 C       -0.5320     2.3280    -1.1820 C.ar  1 <1>  -0.1500 
  5 N       -0.1200     4.5930     0.4390 N.ar  1 <1>  -0.6200 
  6 C        0.4440     3.2590    -1.4670 C.ar  1 <1>  -0.1500 
  7 C        0.6380     4.3840    -0.6560 C.ar  1 <1>   0.3960 
  8 C        1.6880     5.3490    -1.0040 C.2   1 <1>   0.5440 
  9 O        2.6280     5.0420    -1.7200 O.2   1 <1>  -0.5700 
 10 N        1.7260     6.6340    -0.5110 N.am  1 <1>  -0.6600 
 11 C        2.1710     6.8190     0.9150 C.3   1 <1>   0.2200 
 12 C        1.8840     7.7690    -1.4730 C.3   1 <1>   0.1400 
 13 C        1.7030     8.1490     1.5250 C.3   1 <1>   0.1200 
 14 C        3.7100     6.6660     1.0300 C.3   1 <1>   0.3430 
 15 C        2.9800     8.7870    -1.1040 C.3   1 <1>  -0.0800 
 16 O        2.6240     9.1650     1.2570 O.3   1 <1>  -0.5600 
 17 N        4.4100     6.8110    -0.2960 N.4   1 <1>  -0.9590 
 18 C        2.5260     9.7510     0.0030 C.3   1 <1>   0.1200 
 19 C        4.3870     8.2060    -0.8400 C.3   1 <1>   0.3430 
 20 C        5.7900     6.2540    -0.2580 C.3   1 <1>   0.2630 
 21 H       -1.6740     3.8550     1.5720 H     1 <1>   0.1500 
 22 H       -0.6980     1.4570    -1.7930 H     1 <1>   0.1500 
 23 H        1.0710     3.1200    -2.3310 H     1 <1>   0.1500 
 24 H        1.7210     6.0440     1.5100 H     1 <1>   0.0800 
 25 H        2.0990     7.3720    -2.4520 H     1 <1>   0.0800 
 26 H        0.9380     8.2790    -1.5490 H     1 <1>   0.0800 
 27 H        1.6650     8.0500     2.5960 H     1 <1>   0.0800 
 28 H        0.7220     8.4280     1.1790 H     1 <1>   0.0800 
 29 H        3.9110     5.6850     1.4260 H     1 <1>   0.0800 
 30 H        4.0940     7.3840     1.7360 H     1 <1>   0.0800 
 31 H        3.0860     9.4160    -1.9700 H     1 <1>   0.0800 
 32 H        3.8360     6.2320    -0.9510 H     1 <1>   0.4500 
 33 H        1.5130    10.0880    -0.1490 H     1 <1>   0.0800 
 34 H        3.1640    10.6180     0.0160 H     1 <1>   0.0800 
 35 H        4.9130     8.8630    -0.1670 H     1 <1>   0.0800 
 36 H        4.9220     8.2070    -1.7760 H     1 <1>   0.0800 
 37 H        6.4030     6.8160     0.4270 H     1 <1>   0.0800 
 38 H        6.2350     6.2950    -1.2380 H     1 <1>   0.0800 
 39 H        5.7660     5.2240     0.0610 H     1 <1>   0.0800 
@<TRIPOS>BOND
  1   1   2  1   
  2   2   3  ar  
  3   2   4  ar  
  4   3   5  ar  
  5   3  21  1   
  6   4   6  ar  
  7   4  22  1   
  8   5   7  ar  
  9   6   7  ar  
 10   6  23  1   
 11   7   8  1   
 12   8   9  2   
 13   8  10  am  
 14  10  11  1   
 15  10  12  1   
 16  11  13  1   
 17  11  14  1   
 18  11  24  1   
 19  12  15  1   
 20  12  25  1   
 21  12  26  1   
 22  13  16  1   
 23  13  27  1   
 24  13  28  1   
 25  14  17  1   
 26  14  29  1   
 27  14  30  1   
 28  15  18  1   
 29  15  19  1   
 30  15  31  1   
 31  16  18  1   
 32  17  19  1   
 33  17  20  1   
 34  17  32  1   
 35  18  33  1   
 36  18  34  1   
 37  19  35  1   
 38  19  36  1   
 39  20  37  1   
 40  20  38  1   
 41  20  39  1   
@<TRIPOS>SUBSTRUCTURE
  1 ****  10 GROUP 4 **** **** 0

# MOE 2024.06 (io_trps.svl 2023.06)
