@<TRIPOS>MOLECULE
NONAME
52 54 1 0 0 
SMALL
USER_CHARGES


@<TRIPOS>ATOM
  1 F       -1.8090    -0.3550     1.1700 F     1 <1>  -0.1900 
  2 C       -2.7670     0.4490     0.7940 C.ar  1 <1>   0.1900 
  3 C       -2.9770     1.6140     1.5040 C.ar  1 <1>  -0.1500 
  4 C       -3.5350     0.1030    -0.3010 C.ar  1 <1>  -0.1500 
  5 C       -3.9940     2.4630     1.0990 C.ar  1 <1>  -0.1500 
  6 C       -4.5490     0.9600    -0.6960 C.ar  1 <1>  -0.1500 
  7 C       -4.7800     2.1400     0.0000 C.ar  1 <1>  -0.1430 
  8 C       -5.8950     3.0760    -0.4400 C.3   1 <1>  -0.0160 
  9 C       -7.2110     2.7130     0.2590 C.3   1 <1>  -0.1600 
 10 C       -8.3620     3.6440    -0.1690 C.3   1 <1>  -0.0990 
 11 C       -9.7060     3.3380     0.4880 C.2   1 <1>   0.5690 
 12 O       -9.7690     2.4120     1.2630 O.2   1 <1>  -0.5700 
 13 N      -10.8050     4.1030     0.1860 N.am  1 <1>  -0.6600 
 14 C      -12.1410     3.8110     0.7950 C.3   1 <1>   0.1400 
 15 C      -10.8480     5.2250    -0.7900 C.3   1 <1>   0.1400 
 16 C      -13.1720     3.4280    -0.2980 C.3   1 <1>   0.0000 
 17 C      -11.8320     4.8850    -1.9150 C.3   1 <1>  -0.1600 
 18 C      -14.5590     3.1610     0.3110 C.3   1 <1>   0.2000 
 19 C      -13.2280     4.5430    -1.3660 C.3   1 <1>  -0.1600 
 20 C      -12.8290     2.0540    -0.9010 C.3   1 <1>  -0.1600 
 21 O      -14.8660     4.0850     1.3120 O.3   1 <1>  -0.5600 
 22 C      -14.5010     1.7330     0.8630 C.3   1 <1>  -0.1600 
 23 C      -13.3830     1.0230     0.0880 C.3   1 <1>  -0.1600 
 24 C      -16.2010     4.1030     1.7070 C.3   1 <1>   0.0400 
 25 H       -2.3600     1.8480     2.3520 H     1 <1>   0.1500 
 26 H       -3.3430    -0.8140    -0.8280 H     1 <1>   0.1500 
 27 H       -4.1730     3.3730     1.6440 H     1 <1>   0.1500 
 28 H       -5.1600     0.7040    -1.5440 H     1 <1>   0.1500 
 29 H       -5.6250     4.0910    -0.2040 H     1 <1>   0.0800 
 30 H       -6.0180     3.0100    -1.5070 H     1 <1>   0.0800 
 31 H       -7.0790     2.7760     1.3260 H     1 <1>   0.0800 
 32 H       -7.4700     1.6940     0.0240 H     1 <1>   0.0800 
 33 H       -8.4900     3.5680    -1.2330 H     1 <1>   0.0800 
 34 H       -8.0980     4.6560     0.0750 H     1 <1>   0.0800 
 35 H      -12.0640     3.0220     1.5230 H     1 <1>   0.0800 
 36 H      -12.4750     4.6910     1.3150 H     1 <1>   0.0800 
 37 H      -11.1780     6.1140    -0.2790 H     1 <1>   0.0800 
 38 H       -9.8790     5.4240    -1.2070 H     1 <1>   0.0800 
 39 H      -11.9070     5.7230    -2.5840 H     1 <1>   0.0800 
 40 H      -11.4450     4.0530    -2.4780 H     1 <1>   0.0800 
 41 H      -15.3030     3.2230    -0.4660 H     1 <1>   0.0800 
 42 H      -13.8740     4.2520    -2.1760 H     1 <1>   0.0800 
 43 H      -13.6480     5.4260    -0.9160 H     1 <1>   0.0800 
 44 H      -13.3330     1.9360    -1.8440 H     1 <1>   0.0800 
 45 H      -11.7730     1.9180    -1.0590 H     1 <1>   0.0800 
 46 H      -14.2550     1.7480     1.9110 H     1 <1>   0.0800 
 47 H      -15.4430     1.2340     0.7190 H     1 <1>   0.0800 
 48 H      -12.6040     0.7250     0.7700 H     1 <1>   0.0800 
 49 H      -13.7450     0.1500    -0.4270 H     1 <1>   0.0800 
 50 H      -16.3160     4.8630     2.4590 H     1 <1>   0.0800 
 51 H      -16.4670     3.1450     2.1200 H     1 <1>   0.0800 
 52 H      -16.8200     4.3360     0.8580 H     1 <1>   0.0800 
@<TRIPOS>BOND
  1   1   2  1   
  2   2   3  ar  
  3   2   4  ar  
  4   3   5  ar  
  5   3  25  1   
  6   4   6  ar  
  7   4  26  1   
  8   5   7  ar  
  9   5  27  1   
 10   6   7  ar  
 11   6  28  1   
 12   7   8  1   
 13   8   9  1   
 14   8  29  1   
 15   8  30  1   
 16   9  10  1   
 17   9  31  1   
 18   9  32  1   
 19  10  11  1   
 20  10  33  1   
 21  10  34  1   
 22  11  12  2   
 23  11  13  am  
 24  13  14  1   
 25  13  15  1   
 26  14  16  1   
 27  14  35  1   
 28  14  36  1   
 29  15  17  1   
 30  15  37  1   
 31  15  38  1   
 32  16  18  1   
 33  16  19  1   
 34  16  20  1   
 35  17  19  1   
 36  17  39  1   
 37  17  40  1   
 38  18  21  1   
 39  18  22  1   
 40  18  41  1   
 41  19  42  1   
 42  19  43  1   
 43  20  23  1   
 44  20  44  1   
 45  20  45  1   
 46  21  24  1   
 47  22  23  1   
 48  22  46  1   
 49  22  47  1   
 50  23  48  1   
 51  23  49  1   
 52  24  50  1   
 53  24  51  1   
 54  24  52  1   
@<TRIPOS>SUBSTRUCTURE
  1 ****  11 GROUP 4 **** **** 0

# MOE 2024.06 (io_trps.svl 2023.06)
