@<TRIPOS>MOLECULE
NONAME
41 43 1 0 0 
SMALL
USER_CHARGES


@<TRIPOS>ATOM
  1 O        0.5900     0.0700     0.6960 O.3   1 <1>  -0.0190 
  2 N       -0.0840    -1.0240     0.7790 N.2   1 <1>  -0.4100 
  3 C        1.6120    -0.1040    -0.0960 C.2   1 <1>   0.5620 
  4 C        0.5570    -1.8480     0.0230 C.2   1 <1>   0.4620 
  5 N        1.6470    -1.2950    -0.5550 N.2   1 <1>  -0.5650 
  6 N        2.5090     0.9130    -0.3680 N.pl3 1 <1>  -0.8220 
  7 C        0.1780    -3.2330    -0.2110 C.ar  1 <1>   0.0540 
  8 C        3.6770     0.6650    -1.2530 C.3   1 <1>   0.3900 
  9 C        2.5100     2.1730     0.4130 C.3   1 <1>   0.2090 
 10 C       -0.9970    -3.7640     0.3270 C.ar  1 <1>  -0.1500 
 11 C        0.9670    -4.0920    -0.9800 C.ar  1 <1>  -0.1500 
 12 C        4.9320     0.4990    -0.4180 C.2   1 <1>  -0.1810 
 13 C        1.7860     3.2480    -0.3890 C.3   1 <1>  -0.2400 
 14 C       -1.3670    -5.0790     0.1090 C.ar  1 <1>  -0.1500 
 15 C        0.6040    -5.4080    -1.2030 C.ar  1 <1>  -0.1500 
 16 C        5.1220    -0.4580     0.5700 C.2   1 <1>   0.1390 
 17 C        6.0870     1.2000    -0.4390 C.2   1 <1>  -0.3020 
 18 C       -0.5660    -5.9050    -0.6580 C.ar  1 <1>  -0.1500 
 19 N        6.2940    -0.3690     1.1220 N.2   1 <1>  -0.7070 
 20 N        6.8940     0.6590     0.4960 N.pl3 1 <1>   0.3140 
 21 C        8.2630     1.0900     0.8400 C.3   1 <1>   0.0960 
 22 C        9.2810     0.5810    -0.1880 C.3   1 <1>  -0.2400 
 23 H        3.7940     1.4950    -1.9260 H     1 <1>   0.0800 
 24 H        3.5230    -0.2200    -1.8460 H     1 <1>   0.0800 
 25 H        3.5210     2.4820     0.6210 H     1 <1>   0.0800 
 26 H        2.0130     2.0240     1.3570 H     1 <1>   0.0800 
 27 H       -1.6330    -3.1360     0.9260 H     1 <1>   0.1500 
 28 H        1.8810    -3.7240    -1.4120 H     1 <1>   0.1500 
 29 H        2.2920     3.4280    -1.3190 H     1 <1>   0.0800 
 30 H        1.7640     4.1640     0.1730 H     1 <1>   0.0800 
 31 H        0.7740     2.9420    -0.5850 H     1 <1>   0.0800 
 32 H       -2.2790    -5.4600     0.5360 H     1 <1>   0.1500 
 33 H        1.2320    -6.0460    -1.8000 H     1 <1>   0.1500 
 34 H        4.3830    -1.1910     0.8520 H     1 <1>   0.1500 
 35 H        6.3780     2.0330    -1.0510 H     1 <1>   0.1500 
 36 H       -0.8510    -6.9280    -0.8300 H     1 <1>   0.1500 
 37 H        8.5010     0.7020     1.8140 H     1 <1>   0.0800 
 38 H        8.2820     2.1630     0.8860 H     1 <1>   0.0800 
 39 H        9.2570    -0.4940    -0.2260 H     1 <1>   0.0800 
 40 H       10.2710     0.8910     0.0930 H     1 <1>   0.0800 
 41 H        9.0610     0.9770    -1.1640 H     1 <1>   0.0800 
@<TRIPOS>BOND
  1   1   2  1   
  2   1   3  1   
  3   2   4  2   
  4   3   5  2   
  5   3   6  1   
  6   4   5  1   
  7   4   7  1   
  8   6   8  1   
  9   6   9  1   
 10   7  10  ar  
 11   7  11  ar  
 12   8  12  1   
 13   8  23  1   
 14   8  24  1   
 15   9  13  1   
 16   9  25  1   
 17   9  26  1   
 18  10  14  ar  
 19  10  27  1   
 20  11  15  ar  
 21  11  28  1   
 22  12  16  1   
 23  12  17  2   
 24  13  29  1   
 25  13  30  1   
 26  13  31  1   
 27  14  18  ar  
 28  14  32  1   
 29  15  18  ar  
 30  15  33  1   
 31  16  19  2   
 32  16  34  1   
 33  17  20  1   
 34  17  35  1   
 35  18  36  1   
 36  19  20  1   
 37  20  21  1   
 38  21  22  1   
 39  21  37  1   
 40  21  38  1   
 41  22  39  1   
 42  22  40  1   
 43  22  41  1   
@<TRIPOS>SUBSTRUCTURE
  1 ****   5 GROUP 4 **** **** 0

# MOE 2024.06 (io_trps.svl 2023.06)
