@<TRIPOS>MOLECULE
NONAME
54 58 1 0 0 
SMALL
USER_CHARGES


@<TRIPOS>ATOM
  1 O       -1.0710    -0.9700     1.1580 O.3   1 <1>  -0.3630 
  2 C       -1.8940    -1.2650     0.1220 C.ar  1 <1>   0.0830 
  3 C       -0.6600     0.3810     1.2810 C.3   1 <1>   0.1200 
  4 C       -2.5650    -0.2620    -0.5780 C.ar  1 <1>   0.0830 
  5 C       -2.0580    -2.5900    -0.2380 C.ar  1 <1>  -0.1500 
  6 C       -1.8440     1.3240     1.0230 C.3   1 <1>   0.1200 
  7 O       -2.4380     1.0430    -0.2320 O.3   1 <1>  -0.3630 
  8 C       -3.3780    -0.5960    -1.6460 C.ar  1 <1>  -0.1500 
  9 C       -2.8860    -2.9280    -1.3010 C.ar  1 <1>  -0.1430 
 10 C       -3.5380    -1.9240    -2.0080 C.ar  1 <1>  -0.1500 
 11 C       -3.0740    -4.3830    -1.6820 C.3   1 <1>   0.4860 
 12 N       -3.9340    -5.0290    -0.6570 N.4   1 <1>  -0.9590 
 13 C       -5.3180    -4.4230    -0.6260 C.3   1 <1>   0.3430 
 14 C       -3.9940    -6.5200    -0.8470 C.3   1 <1>   0.3430 
 15 C       -6.2490    -5.1350     0.3790 C.3   1 <1>   0.1900 
 16 C       -4.9440    -7.1910     0.1630 C.3   1 <1>   0.1100 
 17 N       -6.2930    -6.5910     0.0990 N.3   1 <1>  -0.8100 
 18 C       -7.6670    -4.5340     0.3180 C.3   1 <1>   0.1200 
 19 C       -7.2550    -7.2670     1.0100 C.3   1 <1>   0.3330 
 20 O       -8.4990    -5.1880     1.2280 O.3   1 <1>  -0.5600 
 21 C       -7.4120    -8.7350     0.6200 C.ar  1 <1>  -0.1430 
 22 C       -8.6300    -6.5640     0.9820 C.3   1 <1>   0.1200 
 23 C       -7.7160    -9.0960    -0.6860 C.ar  1 <1>  -0.1500 
 24 C       -7.2440    -9.7290     1.5730 C.ar  1 <1>  -0.1500 
 25 C       -7.8480   -10.4290    -1.0340 C.ar  1 <1>  -0.1500 
 26 C       -7.3730   -11.0630     1.2260 C.ar  1 <1>  -0.1500 
 27 C       -7.6750   -11.4130    -0.0780 C.ar  1 <1>  -0.1500 
 28 H       -0.2690     0.5210     2.2720 H     1 <1>   0.0800 
 29 H        0.1220     0.5600     0.5650 H     1 <1>   0.0800 
 30 H       -1.5200    -3.3350     0.3220 H     1 <1>   0.1500 
 31 H       -1.5200     2.3490     1.0140 H     1 <1>   0.0800 
 32 H       -2.5940     1.1990     1.7840 H     1 <1>   0.0800 
 33 H       -3.8790     0.1890    -2.1860 H     1 <1>   0.1500 
 34 H       -4.1730    -2.1560    -2.8470 H     1 <1>   0.1500 
 35 H       -2.1110    -4.8660    -1.7190 H     1 <1>   0.0800 
 36 H       -3.5320    -4.4550    -2.6550 H     1 <1>   0.0800 
 37 H       -3.5060    -4.8360     0.2560 H     1 <1>   0.4500 
 38 H       -5.2530    -3.3790    -0.3640 H     1 <1>   0.0800 
 39 H       -5.7640    -4.4920    -1.6030 H     1 <1>   0.0800 
 40 H       -4.3510    -6.7450    -1.8390 H     1 <1>   0.0800 
 41 H       -3.0100    -6.9460    -0.7430 H     1 <1>   0.0800 
 42 H       -5.8700    -4.9690     1.3730 H     1 <1>   0.0800 
 43 H       -4.5450    -7.1050     1.1590 H     1 <1>   0.0800 
 44 H       -5.0000    -8.2400    -0.0780 H     1 <1>   0.0800 
 45 H       -8.0910    -4.6330    -0.6660 H     1 <1>   0.0800 
 46 H       -7.6510    -3.4930     0.5890 H     1 <1>   0.0800 
 47 H       -6.8830    -7.2120     2.0190 H     1 <1>   0.0800 
 48 H       -9.2690    -6.9760     1.7420 H     1 <1>   0.0800 
 49 H       -9.1050    -6.6990     0.0260 H     1 <1>   0.0800 
 50 H       -7.8500    -8.3370    -1.4360 H     1 <1>   0.1500 
 51 H       -7.0120    -9.4770     2.5930 H     1 <1>   0.1500 
 52 H       -8.0860   -10.7010    -2.0480 H     1 <1>   0.1500 
 53 H       -7.2420   -11.8290     1.9700 H     1 <1>   0.1500 
 54 H       -7.7770   -12.4500    -0.3480 H     1 <1>   0.1500 
@<TRIPOS>BOND
  1   1   2  1   
  2   1   3  1   
  3   2   4  ar  
  4   2   5  ar  
  5   3   6  1   
  6   3  28  1   
  7   3  29  1   
  8   4   7  1   
  9   4   8  ar  
 10   5   9  ar  
 11   5  30  1   
 12   6   7  1   
 13   6  31  1   
 14   6  32  1   
 15   8  10  ar  
 16   8  33  1   
 17   9  10  ar  
 18   9  11  1   
 19  10  34  1   
 20  11  12  1   
 21  11  35  1   
 22  11  36  1   
 23  12  13  1   
 24  12  14  1   
 25  12  37  1   
 26  13  15  1   
 27  13  38  1   
 28  13  39  1   
 29  14  16  1   
 30  14  40  1   
 31  14  41  1   
 32  15  17  1   
 33  15  18  1   
 34  15  42  1   
 35  16  17  1   
 36  16  43  1   
 37  16  44  1   
 38  17  19  1   
 39  18  20  1   
 40  18  45  1   
 41  18  46  1   
 42  19  21  1   
 43  19  22  1   
 44  19  47  1   
 45  20  22  1   
 46  21  23  ar  
 47  21  24  ar  
 48  22  48  1   
 49  22  49  1   
 50  23  25  ar  
 51  23  50  1   
 52  24  26  ar  
 53  24  51  1   
 54  25  27  ar  
 55  25  52  1   
 56  26  27  ar  
 57  26  53  1   
 58  27  54  1   
@<TRIPOS>SUBSTRUCTURE
  1 ****  13 GROUP 4 **** **** 0

# MOE 2024.06 (io_trps.svl 2023.06)
