@<TRIPOS>MOLECULE
NONAME
45 46 1 0 0 
SMALL
USER_CHARGES


@<TRIPOS>ATOM
  1 N        0.8370     0.0220     1.2300 N.ar  1 <1>  -0.6200 
  2 C        1.5580    -0.4020     0.2040 C.ar  1 <1>   0.1660 
  3 C       -0.3460    -0.5540     1.3770 C.ar  1 <1>   0.1600 
  4 C        1.1410    -1.3810    -0.6870 C.ar  1 <1>  -0.1500 
  5 C        2.9170     0.2550     0.0360 C.3   1 <1>  -0.0160 
  6 C       -0.8520    -1.5360     0.5430 C.ar  1 <1>  -0.1500 
  7 C       -0.0950    -1.9690    -0.5230 C.ar  1 <1>  -0.1500 
  8 C        2.7630     1.7600    -0.2390 C.3   1 <1>  -0.1600 
  9 C        4.1150     2.4570    -0.3100 C.3   1 <1>   0.3430 
 10 N        3.8830     3.9140    -0.4650 N.4   1 <1>  -0.9060 
 11 C        5.1460     4.6990    -0.5040 C.3   1 <1>   0.4230 
 12 C        4.8820     6.1840    -0.2110 C.3   1 <1>   0.0960 
 13 C        5.7970     4.5020    -1.8760 C.3   1 <1>  -0.2400 
 14 N        6.1600     6.8300     0.1070 N.pl3 1 <1>   0.3140 
 15 N        7.0180     6.2260     0.9460 N.2   1 <1>  -0.7070 
 16 C        6.6530     8.0020    -0.3490 C.2   1 <1>  -0.3320 
 17 C        8.0350     7.0260     1.0130 C.2   1 <1>   0.1080 
 18 C        7.8660     8.1550     0.2220 C.2   1 <1>  -0.1500 
 19 C        5.9550     8.9490    -1.3130 C.3   1 <1>  -0.0600 
 20 C        9.2490     6.7340     1.8650 C.3   1 <1>  -0.0590 
 21 H       -0.9470    -0.2280     2.2090 H     1 <1>   0.1500 
 22 H        1.7690    -1.6880    -1.5030 H     1 <1>   0.1500 
 23 H        3.4560    -0.2160    -0.7660 H     1 <1>   0.0800 
 24 H        3.4720     0.1010     0.9460 H     1 <1>   0.0800 
 25 H       -1.8240    -1.9550     0.7300 H     1 <1>   0.1500 
 26 H       -0.4520    -2.7310    -1.1950 H     1 <1>   0.1500 
 27 H        2.1820     2.1930     0.5580 H     1 <1>   0.0800 
 28 H        2.2270     1.8880    -1.1640 H     1 <1>   0.0800 
 29 H        4.6800     2.0730    -1.1430 H     1 <1>   0.0800 
 30 H        4.6680     2.2680     0.5980 H     1 <1>   0.0800 
 31 H        3.3150     4.2220     0.3340 H     1 <1>   0.4500 
 32 H        3.3360     4.0860    -1.3160 H     1 <1>   0.4500 
 33 H        5.8080     4.3230     0.2630 H     1 <1>   0.0800 
 34 H        4.2530     6.2930     0.6520 H     1 <1>   0.0800 
 35 H        4.4350     6.6740    -1.0550 H     1 <1>   0.0800 
 36 H        5.1610     4.8580    -2.6680 H     1 <1>   0.0800 
 37 H        6.0440     3.4710    -2.0490 H     1 <1>   0.0800 
 38 H        6.7200     5.0550    -1.9190 H     1 <1>   0.0800 
 39 H        8.5690     8.9610     0.1110 H     1 <1>   0.1500 
 40 H        5.0170     9.2780    -0.9020 H     1 <1>   0.0800 
 41 H        5.7820     8.4660    -2.2580 H     1 <1>   0.0800 
 42 H        6.5700     9.8150    -1.4850 H     1 <1>   0.0800 
 43 H        8.9490     6.6220     2.8900 H     1 <1>   0.0800 
 44 H        9.9600     7.5360     1.7930 H     1 <1>   0.0800 
 45 H        9.7120     5.8230     1.5330 H     1 <1>   0.0800 
@<TRIPOS>BOND
  1   1   2  ar  
  2   1   3  ar  
  3   2   4  ar  
  4   2   5  1   
  5   3   6  ar  
  6   3  21  1   
  7   4   7  ar  
  8   4  22  1   
  9   5   8  1   
 10   5  23  1   
 11   5  24  1   
 12   6   7  ar  
 13   6  25  1   
 14   7  26  1   
 15   8   9  1   
 16   8  27  1   
 17   8  28  1   
 18   9  10  1   
 19   9  29  1   
 20   9  30  1   
 21  10  11  1   
 22  10  31  1   
 23  10  32  1   
 24  11  12  1   
 25  11  13  1   
 26  11  33  1   
 27  12  14  1   
 28  12  34  1   
 29  12  35  1   
 30  13  36  1   
 31  13  37  1   
 32  13  38  1   
 33  14  15  1   
 34  14  16  1   
 35  15  17  2   
 36  16  18  2   
 37  16  19  1   
 38  17  18  1   
 39  17  20  1   
 40  18  39  1   
 41  19  40  1   
 42  19  41  1   
 43  19  42  1   
 44  20  43  1   
 45  20  44  1   
 46  20  45  1   
@<TRIPOS>SUBSTRUCTURE
  1 ****  10 GROUP 4 **** **** 0

# MOE 2024.06 (io_trps.svl 2023.06)
