@<TRIPOS>MOLECULE
NONAME
52 55 1 0 0 
SMALL
USER_CHARGES


@<TRIPOS>ATOM
  1 O       -0.8170     0.0870     1.6590 O.2   1 <1>  -0.5700 
  2 C       -1.4870     0.7110     0.8700 C.2   1 <1>   0.5690 
  3 N       -2.3770     0.0500     0.0600 N.am  1 <1>  -0.6600 
  4 C       -1.2840     2.2340     0.8540 C.3   1 <1>  -0.0190 
  5 C       -3.3080     0.5920    -0.9640 C.3   1 <1>   0.1400 
  6 C       -2.5610    -1.4230     0.1660 C.3   1 <1>   0.1400 
  7 C       -2.4560     2.9990     1.5060 C.3   1 <1>  -0.1600 
  8 C       -0.9100     2.8190    -0.5250 C.3   1 <1>  -0.1600 
  9 C       -4.3960    -0.4710    -1.0840 C.3   1 <1>   0.2000 
 10 C       -3.6370    -1.7850    -0.8680 C.3   1 <1>  -0.0800 
 11 C       -2.1720     4.5080     1.5740 C.3   1 <1>  -0.1600 
 12 C       -0.6260     4.3260    -0.4320 C.3   1 <1>  -0.1600 
 13 O       -5.2990    -0.2740    -0.0490 O.3   1 <1>  -0.6800 
 14 C       -4.5270    -2.9790    -0.4640 C.3   1 <1>  -0.0170 
 15 C       -1.8120     5.0660     0.1940 C.3   1 <1>   0.2000 
 16 C       -3.8510    -4.3540    -0.3900 C.ar  1 <1>  -0.1440 
 17 O       -1.4690     6.3900     0.3380 O.3   1 <1>  -0.6800 
 18 C       -4.5690    -5.4590     0.1350 C.ar  1 <1>   0.0000 
 19 C       -2.5740    -4.5950    -0.8160 C.ar  1 <1>  -0.1500 
 20 C       -3.9110    -6.7120     0.1990 C.ar  1 <1>   0.3100 
 21 C       -5.9060    -5.3960     0.5940 C.ar  1 <1>  -0.1500 
 22 C       -2.0180    -5.8760    -0.7110 C.ar  1 <1>   0.1600 
 23 N       -2.6380    -6.9030    -0.2260 N.ar  1 <1>  -0.6200 
 24 C       -4.5990    -7.8190     0.7210 C.ar  1 <1>  -0.1500 
 25 C       -6.5490    -6.4950     1.0960 C.ar  1 <1>  -0.1500 
 26 C       -5.8890    -7.7230     1.1640 C.ar  1 <1>  -0.1500 
 27 H       -0.4300     2.4090     1.4860 H     1 <1>   0.0800 
 28 H       -3.7230     1.5440    -0.6940 H     1 <1>   0.0800 
 29 H       -2.7840     0.6770    -1.9000 H     1 <1>   0.0800 
 30 H       -1.6300    -1.9290    -0.0260 H     1 <1>   0.0800 
 31 H       -2.8880    -1.6630     1.1640 H     1 <1>   0.0800 
 32 H       -3.3620     2.8410     0.9530 H     1 <1>   0.0800 
 33 H       -2.6140     2.6230     2.5020 H     1 <1>   0.0800 
 34 H       -0.0390     2.3120    -0.9040 H     1 <1>   0.0800 
 35 H       -1.7080     2.6720    -1.2280 H     1 <1>   0.0800 
 36 H       -4.9290    -0.4300    -2.0180 H     1 <1>   0.0800 
 37 H       -3.1460    -2.0150    -1.7970 H     1 <1>   0.0800 
 38 H       -1.3570     4.6770     2.2560 H     1 <1>   0.0800 
 39 H       -3.0430     5.0180     1.9490 H     1 <1>   0.0800 
 40 H       -0.4430     4.7170    -1.4180 H     1 <1>   0.0800 
 41 H        0.2550     4.4790     0.1670 H     1 <1>   0.0800 
 42 H       -4.7990    -0.1800     0.7870 H     1 <1>   0.4000 
 43 H       -5.3400    -3.0470    -1.1670 H     1 <1>   0.0800 
 44 H       -4.9540    -2.7660     0.5000 H     1 <1>   0.0800 
 45 H       -2.6670     5.0190    -0.4600 H     1 <1>   0.0800 
 46 H       -0.7000     6.4700     0.9310 H     1 <1>   0.4000 
 47 H       -1.9490    -3.8370    -1.2440 H     1 <1>   0.1500 
 48 H       -6.4400    -4.4650     0.5500 H     1 <1>   0.1500 
 49 H       -1.0080    -6.0140    -1.0550 H     1 <1>   0.1500 
 50 H       -4.0700    -8.7540     0.7610 H     1 <1>   0.1500 
 51 H       -7.5660    -6.4280     1.4430 H     1 <1>   0.1500 
 52 H       -6.4050    -8.5810     1.5610 H     1 <1>   0.1500 
@<TRIPOS>BOND
  1   1   2  2   
  2   2   3  am  
  3   2   4  1   
  4   3   5  1   
  5   3   6  1   
  6   4   7  1   
  7   4   8  1   
  8   4  27  1   
  9   5   9  1   
 10   5  28  1   
 11   5  29  1   
 12   6  10  1   
 13   6  30  1   
 14   6  31  1   
 15   7  11  1   
 16   7  32  1   
 17   7  33  1   
 18   8  12  1   
 19   8  34  1   
 20   8  35  1   
 21   9  10  1   
 22   9  13  1   
 23   9  36  1   
 24  10  14  1   
 25  10  37  1   
 26  11  15  1   
 27  11  38  1   
 28  11  39  1   
 29  12  15  1   
 30  12  40  1   
 31  12  41  1   
 32  13  42  1   
 33  14  16  1   
 34  14  43  1   
 35  14  44  1   
 36  15  17  1   
 37  15  45  1   
 38  16  18  ar  
 39  16  19  ar  
 40  17  46  1   
 41  18  20  ar  
 42  18  21  ar  
 43  19  22  ar  
 44  19  47  1   
 45  20  23  ar  
 46  20  24  ar  
 47  21  25  ar  
 48  21  48  1   
 49  22  23  ar  
 50  22  49  1   
 51  24  26  ar  
 52  24  50  1   
 53  25  26  ar  
 54  25  51  1   
 55  26  52  1   
@<TRIPOS>SUBSTRUCTURE
  1 ****   6 GROUP 4 **** **** 0

# MOE 2024.06 (io_trps.svl 2023.06)
