@<TRIPOS>MOLECULE
NONAME
48 51 1 0 0 
SMALL
USER_CHARGES


@<TRIPOS>ATOM
  1 O        0.0860     0.0960     0.3370 O.3   1 <1>  -0.0190 
  2 N        0.8130     1.1390     0.0770 N.2   1 <1>  -0.4100 
  3 C        0.9570    -0.8660     0.5150 C.2   1 <1>   0.2980 
  4 C        2.0320     0.7670     0.1200 C.2   1 <1>   0.3350 
  5 N        2.1790    -0.5250     0.3940 N.2   1 <1>  -0.5650 
  6 C        0.4560    -2.2630     0.8710 C.3   1 <1>   0.2900 
  7 C        3.2290     1.6780    -0.1370 C.3   1 <1>   0.3010 
  8 N       -0.3050    -2.9240    -0.2190 N.3   1 <1>  -0.8100 
  9 O        3.8360     2.0690     1.0660 O.3   1 <1>  -0.5600 
 10 C       -1.6380    -2.3450    -0.4960 C.3   1 <1>   0.1100 
 11 C       -0.4580    -4.3710    -0.0310 C.3   1 <1>   0.1100 
 12 C        4.9550     2.8780     0.9020 C.3   1 <1>   0.0400 
 13 C       -2.6440    -3.4950    -0.4130 C.3   1 <1>   0.2000 
 14 C       -1.7870    -4.7280    -0.6980 C.3   1 <1>  -0.0800 
 15 O       -3.1380    -3.5480     0.8830 O.3   1 <1>  -0.6800 
 16 C       -2.3870    -6.0700    -0.2290 C.3   1 <1>  -0.0170 
 17 C       -1.5600    -7.3250    -0.5420 C.ar  1 <1>  -0.1430 
 18 C       -1.8350    -8.5430     0.1310 C.ar  1 <1>   0.0000 
 19 C       -0.5500    -7.3440    -1.4640 C.ar  1 <1>  -0.1500 
 20 C       -1.0180    -9.6630    -0.1630 C.ar  1 <1>   0.3100 
 21 C       -2.8770    -8.7200     1.0730 C.ar  1 <1>  -0.1500 
 22 C        0.1880    -8.5110    -1.6880 C.ar  1 <1>   0.1600 
 23 N       -0.0120    -9.6300    -1.0710 N.ar  1 <1>  -0.6200 
 24 C       -1.2540   -10.8750     0.5070 C.ar  1 <1>  -0.1500 
 25 C       -3.0830    -9.9160     1.7040 C.ar  1 <1>  -0.1500 
 26 C       -2.2600   -11.0090     1.4230 C.ar  1 <1>  -0.1500 
 27 H       -0.1500    -2.2040     1.7570 H     1 <1>   0.0800 
 28 H        1.3200    -2.8630     1.0990 H     1 <1>   0.0800 
 29 H        2.9010     2.5610    -0.6550 H     1 <1>   0.0800 
 30 H        3.9520     1.1520    -0.7340 H     1 <1>   0.0800 
 31 H       -1.9000    -1.5510     0.1830 H     1 <1>   0.0800 
 32 H       -1.6290    -1.9510    -1.4980 H     1 <1>   0.0800 
 33 H        0.3720    -4.8960    -0.4720 H     1 <1>   0.0800 
 34 H       -0.5050    -4.6070     1.0190 H     1 <1>   0.0800 
 35 H        5.3360     3.1200     1.8790 H     1 <1>   0.0800 
 36 H        4.6700     3.7820     0.3910 H     1 <1>   0.0800 
 37 H        5.7040     2.3430     0.3430 H     1 <1>   0.0800 
 38 H       -3.4720    -3.3800    -1.0910 H     1 <1>   0.0800 
 39 H       -1.6330    -4.7620    -1.7620 H     1 <1>   0.0800 
 40 H       -2.3890    -3.5030     1.5070 H     1 <1>   0.4000 
 41 H       -3.3620    -6.1870    -0.6690 H     1 <1>   0.0800 
 42 H       -2.5180    -6.0140     0.8360 H     1 <1>   0.0800 
 43 H       -0.2790    -6.4860    -2.0480 H     1 <1>   0.1500 
 44 H       -3.5330    -7.9020     1.3010 H     1 <1>   0.1500 
 45 H        0.9770    -8.4730    -2.4200 H     1 <1>   0.1500 
 46 H       -0.6100   -11.7020     0.2690 H     1 <1>   0.1500 
 47 H       -3.8780   -10.0320     2.4210 H     1 <1>   0.1500 
 48 H       -2.4300   -11.9440     1.9280 H     1 <1>   0.1500 
@<TRIPOS>BOND
  1   1   2  1   
  2   1   3  1   
  3   2   4  2   
  4   3   5  2   
  5   3   6  1   
  6   4   5  1   
  7   4   7  1   
  8   6   8  1   
  9   6  27  1   
 10   6  28  1   
 11   7   9  1   
 12   7  29  1   
 13   7  30  1   
 14   8  10  1   
 15   8  11  1   
 16   9  12  1   
 17  10  13  1   
 18  10  31  1   
 19  10  32  1   
 20  11  14  1   
 21  11  33  1   
 22  11  34  1   
 23  12  35  1   
 24  12  36  1   
 25  12  37  1   
 26  13  14  1   
 27  13  15  1   
 28  13  38  1   
 29  14  16  1   
 30  14  39  1   
 31  15  40  1   
 32  16  17  1   
 33  16  41  1   
 34  16  42  1   
 35  17  18  ar  
 36  17  19  ar  
 37  18  20  ar  
 38  18  21  ar  
 39  19  22  ar  
 40  19  43  1   
 41  20  23  ar  
 42  20  24  ar  
 43  21  25  ar  
 44  21  44  1   
 45  22  23  ar  
 46  22  45  1   
 47  24  26  ar  
 48  24  46  1   
 49  25  26  ar  
 50  25  47  1   
 51  26  48  1   
@<TRIPOS>SUBSTRUCTURE
  1 ****  11 GROUP 4 **** **** 0

# MOE 2024.06 (io_trps.svl 2023.06)
