@<TRIPOS>MOLECULE
NONAME
60 64 1 0 0 
SMALL
USER_CHARGES


@<TRIPOS>ATOM
  1 O       -0.5280     0.5080     0.2400 O.2   1 <1>  -0.5700 
  2 C       -1.7000     0.4190    -0.0790 C.2   1 <1>   0.6160 
  3 N       -2.3510    -0.7680     0.1560 N.am  1 <1>  -0.6600 
  4 C       -2.3640     1.5480    -0.6880 C.2   1 <1>   0.0140 
  5 C       -1.8120    -1.9160     0.8910 C.3   1 <1>   0.2200 
  6 C       -3.7680    -1.0280     0.3470 C.3   1 <1>   0.2200 
  7 C       -3.2300     1.4330    -1.7490 C.2   1 <1>  -0.0410 
  8 C       -2.1100     2.8670    -0.1940 C.2   1 <1>  -0.1500 
  9 C       -2.4550    -3.0820     0.0890 C.3   1 <1>   0.0610 
 10 C       -2.4870    -1.6690     2.2570 C.3   1 <1>  -0.1600 
 11 C       -3.8670    -2.4670    -0.1820 C.3   1 <1>  -0.1600 
 12 C       -3.8450    -1.0600     1.8740 C.3   1 <1>  -0.1600 
 13 N       -3.8470     2.5290    -2.2980 N.am  1 <1>  -0.5390 
 14 C       -2.7240     3.9470    -0.7500 C.2   1 <1>  -0.1360 
 15 C       -2.4690    -4.4190     0.8690 C.2   1 <1>   0.5690 
 16 C       -1.6880    -3.2700    -1.2530 C.3   1 <1>  -0.0160 
 17 C       -3.6280     3.7970    -1.8350 C.2   1 <1>   0.6160 
 18 O       -1.6700    -4.5460     1.7700 O.2   1 <1>  -0.5700 
 19 N       -3.3250    -5.4640     0.5690 N.am  1 <1>  -0.6600 
 20 C       -0.2150    -3.6250    -1.0950 C.ar  1 <1>  -0.1440 
 21 O       -4.2130     4.7240    -2.3670 O.2   1 <1>  -0.5700 
 22 C       -3.3820    -6.6650     1.4570 C.3   1 <1>   0.1400 
 23 C       -4.1650    -5.6240    -0.6540 C.3   1 <1>   0.1400 
 24 C        0.7520    -2.6310    -1.1430 C.ar  1 <1>  -0.1500 
 25 C        0.1790    -4.9420    -0.9140 C.ar  1 <1>  -0.1500 
 26 C       -4.8300    -6.9270     1.8840 C.3   1 <1>  -0.1600 
 27 C       -5.6250    -5.8700    -0.2600 C.3   1 <1>  -0.1600 
 28 C        2.0920    -2.9490    -1.0120 C.ar  1 <1>  -0.1500 
 29 C        1.5190    -5.2620    -0.7830 C.ar  1 <1>  -0.1500 
 30 C       -5.7590    -7.0810     0.6730 C.3   1 <1>  -0.1600 
 31 C        2.4770    -4.2660    -0.8330 C.ar  1 <1>  -0.1500 
 32 H       -0.7370    -1.9440     0.9490 H     1 <1>   0.0800 
 33 H       -4.4350    -0.3210    -0.1170 H     1 <1>   0.0800 
 34 H       -3.4420     0.4710    -2.1850 H     1 <1>   0.1500 
 35 H       -1.4170     2.9690     0.6250 H     1 <1>   0.1500 
 36 H       -2.5940    -2.5550     2.8540 H     1 <1>   0.0800 
 37 H       -1.9010    -0.9590     2.8140 H     1 <1>   0.0800 
 38 H       -4.6460    -2.9970     0.3350 H     1 <1>   0.0800 
 39 H       -4.1020    -2.4500    -1.2300 H     1 <1>   0.0800 
 40 H       -3.9340    -0.0610     2.2620 H     1 <1>   0.0800 
 41 H       -4.6720    -1.6510     2.2270 H     1 <1>   0.0800 
 42 H       -4.4880     2.4790    -3.0920 H     1 <1>   0.3700 
 43 H       -2.5560     4.9490    -0.4040 H     1 <1>   0.1500 
 44 H       -2.1500    -4.0420    -1.8370 H     1 <1>   0.0800 
 45 H       -1.7520    -2.3710    -1.8390 H     1 <1>   0.0800 
 46 H       -2.9960    -7.5160     0.9210 H     1 <1>   0.0800 
 47 H       -2.7760    -6.5290     2.3370 H     1 <1>   0.0800 
 48 H       -4.1100    -4.7660    -1.2930 H     1 <1>   0.0800 
 49 H       -3.7990    -6.4680    -1.2140 H     1 <1>   0.0800 
 50 H        0.4670    -1.6010    -1.2750 H     1 <1>   0.1500 
 51 H       -0.5560    -5.7260    -0.8660 H     1 <1>   0.1500 
 52 H       -4.8660    -7.8200     2.4830 H     1 <1>   0.0800 
 53 H       -5.1610    -6.1080     2.4980 H     1 <1>   0.0800 
 54 H       -6.0130    -4.9940     0.2290 H     1 <1>   0.0800 
 55 H       -6.2100    -6.0360    -1.1480 H     1 <1>   0.0800 
 56 H        2.8320    -2.1690    -1.0450 H     1 <1>   0.1500 
 57 H        1.8140    -6.2860    -0.6380 H     1 <1>   0.1500 
 58 H       -6.7780    -7.1770     1.0050 H     1 <1>   0.0800 
 59 H       -5.4980    -7.9770     0.1360 H     1 <1>   0.0800 
 60 H        3.5190    -4.5130    -0.7280 H     1 <1>   0.1500 
@<TRIPOS>BOND
  1   1   2  2   
  2   2   3  am  
  3   2   4  1   
  4   3   5  1   
  5   3   6  1   
  6   4   7  2   
  7   4   8  1   
  8   5   9  1   
  9   5  10  1   
 10   5  32  1   
 11   6  11  1   
 12   6  12  1   
 13   6  33  1   
 14   7  13  1   
 15   7  34  1   
 16   8  14  2   
 17   8  35  1   
 18   9  11  1   
 19   9  15  1   
 20   9  16  1   
 21  10  12  1   
 22  10  36  1   
 23  10  37  1   
 24  11  38  1   
 25  11  39  1   
 26  12  40  1   
 27  12  41  1   
 28  13  17  am  
 29  13  42  1   
 30  14  17  1   
 31  14  43  1   
 32  15  18  2   
 33  15  19  am  
 34  16  20  1   
 35  16  44  1   
 36  16  45  1   
 37  17  21  2   
 38  19  22  1   
 39  19  23  1   
 40  20  24  ar  
 41  20  25  ar  
 42  22  26  1   
 43  22  46  1   
 44  22  47  1   
 45  23  27  1   
 46  23  48  1   
 47  23  49  1   
 48  24  28  ar  
 49  24  50  1   
 50  25  29  ar  
 51  25  51  1   
 52  26  30  1   
 53  26  52  1   
 54  26  53  1   
 55  27  30  1   
 56  27  54  1   
 57  27  55  1   
 58  28  31  ar  
 59  28  56  1   
 60  29  31  ar  
 61  29  57  1   
 62  30  58  1   
 63  30  59  1   
 64  31  60  1   
@<TRIPOS>SUBSTRUCTURE
  1 ****   9 GROUP 4 **** **** 0

# MOE 2024.06 (io_trps.svl 2023.06)
