@<TRIPOS>MOLECULE
NONAME
55 59 1 0 0 
SMALL
USER_CHARGES


@<TRIPOS>ATOM
  1 N        0.3460     0.7390     0.4830 N.ar  1 <1>  -0.1790 
  2 C       -0.4740     1.7960     0.5890 C.ar  1 <1>   0.4610 
  3 C        1.6860     0.7730     0.7790 C.ar  1 <1>   0.5280 
  4 N       -1.7900     1.6230     0.2890 N.pl3 1 <1>  -0.8380 
  5 C        0.1630     2.9880     1.0200 C.ar  1 <1>   0.0000 
  6 N        2.2870     1.8360     1.1780 N.ar  1 <1>  -0.5670 
  7 C        2.4720    -0.5130     0.6240 C.3   1 <1>  -0.0970 
  8 C       -2.8940     2.5680     0.7080 C.3   1 <1>   0.2090 
  9 C       -2.3790     0.4710    -0.4800 C.3   1 <1>   0.2090 
 10 C        1.5110     2.9540     1.2930 C.ar  1 <1>   0.1050 
 11 C       -0.1620     4.3380     1.2460 C.2   1 <1>   0.1390 
 12 C       -3.6380     3.1610    -0.5090 C.3   1 <1>   0.1430 
 13 C       -3.0910     0.9950    -1.7320 C.3   1 <1>  -0.1600 
 14 N        1.8880     4.2000     1.6590 N.pl3 1 <1>   0.3140 
 15 N        0.8450     5.0520     1.6210 N.2   1 <1>  -0.7070 
 16 C       -4.7470     4.0560     0.0060 C.ar  1 <1>   0.1670 
 17 C       -4.1910     2.0100    -1.3770 C.3   1 <1>  -0.1600 
 18 C       -2.7620     4.1400    -1.3410 C.3   1 <1>  -0.1600 
 19 C        3.2320     4.6600     2.0420 C.3   1 <1>   0.0160 
 20 N       -5.8100     3.6380     0.6470 N.ar  1 <1>  -0.6200 
 21 C       -4.5040     5.3690    -0.2560 C.ar  1 <1>  -0.1430 
 22 C       -3.2020     5.5740    -0.9870 C.3   1 <1>  -0.0170 
 23 C       -6.6650     4.5950     1.0200 C.ar  1 <1>   0.7200 
 24 C       -5.4330     6.2840     0.1690 C.ar  1 <1>   0.1600 
 25 N       -6.5160     5.9070     0.8070 N.ar  1 <1>  -0.6200 
 26 N       -7.8080     4.1890     1.6850 N.pl3 1 <1>  -0.8380 
 27 C       -8.8620     5.1640     2.0860 C.3   1 <1>   0.1290 
 28 C       -8.2110     2.7550     1.7320 C.3   1 <1>   0.1290 
 29 H       -0.0710    -0.1400     0.2090 H     1 <1>   0.4570 
 30 H        2.0810    -1.2740     1.2740 H     1 <1>   0.0800 
 31 H        3.5040    -0.3470     0.8840 H     1 <1>   0.0800 
 32 H        2.4350    -0.8560    -0.3950 H     1 <1>   0.0800 
 33 H       -2.5380     3.3480     1.3480 H     1 <1>   0.0800 
 34 H       -3.6090     2.0150     1.2940 H     1 <1>   0.0800 
 35 H       -3.0900    -0.0480     0.1440 H     1 <1>   0.0800 
 36 H       -1.6300    -0.2350    -0.7880 H     1 <1>   0.0800 
 37 H       -1.1370     4.7720     1.1210 H     1 <1>   0.1500 
 38 H       -3.5360     0.1680    -2.2580 H     1 <1>   0.0800 
 39 H       -2.3700     1.4460    -2.3910 H     1 <1>   0.0800 
 40 H       -4.6440     2.4020    -2.2710 H     1 <1>   0.0800 
 41 H       -4.9650     1.5010    -0.8290 H     1 <1>   0.0800 
 42 H       -2.9510     3.9910    -2.3900 H     1 <1>   0.0800 
 43 H       -1.7110     3.9980    -1.1770 H     1 <1>   0.0800 
 44 H        3.8970     3.8210     2.1230 H     1 <1>   0.0800 
 45 H        3.1720     5.1660     2.9880 H     1 <1>   0.0800 
 46 H        3.5950     5.3410     1.2950 H     1 <1>   0.0800 
 47 H       -3.3430     6.1700    -1.8720 H     1 <1>   0.0800 
 48 H       -2.4890     6.0540    -0.3400 H     1 <1>   0.0800 
 49 H       -5.2880     7.3340    -0.0140 H     1 <1>   0.1500 
 50 H       -8.4130     6.0680     2.4600 H     1 <1>   0.0800 
 51 H       -9.4800     4.7500     2.8620 H     1 <1>   0.0800 
 52 H       -9.4730     5.4050     1.2330 H     1 <1>   0.0800 
 53 H       -7.3670     2.1410     1.9960 H     1 <1>   0.0800 
 54 H       -8.5780     2.4530     0.7670 H     1 <1>   0.0800 
 55 H       -8.9810     2.6030     2.4680 H     1 <1>   0.0800 
@<TRIPOS>BOND
  1   1   2  ar  
  2   1   3  ar  
  3   1  29  1   
  4   2   4  1   
  5   2   5  ar  
  6   3   6  ar  
  7   3   7  1   
  8   4   8  1   
  9   4   9  1   
 10   5  10  ar  
 11   5  11  1   
 12   6  10  ar  
 13   7  30  1   
 14   7  31  1   
 15   7  32  1   
 16   8  12  1   
 17   8  33  1   
 18   8  34  1   
 19   9  13  1   
 20   9  35  1   
 21   9  36  1   
 22  10  14  1   
 23  11  15  2   
 24  11  37  1   
 25  12  16  1   
 26  12  17  1   
 27  12  18  1   
 28  13  17  1   
 29  13  38  1   
 30  13  39  1   
 31  14  15  1   
 32  14  19  1   
 33  16  20  ar  
 34  16  21  ar  
 35  17  40  1   
 36  17  41  1   
 37  18  22  1   
 38  18  42  1   
 39  18  43  1   
 40  19  44  1   
 41  19  45  1   
 42  19  46  1   
 43  20  23  ar  
 44  21  22  1   
 45  21  24  ar  
 46  22  47  1   
 47  22  48  1   
 48  23  25  ar  
 49  23  26  1   
 50  24  25  ar  
 51  24  49  1   
 52  26  27  1   
 53  26  28  1   
 54  27  50  1   
 55  27  51  1   
 56  27  52  1   
 57  28  53  1   
 58  28  54  1   
 59  28  55  1   
@<TRIPOS>SUBSTRUCTURE
  1 ****   8 GROUP 4 **** **** 0

# MOE 2024.06 (io_trps.svl 2023.06)
