@<TRIPOS>MOLECULE
NONAME
52 55 1 0 0 
SMALL
USER_CHARGES


@<TRIPOS>ATOM
  1 O       -0.7870     0.8720    -1.3150 O.2   1 <1>  -0.5700 
  2 C       -1.7500     1.3100    -0.7160 C.2   1 <1>   0.5440 
  3 N       -2.9860     0.7300    -0.9140 N.am  1 <1>  -0.6600 
  4 C       -1.5660     2.4280     0.1830 C.ar  1 <1>   0.0860 
  5 C       -3.2350    -0.2220    -2.0350 C.3   1 <1>   0.1400 
  6 C       -4.1280     0.8450     0.0380 C.3   1 <1>   0.1400 
  7 C       -2.3460     3.5760     0.0570 C.ar  1 <1>   0.1600 
  8 C       -0.6120     2.4130     1.1900 C.ar  1 <1>  -0.1500 
  9 C       -3.5410    -1.6090    -1.4670 C.3   1 <1>  -0.1600 
 10 C       -4.4370    -0.5350     0.6220 C.3   1 <1>  -0.1600 
 11 N       -2.2810     4.6520     0.8300 N.ar  1 <1>  -0.6200 
 12 C       -0.5150     3.5210     2.0020 C.ar  1 <1>   0.0830 
 13 C       -4.7130    -1.5770    -0.4760 C.3   1 <1>   0.4240 
 14 C       -1.3640     4.6010     1.7840 C.ar  1 <1>   0.1600 
 15 O        0.4030     3.5280     2.9860 O.3   1 <1>  -0.5320 
 16 O       -5.8230    -1.1400    -1.2250 O.3   1 <1>  -0.5600 
 17 C       -4.9480    -2.9790     0.1290 C.ar  1 <1>  -0.1430 
 18 C       -7.0930    -1.4380    -0.7320 C.3   1 <1>   0.1200 
 19 C       -6.1670    -3.6300    -0.0080 C.ar  1 <1>  -0.1430 
 20 C       -3.9360    -3.6200     0.8330 C.ar  1 <1>  -0.1500 
 21 C       -7.2910    -2.9500    -0.7640 C.3   1 <1>  -0.0170 
 22 C       -6.3620    -4.8860     0.5430 C.ar  1 <1>  -0.1500 
 23 C       -4.1110    -4.8770     1.3840 C.ar  1 <1>   0.0830 
 24 C       -5.3480    -5.5260     1.2510 C.ar  1 <1>   0.0830 
 25 O       -3.0220    -5.3760     2.0330 O.3   1 <1>  -0.3630 
 26 O       -5.5420    -6.7490     1.8260 O.3   1 <1>  -0.3620 
 27 C       -2.7270    -6.7550     1.9910 C.3   1 <1>   0.0400 
 28 C       -6.8110    -7.3640     1.8740 C.3   1 <1>   0.0400 
 29 H       -2.3800    -0.2770    -2.6870 H     1 <1>   0.0800 
 30 H       -4.0710     0.1300    -2.6160 H     1 <1>   0.0800 
 31 H       -4.9880     1.2240    -0.4880 H     1 <1>   0.0800 
 32 H       -3.8970     1.5220     0.8410 H     1 <1>   0.0800 
 33 H       -3.0720     3.5970    -0.7380 H     1 <1>   0.1500 
 34 H        0.0340     1.5640     1.3270 H     1 <1>   0.1500 
 35 H       -2.6530    -1.9720    -0.9860 H     1 <1>   0.0800 
 36 H       -3.7750    -2.2870    -2.2670 H     1 <1>   0.0800 
 37 H       -5.2750    -0.4740     1.2900 H     1 <1>   0.0800 
 38 H       -3.5920    -0.8480     1.2070 H     1 <1>   0.0800 
 39 H       -1.2850     5.4620     2.4240 H     1 <1>   0.1500 
 40 H        0.4470     4.3580     3.4960 H     1 <1>   0.4500 
 41 H       -7.8150    -0.9510    -1.3640 H     1 <1>   0.0800 
 42 H       -7.1840    -1.0560     0.2690 H     1 <1>   0.0800 
 43 H       -2.9800    -3.1490     0.9660 H     1 <1>   0.1500 
 44 H       -7.2990    -3.2890    -1.7840 H     1 <1>   0.0800 
 45 H       -8.2390    -3.1910    -0.3190 H     1 <1>   0.0800 
 46 H       -7.3180    -5.3530     0.4090 H     1 <1>   0.1500 
 47 H       -1.6810    -6.8800     2.2040 H     1 <1>   0.0800 
 48 H       -2.9520    -7.1340     1.0100 H     1 <1>   0.0800 
 49 H       -3.3130    -7.2580     2.7380 H     1 <1>   0.0800 
 50 H       -6.7190    -8.2740     2.4380 H     1 <1>   0.0800 
 51 H       -7.1300    -7.5870     0.8720 H     1 <1>   0.0800 
 52 H       -7.5020    -6.7000     2.3630 H     1 <1>   0.0800 
@<TRIPOS>BOND
  1   1   2  2   
  2   2   3  am  
  3   2   4  1   
  4   3   5  1   
  5   3   6  1   
  6   4   7  ar  
  7   4   8  ar  
  8   5   9  1   
  9   5  29  1   
 10   5  30  1   
 11   6  10  1   
 12   6  31  1   
 13   6  32  1   
 14   7  11  ar  
 15   7  33  1   
 16   8  12  ar  
 17   8  34  1   
 18   9  13  1   
 19   9  35  1   
 20   9  36  1   
 21  10  13  1   
 22  10  37  1   
 23  10  38  1   
 24  11  14  ar  
 25  12  14  ar  
 26  12  15  1   
 27  13  16  1   
 28  13  17  1   
 29  14  39  1   
 30  15  40  1   
 31  16  18  1   
 32  17  19  ar  
 33  17  20  ar  
 34  18  21  1   
 35  18  41  1   
 36  18  42  1   
 37  19  21  1   
 38  19  22  ar  
 39  20  23  ar  
 40  20  43  1   
 41  21  44  1   
 42  21  45  1   
 43  22  24  ar  
 44  22  46  1   
 45  23  24  ar  
 46  23  25  1   
 47  24  26  1   
 48  25  27  1   
 49  26  28  1   
 50  27  47  1   
 51  27  48  1   
 52  27  49  1   
 53  28  50  1   
 54  28  51  1   
 55  28  52  1   
@<TRIPOS>SUBSTRUCTURE
  1 ****  10 GROUP 4 **** **** 0

# MOE 2024.06 (io_trps.svl 2023.06)
