@<TRIPOS>MOLECULE
NONAME
41 42 1 0 0 
SMALL
USER_CHARGES


@<TRIPOS>ATOM
  1 S       -1.1760     0.6380    -1.5470 S.o2  1 <1>   1.4470 
  2 O       -1.2990    -0.4960    -2.4380 O.2   1 <1>  -0.6500 
  3 O       -1.7310     1.9050    -1.9750 O.2   1 <1>  -0.6500 
  4 N       -1.9430     0.2550    -0.0820 N.am  1 <1>  -0.8490 
  5 C        0.5640     0.8900    -1.0950 C.ar  1 <1>  -0.0090 
  6 C       -1.3590    -0.8550     0.6920 C.3   1 <1>   0.1960 
  7 C       -3.4130     0.2020    -0.1810 C.3   1 <1>   0.1960 
  8 C        1.0010     2.1100    -0.5940 C.ar  1 <1>  -0.1500 
  9 C        1.4950    -0.1370    -1.2130 C.ar  1 <1>  -0.1500 
 10 C       -1.6980    -2.2340     0.1180 C.3   1 <1>  -0.1860 
 11 C       -4.0070    -1.1800     0.1270 C.3   1 <1>  -0.1600 
 12 C        2.3210     2.3120    -0.2310 C.ar  1 <1>   0.0820 
 13 C        2.8160     0.0430    -0.8400 C.ar  1 <1>  -0.1500 
 14 C       -1.3730    -3.2110     1.2240 C.2   1 <1>   0.9060 
 15 C       -3.1290    -2.2820    -0.4580 C.3   1 <1>   0.2000 
 16 O        2.6650     3.5440     0.2160 O.3   1 <1>  -0.3630 
 17 C        3.2360     1.2600    -0.3350 C.ar  1 <1>   0.0820 
 18 O       -0.1830    -3.4470     1.4430 O.co2 1 <1>  -0.9000 
 19 O       -2.2820    -3.6900     1.9150 O.co2 1 <1>  -0.9000 
 20 O       -3.7380    -3.4880    -0.1980 O.3   1 <1>  -0.6800 
 21 C        3.5590     4.2780    -0.5910 C.3   1 <1>   0.0400 
 22 O        4.5300     1.3710     0.0470 O.3   1 <1>  -0.3620 
 23 C        4.7580     1.5070     1.4320 C.3   1 <1>   0.0400 
 24 H       -0.2910    -0.7510     0.7790 H     1 <1>   0.0800 
 25 H       -1.7500    -0.7990     1.6950 H     1 <1>   0.0800 
 26 H       -3.8300     0.9220     0.5010 H     1 <1>   0.0800 
 27 H       -3.7200     0.4900    -1.1740 H     1 <1>   0.0800 
 28 H        0.3020     2.9220    -0.4870 H     1 <1>   0.1500 
 29 H        1.1800    -1.0960    -1.5940 H     1 <1>   0.1500 
 30 H       -1.0160    -2.4500    -0.6810 H     1 <1>   0.0800 
 31 H       -4.9960    -1.2420    -0.2880 H     1 <1>   0.0800 
 32 H       -4.0800    -1.3090     1.1930 H     1 <1>   0.0800 
 33 H        3.5210    -0.7650    -0.9290 H     1 <1>   0.1500 
 34 H       -3.0920    -2.1700    -1.5290 H     1 <1>   0.0800 
 35 H       -3.3950    -3.7830     0.7010 H     1 <1>   0.4000 
 36 H        3.6540     5.2650    -0.1770 H     1 <1>   0.0800 
 37 H        3.1610     4.3330    -1.5890 H     1 <1>   0.0800 
 38 H        4.5170     3.7900    -0.5970 H     1 <1>   0.0800 
 39 H        5.8190     1.5080     1.6000 H     1 <1>   0.0800 
 40 H        4.3040     0.6750     1.9410 H     1 <1>   0.0800 
 41 H        4.3310     2.4320     1.7740 H     1 <1>   0.0800 
@<TRIPOS>BOND
  1   1   2  2   
  2   1   3  2   
  3   1   4  am  
  4   1   5  1   
  5   4   6  1   
  6   4   7  1   
  7   5   8  ar  
  8   5   9  ar  
  9   6  10  1   
 10   6  24  1   
 11   6  25  1   
 12   7  11  1   
 13   7  26  1   
 14   7  27  1   
 15   8  12  ar  
 16   8  28  1   
 17   9  13  ar  
 18   9  29  1   
 19  10  14  1   
 20  10  15  1   
 21  10  30  1   
 22  11  15  1   
 23  11  31  1   
 24  11  32  1   
 25  12  16  1   
 26  12  17  ar  
 27  13  17  ar  
 28  13  33  1   
 29  14  18  ar  
 30  14  19  ar  
 31  15  20  1   
 32  15  34  1   
 33  16  21  1   
 34  17  22  1   
 35  20  35  1   
 36  21  36  1   
 37  21  37  1   
 38  21  38  1   
 39  22  23  1   
 40  23  39  1   
 41  23  40  1   
 42  23  41  1   
@<TRIPOS>SUBSTRUCTURE
  1 ****   5 GROUP 4 **** **** 0

# MOE 2024.06 (io_trps.svl 2023.06)
