@<TRIPOS>MOLECULE
NONAME
53 57 1 0 0 
SMALL
USER_CHARGES


@<TRIPOS>ATOM
  1 N        0.2410     0.1120     0.1810 N.ar  1 <1>  -0.6200 
  2 C       -0.8470     0.8750     0.3780 C.ar  1 <1>   0.6200 
  3 C        1.1800     0.6530    -0.5530 C.ar  1 <1>   0.1660 
  4 N       -1.0100     2.1180    -0.0960 N.ar  1 <1>  -0.6200 
  5 C       -1.9320     0.3080     1.1670 C.ar  1 <1>   0.0000 
  6 C        1.1010     1.9070    -1.0720 C.ar  1 <1>  -0.1430 
  7 C        2.4790    -0.0260    -0.9170 C.3   1 <1>   0.1440 
  8 C       -0.0360     2.6270    -0.8160 C.ar  1 <1>   0.1600 
  9 C       -3.2660     0.6530     0.9270 C.ar  1 <1>  -0.1500 
 10 C       -1.6940    -0.6050     2.1990 C.ar  1 <1>  -0.1500 
 11 C        2.3370     2.2670    -1.8570 C.3   1 <1>  -0.0160 
 12 C        3.0810    -0.6450     0.3550 C.3   1 <1>   0.3430 
 13 C        2.2290    -1.1180    -1.9780 C.3   1 <1>  -0.1600 
 14 C        3.3280     1.1500    -1.4740 C.3   1 <1>  -0.1600 
 15 C       -4.3020     0.1180     1.6700 C.ar  1 <1>  -0.1500 
 16 C       -2.7250    -1.1450     2.9460 C.ar  1 <1>  -0.1500 
 17 N        4.3120    -1.4580     0.0580 N.4   1 <1>  -0.9590 
 18 C        3.4640    -2.0120    -2.1940 C.3   1 <1>  -0.1600 
 19 C       -4.0340    -0.7840     2.6820 C.ar  1 <1>  -0.1500 
 20 C        4.0050    -2.5770    -0.8770 C.3   1 <1>   0.3430 
 21 C        4.9410    -1.9340     1.3100 C.3   1 <1>   0.5230 
 22 C        5.5190    -0.7200     1.9910 C.2   1 <1>  -0.3320 
 23 N        6.7310    -0.1870     1.7120 N.pl3 1 <1>   0.3140 
 24 C        4.9740     0.0370     2.9710 C.2   1 <1>  -0.1500 
 25 N        6.9560     0.9020     2.4540 N.2   1 <1>  -0.7070 
 26 C        7.7640    -0.6610     0.7760 C.3   1 <1>   0.0160 
 27 C        5.9130     1.0290     3.2130 C.2   1 <1>   0.1390 
 28 H       -0.1530     3.6260    -1.2020 H     1 <1>   0.1500 
 29 H       -3.4940     1.3540     0.1430 H     1 <1>   0.1500 
 30 H       -0.6840    -0.8960     2.4210 H     1 <1>   0.1500 
 31 H        2.7110     3.2410    -1.5900 H     1 <1>   0.0800 
 32 H        2.1160     2.2390    -2.9110 H     1 <1>   0.0800 
 33 H        2.3340    -1.2740     0.8130 H     1 <1>   0.0800 
 34 H        3.3120     0.1480     1.0460 H     1 <1>   0.0800 
 35 H        1.9290    -0.6680    -2.9100 H     1 <1>   0.0800 
 36 H        1.4100    -1.7380    -1.6500 H     1 <1>   0.0800 
 37 H        3.9370     0.8700    -2.3160 H     1 <1>   0.0800 
 38 H        3.9720     1.5320    -0.7000 H     1 <1>   0.0800 
 39 H       -5.3180     0.4040     1.4600 H     1 <1>   0.1500 
 40 H       -2.5130    -1.8460     3.7340 H     1 <1>   0.1500 
 41 H        4.9830    -0.8230    -0.3880 H     1 <1>   0.4500 
 42 H        4.2420    -1.4630    -2.6950 H     1 <1>   0.0800 
 43 H        3.1940    -2.8320    -2.8380 H     1 <1>   0.0800 
 44 H       -4.8390    -1.2020     3.2620 H     1 <1>   0.1500 
 45 H        3.2640    -3.2270    -0.4370 H     1 <1>   0.0800 
 46 H        4.8930    -3.1570    -1.0730 H     1 <1>   0.0800 
 47 H        5.7230    -2.6470     1.1020 H     1 <1>   0.0800 
 48 H        4.2040    -2.4010     1.9440 H     1 <1>   0.0800 
 49 H        4.0320    -0.0580     3.4850 H     1 <1>   0.1500 
 50 H        7.9480    -1.7060     0.9380 H     1 <1>   0.0800 
 51 H        8.6730    -0.1140     0.9570 H     1 <1>   0.0800 
 52 H        7.4460    -0.4860    -0.2340 H     1 <1>   0.0800 
 53 H        5.8030     1.8180     3.9410 H     1 <1>   0.1500 
@<TRIPOS>BOND
  1   1   2  ar  
  2   1   3  ar  
  3   2   4  ar  
  4   2   5  1   
  5   3   6  ar  
  6   3   7  1   
  7   4   8  ar  
  8   5   9  ar  
  9   5  10  ar  
 10   6   8  ar  
 11   6  11  1   
 12   7  12  1   
 13   7  13  1   
 14   7  14  1   
 15   8  28  1   
 16   9  15  ar  
 17   9  29  1   
 18  10  16  ar  
 19  10  30  1   
 20  11  14  1   
 21  11  31  1   
 22  11  32  1   
 23  12  17  1   
 24  12  33  1   
 25  12  34  1   
 26  13  18  1   
 27  13  35  1   
 28  13  36  1   
 29  14  37  1   
 30  14  38  1   
 31  15  19  ar  
 32  15  39  1   
 33  16  19  ar  
 34  16  40  1   
 35  17  20  1   
 36  17  21  1   
 37  17  41  1   
 38  18  20  1   
 39  18  42  1   
 40  18  43  1   
 41  19  44  1   
 42  20  45  1   
 43  20  46  1   
 44  21  22  1   
 45  21  47  1   
 46  21  48  1   
 47  22  23  1   
 48  22  24  2   
 49  23  25  1   
 50  23  26  1   
 51  24  27  1   
 52  24  49  1   
 53  25  27  2   
 54  26  50  1   
 55  26  51  1   
 56  26  52  1   
 57  27  53  1   
@<TRIPOS>SUBSTRUCTURE
  1 ****  12 GROUP 4 **** **** 0

# MOE 2024.06 (io_trps.svl 2023.06)
