@<TRIPOS>MOLECULE
NONAME
47 49 1 0 0 
SMALL
USER_CHARGES


@<TRIPOS>ATOM
  1 S       -2.4670    -0.9540     0.5360 S.3   1 <1>  -0.0800 
  2 C       -1.8140    -1.7490    -0.8610 C.2   1 <1>   0.4420 
  3 C       -1.4420     0.3860     0.1590 C.2   1 <1>   0.1980 
  4 N       -0.9460    -1.0210    -1.4660 N.2   1 <1>  -0.3380 
  5 N       -2.2910    -3.0120    -1.1330 N.am  1 <1>  -0.4940 
  6 N       -0.7390     0.1940    -0.8800 N.2   1 <1>  -0.3380 
  7 C       -1.4740     1.6040     1.0550 C.3   1 <1>   0.0200 
  8 C       -1.9720    -3.8690    -2.1490 C.2   1 <1>   0.5690 
  9 C       -0.4610     2.6290     0.5300 C.3   1 <1>   0.3430 
 10 O       -1.1700    -3.6170    -3.0100 O.2   1 <1>  -0.5700 
 11 C       -2.6660    -5.2210    -2.1970 C.3   1 <1>   0.0440 
 12 N       -0.3650     3.8570     1.3890 N.4   1 <1>  -0.9590 
 13 C       -3.6970    -5.3960    -1.0840 C.ar  1 <1>  -0.1430 
 14 C       -1.6030     4.7000     1.3280 C.3   1 <1>   0.2630 
 15 C        0.8230     4.6660     0.9710 C.3   1 <1>   0.2630 
 16 C       -3.3190    -5.9210     0.1420 C.ar  1 <1>  -0.1500 
 17 C       -5.0120    -5.0030    -1.2800 C.ar  1 <1>  -0.1500 
 18 C       -4.2440    -6.0460     1.1620 C.ar  1 <1>  -0.1500 
 19 C       -5.9370    -5.1280    -0.2600 C.ar  1 <1>  -0.1500 
 20 C       -5.5650    -5.6540     0.9730 C.ar  1 <1>  -0.0230 
 21 N       -6.5120    -5.7870     2.0240 N.pl3 1 <1>   0.5930 
 22 N       -6.4770    -5.0920     3.1480 N.2   1 <1>  -0.4180 
 23 C       -7.5700    -6.5910     2.1110 C.2   1 <1>   0.0060 
 24 N       -7.4760    -5.4730     3.8550 N.2   1 <1>   0.0000 
 25 N       -8.1710    -6.4110     3.2220 N.2   1 <1>  -0.3380 
 26 C       -7.9980    -7.5890     1.0490 C.3   1 <1>  -0.0600 
 27 H       -2.9910    -3.3690    -0.4840 H     1 <1>   0.3700 
 28 H       -1.2150     1.3030     2.0540 H     1 <1>   0.0800 
 29 H       -2.4680     2.0090     1.0440 H     1 <1>   0.0800 
 30 H       -0.7300     2.9050    -0.4770 H     1 <1>   0.0800 
 31 H        0.5050     2.1490     0.4830 H     1 <1>   0.0800 
 32 H       -1.9170    -5.9880    -2.1270 H     1 <1>   0.0800 
 33 H       -3.1410    -5.3230    -3.1560 H     1 <1>   0.0800 
 34 H       -0.2110     3.5630     2.3670 H     1 <1>   0.4500 
 35 H       -1.7950     5.0100     0.3130 H     1 <1>   0.0800 
 36 H       -1.4860     5.5800     1.9400 H     1 <1>   0.0800 
 37 H       -2.4560     4.1480     1.6880 H     1 <1>   0.0800 
 38 H        0.7130     4.9940    -0.0510 H     1 <1>   0.0800 
 39 H        1.7240     4.0780     1.0470 H     1 <1>   0.0800 
 40 H        0.9270     5.5340     1.6020 H     1 <1>   0.0800 
 41 H       -2.3010    -6.2330     0.3110 H     1 <1>   0.1500 
 42 H       -5.3210    -4.5920    -2.2280 H     1 <1>   0.1500 
 43 H       -3.9380    -6.4500     2.1130 H     1 <1>   0.1500 
 44 H       -6.9540    -4.8110    -0.4250 H     1 <1>   0.1500 
 45 H       -7.1850    -8.2510     0.8100 H     1 <1>   0.0800 
 46 H       -8.3100    -7.0750     0.1590 H     1 <1>   0.0800 
 47 H       -8.8230    -8.1770     1.4120 H     1 <1>   0.0800 
@<TRIPOS>BOND
  1   1   2  1   
  2   1   3  1   
  3   2   4  2   
  4   2   5  1   
  5   3   6  2   
  6   3   7  1   
  7   4   6  1   
  8   5   8  am  
  9   5  27  1   
 10   7   9  1   
 11   7  28  1   
 12   7  29  1   
 13   8  10  2   
 14   8  11  1   
 15   9  12  1   
 16   9  30  1   
 17   9  31  1   
 18  11  13  1   
 19  11  32  1   
 20  11  33  1   
 21  12  14  1   
 22  12  15  1   
 23  12  34  1   
 24  13  16  ar  
 25  13  17  ar  
 26  14  35  1   
 27  14  36  1   
 28  14  37  1   
 29  15  38  1   
 30  15  39  1   
 31  15  40  1   
 32  16  18  ar  
 33  16  41  1   
 34  17  19  ar  
 35  17  42  1   
 36  18  20  ar  
 37  18  43  1   
 38  19  20  ar  
 39  19  44  1   
 40  20  21  1   
 41  21  22  1   
 42  21  23  1   
 43  22  24  2   
 44  23  25  2   
 45  23  26  1   
 46  24  25  1   
 47  26  45  1   
 48  26  46  1   
 49  26  47  1   
@<TRIPOS>SUBSTRUCTURE
  1 ****   5 GROUP 4 **** **** 0

# MOE 2024.06 (io_trps.svl 2023.06)
