@<TRIPOS>MOLECULE
NONAME
59 60 1 0 0 
SMALL
USER_CHARGES


@<TRIPOS>ATOM
  1 S        0.5100    -0.2230     0.8400 S.o2  1 <1>   1.3330 
  2 O       -0.2360    -1.2230     1.5690 O.2   1 <1>  -0.6500 
  3 O        1.8860     0.0420     1.1930 O.2   1 <1>  -0.6500 
  4 N        0.4640    -0.6470    -0.8050 N.am  1 <1>  -0.8490 
  5 C       -0.3880     1.3290     0.8860 C.3   1 <1>  -0.0550 
  6 C        1.6140    -1.4690    -1.1950 C.3   1 <1>   0.1160 
  7 C       -0.7800    -1.3180    -1.1960 C.3   1 <1>   0.1160 
  8 C        0.2100     2.4350    -0.0110 C.3   1 <1>  -0.0800 
  9 C       -0.6770     3.6740    -0.1520 C.3   1 <1>   0.2000 
 10 C        1.5600     2.9840     0.4750 C.3   1 <1>   0.1400 
 11 O       -1.1740     4.0230     1.0940 O.3   1 <1>  -0.6800 
 12 C        0.2930     4.7650    -0.5970 C.3   1 <1>   0.1400 
 13 N        1.5600     4.4200     0.0940 N.am  1 <1>  -0.6600 
 14 C        2.5500     5.2810     0.4770 C.2   1 <1>   0.5690 
 15 O        3.4660     4.9080     1.1690 O.2   1 <1>  -0.5700 
 16 C        2.4870     6.7400     0.0380 C.3   1 <1>  -0.0990 
 17 C        3.8110     7.5110     0.2030 C.3   1 <1>  -0.1600 
 18 C        3.6840     8.9640    -0.2720 C.3   1 <1>  -0.0160 
 19 C        4.9980     9.7050    -0.0970 C.ar  1 <1>  -0.1440 
 20 C        5.9130     9.7720    -1.1350 C.ar  1 <1>  -0.1500 
 21 C        5.2980    10.3240     1.1050 C.ar  1 <1>  -0.1500 
 22 C        7.1070    10.4520    -0.9740 C.ar  1 <1>  -0.1500 
 23 C        6.4940    11.0040     1.2650 C.ar  1 <1>  -0.1500 
 24 C        7.4110    11.0770     0.2270 C.ar  1 <1>  -0.1440 
 25 C        8.7240    11.8330     0.4210 C.3   1 <1>   0.0630 
 26 C        8.8260    13.0100    -0.5540 C.3   1 <1>  -0.2400 
 27 C        9.9240    10.8930     0.2690 C.3   1 <1>  -0.2400 
 28 H       -1.3980     1.1500     0.5760 H     1 <1>   0.0800 
 29 H       -0.4260     1.6760     1.9010 H     1 <1>   0.0800 
 30 H        1.5620    -1.7130    -2.2420 H     1 <1>   0.0800 
 31 H        1.6370    -2.3790    -0.6180 H     1 <1>   0.0800 
 32 H        2.5300    -0.9290    -1.0220 H     1 <1>   0.0800 
 33 H       -0.7930    -1.4830    -2.2600 H     1 <1>   0.0800 
 34 H       -1.6290    -0.7100    -0.9370 H     1 <1>   0.0800 
 35 H       -0.8700    -2.2680    -0.6940 H     1 <1>   0.0800 
 36 H        0.3630     2.0350    -0.9990 H     1 <1>   0.0800 
 37 H       -1.5040     3.5390    -0.8280 H     1 <1>   0.0800 
 38 H        2.3870     2.4700     0.0130 H     1 <1>   0.0800 
 39 H        1.6550     2.9030     1.5460 H     1 <1>   0.0800 
 40 H       -0.4240     4.2860     1.6680 H     1 <1>   0.4000 
 41 H       -0.0660     5.7450    -0.3330 H     1 <1>   0.0800 
 42 H        0.4480     4.7080    -1.6600 H     1 <1>   0.0800 
 43 H        2.2010     6.7700    -0.9960 H     1 <1>   0.0800 
 44 H        1.7230     7.2250     0.6170 H     1 <1>   0.0800 
 45 H        4.1060     7.5020     1.2390 H     1 <1>   0.0800 
 46 H        4.5860     7.0180    -0.3600 H     1 <1>   0.0800 
 47 H        2.9160     9.4660     0.2910 H     1 <1>   0.0800 
 48 H        3.3960     8.9860    -1.3080 H     1 <1>   0.0800 
 49 H        5.7000     9.2940    -2.0740 H     1 <1>   0.1500 
 50 H        4.6030    10.2780     1.9240 H     1 <1>   0.1500 
 51 H        7.8010    10.4910    -1.7940 H     1 <1>   0.1500 
 52 H        6.7040    11.4770     2.2080 H     1 <1>   0.1500 
 53 H        8.7460    12.2330     1.4210 H     1 <1>   0.0800 
 54 H        8.8570    12.6630    -1.5710 H     1 <1>   0.0800 
 55 H        9.7160    13.5810    -0.3580 H     1 <1>   0.0800 
 56 H        7.9720    13.6530    -0.4390 H     1 <1>   0.0800 
 57 H        9.9770    10.4990    -0.7300 H     1 <1>   0.0800 
 58 H        9.8320    10.0710     0.9560 H     1 <1>   0.0800 
 59 H       10.8380    11.4180     0.4810 H     1 <1>   0.0800 
@<TRIPOS>BOND
  1   1   2  2   
  2   1   3  2   
  3   1   4  am  
  4   1   5  1   
  5   4   6  1   
  6   4   7  1   
  7   5   8  1   
  8   5  28  1   
  9   5  29  1   
 10   6  30  1   
 11   6  31  1   
 12   6  32  1   
 13   7  33  1   
 14   7  34  1   
 15   7  35  1   
 16   8   9  1   
 17   8  10  1   
 18   8  36  1   
 19   9  11  1   
 20   9  12  1   
 21   9  37  1   
 22  10  13  1   
 23  10  38  1   
 24  10  39  1   
 25  11  40  1   
 26  12  13  1   
 27  12  41  1   
 28  12  42  1   
 29  13  14  am  
 30  14  15  2   
 31  14  16  1   
 32  16  17  1   
 33  16  43  1   
 34  16  44  1   
 35  17  18  1   
 36  17  45  1   
 37  17  46  1   
 38  18  19  1   
 39  18  47  1   
 40  18  48  1   
 41  19  20  ar  
 42  19  21  ar  
 43  20  22  ar  
 44  20  49  1   
 45  21  23  ar  
 46  21  50  1   
 47  22  24  ar  
 48  22  51  1   
 49  23  24  ar  
 50  23  52  1   
 51  24  25  1   
 52  25  26  1   
 53  25  27  1   
 54  25  53  1   
 55  26  54  1   
 56  26  55  1   
 57  26  56  1   
 58  27  57  1   
 59  27  58  1   
 60  27  59  1   
@<TRIPOS>SUBSTRUCTURE
  1 ****  14 GROUP 4 **** **** 0

# MOE 2024.06 (io_trps.svl 2023.06)
