@<TRIPOS>MOLECULE
NONAME
55 57 1 0 0 
SMALL
USER_CHARGES


@<TRIPOS>ATOM
  1 O       -0.0180     0.1350    -0.9050 O.2   1 <1>  -0.5700 
  2 C        1.0110    -0.2580    -0.4070 C.2   1 <1>   0.5690 
  3 N        1.9670     0.6040     0.0240 N.am  1 <1>  -0.7300 
  4 C        1.1990    -1.7800    -0.2670 C.3   1 <1>   0.4040 
  5 C        1.9010     2.0690    -0.1500 C.3   1 <1>   0.2840 
  6 N       -0.1020    -2.5510    -0.3260 N.4   1 <1>  -0.9590 
  7 C        3.3280     2.5810    -0.2130 C.ar  1 <1>  -0.1440 
  8 C       -0.9470    -2.2910     0.8780 C.3   1 <1>   0.3430 
  9 C        0.1050    -4.0010    -0.5990 C.3   1 <1>   0.3430 
 10 C        3.9750     3.0030     0.9390 C.ar  1 <1>  -0.1500 
 11 C        4.0040     2.6210    -1.4230 C.ar  1 <1>  -0.1500 
 12 C       -2.3090    -2.9600     0.7060 C.3   1 <1>  -0.1600 
 13 C       -1.2450    -4.6880    -0.7880 C.3   1 <1>  -0.1600 
 14 C        5.2790     3.4610     0.8790 C.ar  1 <1>  -0.1500 
 15 C        5.3070     3.0810    -1.4800 C.ar  1 <1>  -0.1500 
 16 C       -2.1620    -4.4600     0.4200 C.3   1 <1>   0.0630 
 17 C        5.9580     3.5130    -0.3320 C.ar  1 <1>   0.1170 
 18 C       -3.5210    -5.1210     0.2120 C.ar  1 <1>  -0.1440 
 19 N        7.2770     3.9730    -0.4150 N.am  1 <1>  -0.5470 
 20 C       -3.9290    -6.1350     1.0670 C.ar  1 <1>  -0.1500 
 21 C       -4.3660    -4.7330    -0.8200 C.ar  1 <1>  -0.1500 
 22 C        7.8460     5.1210     0.0360 C.2   1 <1>   0.5690 
 23 C       -5.1570    -6.7500     0.8960 C.ar  1 <1>  -0.1500 
 24 C       -5.5950    -5.3470    -0.9920 C.ar  1 <1>  -0.1500 
 25 O        9.0230     5.3090    -0.1250 O.2   1 <1>  -0.5700 
 26 C        7.0230     6.1860     0.7200 C.3   1 <1>  -0.1790 
 27 C       -5.9910    -6.3560    -0.1350 C.ar  1 <1>  -0.1500 
 28 H        2.8700     0.3020     0.4000 H     1 <1>   0.3700 
 29 H        1.7020    -1.9850     0.6620 H     1 <1>   0.0800 
 30 H        1.8380    -2.0990    -1.0720 H     1 <1>   0.0800 
 31 H        1.3790     2.5110     0.6810 H     1 <1>   0.0800 
 32 H        1.3730     2.3160    -1.0570 H     1 <1>   0.0800 
 33 H       -0.6210    -2.1340    -1.1180 H     1 <1>   0.4500 
 34 H       -1.0890    -1.2290     1.0080 H     1 <1>   0.0800 
 35 H       -0.4630    -2.6810     1.7580 H     1 <1>   0.0800 
 36 H        0.6260    -4.4580     0.2280 H     1 <1>   0.0800 
 37 H        0.6990    -4.1310    -1.4890 H     1 <1>   0.0800 
 38 H        3.4690     2.9780     1.8890 H     1 <1>   0.1500 
 39 H        3.5170     2.2970    -2.3270 H     1 <1>   0.1500 
 40 H       -2.8420    -2.4720    -0.0910 H     1 <1>   0.0800 
 41 H       -2.8850    -2.8260     1.6050 H     1 <1>   0.0800 
 42 H       -1.0890    -5.7450    -0.9170 H     1 <1>   0.0800 
 43 H       -1.7070    -4.3210    -1.6880 H     1 <1>   0.0800 
 44 H        5.7760     3.7740     1.7790 H     1 <1>   0.1500 
 45 H        5.8220     3.1130    -2.4240 H     1 <1>   0.1500 
 46 H       -1.6950    -4.9140     1.2790 H     1 <1>   0.0800 
 47 H        7.9300     3.4010    -0.9510 H     1 <1>   0.3700 
 48 H       -3.2990    -6.4600     1.8760 H     1 <1>   0.1500 
 49 H       -4.0840    -3.9520    -1.5010 H     1 <1>   0.1500 
 50 H       -5.4650    -7.5350     1.5640 H     1 <1>   0.1500 
 51 H       -6.2440    -5.0400    -1.7940 H     1 <1>   0.1500 
 52 H        6.0560     6.2660     0.2600 H     1 <1>   0.0800 
 53 H        7.5230     7.1330     0.6370 H     1 <1>   0.0800 
 54 H        6.9120     5.9450     1.7600 H     1 <1>   0.0800 
 55 H       -6.9460    -6.8340    -0.2680 H     1 <1>   0.1500 
@<TRIPOS>BOND
  1   1   2  2   
  2   2   3  am  
  3   2   4  1   
  4   3   5  1   
  5   3  28  1   
  6   4   6  1   
  7   4  29  1   
  8   4  30  1   
  9   5   7  1   
 10   5  31  1   
 11   5  32  1   
 12   6   8  1   
 13   6   9  1   
 14   6  33  1   
 15   7  10  ar  
 16   7  11  ar  
 17   8  12  1   
 18   8  34  1   
 19   8  35  1   
 20   9  13  1   
 21   9  36  1   
 22   9  37  1   
 23  10  14  ar  
 24  10  38  1   
 25  11  15  ar  
 26  11  39  1   
 27  12  16  1   
 28  12  40  1   
 29  12  41  1   
 30  13  16  1   
 31  13  42  1   
 32  13  43  1   
 33  14  17  ar  
 34  14  44  1   
 35  15  17  ar  
 36  15  45  1   
 37  16  18  1   
 38  16  46  1   
 39  17  19  1   
 40  18  20  ar  
 41  18  21  ar  
 42  19  22  am  
 43  19  47  1   
 44  20  23  ar  
 45  20  48  1   
 46  21  24  ar  
 47  21  49  1   
 48  22  25  2   
 49  22  26  1   
 50  23  27  ar  
 51  23  50  1   
 52  24  27  ar  
 53  24  51  1   
 54  26  52  1   
 55  26  53  1   
 56  26  54  1   
 57  27  55  1   
@<TRIPOS>SUBSTRUCTURE
  1 ****   2 GROUP 4 **** **** 0

# MOE 2024.06 (io_trps.svl 2023.06)
