@<TRIPOS>MOLECULE
NONAME
55 58 1 0 0 
SMALL
USER_CHARGES


@<TRIPOS>ATOM
  1 O        2.9320    -0.3310    -1.8500 O.2   1 <1>  -0.5700 
  2 C        2.4260    -1.2030    -1.1870 C.2   1 <1>   0.5690 
  3 N        1.1080    -1.5260    -1.1940 N.am  1 <1>  -0.6600 
  4 C        3.2390    -2.1070    -0.2940 C.3   1 <1>  -0.0190 
  5 C        0.8100    -2.6600    -0.2880 C.3   1 <1>   0.1400 
  6 C        0.0370    -0.8070    -1.9180 C.3   1 <1>   0.1400 
  7 C        2.1280    -2.8260     0.4740 C.3   1 <1>   0.4180 
  8 C        4.1510    -1.6190     0.8780 C.3   1 <1>  -0.0190 
  9 C       -0.4790    -1.6690    -3.0720 C.3   1 <1>  -0.1600 
 10 O        2.1220    -2.0880     1.6490 O.3   1 <1>  -0.5600 
 11 C        2.6640    -4.1300     1.0090 C.2   1 <1>  -0.2880 
 12 C        4.3550    -0.1450     1.2220 C.2   1 <1>   0.5690 
 13 C        3.4260    -2.2610     2.0690 C.3   1 <1>   0.3380 
 14 C       -1.5600    -0.9340    -3.8730 C.3   1 <1>  -0.2400 
 15 C        3.4910    -3.7770     1.9860 C.2   1 <1>  -0.2880 
 16 O        5.0590     0.0680     2.1810 O.2   1 <1>  -0.5700 
 17 N        3.8000     0.8730     0.4990 N.am  1 <1>  -0.4940 
 18 C        3.8100     2.2770     0.7020 C.2   1 <1>  -0.0880 
 19 N        3.8180     2.9560     1.8840 N.pl3 1 <1>   0.3140 
 20 C        3.7750     3.2170    -0.2730 C.2   1 <1>  -0.1810 
 21 N        3.7940     4.2930     1.6850 N.2   1 <1>  -0.7070 
 22 C        3.7370     2.4270     3.2500 C.3   1 <1>   0.0160 
 23 C        3.7730     4.4380     0.3980 C.2   1 <1>   0.1080 
 24 C        3.7430     2.9940    -1.7760 C.3   1 <1>   0.0210 
 25 C        3.7480     5.8120    -0.2470 C.3   1 <1>   0.0210 
 26 C        2.2990     2.9700    -2.2820 C.3   1 <1>  -0.2400 
 27 C        5.1680     6.3260    -0.5060 C.3   1 <1>  -0.2400 
 28 H        3.7600    -2.8060    -0.9210 H     1 <1>   0.0800 
 29 H        0.0000    -2.4350     0.3830 H     1 <1>   0.0800 
 30 H        0.5930    -3.5390    -0.8680 H     1 <1>   0.0800 
 31 H       -0.7620    -0.5730    -1.2360 H     1 <1>   0.0800 
 32 H        0.4300     0.1180    -2.3070 H     1 <1>   0.0800 
 33 H        5.1260    -2.0610     0.7890 H     1 <1>   0.0800 
 34 H        0.3410    -1.9080    -3.7270 H     1 <1>   0.0800 
 35 H       -0.8910    -2.5840    -2.6870 H     1 <1>   0.0800 
 36 H        2.3840    -5.0810     0.5900 H     1 <1>   0.1500 
 37 H        3.5760    -1.8330     3.0460 H     1 <1>   0.0800 
 38 H       -1.1670    -0.0220    -4.2870 H     1 <1>   0.0800 
 39 H       -2.4010    -0.6960    -3.2440 H     1 <1>   0.0800 
 40 H       -1.9040    -1.5540    -4.6820 H     1 <1>   0.0800 
 41 H        4.1250    -4.3440     2.6450 H     1 <1>   0.1500 
 42 H        3.4150     0.6070    -0.4170 H     1 <1>   0.3700 
 43 H        3.1250     1.5460     3.2560 H     1 <1>   0.0800 
 44 H        3.3060     3.1720     3.8910 H     1 <1>   0.0800 
 45 H        4.7280     2.1890     3.5890 H     1 <1>   0.0800 
 46 H        4.2940     3.7720    -2.2720 H     1 <1>   0.0800 
 47 H        4.2210     2.0590    -2.0100 H     1 <1>   0.0800 
 48 H        3.1990     5.7700    -1.1690 H     1 <1>   0.0800 
 49 H        3.2360     6.4910     0.4110 H     1 <1>   0.0800 
 50 H        1.8170     3.9100    -2.0870 H     1 <1>   0.0800 
 51 H        1.7510     2.1920    -1.7820 H     1 <1>   0.0800 
 52 H        2.2820     2.7790    -3.3400 H     1 <1>   0.0800 
 53 H        5.6920     5.6560    -1.1640 H     1 <1>   0.0800 
 54 H        5.7060     6.3840     0.4240 H     1 <1>   0.0800 
 55 H        5.1360     7.3040    -0.9520 H     1 <1>   0.0800 
@<TRIPOS>BOND
  1   1   2  2   
  2   2   3  am  
  3   2   4  1   
  4   3   5  1   
  5   3   6  1   
  6   4   7  1   
  7   4   8  1   
  8   4  28  1   
  9   5   7  1   
 10   5  29  1   
 11   5  30  1   
 12   6   9  1   
 13   6  31  1   
 14   6  32  1   
 15   7  10  1   
 16   7  11  1   
 17   8  12  1   
 18   8  13  1   
 19   8  33  1   
 20   9  14  1   
 21   9  34  1   
 22   9  35  1   
 23  10  13  1   
 24  11  15  2   
 25  11  36  1   
 26  12  16  2   
 27  12  17  am  
 28  13  15  1   
 29  13  37  1   
 30  14  38  1   
 31  14  39  1   
 32  14  40  1   
 33  15  41  1   
 34  17  18  1   
 35  17  42  1   
 36  18  19  1   
 37  18  20  2   
 38  19  21  1   
 39  19  22  1   
 40  20  23  1   
 41  20  24  1   
 42  21  23  2   
 43  22  43  1   
 44  22  44  1   
 45  22  45  1   
 46  23  25  1   
 47  24  26  1   
 48  24  46  1   
 49  24  47  1   
 50  25  27  1   
 51  25  48  1   
 52  25  49  1   
 53  26  50  1   
 54  26  51  1   
 55  26  52  1   
 56  27  53  1   
 57  27  54  1   
 58  27  55  1   
@<TRIPOS>SUBSTRUCTURE
  1 ****  17 GROUP 4 **** **** 0

# MOE 2024.06 (io_trps.svl 2023.06)
