@<TRIPOS>MOLECULE
NONAME
45 47 1 0 0 
SMALL
USER_CHARGES


@<TRIPOS>ATOM
  1 O        0.5650     0.0670     0.4300 O.3   1 <1>  -0.3630 
  2 C       -0.2350    -0.9310     0.0660 C.ar  1 <1>   0.3920 
  3 C       -0.2070     1.1240     0.9770 C.3   1 <1>   0.2000 
  4 N        0.1800    -1.9120    -0.6890 N.ar  1 <1>  -0.6200 
  5 C       -1.5100    -0.7790     0.5180 C.ar  1 <1>  -0.1440 
  6 C       -1.5780     0.4970     1.3110 C.3   1 <1>  -0.0160 
  7 C       -0.3150     2.2470    -0.0810 C.3   1 <1>   0.3430 
  8 C       -0.7690    -2.7950    -0.9560 C.ar  1 <1>   0.4760 
  9 C       -2.4150    -1.7490     0.1750 C.ar  1 <1>   0.1660 
 10 N        0.9920     2.5320    -0.7700 N.4   1 <1>  -0.9590 
 11 N       -2.0400    -2.7680    -0.5730 N.ar  1 <1>  -0.6200 
 12 C       -0.3680    -3.9790    -1.8030 C.3   1 <1>  -0.0970 
 13 C       -3.8620    -1.7180     0.6170 C.3   1 <1>  -0.0970 
 14 C        1.1830     3.9910    -1.0470 C.3   1 <1>   0.4860 
 15 C        1.2360     1.6680    -1.9680 C.3   1 <1>   0.2630 
 16 C        1.2830     4.7730     0.2680 C.ar  1 <1>   0.1670 
 17 N        1.8810     4.1310     1.2700 N.ar  1 <1>  -0.6200 
 18 C        0.7630     6.0620     0.3640 C.ar  1 <1>  -0.1430 
 19 C        1.9830     4.8020     2.4070 C.ar  1 <1>   0.1600 
 20 C        0.8730     6.7330     1.5660 C.ar  1 <1>  -0.1500 
 21 C        0.0850     6.7690    -0.8060 C.3   1 <1>  -0.0970 
 22 C        1.5000     6.0810     2.6040 C.ar  1 <1>  -0.1500 
 23 H        0.2870     1.4850     1.8620 H     1 <1>   0.0800 
 24 H       -2.4050     1.1200     1.0190 H     1 <1>   0.0800 
 25 H       -1.6440     0.2780     2.3630 H     1 <1>   0.0800 
 26 H       -0.6650     3.1340     0.4200 H     1 <1>   0.0800 
 27 H       -1.0560     1.9730    -0.8140 H     1 <1>   0.0800 
 28 H        1.7210     2.3350    -0.0590 H     1 <1>   0.4500 
 29 H        0.6580    -3.8960    -2.1110 H     1 <1>   0.0800 
 30 H       -0.9940    -4.0260    -2.6740 H     1 <1>   0.0800 
 31 H       -0.4900    -4.8800    -1.2330 H     1 <1>   0.0800 
 32 H       -4.0630    -0.8730     1.2470 H     1 <1>   0.0800 
 33 H       -4.0880    -2.6170     1.1620 H     1 <1>   0.0800 
 34 H       -4.5010    -1.6730    -0.2460 H     1 <1>   0.0800 
 35 H        0.3690     4.3660    -1.6430 H     1 <1>   0.0800 
 36 H        2.1010     4.1360    -1.5900 H     1 <1>   0.0800 
 37 H        0.4920     1.8540    -2.7250 H     1 <1>   0.0800 
 38 H        1.1940     0.6250    -1.6980 H     1 <1>   0.0800 
 39 H        2.2110     1.8680    -2.3810 H     1 <1>   0.0800 
 40 H        2.4770     4.3090     3.2290 H     1 <1>   0.1500 
 41 H        0.4920     7.7320     1.7000 H     1 <1>   0.1500 
 42 H        0.7430     6.8100    -1.6560 H     1 <1>   0.0800 
 43 H       -0.1700     7.7810    -0.5430 H     1 <1>   0.0800 
 44 H       -0.8220     6.2610    -1.0790 H     1 <1>   0.0800 
 45 H        1.6180     6.5630     3.5590 H     1 <1>   0.1500 
@<TRIPOS>BOND
  1   1   2  1   
  2   1   3  1   
  3   2   4  ar  
  4   2   5  ar  
  5   3   6  1   
  6   3   7  1   
  7   3  23  1   
  8   4   8  ar  
  9   5   6  1   
 10   5   9  ar  
 11   6  24  1   
 12   6  25  1   
 13   7  10  1   
 14   7  26  1   
 15   7  27  1   
 16   8  11  ar  
 17   8  12  1   
 18   9  11  ar  
 19   9  13  1   
 20  10  14  1   
 21  10  15  1   
 22  10  28  1   
 23  12  29  1   
 24  12  30  1   
 25  12  31  1   
 26  13  32  1   
 27  13  33  1   
 28  13  34  1   
 29  14  16  1   
 30  14  35  1   
 31  14  36  1   
 32  15  37  1   
 33  15  38  1   
 34  15  39  1   
 35  16  17  ar  
 36  16  18  ar  
 37  17  19  ar  
 38  18  20  ar  
 39  18  21  1   
 40  19  22  ar  
 41  19  40  1   
 42  20  22  ar  
 43  20  41  1   
 44  21  42  1   
 45  21  43  1   
 46  21  44  1   
 47  22  45  1   
@<TRIPOS>SUBSTRUCTURE
  1 ****   7 GROUP 4 **** **** 0

# MOE 2024.06 (io_trps.svl 2023.06)
