@<TRIPOS>MOLECULE
NONAME
46 48 1 0 0 
SMALL
USER_CHARGES


@<TRIPOS>ATOM
  1 CL      -3.9380     0.1850     2.5710 Cl    1 <1>  -0.1240 
  2 C       -3.4290    -0.9410     1.3400 C.2   1 <1>   0.2640 
  3 O       -3.9480    -2.1510     1.3550 O.3   1 <1>  -0.2800 
  4 C       -2.5600    -0.7730     0.3250 C.2   1 <1>  -0.1500 
  5 C       -3.4140    -2.8020     0.3330 C.2   1 <1>  -0.0400 
  6 C       -2.5500    -2.0060    -0.3440 C.2   1 <1>  -0.1500 
  7 C       -3.8490    -4.2380     0.1020 C.3   1 <1>   0.5230 
  8 N       -5.3350    -4.2770     0.1660 N.4   1 <1>  -0.9590 
  9 C       -5.8640    -5.6700     0.3670 C.3   1 <1>   0.3430 
 10 C       -5.9480    -3.6050    -1.0180 C.3   1 <1>   0.3430 
 11 C       -7.3390    -5.7330     0.8220 C.3   1 <1>   0.1400 
 12 C       -7.1160    -2.7180    -0.5890 C.3   1 <1>  -0.1600 
 13 N       -8.2380    -4.8490     0.0130 N.am  1 <1>  -0.6600 
 14 C       -8.1330    -3.3980     0.3310 C.3   1 <1>   0.1400 
 15 C       -9.1880    -5.2790    -0.8910 C.2   1 <1>   0.5690 
 16 O       -9.6930    -4.4930    -1.6570 O.2   1 <1>  -0.5700 
 17 C       -9.6150    -6.7410    -1.0230 C.3   1 <1>   0.1810 
 18 O       -9.9130    -7.3170     0.2400 O.3   1 <1>  -0.3630 
 19 C      -10.2440    -8.6260     0.3560 C.ar  1 <1>   0.0830 
 20 C      -10.4300    -9.1040     1.6480 C.ar  1 <1>  -0.1500 
 21 C      -10.3970    -9.4860    -0.7340 C.ar  1 <1>  -0.1500 
 22 C      -10.7570   -10.4310     1.8650 C.ar  1 <1>  -0.1500 
 23 C      -10.7230   -10.8160    -0.5250 C.ar  1 <1>  -0.1500 
 24 C      -10.8950   -11.2630     0.7710 C.ar  1 <1>   0.1900 
 25 F      -11.2010   -12.5190     0.9680 F     1 <1>  -0.1900 
 26 H       -1.9900     0.1030     0.0690 H     1 <1>   0.1500 
 27 H       -1.9540    -2.2210    -1.2160 H     1 <1>   0.1500 
 28 H       -3.4320    -4.8520     0.8830 H     1 <1>   0.0800 
 29 H       -3.4930    -4.5940    -0.8510 H     1 <1>   0.0800 
 30 H       -5.5720    -3.6980     0.9840 H     1 <1>   0.4500 
 31 H       -5.2680    -6.1770     1.1090 H     1 <1>   0.0800 
 32 H       -5.7680    -6.2230    -0.5530 H     1 <1>   0.0800 
 33 H       -6.3050    -4.3460    -1.7160 H     1 <1>   0.0800 
 34 H       -5.2210    -2.9910    -1.5250 H     1 <1>   0.0800 
 35 H       -7.4080    -5.4500     1.8580 H     1 <1>   0.0800 
 36 H       -7.6560    -6.7580     0.7630 H     1 <1>   0.0800 
 37 H       -7.6320    -2.4030    -1.4790 H     1 <1>   0.0800 
 38 H       -6.7460    -1.8260    -0.1160 H     1 <1>   0.0800 
 39 H       -9.0960    -2.9260     0.2120 H     1 <1>   0.0800 
 40 H       -7.8450    -3.2740     1.3610 H     1 <1>   0.0800 
 41 H       -8.8250    -7.3060    -1.4810 H     1 <1>   0.0800 
 42 H      -10.5000    -6.7960    -1.6300 H     1 <1>   0.0800 
 43 H      -10.3220    -8.4310     2.4800 H     1 <1>   0.1500 
 44 H      -10.2730    -9.1450    -1.7450 H     1 <1>   0.1500 
 45 H      -10.9040   -10.8160     2.8580 H     1 <1>   0.1500 
 46 H      -10.8460   -11.4970    -1.3480 H     1 <1>   0.1500 
@<TRIPOS>BOND
  1   1   2  1   
  2   2   3  1   
  3   2   4  2   
  4   3   5  1   
  5   4   6  1   
  6   4  26  1   
  7   5   6  2   
  8   5   7  1   
  9   6  27  1   
 10   7   8  1   
 11   7  28  1   
 12   7  29  1   
 13   8   9  1   
 14   8  10  1   
 15   8  30  1   
 16   9  11  1   
 17   9  31  1   
 18   9  32  1   
 19  10  12  1   
 20  10  33  1   
 21  10  34  1   
 22  11  13  1   
 23  11  35  1   
 24  11  36  1   
 25  12  14  1   
 26  12  37  1   
 27  12  38  1   
 28  13  14  1   
 29  13  15  am  
 30  14  39  1   
 31  14  40  1   
 32  15  16  2   
 33  15  17  1   
 34  17  18  1   
 35  17  41  1   
 36  17  42  1   
 37  18  19  1   
 38  19  20  ar  
 39  19  21  ar  
 40  20  22  ar  
 41  20  43  1   
 42  21  23  ar  
 43  21  44  1   
 44  22  24  ar  
 45  22  45  1   
 46  23  24  ar  
 47  23  46  1   
 48  24  25  1   
@<TRIPOS>SUBSTRUCTURE
  1 ****  11 GROUP 4 **** **** 0

# MOE 2024.06 (io_trps.svl 2023.06)
