@<TRIPOS>MOLECULE
NONAME
55 58 1 0 0 
SMALL
USER_CHARGES


@<TRIPOS>ATOM
  1 O       -0.0180     0.9790    -1.3540 O.2   1 <1>  -0.5700 
  2 C       -0.6850     1.7540    -0.7080 C.2   1 <1>   0.5690 
  3 N       -2.0450     1.6000    -0.5940 N.am  1 <1>  -0.6600 
  4 C        0.0110     2.9360    -0.0380 C.3   1 <1>  -0.0990 
  5 C       -2.9830     2.6000     0.0130 C.3   1 <1>   0.1400 
  6 C       -2.7350     0.3940    -1.1360 C.3   1 <1>   0.1400 
  7 C        1.5440     2.8240     0.0680 C.3   1 <1>  -0.0800 
  8 C       -4.0350     3.0630    -1.0130 C.3   1 <1>   0.1440 
  9 C       -3.7930     0.8070    -2.1670 C.3   1 <1>  -0.1600 
 10 C        2.0210     1.6990     0.9860 C.3   1 <1>  -0.1600 
 11 C        2.1870     4.0700     0.6740 C.3   1 <1>  -0.1600 
 12 C       -4.9710     4.0370    -0.3220 C.ar  1 <1>   0.1670 
 13 C       -4.7780     1.8380    -1.5890 C.3   1 <1>  -0.1600 
 14 C       -3.4060     3.9390    -2.1310 C.3   1 <1>  -0.1600 
 15 C        3.4380     2.0950     1.4070 C.3   1 <1>  -0.1600 
 16 C        3.5590     3.6030     1.1600 C.3   1 <1>  -0.1600 
 17 N       -5.8690     3.7150     0.5750 N.ar  1 <1>  -0.6200 
 18 C       -4.7530     5.3180    -0.7270 C.ar  1 <1>  -0.1440 
 19 C       -3.6450     5.4090    -1.7460 C.3   1 <1>  -0.0170 
 20 C       -6.5790     4.7350     1.0630 C.ar  1 <1>   0.7200 
 21 C       -5.5290     6.3030    -0.1710 C.ar  1 <1>   0.1600 
 22 N       -6.4450     6.0220     0.7260 N.ar  1 <1>  -0.6200 
 23 N       -7.5380     4.4310     2.0090 N.pl3 1 <1>  -0.8380 
 24 C       -8.0290     3.0420     2.2220 C.3   1 <1>   0.1290 
 25 C       -8.1910     5.4820     2.8370 C.3   1 <1>   0.1290 
 26 H       -0.3840     3.0490     0.9540 H     1 <1>   0.0800 
 27 H       -0.2310     3.8170    -0.6010 H     1 <1>   0.0800 
 28 H       -2.4600     3.4600     0.3850 H     1 <1>   0.0800 
 29 H       -3.4850     2.1390     0.8470 H     1 <1>   0.0800 
 30 H       -3.2040    -0.1310    -0.3220 H     1 <1>   0.0800 
 31 H       -2.0280    -0.2770    -1.5950 H     1 <1>   0.0800 
 32 H        1.9640     2.6680    -0.9130 H     1 <1>   0.0800 
 33 H       -4.3340    -0.0670    -2.4840 H     1 <1>   0.0800 
 34 H       -3.2940     1.2100    -3.0310 H     1 <1>   0.0800 
 35 H        2.0030     0.7440     0.4880 H     1 <1>   0.0800 
 36 H        1.3950     1.6470     1.8600 H     1 <1>   0.0800 
 37 H        1.6110     4.4050     1.5200 H     1 <1>   0.0800 
 38 H        2.2660     4.8710    -0.0400 H     1 <1>   0.0800 
 39 H       -5.4780     2.1500    -2.3440 H     1 <1>   0.0800 
 40 H       -5.3430     1.3730    -0.8000 H     1 <1>   0.0800 
 41 H       -3.9160     3.7530    -3.0600 H     1 <1>   0.0800 
 42 H       -2.3610     3.7310    -2.2800 H     1 <1>   0.0800 
 43 H        4.1590     1.5710     0.8040 H     1 <1>   0.0800 
 44 H        3.6080     1.8520     2.4420 H     1 <1>   0.0800 
 45 H        3.8560     4.1290     2.0510 H     1 <1>   0.0800 
 46 H        4.2930     3.7800     0.3920 H     1 <1>   0.0800 
 47 H       -3.9350     5.9990    -2.5980 H     1 <1>   0.0800 
 48 H       -2.7660     5.8310    -1.2890 H     1 <1>   0.0800 
 49 H       -5.3970     7.3310    -0.4610 H     1 <1>   0.1500 
 50 H       -7.9170     2.4580     1.3250 H     1 <1>   0.0800 
 51 H       -9.0720     3.0550     2.4870 H     1 <1>   0.0800 
 52 H       -7.4660     2.5790     3.0140 H     1 <1>   0.0800 
 53 H       -7.5220     6.3100     2.9930 H     1 <1>   0.0800 
 54 H       -8.4620     5.0820     3.7980 H     1 <1>   0.0800 
 55 H       -9.0740     5.8370     2.3360 H     1 <1>   0.0800 
@<TRIPOS>BOND
  1   1   2  2   
  2   2   3  am  
  3   2   4  1   
  4   3   5  1   
  5   3   6  1   
  6   4   7  1   
  7   4  26  1   
  8   4  27  1   
  9   5   8  1   
 10   5  28  1   
 11   5  29  1   
 12   6   9  1   
 13   6  30  1   
 14   6  31  1   
 15   7  10  1   
 16   7  11  1   
 17   7  32  1   
 18   8  12  1   
 19   8  13  1   
 20   8  14  1   
 21   9  13  1   
 22   9  33  1   
 23   9  34  1   
 24  10  15  1   
 25  10  35  1   
 26  10  36  1   
 27  11  16  1   
 28  11  37  1   
 29  11  38  1   
 30  12  17  ar  
 31  12  18  ar  
 32  13  39  1   
 33  13  40  1   
 34  14  19  1   
 35  14  41  1   
 36  14  42  1   
 37  15  16  1   
 38  15  43  1   
 39  15  44  1   
 40  16  45  1   
 41  16  46  1   
 42  17  20  ar  
 43  18  19  1   
 44  18  21  ar  
 45  19  47  1   
 46  19  48  1   
 47  20  22  ar  
 48  20  23  1   
 49  21  22  ar  
 50  21  49  1   
 51  23  24  1   
 52  23  25  1   
 53  24  50  1   
 54  24  51  1   
 55  24  52  1   
 56  25  53  1   
 57  25  54  1   
 58  25  55  1   
@<TRIPOS>SUBSTRUCTURE
  1 ****   5 GROUP 4 **** **** 0

# MOE 2024.06 (io_trps.svl 2023.06)
