@<TRIPOS>MOLECULE
NONAME
52 54 1 0 0 
SMALL
USER_CHARGES


@<TRIPOS>ATOM
  1 O       -4.0040    -2.8160     1.6390 O.2   1 <1>  -0.5700 
  2 C       -4.2670    -1.6940     1.2720 C.2   1 <1>   0.5690 
  3 N       -3.5590    -1.0850     0.2720 N.am  1 <1>  -0.6600 
  4 C       -5.4120    -0.9750     1.9680 C.3   1 <1>  -0.0990 
  5 C       -3.8940     0.2670    -0.2480 C.3   1 <1>   0.1400 
  6 C       -2.2980    -1.6830    -0.2560 C.3   1 <1>   0.1400 
  7 C       -6.6280    -0.7130     1.0640 C.3   1 <1>  -0.1600 
  8 C       -5.2780     0.2720    -0.9060 C.3   1 <1>  -0.1600 
  9 C       -2.4430    -2.1580    -1.7060 C.3   1 <1>  -0.0990 
 10 C       -6.4330     0.4570     0.0910 C.3   1 <1>  -0.1600 
 11 C       -3.2720    -3.4070    -1.9330 C.2   1 <1>   0.5690 
 12 O       -3.5980    -3.6560    -3.0680 O.2   1 <1>  -0.5700 
 13 N       -3.5870    -4.2420    -0.9130 N.am  1 <1>  -0.7300 
 14 C       -4.2150    -5.5780    -1.0790 C.3   1 <1>   0.2200 
 15 C       -5.5020    -5.7020    -0.2790 C.3   1 <1>  -0.0800 
 16 C       -3.3480    -6.6400    -0.4110 C.3   1 <1>   0.1200 
 17 C       -4.9850    -6.0740     1.1110 C.3   1 <1>   0.1200 
 18 C       -6.4280    -4.4750    -0.3250 C.3   1 <1>  -0.0170 
 19 O       -3.7570    -6.7160     0.9230 O.3   1 <1>  -0.5600 
 20 C       -7.6520    -4.6610     0.5560 C.ar  1 <1>  -0.1440 
 21 C       -8.8200    -5.2200     0.0790 C.ar  1 <1>  -0.1500 
 22 C       -7.6560    -4.2750     1.8810 C.ar  1 <1>  -0.1500 
 23 C       -9.9060    -5.3610     0.9280 C.ar  1 <1>   0.1600 
 24 C       -8.7960    -4.4620     2.6450 C.ar  1 <1>   0.1600 
 25 N       -9.9220    -4.9950     2.2000 N.ar  1 <1>  -0.6200 
 26 H       -5.7290    -1.5890     2.7920 H     1 <1>   0.0800 
 27 H       -5.0510    -0.0540     2.3860 H     1 <1>   0.0800 
 28 H       -3.8540     0.9870     0.5520 H     1 <1>   0.0800 
 29 H       -3.1630     0.5590    -0.9820 H     1 <1>   0.0800 
 30 H       -1.5240    -0.9360    -0.2080 H     1 <1>   0.0800 
 31 H       -1.9760    -2.5020     0.3660 H     1 <1>   0.0800 
 32 H       -6.8740    -1.6030     0.5130 H     1 <1>   0.0800 
 33 H       -7.4740    -0.4870     1.6910 H     1 <1>   0.0800 
 34 H       -5.3100     1.1000    -1.5920 H     1 <1>   0.0800 
 35 H       -5.4150    -0.6260    -1.4850 H     1 <1>   0.0800 
 36 H       -1.4610    -2.3760    -2.0810 H     1 <1>   0.0800 
 37 H       -2.8410    -1.3680    -2.3140 H     1 <1>   0.0800 
 38 H       -6.2810     1.3640     0.6500 H     1 <1>   0.0800 
 39 H       -7.3450     0.5800    -0.4690 H     1 <1>   0.0800 
 40 H       -3.4820    -3.9300     0.0660 H     1 <1>   0.3700 
 41 H       -4.3650    -5.7950    -2.1230 H     1 <1>   0.0800 
 42 H       -6.0490    -6.5500    -0.6520 H     1 <1>   0.0800 
 43 H       -2.3000    -6.4040    -0.4540 H     1 <1>   0.0800 
 44 H       -3.5260    -7.6030    -0.8570 H     1 <1>   0.0800 
 45 H       -5.6550    -6.7370     1.6300 H     1 <1>   0.0800 
 46 H       -4.8020    -5.2000     1.7100 H     1 <1>   0.0800 
 47 H       -6.7340    -4.2990    -1.3420 H     1 <1>   0.0800 
 48 H       -5.9000    -3.6010     0.0010 H     1 <1>   0.0800 
 49 H       -8.8960    -5.5450    -0.9420 H     1 <1>   0.1500 
 50 H       -6.7820    -3.8340     2.3250 H     1 <1>   0.1500 
 51 H      -10.8090    -5.7980     0.5390 H     1 <1>   0.1500 
 52 H       -8.7790    -4.1570     3.6770 H     1 <1>   0.1500 
@<TRIPOS>BOND
  1   1   2  2   
  2   2   3  am  
  3   2   4  1   
  4   3   5  1   
  5   3   6  1   
  6   4   7  1   
  7   4  26  1   
  8   4  27  1   
  9   5   8  1   
 10   5  28  1   
 11   5  29  1   
 12   6   9  1   
 13   6  30  1   
 14   6  31  1   
 15   7  10  1   
 16   7  32  1   
 17   7  33  1   
 18   8  10  1   
 19   8  34  1   
 20   8  35  1   
 21   9  11  1   
 22   9  36  1   
 23   9  37  1   
 24  10  38  1   
 25  10  39  1   
 26  11  12  2   
 27  11  13  am  
 28  13  14  1   
 29  13  40  1   
 30  14  15  1   
 31  14  16  1   
 32  14  41  1   
 33  15  17  1   
 34  15  18  1   
 35  15  42  1   
 36  16  19  1   
 37  16  43  1   
 38  16  44  1   
 39  17  19  1   
 40  17  45  1   
 41  17  46  1   
 42  18  20  1   
 43  18  47  1   
 44  18  48  1   
 45  20  21  ar  
 46  20  22  ar  
 47  21  23  ar  
 48  21  49  1   
 49  22  24  ar  
 50  22  50  1   
 51  23  25  ar  
 52  23  51  1   
 53  24  25  ar  
 54  24  52  1   
@<TRIPOS>SUBSTRUCTURE
  1 ****  18 GROUP 4 **** **** 0

# MOE 2024.06 (io_trps.svl 2023.06)
