@<TRIPOS>MOLECULE
NONAME
51 52 1 0 0 
SMALL
USER_CHARGES


@<TRIPOS>ATOM
  1 N       -0.9060     6.5440    -2.9560 N.1   1 <1>  -0.5570 
  2 C       -1.7010     5.7960    -2.6210 C.1   1 <1>   0.4840 
  3 C       -2.6800     4.9160    -2.0720 C.ar  1 <1>   0.0730 
  4 C       -2.4510     4.3310    -0.8210 C.ar  1 <1>   0.4100 
  5 C       -3.8670     4.6430    -2.7220 C.ar  1 <1>  -0.1500 
  6 N       -3.3270     3.5520    -0.2000 N.ar  1 <1>  -0.6200 
  7 N       -1.2610     4.5300    -0.1350 N.pl3 1 <1>  -0.8380 
  8 C       -4.7670     3.8160    -2.0840 C.ar  1 <1>  -0.1500 
  9 C       -4.4610     3.3000    -0.8330 C.ar  1 <1>   0.1670 
 10 C       -1.4030     5.1820     1.2090 C.3   1 <1>   0.2090 
 11 C       -0.3740     3.3280    -0.1170 C.3   1 <1>   0.1290 
 12 C       -5.4560     2.3860    -0.1120 C.3   1 <1>   0.0640 
 13 C       -0.2590     6.1830     1.4620 C.3   1 <1>   0.3430 
 14 C       -5.7200     1.1000    -0.9070 C.3   1 <1>  -0.2400 
 15 C       -6.7720     3.1140     0.1910 C.3   1 <1>  -0.2400 
 16 N        0.0850     6.9350     0.2100 N.4   1 <1>  -0.9590 
 17 C        1.5030     7.3790     0.1630 C.3   1 <1>   0.4230 
 18 C       -0.8820     8.0450    -0.0500 C.3   1 <1>   0.2630 
 19 C        1.8540     8.0880    -1.1410 C.3   1 <1>  -0.1600 
 20 C        2.4660     6.1960     0.1910 C.3   1 <1>  -0.1600 
 21 C        3.3700     7.9410    -1.2790 C.3   1 <1>  -0.1600 
 22 C        3.7520     6.6920    -0.4780 C.3   1 <1>  -0.1600 
 23 H       -4.0890     5.0610    -3.6900 H     1 <1>   0.1500 
 24 H       -5.7030     3.5770    -2.5560 H     1 <1>   0.1500 
 25 H       -1.4180     4.4340     1.9840 H     1 <1>   0.0800 
 26 H       -2.3430     5.7060     1.2570 H     1 <1>   0.0800 
 27 H       -0.2720     2.9320    -1.1130 H     1 <1>   0.0800 
 28 H       -0.8040     2.5630     0.5090 H     1 <1>   0.0800 
 29 H        0.6030     3.5810     0.2550 H     1 <1>   0.0800 
 30 H       -5.0190     2.0990     0.8310 H     1 <1>   0.0800 
 31 H        0.5960     5.6180     1.7890 H     1 <1>   0.0800 
 32 H       -0.5260     6.8620     2.2540 H     1 <1>   0.0800 
 33 H       -6.2020     1.3160    -1.8430 H     1 <1>   0.0800 
 34 H       -6.3490     0.4360    -0.3420 H     1 <1>   0.0800 
 35 H       -4.7890     0.5980    -1.1070 H     1 <1>   0.0800 
 36 H       -7.2820     3.3850    -0.7150 H     1 <1>   0.0800 
 37 H       -6.5740     4.0080     0.7560 H     1 <1>   0.0800 
 38 H       -7.4200     2.4820     0.7730 H     1 <1>   0.0800 
 39 H       -0.0480     6.2360    -0.5490 H     1 <1>   0.4500 
 40 H        1.7230     8.0370     0.9890 H     1 <1>   0.0800 
 41 H       -0.7780     8.8180     0.6930 H     1 <1>   0.0800 
 42 H       -1.8920     7.6710    -0.0300 H     1 <1>   0.0800 
 43 H       -0.7030     8.4720    -1.0250 H     1 <1>   0.0800 
 44 H        1.5680     9.1250    -1.1310 H     1 <1>   0.0800 
 45 H        1.3880     7.5900    -1.9720 H     1 <1>   0.0800 
 46 H        2.0700     5.3870    -0.3980 H     1 <1>   0.0800 
 47 H        2.6650     5.8580     1.1920 H     1 <1>   0.0800 
 48 H        3.8640     8.8020    -0.8610 H     1 <1>   0.0800 
 49 H        3.6570     7.8490    -2.3140 H     1 <1>   0.0800 
 50 H        4.1650     5.9320    -1.1210 H     1 <1>   0.0800 
 51 H        4.4890     6.9490     0.2650 H     1 <1>   0.0800 
@<TRIPOS>BOND
  1   1   2  3   
  2   2   3  1   
  3   3   4  ar  
  4   3   5  ar  
  5   4   6  ar  
  6   4   7  1   
  7   5   8  ar  
  8   5  23  1   
  9   6   9  ar  
 10   7  10  1   
 11   7  11  1   
 12   8   9  ar  
 13   8  24  1   
 14   9  12  1   
 15  10  13  1   
 16  10  25  1   
 17  10  26  1   
 18  11  27  1   
 19  11  28  1   
 20  11  29  1   
 21  12  14  1   
 22  12  15  1   
 23  12  30  1   
 24  13  16  1   
 25  13  31  1   
 26  13  32  1   
 27  14  33  1   
 28  14  34  1   
 29  14  35  1   
 30  15  36  1   
 31  15  37  1   
 32  15  38  1   
 33  16  17  1   
 34  16  18  1   
 35  16  39  1   
 36  17  19  1   
 37  17  20  1   
 38  17  40  1   
 39  18  41  1   
 40  18  42  1   
 41  18  43  1   
 42  19  21  1   
 43  19  44  1   
 44  19  45  1   
 45  20  22  1   
 46  20  46  1   
 47  20  47  1   
 48  21  22  1   
 49  21  48  1   
 50  21  49  1   
 51  22  50  1   
 52  22  51  1   
@<TRIPOS>SUBSTRUCTURE
  1 ****   7 GROUP 4 **** **** 0

# MOE 2024.06 (io_trps.svl 2023.06)
