@<TRIPOS>MOLECULE
NONAME
48 50 1 0 0 
SMALL
USER_CHARGES


@<TRIPOS>ATOM
  1 O        0.8300    -1.3160     1.6830 O.2   1 <1>  -0.5700 
  2 C        1.2260    -1.6760     0.5940 C.2   1 <1>   0.6900 
  3 N        0.3380    -2.0250    -0.4020 N.am  1 <1>  -0.4200 
  4 N        2.5670    -1.7730     0.3580 N.am  1 <1>  -0.5390 
  5 C        0.8140    -2.5560    -1.5880 C.2   1 <1>   0.6160 
  6 C       -1.1010    -1.6430    -0.2530 C.3   1 <1>   0.1400 
  7 C        3.0850    -2.2260    -0.8370 C.2   1 <1>  -0.0290 
  8 O        0.0270    -3.0090    -2.3960 O.2   1 <1>  -0.5700 
  9 C        2.2220    -2.6160    -1.8010 C.2   1 <1>  -0.1360 
 10 C       -1.8180    -2.4170     0.8750 C.3   1 <1>   0.3430 
 11 C        4.5940    -2.2500    -0.9710 C.3   1 <1>  -0.1020 
 12 N       -2.2440    -3.8210     0.5290 N.4   1 <1>  -0.9590 
 13 C       -2.9970    -4.4150     1.6740 C.3   1 <1>   0.3430 
 14 C       -1.1110    -4.6930     0.0670 C.3   1 <1>   0.3430 
 15 C       -3.6240    -5.7700     1.3100 C.3   1 <1>  -0.1600 
 16 C       -1.4350    -6.1910     0.1760 C.3   1 <1>  -0.1600 
 17 C       -2.9470    -6.4910     0.1210 C.3   1 <1>   0.3430 
 18 C       -3.4950    -5.8820    -1.1420 C.1   1 <1>   0.3570 
 19 C       -3.2100    -8.0110     0.2080 C.ar  1 <1>  -0.1440 
 20 N       -3.8680    -5.2380    -2.0020 N.1   1 <1>  -0.5570 
 21 C       -2.6820    -8.7480     1.2660 C.ar  1 <1>  -0.1500 
 22 C       -3.9720    -8.6950    -0.7400 C.ar  1 <1>  -0.1500 
 23 C       -2.9000   -10.1100     1.3730 C.ar  1 <1>  -0.1500 
 24 C       -4.1900   -10.0570    -0.6340 C.ar  1 <1>  -0.1500 
 25 C       -3.6550   -10.7680     0.4220 C.ar  1 <1>  -0.1500 
 26 H        3.1700    -1.4600     1.1230 H     1 <1>   0.3700 
 27 H       -1.6350    -1.7640    -1.1800 H     1 <1>   0.0800 
 28 H       -1.1310    -0.5950    -0.0080 H     1 <1>   0.0800 
 29 H        2.5440    -2.9850    -2.7570 H     1 <1>   0.1500 
 30 H       -2.6990    -1.8540     1.1370 H     1 <1>   0.0800 
 31 H       -1.1830    -2.4290     1.7460 H     1 <1>   0.0800 
 32 H        5.0240    -2.8880    -0.2200 H     1 <1>   0.0800 
 33 H        4.9920    -1.2580    -0.8550 H     1 <1>   0.0800 
 34 H        4.8840    -2.6210    -1.9390 H     1 <1>   0.0800 
 35 H       -2.8940    -3.7460    -0.2760 H     1 <1>   0.4500 
 36 H       -3.7740    -3.7410     2.0000 H     1 <1>   0.0800 
 37 H       -2.3170    -4.5560     2.5000 H     1 <1>   0.0800 
 38 H       -0.2200    -4.4800     0.6370 H     1 <1>   0.0800 
 39 H       -0.9040    -4.4660    -0.9660 H     1 <1>   0.0800 
 40 H       -4.6710    -5.6320     1.1010 H     1 <1>   0.0800 
 41 H       -3.5800    -6.3840     2.1910 H     1 <1>   0.0800 
 42 H       -1.0160    -6.5530     1.0960 H     1 <1>   0.0800 
 43 H       -0.9310    -6.7120    -0.6200 H     1 <1>   0.0800 
 44 H       -2.0920    -8.2830     2.0350 H     1 <1>   0.1500 
 45 H       -4.4190    -8.2010    -1.5860 H     1 <1>   0.1500 
 46 H       -2.4830   -10.6640     2.1980 H     1 <1>   0.1500 
 47 H       -4.7800   -10.5660    -1.3760 H     1 <1>   0.1500 
 48 H       -3.8260   -11.8270     0.5030 H     1 <1>   0.1500 
@<TRIPOS>BOND
  1   1   2  2   
  2   2   3  am  
  3   2   4  am  
  4   3   5  am  
  5   3   6  1   
  6   4   7  1   
  7   4  26  1   
  8   5   8  2   
  9   5   9  1   
 10   6  10  1   
 11   6  27  1   
 12   6  28  1   
 13   7   9  2   
 14   7  11  1   
 15   9  29  1   
 16  10  12  1   
 17  10  30  1   
 18  10  31  1   
 19  11  32  1   
 20  11  33  1   
 21  11  34  1   
 22  12  13  1   
 23  12  14  1   
 24  12  35  1   
 25  13  15  1   
 26  13  36  1   
 27  13  37  1   
 28  14  16  1   
 29  14  38  1   
 30  14  39  1   
 31  15  17  1   
 32  15  40  1   
 33  15  41  1   
 34  16  17  1   
 35  16  42  1   
 36  16  43  1   
 37  17  18  1   
 38  17  19  1   
 39  18  20  3   
 40  19  21  ar  
 41  19  22  ar  
 42  21  23  ar  
 43  21  44  1   
 44  22  24  ar  
 45  22  45  1   
 46  23  25  ar  
 47  23  46  1   
 48  24  25  ar  
 49  24  47  1   
 50  25  48  1   
@<TRIPOS>SUBSTRUCTURE
  1 ****  14 GROUP 4 **** **** 0

# MOE 2024.06 (io_trps.svl 2023.06)
