@<TRIPOS>MOLECULE
NONAME
44 46 1 0 0 
SMALL
USER_CHARGES


@<TRIPOS>ATOM
  1 CL       0.8150    -1.1950    -0.8450 Cl    1 <1>  -0.1230 
  2 C       -0.5570    -2.1850    -0.3840 C.2   1 <1>   0.1230 
  3 C       -1.1090    -2.2710     0.8840 C.2   1 <1>   0.1390 
  4 C       -1.2800    -3.0030    -1.1710 C.2   1 <1>  -0.3020 
  5 N       -2.1200    -3.0940     0.9000 N.2   1 <1>  -0.7070 
  6 N       -2.2230    -3.5430    -0.3720 N.pl3 1 <1>   0.3140 
  7 C       -3.2680    -4.5010    -0.7700 C.3   1 <1>   0.0960 
  8 C       -3.8180    -5.1920     0.4850 C.3   1 <1>   0.3430 
  9 N       -4.8930    -6.1990     0.1950 N.4   1 <1>  -0.9590 
 10 C       -6.1660    -5.5620    -0.3200 C.3   1 <1>   0.3430 
 11 C       -5.1980    -6.9910     1.4460 C.3   1 <1>   0.3430 
 12 C       -7.2850    -6.5940    -0.5680 C.3   1 <1>   0.2090 
 13 C       -6.3020    -8.0450     1.2260 C.3   1 <1>   0.2090 
 14 N       -7.5290    -7.4230     0.6470 N.pl3 1 <1>  -0.8380 
 15 C       -8.6240    -8.2920     0.5430 C.ar  1 <1>   0.1000 
 16 C       -8.6710    -9.3970    -0.3270 C.ar  1 <1>   0.0830 
 17 C       -9.7190    -8.0330     1.3550 C.ar  1 <1>  -0.1500 
 18 O       -7.5830    -9.6460    -1.1250 O.3   1 <1>  -0.3630 
 19 C       -9.8080   -10.2000    -0.3550 C.ar  1 <1>  -0.1500 
 20 C      -10.8440    -8.8360     1.3200 C.ar  1 <1>  -0.1500 
 21 C       -7.5640   -10.7480    -2.0080 C.3   1 <1>   0.0400 
 22 C      -10.8880    -9.9200     0.4640 C.ar  1 <1>  -0.1500 
 23 H       -0.7490    -1.7270     1.7420 H     1 <1>   0.1500 
 24 H       -1.1690    -3.2120    -2.2190 H     1 <1>   0.1500 
 25 H       -2.8310    -5.2210    -1.4370 H     1 <1>   0.0800 
 26 H       -4.0400    -3.9520    -1.2740 H     1 <1>   0.0800 
 27 H       -4.2040    -4.4390     1.1540 H     1 <1>   0.0800 
 28 H       -2.9960    -5.6810     0.9840 H     1 <1>   0.0800 
 29 H       -4.5710    -6.8770    -0.5090 H     1 <1>   0.4500 
 30 H       -5.9730    -5.0360    -1.2390 H     1 <1>   0.0800 
 31 H       -6.5280    -4.8470     0.4010 H     1 <1>   0.0800 
 32 H       -5.5280    -6.3230     2.2250 H     1 <1>   0.0800 
 33 H       -4.3080    -7.4890     1.7940 H     1 <1>   0.0800 
 34 H       -7.0180    -7.2250    -1.3970 H     1 <1>   0.0800 
 35 H       -8.1940    -6.0790    -0.8280 H     1 <1>   0.0800 
 36 H       -6.5540    -8.5010     2.1680 H     1 <1>   0.0800 
 37 H       -5.9400    -8.8200     0.5740 H     1 <1>   0.0800 
 38 H       -9.6850    -7.1900     2.0200 H     1 <1>   0.1500 
 39 H       -9.8830   -11.0510    -1.0050 H     1 <1>   0.1500 
 40 H      -11.6830    -8.6170     1.9580 H     1 <1>   0.1500 
 41 H       -6.6210   -10.7530    -2.5230 H     1 <1>   0.0800 
 42 H       -8.3650   -10.6420    -2.7180 H     1 <1>   0.0800 
 43 H       -7.6730   -11.6550    -1.4390 H     1 <1>   0.0800 
 44 H      -11.7630   -10.5460     0.4360 H     1 <1>   0.1500 
@<TRIPOS>BOND
  1   1   2  1   
  2   2   3  1   
  3   2   4  2   
  4   3   5  2   
  5   3  23  1   
  6   4   6  1   
  7   4  24  1   
  8   5   6  1   
  9   6   7  1   
 10   7   8  1   
 11   7  25  1   
 12   7  26  1   
 13   8   9  1   
 14   8  27  1   
 15   8  28  1   
 16   9  10  1   
 17   9  11  1   
 18   9  29  1   
 19  10  12  1   
 20  10  30  1   
 21  10  31  1   
 22  11  13  1   
 23  11  32  1   
 24  11  33  1   
 25  12  14  1   
 26  12  34  1   
 27  12  35  1   
 28  13  14  1   
 29  13  36  1   
 30  13  37  1   
 31  14  15  1   
 32  15  16  ar  
 33  15  17  ar  
 34  16  18  1   
 35  16  19  ar  
 36  17  20  ar  
 37  17  38  1   
 38  18  21  1   
 39  19  22  ar  
 40  19  39  1   
 41  20  22  ar  
 42  20  40  1   
 43  21  41  1   
 44  21  42  1   
 45  21  43  1   
 46  22  44  1   
@<TRIPOS>SUBSTRUCTURE
  1 ****   9 GROUP 4 **** **** 0

# MOE 2024.06 (io_trps.svl 2023.06)
