@<TRIPOS>MOLECULE
NONAME
52 54 1 0 0 
SMALL
USER_CHARGES


@<TRIPOS>ATOM
  1 CL       2.1010     1.2570    -2.7160 Cl    1 <1>  -0.1770 
  2 C        2.4930    -0.1210    -1.7210 C.ar  1 <1>   0.1770 
  3 C        3.0220     0.0840    -0.4630 C.ar  1 <1>  -0.1500 
  4 C        2.2570    -1.3900    -2.2130 C.ar  1 <1>  -0.1500 
  5 C        3.3330    -1.0130     0.3340 C.ar  1 <1>   0.0830 
  6 C        2.5670    -2.4940    -1.4330 C.ar  1 <1>  -0.1440 
  7 O        3.8120    -0.8760     1.6020 O.3   1 <1>  -0.3620 
  8 C        3.1250    -2.3050    -0.1700 C.ar  1 <1>   0.0830 
  9 C        2.2960    -3.8930    -1.9610 C.3   1 <1>   0.4870 
 10 C        4.0160     0.3910     2.1920 C.3   1 <1>   0.0400 
 11 O        3.4140    -3.4130     0.5650 O.3   1 <1>  -0.3630 
 12 N        1.4570    -4.6310    -0.9870 N.4   1 <1>  -0.9590 
 13 C        4.7560    -3.6670     0.9270 C.3   1 <1>   0.2000 
 14 C        1.3630    -6.1120    -1.2460 C.3   1 <1>   0.3430 
 15 C        0.1270    -4.0090    -0.6790 C.3   1 <1>   0.3430 
 16 C        5.4470    -4.3780    -0.2370 C.3   1 <1>  -0.2400 
 17 C        4.7240    -4.5430     2.1760 C.3   1 <1>  -0.2400 
 18 C        0.3830    -6.8240    -0.2840 C.3   1 <1>   0.2510 
 19 C       -0.5460    -4.7010     0.5370 C.3   1 <1>   0.1100 
 20 N        0.1170    -5.9700     0.9220 N.3   1 <1>  -0.8100 
 21 C        0.9370    -8.2170     0.0440 C.2   1 <1>   0.5690 
 22 C       -0.6250    -6.7310     1.9500 C.3   1 <1>   0.1100 
 23 O        1.5350    -8.8300    -0.8050 O.2   1 <1>  -0.5700 
 24 N        0.7430    -8.7390     1.2790 N.am  1 <1>  -0.7300 
 25 C        0.1660    -7.9730     2.4210 C.3   1 <1>   0.1400 
 26 H        3.1730     1.0950    -0.1340 H     1 <1>   0.1500 
 27 H        1.8370    -1.4910    -3.1990 H     1 <1>   0.1500 
 28 H        3.2360    -4.4040    -2.0900 H     1 <1>   0.0800 
 29 H        1.7980    -3.8420    -2.9150 H     1 <1>   0.0800 
 30 H        4.3870     0.2380     3.1890 H     1 <1>   0.0800 
 31 H        3.0780     0.9160     2.2290 H     1 <1>   0.0800 
 32 H        4.7410     0.9350     1.6130 H     1 <1>   0.0800 
 33 H        1.9690    -4.5480    -0.0860 H     1 <1>   0.4500 
 34 H        5.2560    -2.7390     1.1450 H     1 <1>   0.0800 
 35 H        2.3380    -6.5550    -1.1260 H     1 <1>   0.0800 
 36 H        1.0480    -6.3010    -2.2580 H     1 <1>   0.0800 
 37 H       -0.5190    -4.0920    -1.5360 H     1 <1>   0.0800 
 38 H        0.2480    -2.9610    -0.4580 H     1 <1>   0.0800 
 39 H        4.9460    -5.2990    -0.4720 H     1 <1>   0.0800 
 40 H        6.4620    -4.6060     0.0340 H     1 <1>   0.0800 
 41 H        5.4720    -3.7400    -1.1010 H     1 <1>   0.0800 
 42 H        4.2120    -5.4680     1.9820 H     1 <1>   0.0800 
 43 H        4.2270    -4.0190     2.9730 H     1 <1>   0.0800 
 44 H        5.7260    -4.7640     2.4950 H     1 <1>   0.0800 
 45 H       -0.5440    -6.9830    -0.8050 H     1 <1>   0.0800 
 46 H       -1.5830    -4.8790     0.3070 H     1 <1>   0.0800 
 47 H       -0.5150    -4.0280     1.3780 H     1 <1>   0.0800 
 48 H       -1.5770    -7.0470     1.5570 H     1 <1>   0.0800 
 49 H       -0.8130    -6.0990     2.8010 H     1 <1>   0.0800 
 50 H        1.1510    -9.6570     1.4760 H     1 <1>   0.3700 
 51 H       -0.4840    -8.6140     2.9910 H     1 <1>   0.0800 
 52 H        0.9670    -7.6540     3.0650 H     1 <1>   0.0800 
@<TRIPOS>BOND
  1   1   2  1   
  2   2   3  ar  
  3   2   4  ar  
  4   3   5  ar  
  5   3  26  1   
  6   4   6  ar  
  7   4  27  1   
  8   5   7  1   
  9   5   8  ar  
 10   6   8  ar  
 11   6   9  1   
 12   7  10  1   
 13   8  11  1   
 14   9  12  1   
 15   9  28  1   
 16   9  29  1   
 17  10  30  1   
 18  10  31  1   
 19  10  32  1   
 20  11  13  1   
 21  12  14  1   
 22  12  15  1   
 23  12  33  1   
 24  13  16  1   
 25  13  17  1   
 26  13  34  1   
 27  14  18  1   
 28  14  35  1   
 29  14  36  1   
 30  15  19  1   
 31  15  37  1   
 32  15  38  1   
 33  16  39  1   
 34  16  40  1   
 35  16  41  1   
 36  17  42  1   
 37  17  43  1   
 38  17  44  1   
 39  18  20  1   
 40  18  21  1   
 41  18  45  1   
 42  19  20  1   
 43  19  46  1   
 44  19  47  1   
 45  20  22  1   
 46  21  23  2   
 47  21  24  am  
 48  22  25  1   
 49  22  48  1   
 50  22  49  1   
 51  24  25  1   
 52  24  50  1   
 53  25  51  1   
 54  25  52  1   
@<TRIPOS>SUBSTRUCTURE
  1 ****  12 GROUP 4 **** **** 0

# MOE 2024.06 (io_trps.svl 2023.06)
