@<TRIPOS>MOLECULE
NONAME
57 59 1 0 0 
SMALL
USER_CHARGES


@<TRIPOS>ATOM
  1 O        0.0570     0.0830    -0.7670 O.3   1 <1>  -0.5600 
  2 C        1.2520    -0.6570    -0.8080 C.3   1 <1>   0.2000 
  3 C        0.1970     1.4300    -1.0960 C.3   1 <1>   0.1200 
  4 C        2.3630    -0.0070     0.0770 C.3   1 <1>   0.3340 
  5 C        0.8510    -2.0860    -0.3890 C.3   1 <1>   0.1200 
  6 C        1.1370     2.1050    -0.0920 C.3   1 <1>   0.1100 
  7 N        2.4670     1.4670    -0.1190 N.3   1 <1>  -0.8100 
  8 C        3.7330    -0.6180    -0.2360 C.ar  1 <1>  -0.1440 
  9 O        1.9300    -2.9600    -0.3040 O.3   1 <1>  -0.6800 
 10 C        3.3840     2.0850     0.8580 C.3   1 <1>   0.2530 
 11 C        4.3740    -1.4150     0.7020 C.ar  1 <1>  -0.1500 
 12 C        4.3530    -0.3810    -1.4560 C.ar  1 <1>  -0.1500 
 13 C        3.6390     3.5380     0.5060 C.ar  1 <1>  -0.1430 
 14 C        5.6080    -1.9790     0.4270 C.ar  1 <1>   0.0830 
 15 C        5.5930    -0.9300    -1.7350 C.ar  1 <1>  -0.1500 
 16 C        4.0770     3.9010    -0.7450 C.ar  1 <1>   0.1600 
 17 C        3.4450     4.5520     1.4130 C.ar  1 <1>   0.1600 
 18 O        6.1530    -2.7810     1.3730 O.3   1 <1>  -0.3630 
 19 C        6.2340    -1.7190    -0.7960 C.ar  1 <1>   0.0830 
 20 N        4.3030     5.1550    -1.0750 N.ar  1 <1>  -0.6200 
 21 N        3.6600     5.8130     1.1140 N.ar  1 <1>  -0.6200 
 22 C        6.1640    -4.1580     1.0700 C.3   1 <1>   0.0400 
 23 O        7.4570    -2.2070    -1.1200 O.3   1 <1>  -0.3630 
 24 C        4.0820     6.0500    -0.1230 C.ar  1 <1>   0.4770 
 25 C        8.5410    -1.7810    -0.3230 C.3   1 <1>   0.0400 
 26 C        4.3440     7.5140    -0.5040 C.3   1 <1>   0.0630 
 27 C        5.4550     8.1390     0.3560 C.3   1 <1>  -0.2400 
 28 C        3.0660     8.3650    -0.4200 C.3   1 <1>  -0.2400 
 29 H        1.5780    -0.6740    -1.8320 H     1 <1>   0.0800 
 30 H        0.5820     1.5120    -2.0970 H     1 <1>   0.0800 
 31 H       -0.7780     1.8810    -1.0560 H     1 <1>   0.0800 
 32 H        2.1140    -0.2040     1.1060 H     1 <1>   0.0800 
 33 H        0.1600    -2.4900    -1.1070 H     1 <1>   0.0800 
 34 H        0.3790    -2.0650     0.5780 H     1 <1>   0.0800 
 35 H        0.7080     2.0410     0.8930 H     1 <1>   0.0800 
 36 H        1.2240     3.1450    -0.3570 H     1 <1>   0.0800 
 37 H        2.5290    -2.8620    -1.0720 H     1 <1>   0.4000 
 38 H        2.9710     2.0040     1.8490 H     1 <1>   0.0800 
 39 H        4.3330     1.5750     0.8510 H     1 <1>   0.0800 
 40 H        3.9140    -1.6230     1.6510 H     1 <1>   0.1500 
 41 H        3.8720     0.2440    -2.1900 H     1 <1>   0.1500 
 42 H        6.0730    -0.7430    -2.6780 H     1 <1>   0.1500 
 43 H        4.2400     3.1420    -1.4920 H     1 <1>   0.1500 
 44 H        3.1040     4.3290     2.4090 H     1 <1>   0.1500 
 45 H        6.5700    -4.6850     1.9140 H     1 <1>   0.0800 
 46 H        6.7770    -4.3250     0.2020 H     1 <1>   0.0800 
 47 H        5.1550    -4.4800     0.8830 H     1 <1>   0.0800 
 48 H        9.4510    -2.1030    -0.7940 H     1 <1>   0.0800 
 49 H        8.4610    -2.2210     0.6540 H     1 <1>   0.0800 
 50 H        8.5200    -0.7080    -0.2530 H     1 <1>   0.0800 
 51 H        4.6780     7.5310    -1.5270 H     1 <1>   0.0800 
 52 H        5.1560     8.1700     1.3890 H     1 <1>   0.0800 
 53 H        5.6690     9.1390     0.0250 H     1 <1>   0.0800 
 54 H        6.3510     7.5500     0.2770 H     1 <1>   0.0800 
 55 H        2.7060     8.4010     0.5930 H     1 <1>   0.0800 
 56 H        2.3000     7.9340    -1.0400 H     1 <1>   0.0800 
 57 H        3.2590     9.3680    -0.7560 H     1 <1>   0.0800 
@<TRIPOS>BOND
  1   1   2  1   
  2   1   3  1   
  3   2   4  1   
  4   2   5  1   
  5   2  29  1   
  6   3   6  1   
  7   3  30  1   
  8   3  31  1   
  9   4   7  1   
 10   4   8  1   
 11   4  32  1   
 12   5   9  1   
 13   5  33  1   
 14   5  34  1   
 15   6   7  1   
 16   6  35  1   
 17   6  36  1   
 18   7  10  1   
 19   8  11  ar  
 20   8  12  ar  
 21   9  37  1   
 22  10  13  1   
 23  10  38  1   
 24  10  39  1   
 25  11  14  ar  
 26  11  40  1   
 27  12  15  ar  
 28  12  41  1   
 29  13  16  ar  
 30  13  17  ar  
 31  14  18  1   
 32  14  19  ar  
 33  15  19  ar  
 34  15  42  1   
 35  16  20  ar  
 36  16  43  1   
 37  17  21  ar  
 38  17  44  1   
 39  18  22  1   
 40  19  23  1   
 41  20  24  ar  
 42  21  24  ar  
 43  22  45  1   
 44  22  46  1   
 45  22  47  1   
 46  23  25  1   
 47  24  26  1   
 48  25  48  1   
 49  25  49  1   
 50  25  50  1   
 51  26  27  1   
 52  26  28  1   
 53  26  51  1   
 54  27  52  1   
 55  27  53  1   
 56  27  54  1   
 57  28  55  1   
 58  28  56  1   
 59  28  57  1   
@<TRIPOS>SUBSTRUCTURE
  1 ****  10 GROUP 4 **** **** 0

# MOE 2024.06 (io_trps.svl 2023.06)
