@<TRIPOS>MOLECULE
NONAME
52 54 1 0 0 
SMALL
USER_CHARGES


@<TRIPOS>ATOM
  1 O       -0.9490     1.4170     1.3710 O.2   1 <1>  -0.5700 
  2 C       -1.8530     1.7240     0.6240 C.2   1 <1>   0.5690 
  3 N       -2.5900     0.7630    -0.0140 N.am  1 <1>  -0.6600 
  4 C       -2.0980     3.2200     0.3760 C.3   1 <1>   0.1710 
  5 C       -3.7370     0.9800    -0.9340 C.3   1 <1>   0.1400 
  6 C       -2.3420    -0.6870     0.1730 C.3   1 <1>   0.1400 
  7 N       -1.0560     3.9270    -0.4310 N.3   1 <1>  -0.8100 
  8 C       -4.1350    -0.4180    -1.4110 C.3   1 <1>   0.2000 
  9 C       -3.5920    -1.3860    -0.3620 C.3   1 <1>  -0.0800 
 10 C       -0.0160     4.7080     0.2720 C.3   1 <1>   0.1100 
 11 C       -0.7450     3.4430    -1.7800 C.3   1 <1>   0.1100 
 12 O       -5.5100    -0.5490    -1.5130 O.3   1 <1>  -0.6800 
 13 C       -3.3260    -2.7900    -0.9340 C.3   1 <1>  -0.0170 
 14 C        1.0480     3.8830     1.0280 C.3   1 <1>   0.3430 
 15 C        0.2980     2.3180    -1.8080 C.3   1 <1>  -0.1600 
 16 C       -2.7490    -3.7280     0.1140 C.ar  1 <1>   0.1670 
 17 N        1.3720     2.5670     0.3960 N.4   1 <1>  -0.9590 
 18 C        1.6010     2.6250    -1.0690 C.3   1 <1>   0.3430 
 19 N       -1.4430    -3.6510     0.3230 N.ar  1 <1>  -0.6200 
 20 C       -3.5880    -4.6060     0.7980 C.ar  1 <1>   0.1600 
 21 C        2.4540     1.8540     1.1270 C.3   1 <1>   0.2630 
 22 C       -1.0390    -4.5040     1.2510 C.ar  1 <1>   0.1600 
 23 N       -3.1860    -5.4540     1.7290 N.ar  1 <1>  -0.6200 
 24 C       -1.8820    -5.3750     1.9310 C.ar  1 <1>   0.1600 
 25 H       -2.1860     3.7010     1.3340 H     1 <1>   0.0800 
 26 H       -3.0440     3.3480    -0.1160 H     1 <1>   0.0800 
 27 H       -4.5450     1.4430    -0.3950 H     1 <1>   0.0800 
 28 H       -3.4440     1.5930    -1.7680 H     1 <1>   0.0800 
 29 H       -1.4730    -0.9710    -0.3960 H     1 <1>   0.0800 
 30 H       -2.1750    -0.9230     1.2120 H     1 <1>   0.0800 
 31 H       -3.7050    -0.6070    -2.3800 H     1 <1>   0.0800 
 32 H       -4.2880    -1.4600     0.4560 H     1 <1>   0.0800 
 33 H        0.4850     5.3340    -0.4460 H     1 <1>   0.0800 
 34 H       -0.4920     5.3730     0.9720 H     1 <1>   0.0800 
 35 H       -1.6510     3.1030    -2.2530 H     1 <1>   0.0800 
 36 H       -0.3810     4.2730    -2.3620 H     1 <1>   0.0800 
 37 H       -5.9370    -0.4280    -0.6430 H     1 <1>   0.4000 
 38 H       -2.6390    -2.7280    -1.7600 H     1 <1>   0.0800 
 39 H       -4.2470    -3.1960    -1.3140 H     1 <1>   0.0800 
 40 H        0.6800     3.7010     2.0240 H     1 <1>   0.0800 
 41 H        1.9430     4.4760     1.1190 H     1 <1>   0.0800 
 42 H        0.5450     2.1470    -2.8400 H     1 <1>   0.0800 
 43 H       -0.1250     1.3990    -1.4460 H     1 <1>   0.0800 
 44 H        0.4970     2.0160     0.5330 H     1 <1>   0.4500 
 45 H        1.9790     3.5920    -1.3560 H     1 <1>   0.0800 
 46 H        2.3310     1.8810    -1.3450 H     1 <1>   0.0800 
 47 H       -4.6390    -4.6070     0.5670 H     1 <1>   0.1500 
 48 H        3.3820     2.3950     1.0480 H     1 <1>   0.0800 
 49 H        2.5880     0.8660     0.7180 H     1 <1>   0.0800 
 50 H        2.1930     1.7570     2.1690 H     1 <1>   0.0800 
 51 H        0.0100    -4.5160     1.4850 H     1 <1>   0.1500 
 52 H       -1.4590    -6.0320     2.6700 H     1 <1>   0.1500 
@<TRIPOS>BOND
  1   1   2  2   
  2   2   3  am  
  3   2   4  1   
  4   3   5  1   
  5   3   6  1   
  6   4   7  1   
  7   4  25  1   
  8   4  26  1   
  9   5   8  1   
 10   5  27  1   
 11   5  28  1   
 12   6   9  1   
 13   6  29  1   
 14   6  30  1   
 15   7  10  1   
 16   7  11  1   
 17   8   9  1   
 18   8  12  1   
 19   8  31  1   
 20   9  13  1   
 21   9  32  1   
 22  10  14  1   
 23  10  33  1   
 24  10  34  1   
 25  11  15  1   
 26  11  35  1   
 27  11  36  1   
 28  12  37  1   
 29  13  16  1   
 30  13  38  1   
 31  13  39  1   
 32  14  17  1   
 33  14  40  1   
 34  14  41  1   
 35  15  18  1   
 36  15  42  1   
 37  15  43  1   
 38  16  19  ar  
 39  16  20  ar  
 40  17  18  1   
 41  17  21  1   
 42  17  44  1   
 43  18  45  1   
 44  18  46  1   
 45  19  22  ar  
 46  20  23  ar  
 47  20  47  1   
 48  21  48  1   
 49  21  49  1   
 50  21  50  1   
 51  22  24  ar  
 52  22  51  1   
 53  23  24  ar  
 54  24  52  1   
@<TRIPOS>SUBSTRUCTURE
  1 ****   6 GROUP 4 **** **** 0

# MOE 2024.06 (io_trps.svl 2023.06)
