@<TRIPOS>MOLECULE
NONAME
45 47 1 0 0 
SMALL
USER_CHARGES


@<TRIPOS>ATOM
  1 S       -0.7030     0.3720     0.2230 S.o2  1 <1>   1.0900 
  2 O        0.6690     0.0310    -0.0710 O.2   1 <1>  -0.6500 
  3 O       -1.0540     1.5690     0.9490 O.2   1 <1>  -0.6500 
  4 C       -1.4570    -1.0500     0.9560 C.3   1 <1>  -0.0550 
  5 C       -1.6350     0.2600    -1.2980 C.3   1 <1>  -0.0550 
  6 C       -1.7050    -1.9880    -0.2220 C.3   1 <1>   0.1760 
  7 C       -2.2810    -1.1350    -1.3710 C.3   1 <1>  -0.1600 
  8 N       -2.6180    -3.1000     0.1420 N.pl3 1 <1>   0.3140 
  9 N       -3.7660    -2.8640     0.8030 N.2   1 <1>  -0.7070 
 10 C       -2.4800    -4.4160    -0.1610 C.2   1 <1>  -0.3320 
 11 C       -4.3400    -4.0230     0.9010 C.2   1 <1>   0.1080 
 12 C       -3.5810    -5.0390     0.3130 C.2   1 <1>   0.0630 
 13 C       -1.2950    -5.0080    -0.9140 C.3   1 <1>  -0.0600 
 14 C       -5.6740    -4.1870     1.5960 C.3   1 <1>  -0.0590 
 15 N       -3.8490    -6.4280     0.2260 N.am  1 <1>  -0.4930 
 16 C       -4.9940    -7.0660    -0.1720 C.2   1 <1>   0.5440 
 17 O       -5.9870    -6.4190    -0.4460 O.2   1 <1>  -0.5700 
 18 C       -5.0210    -8.5140    -0.2570 C.ar  1 <1>   0.0860 
 19 C       -3.8990    -9.2580    -0.6250 C.ar  1 <1>  -0.1500 
 20 C       -6.1850    -9.2250     0.0300 C.ar  1 <1>  -0.1500 
 21 C       -3.9360   -10.6400    -0.6870 C.ar  1 <1>  -0.1500 
 22 C       -6.2290   -10.6060    -0.0310 C.ar  1 <1>  -0.1500 
 23 C       -5.1020   -11.3370    -0.3910 C.ar  1 <1>  -0.1440 
 24 C       -5.1350   -12.8740    -0.4570 C.3   1 <1>   1.1630 
 25 F       -4.3750   -13.3590    -1.4300 F     1 <1>  -0.3400 
 26 F       -6.3540   -13.3590    -0.6610 F     1 <1>  -0.3400 
 27 F       -4.6970   -13.4240     0.6680 F     1 <1>  -0.3400 
 28 H       -2.3920    -0.7680     1.4050 H     1 <1>   0.0800 
 29 H       -0.8210    -1.4990     1.6930 H     1 <1>   0.0800 
 30 H       -0.9840     0.4190    -2.1370 H     1 <1>   0.0800 
 31 H       -2.4020     1.0110    -1.3170 H     1 <1>   0.0800 
 32 H       -0.7600    -2.3990    -0.5300 H     1 <1>   0.0800 
 33 H       -2.0940    -1.6000    -2.3240 H     1 <1>   0.0800 
 34 H       -3.3460    -1.0280    -1.2400 H     1 <1>   0.0800 
 35 H       -1.1920    -4.5340    -1.8740 H     1 <1>   0.0800 
 36 H       -1.4360    -6.0610    -1.0750 H     1 <1>   0.0800 
 37 H       -0.3880    -4.8670    -0.3520 H     1 <1>   0.0800 
 38 H       -5.7860    -3.4360     2.3560 H     1 <1>   0.0800 
 39 H       -5.7410    -5.1570     2.0500 H     1 <1>   0.0800 
 40 H       -6.4650    -4.0800     0.8770 H     1 <1>   0.0800 
 41 H       -3.0540    -7.0200     0.4530 H     1 <1>   0.3700 
 42 H       -2.9840    -8.7540    -0.8790 H     1 <1>   0.1500 
 43 H       -7.0720    -8.6760     0.3040 H     1 <1>   0.1500 
 44 H       -3.0440   -11.1750    -0.9730 H     1 <1>   0.1500 
 45 H       -7.1540   -11.1070     0.2050 H     1 <1>   0.1500 
@<TRIPOS>BOND
  1   1   2  2   
  2   1   3  2   
  3   1   4  1   
  4   1   5  1   
  5   4   6  1   
  6   4  28  1   
  7   4  29  1   
  8   5   7  1   
  9   5  30  1   
 10   5  31  1   
 11   6   7  1   
 12   6   8  1   
 13   6  32  1   
 14   7  33  1   
 15   7  34  1   
 16   8   9  1   
 17   8  10  1   
 18   9  11  2   
 19  10  12  2   
 20  10  13  1   
 21  11  12  1   
 22  11  14  1   
 23  12  15  1   
 24  13  35  1   
 25  13  36  1   
 26  13  37  1   
 27  14  38  1   
 28  14  39  1   
 29  14  40  1   
 30  15  16  am  
 31  15  41  1   
 32  16  17  2   
 33  16  18  1   
 34  18  19  ar  
 35  18  20  ar  
 36  19  21  ar  
 37  19  42  1   
 38  20  22  ar  
 39  20  43  1   
 40  21  23  ar  
 41  21  44  1   
 42  22  23  ar  
 43  22  45  1   
 44  23  24  1   
 45  24  25  1   
 46  24  26  1   
 47  24  27  1   
@<TRIPOS>SUBSTRUCTURE
  1 ****  15 GROUP 4 **** **** 0

# MOE 2024.06 (io_trps.svl 2023.06)
