@<TRIPOS>MOLECULE
NONAME
57 59 1 0 0 
SMALL
USER_CHARGES


@<TRIPOS>ATOM
  1 O       -0.7970    -2.4820    -0.5810 O.3   1 <1>  -0.6800 
  2 C        0.5620    -2.5450    -0.8190 C.3   1 <1>   0.1200 
  3 C        1.3520    -2.2160     0.4860 C.3   1 <1>   0.0000 
  4 C        2.8240    -1.8510     0.1490 C.3   1 <1>   0.4230 
  5 C        0.7220    -1.0040     1.2290 C.3   1 <1>  -0.1600 
  6 C        1.3230    -3.4370     1.4480 C.3   1 <1>  -0.1600 
  7 N        3.6090    -3.0030    -0.4840 N.4   1 <1>  -0.9590 
  8 C        2.8960    -0.4970    -0.6250 C.3   1 <1>   0.3430 
  9 C        0.6990     0.2640     0.3740 C.3   1 <1>   0.3430 
 10 C        2.5800    -4.3230     1.3700 C.3   1 <1>  -0.1600 
 11 C        3.1670    -4.3710    -0.0380 C.3   1 <1>   0.3430 
 12 C        3.7210    -2.9940    -1.9840 C.3   1 <1>   0.2630 
 13 N        2.0940     0.6270    -0.0130 N.4   1 <1>  -0.9590 
 14 C        2.8350     1.3600     1.0680 C.3   1 <1>   0.5240 
 15 C        3.9720     2.1510     0.4280 C.2   1 <1>   0.1080 
 16 N        4.1170     2.2740    -0.8620 N.2   1 <1>  -0.7070 
 17 C        4.9590     2.8300     1.1320 C.2   1 <1>  -0.1500 
 18 N        5.2080     3.0630    -1.0050 N.pl3 1 <1>   0.3000 
 19 C        5.7370     3.4050     0.1880 C.2   1 <1>  -0.3320 
 20 C        6.9740     4.2890     0.3190 C.3   1 <1>   0.1800 
 21 C        6.7000     5.6470    -0.3350 C.3   1 <1>  -0.2400 
 22 C        7.3210     4.5110     1.7960 C.3   1 <1>  -0.2400 
 23 C        8.1620     3.6110    -0.3730 C.3   1 <1>  -0.2400 
 24 H       -1.3260    -2.8650    -1.3150 H     1 <1>   0.4000 
 25 H        0.7830    -3.5380    -1.1690 H     1 <1>   0.0800 
 26 H        0.7710    -1.8460    -1.6100 H     1 <1>   0.0800 
 27 H        3.2910    -1.6640     1.1010 H     1 <1>   0.0800 
 28 H        1.2500    -0.8030     2.1450 H     1 <1>   0.0800 
 29 H       -0.2910    -1.2330     1.5170 H     1 <1>   0.0800 
 30 H        1.2170    -3.1190     2.4730 H     1 <1>   0.0800 
 31 H        0.4520    -4.0380     1.2380 H     1 <1>   0.0800 
 32 H        4.5750    -2.9170    -0.1250 H     1 <1>   0.4500 
 33 H        2.5250    -0.6580    -1.6220 H     1 <1>   0.0800 
 34 H        3.9270    -0.1900    -0.7080 H     1 <1>   0.0800 
 35 H        0.2370     1.0720     0.9200 H     1 <1>   0.0800 
 36 H        0.1060     0.0830    -0.5090 H     1 <1>   0.0800 
 37 H        2.3220    -5.3220     1.6790 H     1 <1>   0.0800 
 38 H        3.3310    -3.9700     2.0560 H     1 <1>   0.0800 
 39 H        2.4130    -4.7520    -0.7080 H     1 <1>   0.0800 
 40 H        4.0020    -5.0540    -0.0610 H     1 <1>   0.0800 
 41 H        2.7490    -3.0860    -2.4390 H     1 <1>   0.0800 
 42 H        4.3290    -3.8220    -2.3160 H     1 <1>   0.0800 
 43 H        4.1840    -2.0830    -2.3290 H     1 <1>   0.0800 
 44 H        2.0690     1.3670    -0.7430 H     1 <1>   0.4500 
 45 H        2.1750     2.0560     1.5600 H     1 <1>   0.0800 
 46 H        3.2250     0.6760     1.8020 H     1 <1>   0.0800 
 47 H        5.0650     2.8860     2.2030 H     1 <1>   0.1500 
 48 H        5.5700     3.3650    -1.9200 H     1 <1>   0.2700 
 49 H        7.5480     6.2990    -0.2170 H     1 <1>   0.0800 
 50 H        5.8470     6.1150     0.1250 H     1 <1>   0.0800 
 51 H        6.5050     5.5410    -1.3860 H     1 <1>   0.0800 
 52 H        8.1920     5.1360     1.8890 H     1 <1>   0.0800 
 53 H        7.5260     3.5740     2.2800 H     1 <1>   0.0800 
 54 H        6.5060     4.9930     2.3050 H     1 <1>   0.0800 
 55 H        9.0510     4.2070    -0.2610 H     1 <1>   0.0800 
 56 H        7.9760     3.4820    -1.4240 H     1 <1>   0.0800 
 57 H        8.3440     2.6460     0.0630 H     1 <1>   0.0800 
@<TRIPOS>BOND
  1   1   2  1   
  2   1  24  1   
  3   2   3  1   
  4   2  25  1   
  5   2  26  1   
  6   3   4  1   
  7   3   5  1   
  8   3   6  1   
  9   4   7  1   
 10   4   8  1   
 11   4  27  1   
 12   5   9  1   
 13   5  28  1   
 14   5  29  1   
 15   6  10  1   
 16   6  30  1   
 17   6  31  1   
 18   7  11  1   
 19   7  12  1   
 20   7  32  1   
 21   8  13  1   
 22   8  33  1   
 23   8  34  1   
 24   9  13  1   
 25   9  35  1   
 26   9  36  1   
 27  10  11  1   
 28  10  37  1   
 29  10  38  1   
 30  11  39  1   
 31  11  40  1   
 32  12  41  1   
 33  12  42  1   
 34  12  43  1   
 35  13  14  1   
 36  13  44  1   
 37  14  15  1   
 38  14  45  1   
 39  14  46  1   
 40  15  16  2   
 41  15  17  1   
 42  16  18  1   
 43  17  19  2   
 44  17  47  1   
 45  18  19  1   
 46  18  48  1   
 47  19  20  1   
 48  20  21  1   
 49  20  22  1   
 50  20  23  1   
 51  21  49  1   
 52  21  50  1   
 53  21  51  1   
 54  22  52  1   
 55  22  53  1   
 56  22  54  1   
 57  23  55  1   
 58  23  56  1   
 59  23  57  1   
@<TRIPOS>SUBSTRUCTURE
  1 ****   8 GROUP 4 **** **** 0

# MOE 2024.06 (io_trps.svl 2023.06)
