@<TRIPOS>MOLECULE
NONAME
36 37 1 0 0 
SMALL
USER_CHARGES


@<TRIPOS>ATOM
  1 CL      -0.1080    -2.1240    -1.1700 Cl    1 <1>  -0.1770 
  2 C       -1.7320    -2.1390    -0.5340 C.ar  1 <1>   0.1770 
  3 C       -2.6560    -1.2310    -1.0070 C.ar  1 <1>  -0.1500 
  4 C       -2.0740    -3.0600     0.4320 C.ar  1 <1>  -0.1500 
  5 C       -3.9510    -1.2340    -0.5070 C.ar  1 <1>  -0.1440 
  6 C       -3.3650    -3.0580     0.9310 C.ar  1 <1>  -0.1500 
  7 C       -4.3260    -2.1510     0.4840 C.ar  1 <1>  -0.0090 
  8 C       -4.9360    -0.2170    -1.0720 C.3   1 <1>  -0.0960 
  9 S       -6.0080    -2.2400     1.1910 S.o2  1 <1>   1.4470 
 10 O       -6.4790    -0.9000     1.4760 O.2   1 <1>  -0.6500 
 11 O       -6.0260    -3.2020     2.2710 O.2   1 <1>  -0.6500 
 12 N       -6.9560    -2.8250    -0.0920 N.am  1 <1>  -0.8490 
 13 C       -6.5510    -4.1270    -0.6600 C.3   1 <1>   0.1960 
 14 C       -8.4040    -2.7130     0.1130 C.3   1 <1>   0.1960 
 15 C       -7.0820    -5.3290     0.1300 C.3   1 <1>  -0.1860 
 16 C       -8.9640    -3.8680     0.9470 C.3   1 <1>  -0.1600 
 17 C       -6.7400    -6.6160    -0.5880 C.2   1 <1>   0.9060 
 18 C       -8.5920    -5.2000     0.3060 C.3   1 <1>   0.2000 
 19 O       -5.9910    -6.5840    -1.5690 O.co2 1 <1>  -0.9000 
 20 O       -7.2370    -7.6700    -0.1710 O.co2 1 <1>  -0.9000 
 21 O       -9.0350    -6.2180     1.1190 O.3   1 <1>  -0.6800 
 22 H       -2.3530    -0.5300    -1.7640 H     1 <1>   0.1500 
 23 H       -1.3450    -3.7670     0.7850 H     1 <1>   0.1500 
 24 H       -3.6320    -3.7830     1.6820 H     1 <1>   0.1500 
 25 H       -4.5150     0.3050    -1.9130 H     1 <1>   0.0800 
 26 H       -5.1910     0.5090    -0.3210 H     1 <1>   0.0800 
 27 H       -5.8340    -0.7050    -1.4040 H     1 <1>   0.0800 
 28 H       -6.9340    -4.1890    -1.6660 H     1 <1>   0.0800 
 29 H       -5.4790    -4.1920    -0.7350 H     1 <1>   0.0800 
 30 H       -8.6410    -1.7730     0.5820 H     1 <1>   0.0800 
 31 H       -8.8830    -2.7220    -0.8520 H     1 <1>   0.0800 
 32 H       -6.6040    -5.3660     1.0880 H     1 <1>   0.0800 
 33 H      -10.0330    -3.7840     0.9980 H     1 <1>   0.0800 
 34 H       -8.5720    -3.8190     1.9470 H     1 <1>   0.0800 
 35 H       -9.0810    -5.3100    -0.6480 H     1 <1>   0.0800 
 36 H       -8.5360    -7.0340     0.8200 H     1 <1>   0.4000 
@<TRIPOS>BOND
  1   1   2  1   
  2   2   3  ar  
  3   2   4  ar  
  4   3   5  ar  
  5   3  22  1   
  6   4   6  ar  
  7   4  23  1   
  8   5   7  ar  
  9   5   8  1   
 10   6   7  ar  
 11   6  24  1   
 12   7   9  1   
 13   8  25  1   
 14   8  26  1   
 15   8  27  1   
 16   9  10  2   
 17   9  11  2   
 18   9  12  am  
 19  12  13  1   
 20  12  14  1   
 21  13  15  1   
 22  13  28  1   
 23  13  29  1   
 24  14  16  1   
 25  14  30  1   
 26  14  31  1   
 27  15  17  1   
 28  15  18  1   
 29  15  32  1   
 30  16  18  1   
 31  16  33  1   
 32  16  34  1   
 33  17  19  ar  
 34  17  20  ar  
 35  18  21  1   
 36  18  35  1   
 37  21  36  1   
@<TRIPOS>SUBSTRUCTURE
  1 ****  13 GROUP 4 **** **** 0

# MOE 2024.06 (io_trps.svl 2023.06)
