@<TRIPOS>MOLECULE
NONAME
57 60 1 0 0 
SMALL
USER_CHARGES


@<TRIPOS>ATOM
  1 S       -0.8740     1.0400     1.8510 S.o2  1 <1>   1.4470 
  2 O       -0.8160    -0.2190     2.5660 O.2   1 <1>  -0.6500 
  3 O       -1.3100     2.2280     2.5450 O.2   1 <1>  -0.6500 
  4 N       -1.9910     0.7550     0.5920 N.am  1 <1>  -0.8490 
  5 C        0.7220     1.2420     0.9960 C.ar  1 <1>  -0.0090 
  6 C       -1.5000    -0.0620    -0.5420 C.3   1 <1>   0.1960 
  7 C       -3.2840     0.2750     1.1530 C.3   1 <1>   0.1960 
  8 C        1.2060     2.4290     0.4420 C.ar  1 <1>  -0.1440 
  9 C        1.4620     0.0860     0.7870 C.ar  1 <1>  -0.1500 
 10 C       -1.5640    -1.5460    -0.1480 C.3   1 <1>   0.4230 
 11 C       -3.9590    -0.8440     0.3300 C.3   1 <1>  -0.1600 
 12 C        2.3740     2.4170    -0.3090 C.ar  1 <1>  -0.1500 
 13 C        0.4720     3.7500     0.6280 C.3   1 <1>  -0.0960 
 14 C        2.5860     0.0440    -0.0200 C.ar  1 <1>  -0.0230 
 15 N       -0.5970    -2.5100    -0.8030 N.4   1 <1>  -0.9590 
 16 C       -3.0360    -2.0230    -0.1320 C.3   1 <1>   0.0000 
 17 C        3.0550     1.2380    -0.5510 C.ar  1 <1>  -0.1500 
 18 N        3.1700    -1.2170    -0.3130 N.pl3 1 <1>   0.5930 
 19 C       -0.9080    -3.9380    -0.4500 C.3   1 <1>   0.3430 
 20 C       -0.3850    -2.3310    -2.2730 C.3   1 <1>   0.2630 
 21 C       -3.0570    -3.2230     0.8510 C.3   1 <1>  -0.1600 
 22 C       -3.5230    -2.4720    -1.5390 C.3   1 <1>   0.1200 
 23 N        2.4000    -2.3270    -0.5420 N.2   1 <1>  -0.7070 
 24 C        4.4800    -1.5280    -0.4370 C.2   1 <1>  -0.3020 
 25 C       -1.7410    -4.0500     0.8430 C.3   1 <1>  -0.1600 
 26 O       -4.8830    -2.7380    -1.5430 O.3   1 <1>  -0.6800 
 27 C        3.2510    -3.2790    -0.7880 C.2   1 <1>   0.1390 
 28 C        4.5680    -2.8380    -0.7390 C.2   1 <1>  -0.1500 
 29 H       -2.1370     0.1140    -1.3910 H     1 <1>   0.0800 
 30 H       -0.5110     0.2260    -0.8400 H     1 <1>   0.0800 
 31 H       -3.1520    -0.0980     2.1560 H     1 <1>   0.0800 
 32 H       -3.9540     1.1160     1.2300 H     1 <1>   0.0800 
 33 H        1.1390    -0.8320     1.2460 H     1 <1>   0.1500 
 34 H       -1.2760    -1.5480     0.8870 H     1 <1>   0.0800 
 35 H       -4.7970    -1.2300     0.8850 H     1 <1>   0.0800 
 36 H       -4.3840    -0.3560    -0.5310 H     1 <1>   0.0800 
 37 H        2.7570     3.3350    -0.7250 H     1 <1>   0.1500 
 38 H        0.9400     4.5400     0.0680 H     1 <1>   0.0800 
 39 H        0.4740     4.0310     1.6670 H     1 <1>   0.0800 
 40 H       -0.5480     3.6660     0.2960 H     1 <1>   0.0800 
 41 H        0.3430    -2.3310    -0.3870 H     1 <1>   0.4500 
 42 H        3.9430     1.2520    -1.1610 H     1 <1>   0.1500 
 43 H       -1.4630    -4.3960    -1.2520 H     1 <1>   0.0800 
 44 H        0.0120    -4.4900    -0.3360 H     1 <1>   0.0800 
 45 H       -1.2890    -2.5340    -2.8220 H     1 <1>   0.0800 
 46 H        0.3850    -3.0040    -2.6170 H     1 <1>   0.0800 
 47 H       -0.0650    -1.3240    -2.4860 H     1 <1>   0.0800 
 48 H       -3.2060    -2.8600     1.8550 H     1 <1>   0.0800 
 49 H       -3.8910    -3.8680     0.6350 H     1 <1>   0.0800 
 50 H       -3.0300    -3.3620    -1.8830 H     1 <1>   0.0800 
 51 H       -3.3610    -1.6900    -2.2620 H     1 <1>   0.0800 
 52 H        5.2610    -0.8030    -0.2980 H     1 <1>   0.1500 
 53 H       -1.9750    -5.0850     1.0210 H     1 <1>   0.0800 
 54 H       -1.1210    -3.7330     1.6660 H     1 <1>   0.0800 
 55 H       -5.1190    -3.4800    -0.9510 H     1 <1>   0.4000 
 56 H        2.9760    -4.2980    -1.0070 H     1 <1>   0.1500 
 57 H        5.4460    -3.4380    -0.9080 H     1 <1>   0.1500 
@<TRIPOS>BOND
  1   1   2  2   
  2   1   3  2   
  3   1   4  am  
  4   1   5  1   
  5   4   6  1   
  6   4   7  1   
  7   5   8  ar  
  8   5   9  ar  
  9   6  10  1   
 10   6  29  1   
 11   6  30  1   
 12   7  11  1   
 13   7  31  1   
 14   7  32  1   
 15   8  12  ar  
 16   8  13  1   
 17   9  14  ar  
 18   9  33  1   
 19  10  15  1   
 20  10  16  1   
 21  10  34  1   
 22  11  16  1   
 23  11  35  1   
 24  11  36  1   
 25  12  17  ar  
 26  12  37  1   
 27  13  38  1   
 28  13  39  1   
 29  13  40  1   
 30  14  17  ar  
 31  14  18  1   
 32  15  19  1   
 33  15  20  1   
 34  15  41  1   
 35  16  21  1   
 36  16  22  1   
 37  17  42  1   
 38  18  23  1   
 39  18  24  1   
 40  19  25  1   
 41  19  43  1   
 42  19  44  1   
 43  20  45  1   
 44  20  46  1   
 45  20  47  1   
 46  21  25  1   
 47  21  48  1   
 48  21  49  1   
 49  22  26  1   
 50  22  50  1   
 51  22  51  1   
 52  23  27  2   
 53  24  28  2   
 54  24  52  1   
 55  25  53  1   
 56  25  54  1   
 57  26  55  1   
 58  27  28  1   
 59  27  56  1   
 60  28  57  1   
@<TRIPOS>SUBSTRUCTURE
  1 ****  10 GROUP 4 **** **** 0

# MOE 2024.06 (io_trps.svl 2023.06)
