@<TRIPOS>MOLECULE
NONAME
52 55 1 0 0 
SMALL
USER_CHARGES


@<TRIPOS>ATOM
  1 S       -3.0640     0.9940     0.8660 S.3   1 <1>  -0.0800 
  2 C       -1.5290     0.1380     0.8220 C.2   1 <1>  -0.1400 
  3 C       -2.2670     2.5330     0.5970 C.2   1 <1>  -0.1100 
  4 C       -0.5180     1.0030     0.6170 C.2   1 <1>  -0.1500 
  5 C       -1.5310    -1.3730     1.0150 C.3   1 <1>   0.0810 
  6 C       -0.9370     2.3660     0.4890 C.2   1 <1>  -0.1500 
  7 C       -1.9940    -2.1360    -0.2220 C.2   1 <1>   0.5690 
  8 O       -1.1270    -2.4790    -0.9940 O.2   1 <1>  -0.5700 
  9 N       -3.3150    -2.4590    -0.4440 N.am  1 <1>  -0.6600 
 10 C       -3.7310    -3.1960    -1.6720 C.3   1 <1>   0.1400 
 11 C       -4.4670    -2.1110     0.4330 C.3   1 <1>   0.1400 
 12 C       -4.4290    -4.4960    -1.2680 C.3   1 <1>  -0.1600 
 13 C       -5.1680    -3.3970     0.8730 C.3   1 <1>  -0.1600 
 14 C       -5.6190    -4.2420    -0.3310 C.3   1 <1>   0.4240 
 15 O       -6.5280    -3.4760    -1.0870 O.3   1 <1>  -0.5600 
 16 C       -6.2420    -5.5780     0.1280 C.ar  1 <1>  -0.1430 
 17 C       -7.8630    -3.4730    -0.6860 C.3   1 <1>   0.1200 
 18 C       -7.5740    -5.8800    -0.1250 C.ar  1 <1>  -0.1430 
 19 C       -5.4770    -6.5110     0.8170 C.ar  1 <1>  -0.1500 
 20 C       -8.4340    -4.8760    -0.8670 C.3   1 <1>  -0.0170 
 21 C       -8.1180    -7.0820     0.2980 C.ar  1 <1>  -0.1500 
 22 C       -6.0020    -7.7190     1.2420 C.ar  1 <1>   0.0830 
 23 C       -7.3510    -8.0140     0.9910 C.ar  1 <1>   0.0830 
 24 O       -5.1160    -8.5260     1.8930 O.3   1 <1>  -0.3620 
 25 O       -7.8900    -9.1870     1.4400 O.3   1 <1>  -0.3620 
 26 C       -5.2090    -9.9310     1.8100 C.3   1 <1>   0.0400 
 27 C       -9.2720    -9.4580     1.3590 C.3   1 <1>   0.0400 
 28 H       -2.8870     3.4110     0.5470 H     1 <1>   0.1500 
 29 H        0.5230     0.7400     0.5450 H     1 <1>   0.1500 
 30 H       -2.1140    -1.6410     1.8730 H     1 <1>   0.0800 
 31 H       -0.5230    -1.6820     1.2210 H     1 <1>   0.0800 
 32 H       -0.2190     3.1490     0.3200 H     1 <1>   0.1500 
 33 H       -2.8810    -3.4220    -2.2930 H     1 <1>   0.0800 
 34 H       -4.4020    -2.5780    -2.2430 H     1 <1>   0.0800 
 35 H       -5.1520    -1.4900    -0.1210 H     1 <1>   0.0800 
 36 H       -4.1560    -1.5610     1.3010 H     1 <1>   0.0800 
 37 H       -3.7040    -5.1270    -0.7890 H     1 <1>   0.0800 
 38 H       -4.7760    -5.0110    -2.1450 H     1 <1>   0.0800 
 39 H       -6.0100    -3.1640     1.4960 H     1 <1>   0.0800 
 40 H       -4.4820    -3.9650     1.4730 H     1 <1>   0.0800 
 41 H       -8.3910    -2.7690    -1.3030 H     1 <1>   0.0800 
 42 H       -7.9250    -3.1580     0.3410 H     1 <1>   0.0800 
 43 H       -4.4440    -6.3140     1.0370 H     1 <1>   0.1500 
 44 H       -8.4560    -5.1210    -1.9130 H     1 <1>   0.0800 
 45 H       -9.4410    -4.8980    -0.4920 H     1 <1>   0.0800 
 46 H       -9.1490    -7.2740     0.0760 H     1 <1>   0.1500 
 47 H       -4.2520   -10.3450     2.0700 H     1 <1>   0.0800 
 48 H       -5.4710   -10.2070     0.8040 H     1 <1>   0.0800 
 49 H       -5.9530   -10.2710     2.5070 H     1 <1>   0.0800 
 50 H       -9.4540   -10.4040     1.8380 H     1 <1>   0.0800 
 51 H       -9.5580    -9.5130     0.3240 H     1 <1>   0.0800 
 52 H       -9.8110    -8.6810     1.8710 H     1 <1>   0.0800 
@<TRIPOS>BOND
  1   1   2  1   
  2   1   3  1   
  3   2   4  2   
  4   2   5  1   
  5   3   6  2   
  6   3  28  1   
  7   4   6  1   
  8   4  29  1   
  9   5   7  1   
 10   5  30  1   
 11   5  31  1   
 12   6  32  1   
 13   7   8  2   
 14   7   9  am  
 15   9  10  1   
 16   9  11  1   
 17  10  12  1   
 18  10  33  1   
 19  10  34  1   
 20  11  13  1   
 21  11  35  1   
 22  11  36  1   
 23  12  14  1   
 24  12  37  1   
 25  12  38  1   
 26  13  14  1   
 27  13  39  1   
 28  13  40  1   
 29  14  15  1   
 30  14  16  1   
 31  15  17  1   
 32  16  18  ar  
 33  16  19  ar  
 34  17  20  1   
 35  17  41  1   
 36  17  42  1   
 37  18  20  1   
 38  18  21  ar  
 39  19  22  ar  
 40  19  43  1   
 41  20  44  1   
 42  20  45  1   
 43  21  23  ar  
 44  21  46  1   
 45  22  23  ar  
 46  22  24  1   
 47  23  25  1   
 48  24  26  1   
 49  25  27  1   
 50  26  47  1   
 51  26  48  1   
 52  26  49  1   
 53  27  50  1   
 54  27  51  1   
 55  27  52  1   
@<TRIPOS>SUBSTRUCTURE
  1 ****  13 GROUP 4 **** **** 0

# MOE 2024.06 (io_trps.svl 2023.06)
