@<TRIPOS>MOLECULE
NONAME
50 52 1 0 0 
SMALL
USER_CHARGES


@<TRIPOS>ATOM
  1 S        2.1210    -0.2830    -1.4270 S.3   1 <1>  -0.0800 
  2 C        2.0530    -0.4830     0.3180 C.2   1 <1>  -0.1400 
  3 C        0.6610    -1.2310    -1.6400 C.2   1 <1>  -0.1100 
  4 C        0.9820    -1.2230     0.6620 C.2   1 <1>  -0.1500 
  5 C        3.1420     0.1610     1.1640 C.3   1 <1>   0.0810 
  6 C        0.1900    -1.6490    -0.4510 C.2   1 <1>  -0.1500 
  7 C        3.0320     1.6820     1.2150 C.2   1 <1>   0.5690 
  8 O        2.2830     2.1350     2.0500 O.2   1 <1>  -0.5700 
  9 N        3.7670     2.5100     0.3910 N.am  1 <1>  -0.6600 
 10 C        4.7670     2.0330    -0.6140 C.3   1 <1>   0.1400 
 11 C        3.5550     3.9880     0.4370 C.3   1 <1>   0.1400 
 12 C        6.1660     1.9280     0.0080 C.3   1 <1>   0.1400 
 13 C        4.8570     4.8010     0.4200 C.3   1 <1>  -0.1600 
 14 N        6.7920     3.2670     0.2590 N.am  1 <1>  -0.6600 
 15 C        6.0220     4.1560     1.1800 C.3   1 <1>   0.1400 
 16 C        7.9570     3.6130    -0.3930 C.2   1 <1>   0.5690 
 17 O        8.3850     2.9290    -1.2950 O.2   1 <1>  -0.5700 
 18 C        8.7590     4.8710    -0.0150 C.3   1 <1>  -0.0190 
 19 C        8.2370     6.1140    -0.7650 C.3   1 <1>  -0.1600 
 20 C       10.2750     4.7000    -0.2650 C.3   1 <1>  -0.1600 
 21 C        9.0230     7.3800    -0.3910 C.3   1 <1>  -0.1600 
 22 C       11.0640     5.9620     0.1190 C.3   1 <1>  -0.1600 
 23 C       10.5220     7.1840    -0.6280 C.3   1 <1>   0.2000 
 24 O       11.1830     8.3010    -0.1700 O.3   1 <1>  -0.6800 
 25 H        0.3060    -1.3750    -2.6450 H     1 <1>   0.1500 
 26 H        0.7040    -1.4920     1.6670 H     1 <1>   0.1500 
 27 H        4.1070    -0.1500     0.8170 H     1 <1>   0.0800 
 28 H        3.0430    -0.2010     2.1710 H     1 <1>   0.0800 
 29 H       -0.6940    -2.2460    -0.3030 H     1 <1>   0.1500 
 30 H        4.7950     2.6970    -1.4610 H     1 <1>   0.0800 
 31 H        4.4810     1.0680    -0.9870 H     1 <1>   0.0800 
 32 H        3.0160     4.2460     1.3330 H     1 <1>   0.0800 
 33 H        2.9380     4.2780    -0.3960 H     1 <1>   0.0800 
 34 H        6.7840     1.3510    -0.6570 H     1 <1>   0.0800 
 35 H        6.1100     1.3860     0.9350 H     1 <1>   0.0800 
 36 H        4.6420     5.7540     0.8690 H     1 <1>   0.0800 
 37 H        5.1460     4.9970    -0.5970 H     1 <1>   0.0800 
 38 H        5.6550     3.5870     2.0200 H     1 <1>   0.0800 
 39 H        6.6500     4.9320     1.5730 H     1 <1>   0.0800 
 40 H        8.6510     5.0310     1.0410 H     1 <1>   0.0800 
 41 H        7.1970     6.2690    -0.5430 H     1 <1>   0.0800 
 42 H        8.3210     5.9420    -1.8250 H     1 <1>   0.0800 
 43 H       10.4460     4.4870    -1.3070 H     1 <1>   0.0800 
 44 H       10.6410     3.8610     0.3010 H     1 <1>   0.0800 
 45 H        8.8460     7.6090     0.6450 H     1 <1>   0.0800 
 46 H        8.6760     8.2040    -0.9900 H     1 <1>   0.0800 
 47 H       12.1010     5.8230    -0.1330 H     1 <1>   0.0800 
 48 H       10.9840     6.1160     1.1810 H     1 <1>   0.0800 
 49 H       10.7220     7.0920    -1.6830 H     1 <1>   0.0800 
 50 H       11.0520     8.3950     0.7910 H     1 <1>   0.4000 
@<TRIPOS>BOND
  1   1   2  1   
  2   1   3  1   
  3   2   4  2   
  4   2   5  1   
  5   3   6  2   
  6   3  25  1   
  7   4   6  1   
  8   4  26  1   
  9   5   7  1   
 10   5  27  1   
 11   5  28  1   
 12   6  29  1   
 13   7   8  2   
 14   7   9  am  
 15   9  10  1   
 16   9  11  1   
 17  10  12  1   
 18  10  30  1   
 19  10  31  1   
 20  11  13  1   
 21  11  32  1   
 22  11  33  1   
 23  12  14  1   
 24  12  34  1   
 25  12  35  1   
 26  13  15  1   
 27  13  36  1   
 28  13  37  1   
 29  14  15  1   
 30  14  16  am  
 31  15  38  1   
 32  15  39  1   
 33  16  17  2   
 34  16  18  1   
 35  18  19  1   
 36  18  20  1   
 37  18  40  1   
 38  19  21  1   
 39  19  41  1   
 40  19  42  1   
 41  20  22  1   
 42  20  43  1   
 43  20  44  1   
 44  21  23  1   
 45  21  45  1   
 46  21  46  1   
 47  22  23  1   
 48  22  47  1   
 49  22  48  1   
 50  23  24  1   
 51  23  49  1   
 52  24  50  1   
@<TRIPOS>SUBSTRUCTURE
  1 ****  14 GROUP 4 **** **** 0

# MOE 2024.06 (io_trps.svl 2023.06)
