@<TRIPOS>MOLECULE
NONAME
48 50 1 0 0 
SMALL
USER_CHARGES


@<TRIPOS>ATOM
  1 O        0.5770     0.3740    -0.5000 O.2   1 <1>  -0.5700 
  2 C        1.0930     1.4420    -0.2720 C.2   1 <1>   0.5690 
  3 N        0.3780     2.6110    -0.2670 N.am  1 <1>  -0.6600 
  4 C        2.5940     1.4460    -0.0170 C.3   1 <1>  -0.0190 
  5 C        1.0100     3.9520    -0.0920 C.3   1 <1>   0.2200 
  6 C       -1.1070     2.6160    -0.4050 C.3   1 <1>   0.0600 
  7 C        3.3120     2.1250    -1.1940 C.3   1 <1>   0.2090 
  8 C        3.0120     1.9540     1.3890 C.3   1 <1>  -0.1600 
  9 C        2.0150     4.2570    -1.2290 C.3   1 <1>   0.2090 
 10 C        1.5860     4.1370     1.3310 C.3   1 <1>  -0.1600 
 11 N        3.3750     3.6170    -1.0560 N.pl3 1 <1>  -0.8380 
 12 C        1.9940     2.8640     2.1000 C.3   1 <1>  -0.1600 
 13 C        4.4770     4.3690    -0.7710 C.ar  1 <1>   0.7710 
 14 N        4.3500     5.6760    -0.6080 N.ar  1 <1>  -0.6200 
 15 N        5.6730     3.7680    -0.6510 N.ar  1 <1>  -0.1790 
 16 C        5.4150     6.3920    -0.3030 C.ar  1 <1>   0.4100 
 17 C        6.8010     4.4650    -0.3790 C.ar  1 <1>   0.2110 
 18 N        5.2060     7.7180    -0.0980 N.pl3 1 <1>  -0.8380 
 19 C        6.7030     5.8060    -0.2030 C.ar  1 <1>  -0.1440 
 20 C        5.5880     8.4130     1.1630 C.3   1 <1>   0.1290 
 21 C        4.2740     8.5000    -0.9600 C.3   1 <1>   0.1290 
 22 C        7.9560     6.6410     0.0520 C.3   1 <1>  -0.0970 
 23 H        2.8920     0.4130    -0.0640 H     1 <1>   0.0800 
 24 H        0.2320     4.6870    -0.2050 H     1 <1>   0.0800 
 25 H       -1.5500     3.0940     0.4510 H     1 <1>   0.0800 
 26 H       -1.4910     1.6120    -0.4680 H     1 <1>   0.0800 
 27 H       -1.3890     3.1470    -1.2960 H     1 <1>   0.0800 
 28 H        2.7980     1.8750    -2.1100 H     1 <1>   0.0800 
 29 H        4.2970     1.7060    -1.2760 H     1 <1>   0.0800 
 30 H        3.1410     1.0910     2.0200 H     1 <1>   0.0800 
 31 H        3.9640     2.4470     1.3500 H     1 <1>   0.0800 
 32 H        2.1040     5.3260    -1.2990 H     1 <1>   0.0800 
 33 H        1.5850     3.9350    -2.1620 H     1 <1>   0.0800 
 34 H        2.4180     4.8180     1.2950 H     1 <1>   0.0800 
 35 H        0.8310     4.6310     1.9160 H     1 <1>   0.0800 
 36 H        2.4070     3.1610     3.0490 H     1 <1>   0.0800 
 37 H        1.1080     2.2930     2.3230 H     1 <1>   0.0800 
 38 H        5.6790     2.7670    -0.7930 H     1 <1>   0.4570 
 39 H        7.7390     3.9370    -0.3200 H     1 <1>   0.1500 
 40 H        4.7290     8.9020     1.5880 H     1 <1>   0.0800 
 41 H        6.3450     9.1510     0.9580 H     1 <1>   0.0800 
 42 H        5.9640     7.7080     1.8830 H     1 <1>   0.0800 
 43 H        4.6970     9.4660    -1.1750 H     1 <1>   0.0800 
 44 H        3.3320     8.6290    -0.4560 H     1 <1>   0.0800 
 45 H        4.1040     7.9860    -1.8900 H     1 <1>   0.0800 
 46 H        8.8490     6.0940    -0.1920 H     1 <1>   0.0800 
 47 H        8.0120     6.9330     1.0850 H     1 <1>   0.0800 
 48 H        7.9360     7.5300    -0.5560 H     1 <1>   0.0800 
@<TRIPOS>BOND
  1   1   2  2   
  2   2   3  am  
  3   2   4  1   
  4   3   5  1   
  5   3   6  1   
  6   4   7  1   
  7   4   8  1   
  8   4  23  1   
  9   5   9  1   
 10   5  10  1   
 11   5  24  1   
 12   6  25  1   
 13   6  26  1   
 14   6  27  1   
 15   7  11  1   
 16   7  28  1   
 17   7  29  1   
 18   8  12  1   
 19   8  30  1   
 20   8  31  1   
 21   9  11  1   
 22   9  32  1   
 23   9  33  1   
 24  10  12  1   
 25  10  34  1   
 26  10  35  1   
 27  11  13  1   
 28  12  36  1   
 29  12  37  1   
 30  13  14  ar  
 31  13  15  ar  
 32  14  16  ar  
 33  15  17  ar  
 34  15  38  1   
 35  16  18  1   
 36  16  19  ar  
 37  17  19  ar  
 38  17  39  1   
 39  18  20  1   
 40  18  21  1   
 41  19  22  1   
 42  20  40  1   
 43  20  41  1   
 44  20  42  1   
 45  21  43  1   
 46  21  44  1   
 47  21  45  1   
 48  22  46  1   
 49  22  47  1   
 50  22  48  1   
@<TRIPOS>SUBSTRUCTURE
  1 ****  11 GROUP 4 **** **** 0

# MOE 2024.06 (io_trps.svl 2023.06)
