@<TRIPOS>MOLECULE
NONAME
40 41 1 0 0 
SMALL
USER_CHARGES


@<TRIPOS>ATOM
  1 I       -2.0710     2.0130    -1.7180 I     1 <1>  -0.0810 
  2 C       -3.3450     0.4660    -1.0050 C.ar  1 <1>   0.0810 
  3 C       -3.9490    -0.3720    -1.9220 C.ar  1 <1>  -0.1500 
  4 C       -3.5390     0.3400     0.3560 C.ar  1 <1>  -0.1500 
  5 C       -4.7830    -1.3720    -1.4510 C.ar  1 <1>  -0.1500 
  6 C       -4.3760    -0.6650     0.8090 C.ar  1 <1>  -0.1500 
  7 C       -5.0090    -1.5220    -0.0850 C.ar  1 <1>  -0.1430 
  8 C       -5.9360    -2.6020     0.4810 C.3   1 <1>   0.0640 
  9 C       -7.1250    -2.9990    -0.4230 C.3   1 <1>   0.2760 
 10 C       -5.1350    -3.8730     0.7890 C.3   1 <1>   0.1200 
 11 N       -7.9630    -1.9050    -0.9170 N.am  1 <1>  -0.9140 
 12 C       -7.9530    -4.1070     0.2320 C.3   1 <1>  -0.1600 
 13 O       -5.9710    -4.8330     1.3720 O.3   1 <1>  -0.5600 
 14 S       -8.6640    -0.7950     0.1300 S.o2  1 <1>   1.3330 
 15 C       -7.0330    -5.2820     0.5850 C.3   1 <1>   0.1200 
 16 O       -9.9780    -0.6100    -0.4400 O.2   1 <1>  -0.6500 
 17 O       -8.5550    -1.2790     1.4860 O.2   1 <1>  -0.6500 
 18 C       -7.6920     0.7310    -0.0740 C.3   1 <1>   0.0250 
 19 C       -8.2330     1.8980     0.7740 C.3   1 <1>  -0.2400 
 20 C       -7.5720     1.2000    -1.5380 C.3   1 <1>  -0.2400 
 21 H       -3.7740    -0.2490    -2.9760 H     1 <1>   0.1500 
 22 H       -3.0500     1.0050     1.0450 H     1 <1>   0.1500 
 23 H       -5.2550    -2.0220    -2.1650 H     1 <1>   0.1500 
 24 H       -4.5350    -0.7750     1.8690 H     1 <1>   0.1500 
 25 H       -6.3150    -2.2590     1.4250 H     1 <1>   0.0800 
 26 H       -6.6950    -3.4480    -1.3010 H     1 <1>   0.0800 
 27 H       -4.3500    -3.6560     1.4930 H     1 <1>   0.0800 
 28 H       -4.6980    -4.2880    -0.1020 H     1 <1>   0.0800 
 29 H       -8.7670    -2.3020    -1.4000 H     1 <1>   0.4200 
 30 H       -8.7170    -4.4490    -0.4410 H     1 <1>   0.0800 
 31 H       -8.4220    -3.7610     1.1350 H     1 <1>   0.0800 
 32 H       -6.6300    -5.7460    -0.2990 H     1 <1>   0.0800 
 33 H       -7.5700    -6.0220     1.1530 H     1 <1>   0.0800 
 34 H       -6.6990     0.5310     0.2740 H     1 <1>   0.0800 
 35 H       -9.2290     2.1580     0.4580 H     1 <1>   0.0800 
 36 H       -7.5990     2.7610     0.6810 H     1 <1>   0.0800 
 37 H       -8.2700     1.6100     1.8110 H     1 <1>   0.0800 
 38 H       -8.5450     1.4230    -1.9400 H     1 <1>   0.0800 
 39 H       -7.1230     0.4290    -2.1370 H     1 <1>   0.0800 
 40 H       -6.9560     2.0790    -1.6040 H     1 <1>   0.0800 
@<TRIPOS>BOND
  1   1   2  1   
  2   2   3  ar  
  3   2   4  ar  
  4   3   5  ar  
  5   3  21  1   
  6   4   6  ar  
  7   4  22  1   
  8   5   7  ar  
  9   5  23  1   
 10   6   7  ar  
 11   6  24  1   
 12   7   8  1   
 13   8   9  1   
 14   8  10  1   
 15   8  25  1   
 16   9  11  1   
 17   9  12  1   
 18   9  26  1   
 19  10  13  1   
 20  10  27  1   
 21  10  28  1   
 22  11  14  am  
 23  11  29  1   
 24  12  15  1   
 25  12  30  1   
 26  12  31  1   
 27  13  15  1   
 28  14  16  2   
 29  14  17  2   
 30  14  18  1   
 31  15  32  1   
 32  15  33  1   
 33  18  19  1   
 34  18  20  1   
 35  18  34  1   
 36  19  35  1   
 37  19  36  1   
 38  19  37  1   
 39  20  38  1   
 40  20  39  1   
 41  20  40  1   
@<TRIPOS>SUBSTRUCTURE
  1 ****   7 GROUP 4 **** **** 0

# MOE 2024.06 (io_trps.svl 2023.06)
