@<TRIPOS>MOLECULE
NONAME
51 54 1 0 0 
SMALL
USER_CHARGES


@<TRIPOS>ATOM
  1 O        0.2010     0.9820    -0.1380 O.2   1 <1>  -0.5700 
  2 C       -0.6450     1.8010    -0.4100 C.2   1 <1>   0.5690 
  3 N       -1.9800     1.5510    -0.2070 N.am  1 <1>  -0.6600 
  4 C       -0.1990     3.1360    -0.9840 C.3   1 <1>  -0.0990 
  5 C       -3.0960     2.5070    -0.5060 C.3   1 <1>   0.1400 
  6 C       -2.4480     0.2540     0.3600 C.3   1 <1>   0.1400 
  7 C        1.3190     3.2530    -1.1030 C.3   1 <1>   0.1200 
  8 C       -3.9160     2.8100     0.7630 C.3   1 <1>   0.1440 
  9 C       -3.2660     0.5030     1.6330 C.3   1 <1>  -0.1600 
 10 O        1.6100     4.5220    -1.5950 O.3   1 <1>  -0.5600 
 11 C       -5.0500     3.7460     0.3880 C.ar  1 <1>   0.1670 
 12 C       -4.4220     1.4890     1.3840 C.3   1 <1>  -0.1600 
 13 C       -3.1090     3.6590     1.7830 C.3   1 <1>  -0.1600 
 14 C        2.9710     4.7550    -1.7640 C.3   1 <1>   0.0400 
 15 N       -6.1190     3.4100    -0.2920 N.ar  1 <1>  -0.6200 
 16 C       -4.8220     5.0130     0.8290 C.ar  1 <1>  -0.1440 
 17 C       -3.5090     5.1280     1.5620 C.3   1 <1>  -0.0170 
 18 C       -7.0010     4.3920    -0.5230 C.ar  1 <1>   0.6200 
 19 C       -5.7690     5.9640     0.5520 C.ar  1 <1>   0.1600 
 20 N       -6.8580     5.6640    -0.1200 N.ar  1 <1>  -0.6200 
 21 C       -8.2050     4.0520    -1.2710 C.ar  1 <1>   0.0000 
 22 C       -8.7250     2.7530    -1.2720 C.ar  1 <1>  -0.1500 
 23 C       -8.8970     5.0050    -2.0230 C.ar  1 <1>  -0.1500 
 24 C       -9.8660     2.4250    -1.9820 C.ar  1 <1>  -0.1500 
 25 C      -10.0390     4.6850    -2.7350 C.ar  1 <1>  -0.1500 
 26 C      -10.5270     3.3920    -2.7160 C.ar  1 <1>  -0.1500 
 27 H       -0.5490     3.9210    -0.3420 H     1 <1>   0.0800 
 28 H       -0.6300     3.2520    -1.9600 H     1 <1>   0.0800 
 29 H       -3.7430     2.0580    -1.2400 H     1 <1>   0.0800 
 30 H       -2.7290     3.4270    -0.9210 H     1 <1>   0.0800 
 31 H       -1.6130    -0.3870     0.5900 H     1 <1>   0.0800 
 32 H       -3.0560    -0.2470    -0.3730 H     1 <1>   0.0800 
 33 H        1.7030     2.5140    -1.7860 H     1 <1>   0.0800 
 34 H        1.7850     3.1370    -0.1390 H     1 <1>   0.0800 
 35 H       -2.6100     0.8840     2.3970 H     1 <1>   0.0800 
 36 H       -3.6630    -0.4330     1.9840 H     1 <1>   0.0800 
 37 H       -5.1230     1.0330     0.7060 H     1 <1>   0.0800 
 38 H       -4.9470     1.6870     2.3020 H     1 <1>   0.0800 
 39 H       -2.0460     3.5170     1.6940 H     1 <1>   0.0800 
 40 H       -3.3970     3.3850     2.7820 H     1 <1>   0.0800 
 41 H        3.0950     5.7540    -2.1440 H     1 <1>   0.0800 
 42 H        3.3680     4.0460    -2.4710 H     1 <1>   0.0800 
 43 H        3.4680     4.6630    -0.8140 H     1 <1>   0.0800 
 44 H       -2.7890     5.6300     0.9400 H     1 <1>   0.0800 
 45 H       -3.6180     5.6530     2.4950 H     1 <1>   0.0800 
 46 H       -5.6350     6.9800     0.8820 H     1 <1>   0.1500 
 47 H       -8.2270     1.9860    -0.7050 H     1 <1>   0.1500 
 48 H       -8.5340     6.0180    -2.0510 H     1 <1>   0.1500 
 49 H      -10.2390     1.4160    -1.9620 H     1 <1>   0.1500 
 50 H      -10.5490     5.4430    -3.3040 H     1 <1>   0.1500 
 51 H      -11.4150     3.1400    -3.2690 H     1 <1>   0.1500 
@<TRIPOS>BOND
  1   1   2  2   
  2   2   3  am  
  3   2   4  1   
  4   3   5  1   
  5   3   6  1   
  6   4   7  1   
  7   4  27  1   
  8   4  28  1   
  9   5   8  1   
 10   5  29  1   
 11   5  30  1   
 12   6   9  1   
 13   6  31  1   
 14   6  32  1   
 15   7  10  1   
 16   7  33  1   
 17   7  34  1   
 18   8  11  1   
 19   8  12  1   
 20   8  13  1   
 21   9  12  1   
 22   9  35  1   
 23   9  36  1   
 24  10  14  1   
 25  11  15  ar  
 26  11  16  ar  
 27  12  37  1   
 28  12  38  1   
 29  13  17  1   
 30  13  39  1   
 31  13  40  1   
 32  14  41  1   
 33  14  42  1   
 34  14  43  1   
 35  15  18  ar  
 36  16  17  1   
 37  16  19  ar  
 38  17  44  1   
 39  17  45  1   
 40  18  20  ar  
 41  18  21  1   
 42  19  20  ar  
 43  19  46  1   
 44  21  22  ar  
 45  21  23  ar  
 46  22  24  ar  
 47  22  47  1   
 48  23  25  ar  
 49  23  48  1   
 50  24  26  ar  
 51  24  49  1   
 52  25  26  ar  
 53  25  50  1   
 54  26  51  1   
@<TRIPOS>SUBSTRUCTURE
  1 ****  11 GROUP 4 **** **** 0

# MOE 2024.06 (io_trps.svl 2023.06)
