@<TRIPOS>MOLECULE
NONAME
59 61 1 0 0 
SMALL
USER_CHARGES


@<TRIPOS>ATOM
  1 O        0.4040    -0.1080    -1.1920 O.3   1 <1>  -0.5600 
  2 C        1.6650    -0.7260    -1.2940 C.3   1 <1>   0.2000 
  3 C        0.3980     1.2800    -1.3480 C.3   1 <1>   0.1200 
  4 C        2.6760    -0.1090    -0.2900 C.3   1 <1>   0.5660 
  5 C        1.4940    -2.2310    -1.0250 C.3   1 <1>   0.1200 
  6 C        1.2740     1.9370    -0.2670 C.3   1 <1>   0.3430 
  7 N        2.6710     1.3880    -0.2870 N.4   1 <1>  -0.9590 
  8 C        4.0990    -0.5690    -0.5790 C.ar  1 <1>  -0.1430 
  9 O        1.3110    -2.4560     0.3380 O.3   1 <1>  -0.6800 
 10 C        3.5010     1.9300     0.8210 C.3   1 <1>   0.4870 
 11 C        4.7600    -1.3330     0.3720 C.ar  1 <1>  -0.1500 
 12 C        4.7540    -0.2400    -1.7620 C.ar  1 <1>  -0.1500 
 13 C        3.6830     3.4110     0.5700 C.ar  1 <1>  -0.1430 
 14 C        6.0590    -1.7600     0.1610 C.ar  1 <1>   0.0820 
 15 C        6.0580    -0.6550    -1.9740 C.ar  1 <1>  -0.1500 
 16 C        4.5740     3.8480    -0.3980 C.ar  1 <1>  -0.1500 
 17 C        2.9550     4.3440     1.2900 C.ar  1 <1>  -0.1500 
 18 O        6.6210    -2.5200     1.1310 O.3   1 <1>  -0.3620 
 19 C        6.7240    -1.3970    -1.0150 C.ar  1 <1>   0.0820 
 20 C        4.7260     5.1990    -0.6600 C.ar  1 <1>   0.0820 
 21 C        3.0980     5.6980     1.0390 C.ar  1 <1>   0.0820 
 22 C        6.9870    -3.8380     0.7800 C.3   1 <1>   0.0400 
 23 O        8.0090    -1.7370    -1.2740 O.3   1 <1>  -0.3630 
 24 O        5.6120     5.5230    -1.6330 O.3   1 <1>  -0.3620 
 25 C        3.9860     6.1310     0.0600 C.ar  1 <1>  -0.1500 
 26 O        2.3320     6.5280     1.7890 O.3   1 <1>  -0.3630 
 27 C        8.9970    -1.1630    -0.4450 C.3   1 <1>   0.0400 
 28 C        5.9320     6.8670    -1.9220 C.3   1 <1>   0.0400 
 29 C        2.4590     7.9310     1.7000 C.3   1 <1>   0.0400 
 30 H        2.0080    -0.5930    -2.3050 H     1 <1>   0.0800 
 31 H        0.7450     1.5250    -2.3370 H     1 <1>   0.0800 
 32 H       -0.6210     1.6140    -1.2490 H     1 <1>   0.0800 
 33 H        2.3990    -0.4550     0.6920 H     1 <1>   0.0800 
 34 H        2.3710    -2.7740    -1.3340 H     1 <1>   0.0800 
 35 H        0.6380    -2.6080    -1.5590 H     1 <1>   0.0800 
 36 H        0.8220     1.7540     0.6940 H     1 <1>   0.0800 
 37 H        1.2960     3.0040    -0.4260 H     1 <1>   0.0800 
 38 H        3.1250     1.6930    -1.1520 H     1 <1>   0.4500 
 39 H        0.9700    -3.3630     0.4950 H     1 <1>   0.4000 
 40 H        3.0190     1.7660     1.7710 H     1 <1>   0.0800 
 41 H        4.4680     1.4530     0.8370 H     1 <1>   0.0800 
 42 H        4.2760    -1.6220     1.2900 H     1 <1>   0.1500 
 43 H        4.2720     0.3350    -2.5340 H     1 <1>   0.1500 
 44 H        6.5730    -0.4030    -2.8850 H     1 <1>   0.1500 
 45 H        5.1710     3.1540    -0.9650 H     1 <1>   0.1500 
 46 H        2.2640     4.0440     2.0590 H     1 <1>   0.1500 
 47 H        7.2850    -4.3540     1.6750 H     1 <1>   0.0800 
 48 H        7.8070    -3.8110     0.0860 H     1 <1>   0.0800 
 49 H        6.1390    -4.3300     0.3370 H     1 <1>   0.0800 
 50 H        4.0970     7.1770    -0.1400 H     1 <1>   0.1500 
 51 H        9.9610    -1.4660    -0.8120 H     1 <1>   0.0800 
 52 H        8.8650    -1.5090     0.5630 H     1 <1>   0.0800 
 53 H        8.9080    -0.0920    -0.4880 H     1 <1>   0.0800 
 54 H        6.6820     6.8730    -2.6930 H     1 <1>   0.0800 
 55 H        6.3190     7.3340    -1.0340 H     1 <1>   0.0800 
 56 H        5.0480     7.3710    -2.2710 H     1 <1>   0.0800 
 57 H        1.7860     8.3740     2.4130 H     1 <1>   0.0800 
 58 H        2.1940     8.2460     0.7060 H     1 <1>   0.0800 
 59 H        3.4720     8.2080     1.9360 H     1 <1>   0.0800 
@<TRIPOS>BOND
  1   1   2  1   
  2   1   3  1   
  3   2   4  1   
  4   2   5  1   
  5   2  30  1   
  6   3   6  1   
  7   3  31  1   
  8   3  32  1   
  9   4   7  1   
 10   4   8  1   
 11   4  33  1   
 12   5   9  1   
 13   5  34  1   
 14   5  35  1   
 15   6   7  1   
 16   6  36  1   
 17   6  37  1   
 18   7  10  1   
 19   7  38  1   
 20   8  11  ar  
 21   8  12  ar  
 22   9  39  1   
 23  10  13  1   
 24  10  40  1   
 25  10  41  1   
 26  11  14  ar  
 27  11  42  1   
 28  12  15  ar  
 29  12  43  1   
 30  13  16  ar  
 31  13  17  ar  
 32  14  18  1   
 33  14  19  ar  
 34  15  19  ar  
 35  15  44  1   
 36  16  20  ar  
 37  16  45  1   
 38  17  21  ar  
 39  17  46  1   
 40  18  22  1   
 41  19  23  1   
 42  20  24  1   
 43  20  25  ar  
 44  21  25  ar  
 45  21  26  1   
 46  22  47  1   
 47  22  48  1   
 48  22  49  1   
 49  23  27  1   
 50  24  28  1   
 51  25  50  1   
 52  26  29  1   
 53  27  51  1   
 54  27  52  1   
 55  27  53  1   
 56  28  54  1   
 57  28  55  1   
 58  28  56  1   
 59  29  57  1   
 60  29  58  1   
 61  29  59  1   
@<TRIPOS>SUBSTRUCTURE
  1 ****  10 GROUP 4 **** **** 0

# MOE 2024.06 (io_trps.svl 2023.06)
