@<TRIPOS>MOLECULE
NONAME
38 40 1 0 0 
SMALL
USER_CHARGES


@<TRIPOS>ATOM
  1 S        3.2160     2.6100     4.2590 S.3   1 <1>  -0.0800 
  2 C        4.2080     2.9090     2.8570 C.2   1 <1>   0.2280 
  3 C        1.9520     3.5400     3.5270 C.2   1 <1>  -0.1100 
  4 N        3.6540     3.6150     1.9510 N.2   1 <1>  -0.5650 
  5 C        2.3390     3.9920     2.3140 C.2   1 <1>   0.1410 
  6 C        1.5110     4.8300     1.4500 C.2   1 <1>   0.7160 
  7 O        0.6960     5.5790     1.9510 O.2   1 <1>  -0.5700 
  8 N        1.6550     4.8490     0.0720 N.am  1 <1>  -0.6600 
  9 C        2.1770     3.6910    -0.7230 C.3   1 <1>   0.1400 
 10 C        1.2700     6.0430    -0.7270 C.3   1 <1>   0.1400 
 11 C        3.6490     3.8750    -1.1570 C.3   1 <1>   0.3430 
 12 C        2.4790     6.9760    -0.8650 C.3   1 <1>  -0.1600 
 13 N        4.2020     5.1930    -0.7160 N.4   1 <1>  -0.9590 
 14 C        3.7130     6.3480    -1.5210 C.3   1 <1>   0.3430 
 15 C        5.6700     5.1700    -0.5270 C.3   1 <1>   0.5240 
 16 C        6.0430     6.3760     0.3030 C.2   1 <1>  -0.1810 
 17 C        5.8090     6.5900     1.6170 C.2   1 <1>  -0.0100 
 18 C        6.7090     7.5240    -0.1520 C.2   1 <1>  -0.1500 
 19 O        6.2690     7.7670     1.9830 O.3   1 <1>  -0.2800 
 20 C        6.8130     8.3320     0.9240 C.2   1 <1>  -0.0100 
 21 H        5.1960     2.4790     2.8710 H     1 <1>   0.1500 
 22 H        1.0340     3.6720     4.0720 H     1 <1>   0.1500 
 23 H        1.5630     3.5500    -1.5960 H     1 <1>   0.0800 
 24 H        2.0950     2.7870    -0.1430 H     1 <1>   0.0800 
 25 H        0.4650     6.5710    -0.2400 H     1 <1>   0.0800 
 26 H        0.9130     5.7400    -1.6960 H     1 <1>   0.0800 
 27 H        3.7310     3.7710    -2.2260 H     1 <1>   0.0800 
 28 H        4.2200     3.0800    -0.7080 H     1 <1>   0.0800 
 29 H        2.7440     7.3660     0.1030 H     1 <1>   0.0800 
 30 H        2.1780     7.8190    -1.4620 H     1 <1>   0.0800 
 31 H        3.8100     5.3240     0.2320 H     1 <1>   0.4500 
 32 H        4.4810     7.1020    -1.5820 H     1 <1>   0.0800 
 33 H        3.4780     6.0290    -2.5240 H     1 <1>   0.0800 
 34 H        6.1790     5.1920    -1.4770 H     1 <1>   0.0800 
 35 H        5.9570     4.2780     0.0040 H     1 <1>   0.0800 
 36 H        5.3270     5.9780     2.3630 H     1 <1>   0.1500 
 37 H        7.0650     7.7120    -1.1510 H     1 <1>   0.1500 
 38 H        7.2550     9.3090     1.0300 H     1 <1>   0.1500 
@<TRIPOS>BOND
  1   1   2  1   
  2   1   3  1   
  3   2   4  2   
  4   2  21  1   
  5   3   5  2   
  6   3  22  1   
  7   4   5  1   
  8   5   6  1   
  9   6   7  2   
 10   6   8  am  
 11   8   9  1   
 12   8  10  1   
 13   9  11  1   
 14   9  23  1   
 15   9  24  1   
 16  10  12  1   
 17  10  25  1   
 18  10  26  1   
 19  11  13  1   
 20  11  27  1   
 21  11  28  1   
 22  12  14  1   
 23  12  29  1   
 24  12  30  1   
 25  13  14  1   
 26  13  15  1   
 27  13  31  1   
 28  14  32  1   
 29  14  33  1   
 30  15  16  1   
 31  15  34  1   
 32  15  35  1   
 33  16  17  2   
 34  16  18  1   
 35  17  19  1   
 36  17  36  1   
 37  18  20  2   
 38  18  37  1   
 39  19  20  1   
 40  20  38  1   
@<TRIPOS>SUBSTRUCTURE
  1 ****  13 GROUP 4 **** **** 0

# MOE 2024.06 (io_trps.svl 2023.06)
