@<TRIPOS>MOLECULE
NONAME
45 48 1 0 0 
SMALL
USER_CHARGES


@<TRIPOS>ATOM
  1 S       -0.8680    -0.4990    -0.1420 S.3   1 <1>  -0.0800 
  2 C       -0.7800     1.1330     0.5240 C.2   1 <1>   0.0410 
  3 C       -1.4620    -1.1690     1.3670 C.2   1 <1>  -0.1400 
  4 C       -0.3460     2.2040    -0.3360 C.2   1 <1>   0.2880 
  5 C       -1.1690     1.0890     1.8230 C.2   1 <1>  -0.1500 
  6 C       -1.5510    -0.2010     2.2990 C.2   1 <1>  -0.1500 
  7 C       -1.7550    -2.6540     1.3850 C.3   1 <1>   0.5230 
  8 N       -0.1270     2.0800    -1.6230 N.2   1 <1>  -0.7070 
  9 C       -0.1070     3.5180     0.0790 C.2   1 <1>  -0.1500 
 10 N       -3.1420    -2.8930     0.9030 N.4   1 <1>  -0.9590 
 11 N        0.2540     3.2990    -2.0370 N.pl3 1 <1>   0.3000 
 12 C        0.2730     4.1880    -1.0270 C.2   1 <1>  -0.3020 
 13 C       -3.4620    -2.3540    -0.4500 C.3   1 <1>   0.3430 
 14 C       -3.5620    -4.3240     0.8990 C.3   1 <1>   0.3430 
 15 C       -4.7230    -3.1160    -0.8560 C.3   1 <1>   0.2000 
 16 C       -4.4460    -4.5280    -0.3450 C.3   1 <1>  -0.0800 
 17 O       -5.7860    -2.5990    -0.1250 O.3   1 <1>  -0.6800 
 18 C       -3.7460    -5.3930    -1.4160 C.3   1 <1>   0.0200 
 19 C       -3.1710    -6.6590    -0.8130 C.2   1 <1>  -0.0400 
 20 O       -3.8760    -7.3500     0.0420 O.3   1 <1>  -0.0190 
 21 C       -1.9860    -7.2710    -0.9600 C.2   1 <1>  -0.1500 
 22 N       -3.2200    -8.3780     0.4890 N.2   1 <1>  -0.4100 
 23 C       -2.0820    -8.3660    -0.1050 C.2   1 <1>   0.1080 
 24 C       -1.0020    -9.4050     0.1030 C.3   1 <1>  -0.0590 
 25 H       -1.2030     1.9460     2.4740 H     1 <1>   0.1500 
 26 H       -1.8750    -0.3280     3.3190 H     1 <1>   0.1500 
 27 H       -1.6550    -3.0220     2.3930 H     1 <1>   0.0800 
 28 H       -1.0430    -3.1690     0.7610 H     1 <1>   0.0800 
 29 H       -0.2130     3.8860     1.0830 H     1 <1>   0.1500 
 30 H       -3.7910    -2.3900     1.5280 H     1 <1>   0.4500 
 31 H        0.4960     3.4950    -3.0180 H     1 <1>   0.2700 
 32 H        0.5500     5.2190    -1.1520 H     1 <1>   0.1500 
 33 H       -3.6340    -1.2900    -0.4330 H     1 <1>   0.0800 
 34 H       -2.6630    -2.5780    -1.1370 H     1 <1>   0.0800 
 35 H       -2.7030    -4.9760     0.8640 H     1 <1>   0.0800 
 36 H       -4.1250    -4.5460     1.7920 H     1 <1>   0.0800 
 37 H       -4.9470    -3.0450    -1.9080 H     1 <1>   0.0800 
 38 H       -5.3580    -5.0270    -0.0630 H     1 <1>   0.0800 
 39 H       -6.6470    -2.9310    -0.4600 H     1 <1>   0.4000 
 40 H       -2.9500    -4.8500    -1.8940 H     1 <1>   0.0800 
 41 H       -4.4610    -5.6670    -2.1730 H     1 <1>   0.0800 
 42 H       -1.1400    -7.0180    -1.5740 H     1 <1>   0.1500 
 43 H       -0.0920    -8.9340     0.4240 H     1 <1>   0.0800 
 44 H       -0.8230    -9.9340    -0.8150 H     1 <1>   0.0800 
 45 H       -1.3120   -10.1110     0.8530 H     1 <1>   0.0800 
@<TRIPOS>BOND
  1   1   2  1   
  2   1   3  1   
  3   2   4  1   
  4   2   5  2   
  5   3   6  2   
  6   3   7  1   
  7   4   8  2   
  8   4   9  1   
  9   5   6  1   
 10   5  25  1   
 11   6  26  1   
 12   7  10  1   
 13   7  27  1   
 14   7  28  1   
 15   8  11  1   
 16   9  12  2   
 17   9  29  1   
 18  10  13  1   
 19  10  14  1   
 20  10  30  1   
 21  11  12  1   
 22  11  31  1   
 23  12  32  1   
 24  13  15  1   
 25  13  33  1   
 26  13  34  1   
 27  14  16  1   
 28  14  35  1   
 29  14  36  1   
 30  15  16  1   
 31  15  17  1   
 32  15  37  1   
 33  16  18  1   
 34  16  38  1   
 35  17  39  1   
 36  18  19  1   
 37  18  40  1   
 38  18  41  1   
 39  19  20  1   
 40  19  21  2   
 41  20  22  1   
 42  21  23  1   
 43  21  42  1   
 44  22  23  2   
 45  23  24  1   
 46  24  43  1   
 47  24  44  1   
 48  24  45  1   
@<TRIPOS>SUBSTRUCTURE
  1 ****  13 GROUP 4 **** **** 0

# MOE 2024.06 (io_trps.svl 2023.06)
