@<TRIPOS>MOLECULE
NONAME
58 61 1 0 0 
SMALL
USER_CHARGES


@<TRIPOS>ATOM
  1 O        2.3220     1.8990    -1.4090 O.3   1 <1>  -0.0190 
  2 N        3.1640     0.9590    -1.0990 N.2   1 <1>  -0.4100 
  3 C        1.4570     2.1110    -0.4540 C.2   1 <1>  -0.0400 
  4 C        2.8220     0.5420     0.0670 C.2   1 <1>   0.1080 
  5 C        1.7230     1.2540     0.5420 C.2   1 <1>  -0.1500 
  6 C        0.4160     3.2030    -0.6070 C.3   1 <1>   0.0200 
  7 C        3.5250    -0.5720     0.8120 C.3   1 <1>  -0.0590 
  8 C        1.0740     4.5030    -1.1090 C.3   1 <1>  -0.0800 
  9 C        0.1880     5.7440    -1.0910 C.3   1 <1>   0.2000 
 10 C        2.3110     4.9060    -0.3000 C.3   1 <1>   0.3430 
 11 O       -0.4590     5.8140     0.1490 O.3   1 <1>  -0.5600 
 12 C        1.2260     6.8660    -1.1650 C.3   1 <1>   0.3430 
 13 N        2.3760     6.4000    -0.3210 N.4   1 <1>  -0.9590 
 14 C       -1.6700     6.5080     0.1430 C.3   1 <1>   0.0400 
 15 C        2.2750     6.9400     1.0640 C.3   1 <1>   0.4860 
 16 C        2.3540     8.4530     1.0110 C.ar  1 <1>  -0.1440 
 17 C        3.5280     9.0810     0.6260 C.ar  1 <1>  -0.1500 
 18 C        1.2470     9.2220     1.3390 C.ar  1 <1>  -0.1500 
 19 C        3.6000    10.4610     0.5510 C.ar  1 <1>   0.0820 
 20 C        1.3140    10.6030     1.2720 C.ar  1 <1>  -0.1500 
 21 O        4.7860    10.9780     0.1530 O.3   1 <1>  -0.3630 
 22 C        2.4850    11.2260     0.8770 C.ar  1 <1>  -0.1500 
 23 C        5.0050    12.3710     0.1040 C.3   1 <1>   0.2630 
 24 C        6.4350    12.6240    -0.3450 C.ar  1 <1>  -0.1440 
 25 C        7.4820    12.4750     0.5520 C.ar  1 <1>  -0.1500 
 26 C        6.7080    13.0080    -1.6490 C.ar  1 <1>  -0.1500 
 27 C        8.7860    12.7120     0.1520 C.ar  1 <1>  -0.1500 
 28 C        8.0110    13.2460    -2.0500 C.ar  1 <1>  -0.1500 
 29 C        9.0510    13.0990    -1.1490 C.ar  1 <1>  -0.1500 
 30 H        1.2360     1.1150     1.4900 H     1 <1>   0.1500 
 31 H       -0.3330     2.8820    -1.3100 H     1 <1>   0.0800 
 32 H       -0.0650     3.3520     0.3440 H     1 <1>   0.0800 
 33 H        3.8590    -0.2200     1.7710 H     1 <1>   0.0800 
 34 H        4.3760    -0.9100     0.2490 H     1 <1>   0.0800 
 35 H        2.8520    -1.3970     0.9520 H     1 <1>   0.0800 
 36 H        1.3980     4.3390    -2.1220 H     1 <1>   0.0800 
 37 H       -0.5300     5.7600    -1.8940 H     1 <1>   0.0800 
 38 H        3.1990     4.4650    -0.7270 H     1 <1>   0.0800 
 39 H        2.2030     4.5530     0.7130 H     1 <1>   0.0800 
 40 H        0.8180     7.8040    -0.8290 H     1 <1>   0.0800 
 41 H        1.5530     6.9720    -2.1860 H     1 <1>   0.0800 
 42 H        3.2590     6.7360    -0.7250 H     1 <1>   0.4500 
 43 H       -2.0600     6.5140     1.1460 H     1 <1>   0.0800 
 44 H       -2.3670     6.0040    -0.5060 H     1 <1>   0.0800 
 45 H       -1.5090     7.5200    -0.1880 H     1 <1>   0.0800 
 46 H        1.3410     6.6380     1.5110 H     1 <1>   0.0800 
 47 H        3.0820     6.5610     1.6700 H     1 <1>   0.0800 
 48 H        4.4120     8.5200     0.3800 H     1 <1>   0.1500 
 49 H        0.3260     8.7580     1.6530 H     1 <1>   0.1500 
 50 H        0.4530    11.1980     1.5300 H     1 <1>   0.1500 
 51 H        2.5060    12.2990     0.8330 H     1 <1>   0.1500 
 52 H        4.3060    12.8020    -0.5910 H     1 <1>   0.0800 
 53 H        4.8440    12.7770     1.0870 H     1 <1>   0.0800 
 54 H        7.2850    12.1700     1.5650 H     1 <1>   0.1500 
 55 H        5.9080    13.1220    -2.3600 H     1 <1>   0.1500 
 56 H        9.5930    12.5940     0.8540 H     1 <1>   0.1500 
 57 H        8.2170    13.5440    -3.0640 H     1 <1>   0.1500 
 58 H       10.0640    13.2820    -1.4610 H     1 <1>   0.1500 
@<TRIPOS>BOND
  1   1   2  1   
  2   1   3  1   
  3   2   4  2   
  4   3   5  2   
  5   3   6  1   
  6   4   5  1   
  7   4   7  1   
  8   5  30  1   
  9   6   8  1   
 10   6  31  1   
 11   6  32  1   
 12   7  33  1   
 13   7  34  1   
 14   7  35  1   
 15   8   9  1   
 16   8  10  1   
 17   8  36  1   
 18   9  11  1   
 19   9  12  1   
 20   9  37  1   
 21  10  13  1   
 22  10  38  1   
 23  10  39  1   
 24  11  14  1   
 25  12  13  1   
 26  12  40  1   
 27  12  41  1   
 28  13  15  1   
 29  13  42  1   
 30  14  43  1   
 31  14  44  1   
 32  14  45  1   
 33  15  16  1   
 34  15  46  1   
 35  15  47  1   
 36  16  17  ar  
 37  16  18  ar  
 38  17  19  ar  
 39  17  48  1   
 40  18  20  ar  
 41  18  49  1   
 42  19  21  1   
 43  19  22  ar  
 44  20  22  ar  
 45  20  50  1   
 46  21  23  1   
 47  22  51  1   
 48  23  24  1   
 49  23  52  1   
 50  23  53  1   
 51  24  25  ar  
 52  24  26  ar  
 53  25  27  ar  
 54  25  54  1   
 55  26  28  ar  
 56  26  55  1   
 57  27  29  ar  
 58  27  56  1   
 59  28  29  ar  
 60  28  57  1   
 61  29  58  1   
@<TRIPOS>SUBSTRUCTURE
  1 ****  13 GROUP 4 **** **** 0

# MOE 2024.06 (io_trps.svl 2023.06)
