@<TRIPOS>MOLECULE
NONAME
44 47 1 0 0 
SMALL
USER_CHARGES


@<TRIPOS>ATOM
  1 S       -1.6650    -0.2750    -1.4980 S.3   1 <1>  -0.0800 
  2 C       -1.4770    -2.0010    -1.7710 C.ar  1 <1>   0.2970 
  3 C       -1.9210    -0.5180     0.2300 C.2   1 <1>  -0.1400 
  4 N       -1.2430    -2.5030    -2.9650 N.ar  1 <1>  -0.5670 
  5 C       -1.6100    -2.6980    -0.5930 C.ar  1 <1>   0.0000 
  6 C       -1.8610    -1.8290     0.5430 C.2   1 <1>  -0.1810 
  7 C       -2.1520     0.7540     1.0250 C.3   1 <1>  -0.0600 
  8 C       -1.1380    -3.8150    -2.9440 C.ar  1 <1>   0.4700 
  9 C       -1.4790    -4.0850    -0.7370 C.ar  1 <1>   0.4100 
 10 C       -2.0300    -2.3880     1.9490 C.3   1 <1>  -0.0590 
 11 N       -1.2420    -4.6400    -1.9120 N.ar  1 <1>  -0.6200 
 12 N       -1.6090    -4.9380     0.3250 N.pl3 1 <1>  -0.8690 
 13 C       -1.4900    -6.4160     0.3040 C.3   1 <1>   0.2890 
 14 C       -2.8620    -7.0750     0.3180 C.3   1 <1>  -0.0800 
 15 C       -0.9500    -6.8770     1.6510 C.3   1 <1>   0.1200 
 16 C       -3.2300    -7.0700     1.8060 C.3   1 <1>   0.1200 
 17 C       -3.9250    -6.4390    -0.5970 C.3   1 <1>  -0.0170 
 18 O       -2.0450    -6.8530     2.5190 O.3   1 <1>  -0.5600 
 19 C       -5.2260    -7.2240    -0.5490 C.ar  1 <1>  -0.1430 
 20 C       -5.3960    -8.3940    -1.2610 C.ar  1 <1>  -0.1500 
 21 C       -6.3030    -6.8090     0.2080 C.ar  1 <1>  -0.1500 
 22 C       -6.5980    -9.0760    -1.1800 C.ar  1 <1>   0.1600 
 23 C       -7.4630    -7.5660     0.2200 C.ar  1 <1>   0.1600 
 24 N       -7.6360    -8.6910    -0.4550 N.ar  1 <1>  -0.6200 
 25 H       -2.3060     0.5450     2.0660 H     1 <1>   0.0800 
 26 H       -3.0190     1.2650     0.6460 H     1 <1>   0.0800 
 27 H       -1.2990     1.4020     0.9270 H     1 <1>   0.0800 
 28 H       -0.9430    -4.2820    -3.8950 H     1 <1>   0.1500 
 29 H       -2.8840    -3.0420     1.9850 H     1 <1>   0.0800 
 30 H       -2.1810    -1.6050     2.6670 H     1 <1>   0.0800 
 31 H       -1.1490    -2.9340     2.2360 H     1 <1>   0.0800 
 32 H       -1.8610    -4.5640     1.2410 H     1 <1>   0.4000 
 33 H       -0.8730    -6.7450    -0.5160 H     1 <1>   0.0800 
 34 H       -2.7350    -8.1010     0.0220 H     1 <1>   0.0800 
 35 H       -0.1710    -6.2370     2.0260 H     1 <1>   0.0800 
 36 H       -0.5970    -7.8920     1.5920 H     1 <1>   0.0800 
 37 H       -3.6600    -8.0080     2.1150 H     1 <1>   0.0800 
 38 H       -3.9030    -6.2650     2.0450 H     1 <1>   0.0800 
 39 H       -3.5580    -6.4200    -1.6090 H     1 <1>   0.0800 
 40 H       -4.1110    -5.4210    -0.3060 H     1 <1>   0.0800 
 41 H       -4.6060    -8.7800    -1.8780 H     1 <1>   0.1500 
 42 H       -6.2540    -5.9060     0.7880 H     1 <1>   0.1500 
 43 H       -6.7130    -9.9870    -1.7430 H     1 <1>   0.1500 
 44 H       -8.2940    -7.2280     0.8160 H     1 <1>   0.1500 
@<TRIPOS>BOND
  1   1   2  1   
  2   1   3  1   
  3   2   4  ar  
  4   2   5  ar  
  5   3   6  2   
  6   3   7  1   
  7   4   8  ar  
  8   5   6  1   
  9   5   9  ar  
 10   6  10  1   
 11   7  25  1   
 12   7  26  1   
 13   7  27  1   
 14   8  11  ar  
 15   8  28  1   
 16   9  11  ar  
 17   9  12  1   
 18  10  29  1   
 19  10  30  1   
 20  10  31  1   
 21  12  13  1   
 22  12  32  1   
 23  13  14  1   
 24  13  15  1   
 25  13  33  1   
 26  14  16  1   
 27  14  17  1   
 28  14  34  1   
 29  15  18  1   
 30  15  35  1   
 31  15  36  1   
 32  16  18  1   
 33  16  37  1   
 34  16  38  1   
 35  17  19  1   
 36  17  39  1   
 37  17  40  1   
 38  19  20  ar  
 39  19  21  ar  
 40  20  22  ar  
 41  20  41  1   
 42  21  23  ar  
 43  21  42  1   
 44  22  24  ar  
 45  22  43  1   
 46  23  24  ar  
 47  23  44  1   
@<TRIPOS>SUBSTRUCTURE
  1 ****  12 GROUP 4 **** **** 0

# MOE 2024.06 (io_trps.svl 2023.06)
