@<TRIPOS>MOLECULE
NONAME
53 56 1 0 0 
SMALL
USER_CHARGES


@<TRIPOS>ATOM
  1 O       -0.5150     0.7780     0.0000 O.2   1 <1>  -0.5700 
  2 C       -1.5990     1.2140    -0.3060 C.2   1 <1>   0.5690 
  3 N       -2.6770     0.3890    -0.4530 N.am  1 <1>  -0.6600 
  4 C       -1.7690     2.7140    -0.5190 C.3   1 <1>  -0.0990 
  5 C       -4.0950     0.7850    -0.6500 C.3   1 <1>   0.1400 
  6 C       -2.5890    -1.0800    -0.2420 C.3   1 <1>   0.1400 
  7 C       -0.4430     3.4980    -0.5580 C.3   1 <1>  -0.1600 
  8 C       -4.8870    -0.3420     0.0110 C.3   1 <1>   0.2000 
  9 C       -4.0370    -1.5830    -0.2760 C.3   1 <1>  -0.0800 
 10 C       -0.6710     4.9990    -0.7870 C.3   1 <1>   0.0200 
 11 O       -4.9090    -0.0970     1.3760 O.3   1 <1>  -0.6800 
 12 C       -4.2960    -2.7930     0.6400 C.3   1 <1>   0.0210 
 13 C        0.6350     5.7700    -0.7830 C.2   1 <1>   0.2980 
 14 C       -3.4050    -3.9570     0.2560 C.2   1 <1>   0.1080 
 15 O        1.4830     5.5810    -1.7600 O.3   1 <1>  -0.0190 
 16 N        0.9950     6.6090     0.0970 N.2   1 <1>  -0.5650 
 17 N       -3.4770    -4.5480    -0.8960 N.2   1 <1>  -0.7070 
 18 C       -2.4190    -4.5070     1.0690 C.2   1 <1>  -0.1500 
 19 N        2.4720     6.3670    -1.4760 N.2   1 <1>  -0.4100 
 20 C        2.1890     6.9740    -0.3780 C.2   1 <1>   0.4620 
 21 N       -2.5300    -5.5040    -0.8480 N.pl3 1 <1>   0.3000 
 22 C       -1.8740    -5.4980     0.3320 C.2   1 <1>  -0.3320 
 23 C        3.0340     7.9440     0.2920 C.ar  1 <1>   0.0540 
 24 C       -0.7490    -6.4520     0.6880 C.3   1 <1>  -0.0600 
 25 C        4.2740     8.3230    -0.2040 C.ar  1 <1>  -0.1500 
 26 C        2.6740     8.5690     1.4790 C.ar  1 <1>  -0.1500 
 27 C        5.0470     9.2510     0.4680 C.ar  1 <1>   0.1600 
 28 C        3.5180     9.4860     2.0750 C.ar  1 <1>   0.1600 
 29 N        4.6980     9.8440     1.5980 N.ar  1 <1>  -0.6200 
 30 H       -2.2910     2.8630    -1.4460 H     1 <1>   0.0800 
 31 H       -2.3780     3.0930     0.2800 H     1 <1>   0.0800 
 32 H       -4.3250     1.7380    -0.2080 H     1 <1>   0.0800 
 33 H       -4.3080     0.8100    -1.7050 H     1 <1>   0.0800 
 34 H       -1.9980    -1.5420    -1.0160 H     1 <1>   0.0800 
 35 H       -2.1310    -1.2740     0.7130 H     1 <1>   0.0800 
 36 H        0.0810     3.3580     0.3730 H     1 <1>   0.0800 
 37 H        0.1790     3.1030    -1.3440 H     1 <1>   0.0800 
 38 H       -5.9000    -0.4200    -0.3440 H     1 <1>   0.0800 
 39 H       -4.2410    -1.8890    -1.2870 H     1 <1>   0.0800 
 40 H       -1.3020     5.3910    -0.0080 H     1 <1>   0.0800 
 41 H       -1.1630     5.1600    -1.7290 H     1 <1>   0.0800 
 42 H       -3.9920     0.0740     1.6740 H     1 <1>   0.4000 
 43 H       -5.3220    -3.1000     0.5480 H     1 <1>   0.0800 
 44 H       -4.1170    -2.5380     1.6690 H     1 <1>   0.0800 
 45 H       -2.1670    -4.1900     2.0650 H     1 <1>   0.1500 
 46 H       -2.3560    -6.1410    -1.6340 H     1 <1>   0.2700 
 47 H       -0.3910    -6.2470     1.6810 H     1 <1>   0.0800 
 48 H        0.0680    -6.3380    -0.0020 H     1 <1>   0.0800 
 49 H       -1.0990    -7.4690     0.6540 H     1 <1>   0.0800 
 50 H        4.6400     7.8920    -1.1190 H     1 <1>   0.1500 
 51 H        1.7310     8.3390     1.9410 H     1 <1>   0.1500 
 52 H        6.0040     9.5230     0.0550 H     1 <1>   0.1500 
 53 H        3.2070     9.9520     2.9950 H     1 <1>   0.1500 
@<TRIPOS>BOND
  1   1   2  2   
  2   2   3  am  
  3   2   4  1   
  4   3   5  1   
  5   3   6  1   
  6   4   7  1   
  7   4  30  1   
  8   4  31  1   
  9   5   8  1   
 10   5  32  1   
 11   5  33  1   
 12   6   9  1   
 13   6  34  1   
 14   6  35  1   
 15   7  10  1   
 16   7  36  1   
 17   7  37  1   
 18   8   9  1   
 19   8  11  1   
 20   8  38  1   
 21   9  12  1   
 22   9  39  1   
 23  10  13  1   
 24  10  40  1   
 25  10  41  1   
 26  11  42  1   
 27  12  14  1   
 28  12  43  1   
 29  12  44  1   
 30  13  15  1   
 31  13  16  2   
 32  14  17  2   
 33  14  18  1   
 34  15  19  1   
 35  16  20  1   
 36  17  21  1   
 37  18  22  2   
 38  18  45  1   
 39  19  20  2   
 40  20  23  1   
 41  21  22  1   
 42  21  46  1   
 43  22  24  1   
 44  23  25  ar  
 45  23  26  ar  
 46  24  47  1   
 47  24  48  1   
 48  24  49  1   
 49  25  27  ar  
 50  25  50  1   
 51  26  28  ar  
 52  26  51  1   
 53  27  29  ar  
 54  27  52  1   
 55  28  29  ar  
 56  28  53  1   
@<TRIPOS>SUBSTRUCTURE
  1 ****   1 GROUP 4 **** **** 0

# MOE 2024.06 (io_trps.svl 2023.06)
