@<TRIPOS>MOLECULE
NONAME
48 49 1 0 0 
SMALL
USER_CHARGES


@<TRIPOS>ATOM
  1 O        1.3420    -1.4790     0.2620 O.2   1 <1>  -0.5700 
  2 C        2.1600    -1.3670    -0.6250 C.2   1 <1>   0.5690 
  3 N        2.8170    -0.2070    -0.9000 N.am  1 <1>  -0.4930 
  4 C        2.4580    -2.6070    -1.4580 C.3   1 <1>  -0.0190 
  5 C        2.6710     1.0550    -0.2700 C.2   1 <1>   0.0630 
  6 C        1.1270    -3.3020    -1.7950 C.3   1 <1>   0.3430 
  7 C        3.4360    -3.5500    -0.7080 C.3   1 <1>  -0.1600 
  8 C        1.8370     1.4360     0.7830 C.2   1 <1>   0.1390 
  9 C        3.3460     2.1780    -0.5890 C.2   1 <1>  -0.3020 
 10 N        0.6430    -4.0330    -0.5880 N.4   1 <1>  -0.9590 
 11 C        2.9620    -5.0130    -0.7270 C.3   1 <1>  -0.1600 
 12 N        1.9770     2.6890     1.0930 N.2   1 <1>  -0.7070 
 13 N        2.9160     3.1560     0.2430 N.pl3 1 <1>   0.3140 
 14 C        1.5250    -5.1840    -0.2030 C.3   1 <1>   0.3430 
 15 C       -0.8000    -4.4100    -0.7100 C.3   1 <1>   0.3430 
 16 C        3.3930     4.5700     0.2490 C.3   1 <1>   0.1760 
 17 C       -1.4300    -4.7500     0.6450 C.3   1 <1>   0.1200 
 18 C        4.0450     4.9170     1.5950 C.3   1 <1>  -0.2400 
 19 C        2.2390     5.5330    -0.0640 C.3   1 <1>  -0.2400 
 20 O       -2.7370    -5.1450     0.4020 O.3   1 <1>  -0.5600 
 21 C       -3.4710    -5.4450     1.5480 C.3   1 <1>   0.0400 
 22 H        3.5260    -0.2170    -1.6320 H     1 <1>   0.3700 
 23 H        2.9050    -2.2990    -2.3860 H     1 <1>   0.0800 
 24 H        1.2670    -3.9960    -2.6080 H     1 <1>   0.0800 
 25 H        0.4030    -2.5610    -2.0970 H     1 <1>   0.0800 
 26 H        3.5260    -3.2390     0.3210 H     1 <1>   0.0800 
 27 H        4.4190    -3.4800    -1.1450 H     1 <1>   0.0800 
 28 H        1.1520     0.7790     1.2890 H     1 <1>   0.1500 
 29 H        4.0920     2.3440    -1.3410 H     1 <1>   0.1500 
 30 H        0.7130    -3.3130     0.1620 H     1 <1>   0.4500 
 31 H        3.6240    -5.6180    -0.1310 H     1 <1>   0.0800 
 32 H        3.0140    -5.3960    -1.7320 H     1 <1>   0.0800 
 33 H        1.1220    -6.1050    -0.5930 H     1 <1>   0.0800 
 34 H        1.5470    -5.2620     0.8720 H     1 <1>   0.0800 
 35 H       -0.9010    -5.2580    -1.3660 H     1 <1>   0.0800 
 36 H       -1.3520    -3.5860    -1.1310 H     1 <1>   0.0800 
 37 H        4.1350     4.6650    -0.5240 H     1 <1>   0.0800 
 38 H       -1.4460    -3.8840     1.2840 H     1 <1>   0.0800 
 39 H       -0.9160    -5.5670     1.1220 H     1 <1>   0.0800 
 40 H        3.3230     4.8370     2.3900 H     1 <1>   0.0800 
 41 H        4.4250     5.9220     1.5760 H     1 <1>   0.0800 
 42 H        4.8610     4.2460     1.7950 H     1 <1>   0.0800 
 43 H        1.4810     5.4660     0.6980 H     1 <1>   0.0800 
 44 H        1.8010     5.2910    -1.0150 H     1 <1>   0.0800 
 45 H        2.5990     6.5450    -0.1000 H     1 <1>   0.0800 
 46 H       -4.4610    -5.7400     1.2450 H     1 <1>   0.0800 
 47 H       -3.5330    -4.5700     2.1730 H     1 <1>   0.0800 
 48 H       -2.9990    -6.2560     2.0750 H     1 <1>   0.0800 
@<TRIPOS>BOND
  1   1   2  2   
  2   2   3  am  
  3   2   4  1   
  4   3   5  1   
  5   3  22  1   
  6   4   6  1   
  7   4   7  1   
  8   4  23  1   
  9   5   8  1   
 10   5   9  2   
 11   6  10  1   
 12   6  24  1   
 13   6  25  1   
 14   7  11  1   
 15   7  26  1   
 16   7  27  1   
 17   8  12  2   
 18   8  28  1   
 19   9  13  1   
 20   9  29  1   
 21  10  14  1   
 22  10  15  1   
 23  10  30  1   
 24  11  14  1   
 25  11  31  1   
 26  11  32  1   
 27  12  13  1   
 28  13  16  1   
 29  14  33  1   
 30  14  34  1   
 31  15  17  1   
 32  15  35  1   
 33  15  36  1   
 34  16  18  1   
 35  16  19  1   
 36  16  37  1   
 37  17  20  1   
 38  17  38  1   
 39  17  39  1   
 40  18  40  1   
 41  18  41  1   
 42  18  42  1   
 43  19  43  1   
 44  19  44  1   
 45  19  45  1   
 46  20  21  1   
 47  21  46  1   
 48  21  47  1   
 49  21  48  1   
@<TRIPOS>SUBSTRUCTURE
  1 ****   1 GROUP 4 **** **** 0

# MOE 2024.06 (io_trps.svl 2023.06)
