@<TRIPOS>MOLECULE
NONAME
42 44 1 0 0 
SMALL
USER_CHARGES


@<TRIPOS>ATOM
  1 O       -0.1980    -1.8790     2.8180 O.co2 1 <1>  -0.9000 
  2 C        0.4790    -1.6650     1.7940 C.2   1 <1>   0.9790 
  3 O        0.8340    -0.4980     1.5480 O.co2 1 <1>  -0.9000 
  4 C        0.8770    -2.7540     0.9450 C.ar  1 <1>  -0.1790 
  5 C        0.1270    -3.1130    -0.1850 C.ar  1 <1>   0.4100 
  6 C        2.0250    -3.4770     1.2300 C.ar  1 <1>  -0.1500 
  7 N        0.4630    -4.1040    -1.0080 N.ar  1 <1>  -0.6200 
  8 N       -1.0310    -2.4590    -0.5430 N.pl3 1 <1>  -0.8380 
  9 C        2.3690    -4.5040     0.3820 C.ar  1 <1>  -0.1500 
 10 C        1.5600    -4.7670    -0.7070 C.ar  1 <1>   0.1600 
 11 C       -2.1820    -2.5090     0.4000 C.3   1 <1>   0.2090 
 12 C       -0.8850    -1.1510    -1.2130 C.3   1 <1>   0.2090 
 13 C       -3.5190    -2.2420    -0.3300 C.3   1 <1>   0.0000 
 14 C       -2.1630    -0.8540    -2.0030 C.3   1 <1>  -0.1600 
 15 C       -4.6480    -2.2510     0.7180 C.3   1 <1>   0.2000 
 16 C       -3.4120    -0.9030    -1.1030 C.3   1 <1>  -0.1600 
 17 C       -3.8820    -3.4270    -1.2430 C.3   1 <1>  -0.1600 
 18 O       -5.7960    -1.6350     0.1980 O.3   1 <1>  -0.5600 
 19 C       -4.9630    -3.7340     0.9450 C.3   1 <1>  -0.1600 
 20 C       -4.5680    -4.4650    -0.3450 C.3   1 <1>  -0.1600 
 21 C       -6.6310    -1.0660     1.1540 C.3   1 <1>   0.0400 
 22 H        2.6170    -3.2250     2.0930 H     1 <1>   0.1500 
 23 H        3.2500    -5.0910     0.5630 H     1 <1>   0.1500 
 24 H        1.8330    -5.5700    -1.3690 H     1 <1>   0.1500 
 25 H       -2.1920    -3.4680     0.8880 H     1 <1>   0.0800 
 26 H       -2.0480    -1.7550     1.1550 H     1 <1>   0.0800 
 27 H       -0.7170    -0.3860    -0.4740 H     1 <1>   0.0800 
 28 H       -0.0340    -1.1800    -1.8730 H     1 <1>   0.0800 
 29 H       -2.0790     0.1190    -2.4520 H     1 <1>   0.0800 
 30 H       -2.2510    -1.5780    -2.7930 H     1 <1>   0.0800 
 31 H       -4.3480    -1.7450     1.6210 H     1 <1>   0.0800 
 32 H       -4.2920    -0.7460    -1.7010 H     1 <1>   0.0800 
 33 H       -3.3530    -0.0990    -0.3900 H     1 <1>   0.0800 
 34 H       -4.5850    -3.0980    -1.9880 H     1 <1>   0.0800 
 35 H       -3.0180    -3.8350    -1.7400 H     1 <1>   0.0800 
 36 H       -4.3520    -4.0970     1.7530 H     1 <1>   0.0800 
 37 H       -5.9960    -3.8940     1.1960 H     1 <1>   0.0800 
 38 H       -3.8840    -5.2660    -0.1200 H     1 <1>   0.0800 
 39 H       -5.4330    -4.8700    -0.8400 H     1 <1>   0.0800 
 40 H       -7.4870    -0.6580     0.6480 H     1 <1>   0.0800 
 41 H       -6.1000    -0.2800     1.6620 H     1 <1>   0.0800 
 42 H       -6.9460    -1.8230     1.8510 H     1 <1>   0.0800 
@<TRIPOS>BOND
  1   1   2  ar  
  2   2   3  ar  
  3   2   4  1   
  4   4   5  ar  
  5   4   6  ar  
  6   5   7  ar  
  7   5   8  1   
  8   6   9  ar  
  9   6  22  1   
 10   7  10  ar  
 11   8  11  1   
 12   8  12  1   
 13   9  10  ar  
 14   9  23  1   
 15  10  24  1   
 16  11  13  1   
 17  11  25  1   
 18  11  26  1   
 19  12  14  1   
 20  12  27  1   
 21  12  28  1   
 22  13  15  1   
 23  13  16  1   
 24  13  17  1   
 25  14  16  1   
 26  14  29  1   
 27  14  30  1   
 28  15  18  1   
 29  15  19  1   
 30  15  31  1   
 31  16  32  1   
 32  16  33  1   
 33  17  20  1   
 34  17  34  1   
 35  17  35  1   
 36  18  21  1   
 37  19  20  1   
 38  19  36  1   
 39  19  37  1   
 40  20  38  1   
 41  20  39  1   
 42  21  40  1   
 43  21  41  1   
 44  21  42  1   
@<TRIPOS>SUBSTRUCTURE
  1 ****  11 GROUP 4 **** **** 0

# MOE 2024.06 (io_trps.svl 2023.06)
