@<TRIPOS>MOLECULE
NONAME
44 46 1 0 0 
SMALL
USER_CHARGES


@<TRIPOS>ATOM
  1 S       -0.8810    -0.5210     1.6550 S.3   1 <1>  -0.0800 
  2 C       -1.2530    -2.1670     1.1660 C.2   1 <1>  -0.1400 
  3 C        0.2350    -1.0880     2.8850 C.2   1 <1>  -0.1100 
  4 C       -0.5510    -3.0460     1.9100 C.2   1 <1>  -0.1500 
  5 C       -2.2550    -2.3260     0.0380 C.3   1 <1>   0.3200 
  6 C        0.2940    -2.4320     2.8890 C.2   1 <1>  -0.1500 
  7 N       -2.6240    -3.7430    -0.0960 N.am  1 <1>  -0.7300 
  8 C       -2.8260    -4.4100    -1.2570 C.2   1 <1>   0.5690 
  9 O       -2.7700    -3.8590    -2.3300 O.2   1 <1>  -0.5700 
 10 C       -3.1300    -5.9100    -1.1870 C.3   1 <1>   0.1710 
 11 N       -3.6940    -6.3690     0.1180 N.3   1 <1>  -0.8100 
 12 C       -5.0750    -5.9110     0.3230 C.3   1 <1>   0.1100 
 13 C       -3.7640    -7.8360     0.1960 C.3   1 <1>   0.1100 
 14 C       -5.6050    -6.8270     1.4190 C.3   1 <1>   0.2000 
 15 C       -4.9780    -8.1800     1.0810 C.3   1 <1>  -0.0800 
 16 O       -5.0640    -6.4000     2.6170 O.3   1 <1>  -0.6800 
 17 C       -5.9850    -9.0960     0.3610 C.3   1 <1>  -0.0170 
 18 C       -5.3800   -10.4500     0.0270 C.ar  1 <1>   0.1670 
 19 N       -4.8790   -10.5890    -1.1910 N.ar  1 <1>  -0.6200 
 20 C       -5.3760   -11.4510     0.9870 C.ar  1 <1>  -0.1500 
 21 C       -4.3530   -11.7730    -1.4630 C.ar  1 <1>   0.1600 
 22 C       -4.8240   -12.6790     0.6900 C.ar  1 <1>  -0.1500 
 23 C       -4.3000   -12.8340    -0.5750 C.ar  1 <1>  -0.1500 
 24 H        0.7350    -0.3450     3.4800 H     1 <1>   0.1500 
 25 H       -0.5860    -4.1170     1.8130 H     1 <1>   0.1500 
 26 H       -1.8310    -1.9640    -0.8830 H     1 <1>   0.0800 
 27 H       -3.1400    -1.7530     0.2570 H     1 <1>   0.0800 
 28 H        0.9030    -3.0290     3.5450 H     1 <1>   0.1500 
 29 H       -2.7440    -4.2720     0.7710 H     1 <1>   0.3700 
 30 H       -2.2050    -6.4270    -1.3660 H     1 <1>   0.0800 
 31 H       -3.8040    -6.1600    -1.9870 H     1 <1>   0.0800 
 32 H       -5.1210    -4.8740     0.6110 H     1 <1>   0.0800 
 33 H       -5.6520    -6.0580    -0.5740 H     1 <1>   0.0800 
 34 H       -3.8890    -8.2480    -0.7910 H     1 <1>   0.0800 
 35 H       -2.8540    -8.2280     0.6180 H     1 <1>   0.0800 
 36 H       -6.6780    -6.8330     1.5040 H     1 <1>   0.0800 
 37 H       -4.6510    -8.6790     1.9770 H     1 <1>   0.0800 
 38 H       -4.1050    -6.2770     2.4590 H     1 <1>   0.4000 
 39 H       -6.3300    -8.6300    -0.5460 H     1 <1>   0.0800 
 40 H       -6.8430    -9.2480     0.9920 H     1 <1>   0.0800 
 41 H       -5.7990   -11.2730     1.9590 H     1 <1>   0.1500 
 42 H       -3.9420   -11.9070    -2.4490 H     1 <1>   0.1500 
 43 H       -4.8030   -13.4770     1.4120 H     1 <1>   0.1500 
 44 H       -3.8550   -13.7650    -0.8720 H     1 <1>   0.1500 
@<TRIPOS>BOND
  1   1   2  1   
  2   1   3  1   
  3   2   4  2   
  4   2   5  1   
  5   3   6  2   
  6   3  24  1   
  7   4   6  1   
  8   4  25  1   
  9   5   7  1   
 10   5  26  1   
 11   5  27  1   
 12   6  28  1   
 13   7   8  am  
 14   7  29  1   
 15   8   9  2   
 16   8  10  1   
 17  10  11  1   
 18  10  30  1   
 19  10  31  1   
 20  11  12  1   
 21  11  13  1   
 22  12  14  1   
 23  12  32  1   
 24  12  33  1   
 25  13  15  1   
 26  13  34  1   
 27  13  35  1   
 28  14  15  1   
 29  14  16  1   
 30  14  36  1   
 31  15  17  1   
 32  15  37  1   
 33  16  38  1   
 34  17  18  1   
 35  17  39  1   
 36  17  40  1   
 37  18  19  ar  
 38  18  20  ar  
 39  19  21  ar  
 40  20  22  ar  
 41  20  41  1   
 42  21  23  ar  
 43  21  42  1   
 44  22  23  ar  
 45  22  43  1   
 46  23  44  1   
@<TRIPOS>SUBSTRUCTURE
  1 ****  11 GROUP 4 **** **** 0

# MOE 2024.06 (io_trps.svl 2023.06)
