@<TRIPOS>MOLECULE
NONAME
54 57 1 0 0 
SMALL
USER_CHARGES


@<TRIPOS>ATOM
  1 F       -0.3600    -1.3060     0.0410 F     1 <1>  -0.1900 
  2 C       -1.6430    -1.5770    -0.0800 C.ar  1 <1>   0.1900 
  3 C       -2.6230    -0.5840    -0.1130 C.ar  1 <1>   0.4100 
  4 C       -2.0170    -2.8890    -0.1710 C.ar  1 <1>   0.1600 
  5 N       -3.8870    -0.9430    -0.2390 N.ar  1 <1>  -0.6200 
  6 N       -2.3910     0.7870    -0.0090 N.pl3 1 <1>  -0.8380 
  7 N       -3.2830    -3.2480    -0.2900 N.ar  1 <1>  -0.6200 
  8 C       -4.1510    -2.2360    -0.3390 C.ar  1 <1>   0.7200 
  9 C       -1.0630     1.4310     0.1060 C.3   1 <1>   0.2090 
 10 C       -3.4350     1.7950    -0.3210 C.3   1 <1>   0.2090 
 11 N       -5.4850    -2.5610    -0.4650 N.pl3 1 <1>  -0.8380 
 12 C       -1.3560     2.9250     0.1490 C.3   1 <1>  -0.1600 
 13 C       -2.6690     3.0800    -0.6110 C.3   1 <1>  -0.1600 
 14 C       -5.9290    -3.8930    -0.9160 C.3   1 <1>   0.2090 
 15 C       -6.4370    -1.8810     0.4500 C.3   1 <1>   0.2090 
 16 C       -6.6280    -4.5300     0.3030 C.3   1 <1>   0.4230 
 17 C       -7.8150    -2.6090     0.5670 C.3   1 <1>  -0.1600 
 18 N       -6.1250    -5.9300     0.6030 N.4   1 <1>  -0.9590 
 19 C       -8.1820    -4.1660     0.2560 C.3   1 <1>   0.0000 
 20 C       -6.3800    -6.8500    -0.5230 C.3   1 <1>   0.3430 
 21 C       -4.6790    -5.9200     0.9950 C.3   1 <1>   0.2630 
 22 C       -8.6180    -5.6830    -0.1140 C.3   1 <1>  -0.1600 
 23 C       -9.7320    -3.7560     0.2880 C.3   1 <1>   0.1200 
 24 C       -7.7520    -6.5190    -1.0860 C.3   1 <1>  -0.1600 
 25 O      -10.1850    -3.4830    -1.0030 O.3   1 <1>  -0.6800 
 26 H       -1.2620    -3.6540    -0.1450 H     1 <1>   0.1500 
 27 H       -0.5520     1.1080     0.9970 H     1 <1>   0.0800 
 28 H       -0.4740     1.1910    -0.7640 H     1 <1>   0.0800 
 29 H       -4.0280     1.4940    -1.1690 H     1 <1>   0.0800 
 30 H       -4.0710     1.9170     0.5390 H     1 <1>   0.0800 
 31 H       -1.4890     3.2220     1.1740 H     1 <1>   0.0800 
 32 H       -0.5580     3.5010    -0.2850 H     1 <1>   0.0800 
 33 H       -2.4760     3.1360    -1.6680 H     1 <1>   0.0800 
 34 H       -3.2220     3.9500    -0.3070 H     1 <1>   0.0800 
 35 H       -6.6250    -3.7690    -1.7280 H     1 <1>   0.0800 
 36 H       -5.1070    -4.4830    -1.2760 H     1 <1>   0.0800 
 37 H       -5.9830    -1.8190     1.4270 H     1 <1>   0.0800 
 38 H       -6.5830    -0.8680     0.1100 H     1 <1>   0.0800 
 39 H       -6.2460    -3.9970     1.1560 H     1 <1>   0.0800 
 40 H       -8.1270    -2.3870     1.5760 H     1 <1>   0.0800 
 41 H       -8.3930    -1.9630    -0.0770 H     1 <1>   0.0800 
 42 H       -6.6780    -6.2630     1.4030 H     1 <1>   0.4500 
 43 H       -5.6320    -6.7310    -1.2910 H     1 <1>   0.0800 
 44 H       -6.3570    -7.8700    -0.1740 H     1 <1>   0.0800 
 45 H       -4.0650    -5.6010     0.1680 H     1 <1>   0.0800 
 46 H       -4.3640    -6.9050     1.2980 H     1 <1>   0.0800 
 47 H       -4.5170    -5.2380     1.8140 H     1 <1>   0.0800 
 48 H       -8.7360    -6.2340     0.8060 H     1 <1>   0.0800 
 49 H       -9.5740    -5.7920    -0.6080 H     1 <1>   0.0800 
 50 H      -10.0020    -2.9030     0.8930 H     1 <1>   0.0800 
 51 H      -10.3760    -4.5160     0.7060 H     1 <1>   0.0800 
 52 H       -7.6430    -5.9910    -2.0180 H     1 <1>   0.0800 
 53 H       -8.2520    -7.4440    -1.3170 H     1 <1>   0.0800 
 54 H       -9.8520    -2.6260    -1.3330 H     1 <1>   0.4000 
@<TRIPOS>BOND
  1   1   2  1   
  2   2   3  ar  
  3   2   4  ar  
  4   3   5  ar  
  5   3   6  1   
  6   4   7  ar  
  7   4  26  1   
  8   5   8  ar  
  9   6   9  1   
 10   6  10  1   
 11   7   8  ar  
 12   8  11  1   
 13   9  12  1   
 14   9  27  1   
 15   9  28  1   
 16  10  13  1   
 17  10  29  1   
 18  10  30  1   
 19  11  14  1   
 20  11  15  1   
 21  12  13  1   
 22  12  31  1   
 23  12  32  1   
 24  13  33  1   
 25  13  34  1   
 26  14  16  1   
 27  14  35  1   
 28  14  36  1   
 29  15  17  1   
 30  15  37  1   
 31  15  38  1   
 32  16  18  1   
 33  16  19  1   
 34  16  39  1   
 35  17  19  1   
 36  17  40  1   
 37  17  41  1   
 38  18  20  1   
 39  18  21  1   
 40  18  42  1   
 41  19  22  1   
 42  19  23  1   
 43  20  24  1   
 44  20  43  1   
 45  20  44  1   
 46  21  45  1   
 47  21  46  1   
 48  21  47  1   
 49  22  24  1   
 50  22  48  1   
 51  22  49  1   
 52  23  25  1   
 53  23  50  1   
 54  23  51  1   
 55  24  52  1   
 56  24  53  1   
 57  25  54  1   
@<TRIPOS>SUBSTRUCTURE
  1 ****  11 GROUP 4 **** **** 0

# MOE 2024.06 (io_trps.svl 2023.06)
