@<TRIPOS>MOLECULE
NONAME
36 38 1 0 0 
SMALL
USER_CHARGES


@<TRIPOS>ATOM
  1 O       -0.8290     0.6320     0.7400 O.2   1 <1>  -0.5700 
  2 C       -1.9010     1.1450     0.4570 C.2   1 <1>   0.7150 
  3 N       -2.9270     0.3050     0.0720 N.am  1 <1>  -0.6600 
  4 C       -2.0190     2.5920     0.5400 C.2   1 <1>   0.1020 
  5 C       -4.2780     0.7310    -0.3700 C.3   1 <1>   0.1400 
  6 C       -2.8100    -1.1710     0.0670 C.3   1 <1>   0.1400 
  7 N       -3.0590     3.3670     0.2970 N.2   1 <1>  -0.5650 
  8 N       -0.9420     3.3270     0.9190 N.pl3 1 <1>   0.0330 
  9 C       -4.9780    -0.5600    -0.7960 C.3   1 <1>   0.2000 
 10 C       -4.2460    -1.6820    -0.0630 C.3   1 <1>  -0.0800 
 11 C       -2.6200     4.6120     0.5290 C.2   1 <1>   0.0770 
 12 C       -1.3250     4.6090     0.9110 C.2   1 <1>  -0.3020 
 13 O       -6.3190    -0.5600    -0.4480 O.3   1 <1>  -0.6800 
 14 C       -4.3570    -3.0370    -0.7780 C.3   1 <1>   0.0200 
 15 C       -3.5360    -4.0980    -0.0690 C.2   1 <1>  -0.0400 
 16 O       -3.8140    -4.4230     1.1650 O.3   1 <1>  -0.0190 
 17 C       -2.4900    -4.8370    -0.4660 C.2   1 <1>  -0.1500 
 18 N       -3.0060    -5.3370     1.6180 N.2   1 <1>  -0.4100 
 19 C       -2.1980    -5.6080     0.6560 C.2   1 <1>   0.1080 
 20 C       -1.0840    -6.6270     0.7430 C.3   1 <1>  -0.0590 
 21 H       -4.7900     1.1980     0.4540 H     1 <1>   0.0800 
 22 H       -4.2050     1.4180    -1.1960 H     1 <1>   0.0800 
 23 H       -2.2130    -1.4700    -0.7770 H     1 <1>   0.0800 
 24 H       -2.3480    -1.5260     0.9740 H     1 <1>   0.0800 
 25 H       -0.0300     2.9210     1.1570 H     1 <1>   0.2700 
 26 H       -4.9050    -0.6740    -1.8650 H     1 <1>   0.0800 
 27 H       -4.6390    -1.7730     0.9350 H     1 <1>   0.0800 
 28 H       -3.2650     5.4670     0.4090 H     1 <1>   0.1500 
 29 H       -0.6800     5.4300     1.1700 H     1 <1>   0.1500 
 30 H       -6.4190    -0.4430     0.5160 H     1 <1>   0.4000 
 31 H       -4.0150    -2.9470    -1.7930 H     1 <1>   0.0800 
 32 H       -5.3870    -3.3480    -0.8000 H     1 <1>   0.0800 
 33 H       -1.9750    -4.8580    -1.4080 H     1 <1>   0.1500 
 34 H       -1.2270    -7.3880    -0.0010 H     1 <1>   0.0800 
 35 H       -1.0820    -7.0860     1.7150 H     1 <1>   0.0800 
 36 H       -0.1370    -6.1460     0.5830 H     1 <1>   0.0800 
@<TRIPOS>BOND
  1   1   2  2   
  2   2   3  am  
  3   2   4  1   
  4   3   5  1   
  5   3   6  1   
  6   4   7  2   
  7   4   8  1   
  8   5   9  1   
  9   5  21  1   
 10   5  22  1   
 11   6  10  1   
 12   6  23  1   
 13   6  24  1   
 14   7  11  1   
 15   8  12  1   
 16   8  25  1   
 17   9  10  1   
 18   9  13  1   
 19   9  26  1   
 20  10  14  1   
 21  10  27  1   
 22  11  12  2   
 23  11  28  1   
 24  12  29  1   
 25  13  30  1   
 26  14  15  1   
 27  14  31  1   
 28  14  32  1   
 29  15  16  1   
 30  15  17  2   
 31  16  18  1   
 32  17  19  1   
 33  17  33  1   
 34  18  19  2   
 35  19  20  1   
 36  20  34  1   
 37  20  35  1   
 38  20  36  1   
@<TRIPOS>SUBSTRUCTURE
  1 ****   6 GROUP 4 **** **** 0

# MOE 2024.06 (io_trps.svl 2023.06)
