@<TRIPOS>MOLECULE
NONAME
40 42 1 0 0 
SMALL
USER_CHARGES


@<TRIPOS>ATOM
  1 F       -1.6600     4.7110    -1.3730 F     1 <1>  -0.1900 
  2 C       -1.7630     4.0080    -0.2740 C.ar  1 <1>   0.1900 
  3 C       -0.7790     3.0810     0.0390 C.ar  1 <1>  -0.0320 
  4 C       -2.8590     4.2350     0.5380 C.ar  1 <1>  -0.1500 
  5 C       -0.9110     2.3740     1.2260 C.ar  1 <1>  -0.1500 
  6 C        0.4230     2.8440    -0.8690 C.3   1 <1>   0.0320 
  7 C       -2.9770     3.5130     1.7130 C.ar  1 <1>  -0.1500 
  8 C       -2.0030     2.5870     2.0550 C.ar  1 <1>  -0.1500 
  9 C        1.5320     3.8720    -0.6450 C.2   1 <1>   0.6300 
 10 C        0.1770     2.3420    -2.2660 C.3   1 <1>  -0.2000 
 11 C        0.7730     1.4290    -1.2450 C.3   1 <1>  -0.2000 
 12 O        2.5510     3.5360    -0.0870 O.2   1 <1>  -0.5700 
 13 N        1.3090     5.1380    -1.0960 N.am  1 <1>  -0.4930 
 14 C        2.1470     6.2750    -1.0160 C.2   1 <1>   0.0630 
 15 C        3.4500     6.3840    -0.5260 C.2   1 <1>   0.1390 
 16 C        1.8280     7.5240    -1.4100 C.2   1 <1>  -0.3020 
 17 N        3.9070     7.6000    -0.6040 N.2   1 <1>  -0.7070 
 18 N        2.8990     8.3080    -1.1560 N.pl3 1 <1>   0.3140 
 19 C        3.0090     9.7540    -1.3900 C.3   1 <1>   0.1570 
 20 C        2.7470    10.5060    -0.1050 C.2   1 <1>   0.5690 
 21 O        2.0340    11.4800    -0.1470 O.2   1 <1>  -0.5700 
 22 N        3.3240    10.0810     1.0520 N.am  1 <1>  -0.7300 
 23 C        3.1650    10.7010     2.3890 C.3   1 <1>   0.0600 
 24 H       -3.6000     4.9600     0.2560 H     1 <1>   0.1500 
 25 H       -0.1600     1.6560     1.5090 H     1 <1>   0.1500 
 26 H       -3.8210     3.6710     2.3630 H     1 <1>   0.1500 
 27 H       -2.0930     2.0300     2.9720 H     1 <1>   0.1500 
 28 H        0.8060     2.6870    -3.0670 H     1 <1>   0.1000 
 29 H       -0.8360     2.1620    -2.5840 H     1 <1>   0.1000 
 30 H        0.1720     0.6210    -0.8670 H     1 <1>   0.1000 
 31 H        1.8150     1.1660    -1.3220 H     1 <1>   0.1000 
 32 H        0.3870     5.3000    -1.5030 H     1 <1>   0.3700 
 33 H        4.0150     5.5580    -0.1270 H     1 <1>   0.1500 
 34 H        0.9180     7.8940    -1.8430 H     1 <1>   0.1500 
 35 H        2.2960    10.0480    -2.1350 H     1 <1>   0.0800 
 36 H        3.9990     9.9760    -1.7380 H     1 <1>   0.0800 
 37 H        3.8440     9.1890     1.0170 H     1 <1>   0.3700 
 38 H        2.5800    11.6020     2.3160 H     1 <1>   0.0800 
 39 H        4.1310    10.9450     2.7940 H     1 <1>   0.0800 
 40 H        2.6650    10.0140     3.0500 H     1 <1>   0.0800 
@<TRIPOS>BOND
  1   1   2  1   
  2   2   3  ar  
  3   2   4  ar  
  4   3   5  ar  
  5   3   6  1   
  6   4   7  ar  
  7   4  24  1   
  8   5   8  ar  
  9   5  25  1   
 10   6   9  1   
 11   6  10  1   
 12   6  11  1   
 13   7   8  ar  
 14   7  26  1   
 15   8  27  1   
 16   9  12  2   
 17   9  13  am  
 18  10  11  1   
 19  10  28  1   
 20  10  29  1   
 21  11  30  1   
 22  11  31  1   
 23  13  14  1   
 24  13  32  1   
 25  14  15  1   
 26  14  16  2   
 27  15  17  2   
 28  15  33  1   
 29  16  18  1   
 30  16  34  1   
 31  17  18  1   
 32  18  19  1   
 33  19  20  1   
 34  19  35  1   
 35  19  36  1   
 36  20  21  2   
 37  20  22  am  
 38  22  23  1   
 39  22  37  1   
 40  23  38  1   
 41  23  39  1   
 42  23  40  1   
@<TRIPOS>SUBSTRUCTURE
  1 ****  13 GROUP 4 **** **** 0

# MOE 2024.06 (io_trps.svl 2023.06)
