@<TRIPOS>MOLECULE
NONAME
43 44 1 0 0 
SMALL
USER_CHARGES


@<TRIPOS>ATOM
  1 S       -0.0520    -0.3020    -1.0660 S.o2  1 <1>   1.4470 
  2 O        0.5320    -1.4340    -1.7580 O.2   1 <1>  -0.6500 
  3 O       -1.1050     0.4250    -1.7470 O.2   1 <1>  -0.6500 
  4 N       -0.6550    -0.8650     0.4220 N.am  1 <1>  -0.8490 
  5 C        1.3250     0.7710    -0.5590 C.ar  1 <1>  -0.0090 
  6 C       -1.0390    -2.2870     0.4660 C.3   1 <1>   0.1960 
  7 C       -1.6120     0.0260     1.1000 C.3   1 <1>   0.1960 
  8 C        1.1610     2.1170    -0.2400 C.ar  1 <1>   0.0820 
  9 C        2.6050     0.2370    -0.4550 C.ar  1 <1>  -0.1500 
 10 C       -2.3900    -2.5630    -0.2060 C.3   1 <1>  -0.1860 
 11 C       -3.0460    -0.5210     1.1340 C.3   1 <1>  -0.1600 
 12 O       -0.0800     2.6560    -0.3160 O.3   1 <1>  -0.3620 
 13 C        2.2530     2.8850     0.1540 C.ar  1 <1>  -0.1500 
 14 C        3.6980     0.9940    -0.0670 C.ar  1 <1>  -0.1440 
 15 C       -2.8920    -3.8520     0.4130 C.2   1 <1>   0.9060 
 16 C       -3.3410    -1.3510    -0.1100 C.3   1 <1>   0.2000 
 17 C       -0.2760     4.0340    -0.5460 C.3   1 <1>   0.0400 
 18 C        3.5200     2.3360     0.2410 C.ar  1 <1>  -0.1440 
 19 C        5.0660     0.3310     0.0140 C.3   1 <1>  -0.0960 
 20 O       -2.3140    -4.9010     0.1190 O.co2 1 <1>  -0.9000 
 21 O       -3.8240    -3.8290     1.2300 O.co2 1 <1>  -0.9000 
 22 O       -4.6560    -1.7550    -0.0480 O.3   1 <1>  -0.6800 
 23 C        4.6860     3.2130     0.6750 C.3   1 <1>  -0.0970 
 24 H       -0.2780    -2.9090     0.0240 H     1 <1>   0.0800 
 25 H       -1.1060    -2.5750     1.5030 H     1 <1>   0.0800 
 26 H       -1.2780     0.1840     2.1110 H     1 <1>   0.0800 
 27 H       -1.6250     0.9870     0.6180 H     1 <1>   0.0800 
 28 H        2.7420    -0.8060    -0.6880 H     1 <1>   0.1500 
 29 H       -2.2140    -2.7660    -1.2450 H     1 <1>   0.0800 
 30 H       -3.7370     0.3000     1.2000 H     1 <1>   0.0800 
 31 H       -3.1690    -1.1370     2.0080 H     1 <1>   0.0800 
 32 H        2.1220     3.9200     0.4060 H     1 <1>   0.1500 
 33 H       -3.2390    -0.7320    -0.9850 H     1 <1>   0.0800 
 34 H       -1.3120     4.1850    -0.7900 H     1 <1>   0.0800 
 35 H        0.3420     4.3420    -1.3710 H     1 <1>   0.0800 
 36 H       -0.0280     4.5790     0.3470 H     1 <1>   0.0800 
 37 H        5.0100    -0.7070    -0.2620 H     1 <1>   0.0800 
 38 H        5.4470     0.3920     1.0180 H     1 <1>   0.0800 
 39 H        5.7520     0.8200    -0.6530 H     1 <1>   0.0800 
 40 H       -4.6550    -2.5800     0.5270 H     1 <1>   0.4000 
 41 H        4.3630     4.2190     0.8700 H     1 <1>   0.0800 
 42 H        5.4320     3.2430    -0.0980 H     1 <1>   0.0800 
 43 H        5.1270     2.8210     1.5730 H     1 <1>   0.0800 
@<TRIPOS>BOND
  1   1   2  2   
  2   1   3  2   
  3   1   4  am  
  4   1   5  1   
  5   4   6  1   
  6   4   7  1   
  7   5   8  ar  
  8   5   9  ar  
  9   6  10  1   
 10   6  24  1   
 11   6  25  1   
 12   7  11  1   
 13   7  26  1   
 14   7  27  1   
 15   8  12  1   
 16   8  13  ar  
 17   9  14  ar  
 18   9  28  1   
 19  10  15  1   
 20  10  16  1   
 21  10  29  1   
 22  11  16  1   
 23  11  30  1   
 24  11  31  1   
 25  12  17  1   
 26  13  18  ar  
 27  13  32  1   
 28  14  18  ar  
 29  14  19  1   
 30  15  20  ar  
 31  15  21  ar  
 32  16  22  1   
 33  16  33  1   
 34  17  34  1   
 35  17  35  1   
 36  17  36  1   
 37  18  23  1   
 38  19  37  1   
 39  19  38  1   
 40  19  39  1   
 41  22  40  1   
 42  23  41  1   
 43  23  42  1   
 44  23  43  1   
@<TRIPOS>SUBSTRUCTURE
  1 ****   4 GROUP 4 **** **** 0

# MOE 2024.06 (io_trps.svl 2023.06)
