@<TRIPOS>MOLECULE
NONAME
33 34 1 0 0 
SMALL
USER_CHARGES


@<TRIPOS>ATOM
  1 S       -1.7300     1.4980    -1.6890 S.3   1 <1>  -0.0800 
  2 C       -1.2740     1.8640    -0.0470 C.2   1 <1>  -0.1400 
  3 C       -2.2940    -0.0670    -1.1540 C.2   1 <1>   0.2280 
  4 C       -1.5770     0.8070     0.7270 C.2   1 <1>   0.0460 
  5 C       -0.6550     3.2240     0.2180 C.3   1 <1>   0.0200 
  6 N       -2.1520    -0.2800     0.0930 N.2   1 <1>  -0.5650 
  7 C       -1.3600     0.6630     2.2190 C.3   1 <1>  -0.0590 
  8 C        0.7790     3.2770    -0.3190 C.3   1 <1>  -0.0990 
  9 C        1.4070     4.6270    -0.0470 C.2   1 <1>   0.5690 
 10 O        1.6850     4.9090     1.0900 O.2   1 <1>  -0.5700 
 11 N        1.6220     5.4670    -1.0930 N.am  1 <1>  -0.4930 
 12 C        2.1640     6.7620    -1.1520 C.2   1 <1>   0.3520 
 13 N        2.3210     7.3160    -2.2900 N.2   1 <1>  -0.4100 
 14 C        2.6010     7.6610    -0.1630 C.2   1 <1>   0.3520 
 15 O        2.8250     8.4780    -2.0090 O.3   1 <1>   0.2420 
 16 N        3.0070     8.7220    -0.7480 N.2   1 <1>  -0.4100 
 17 N        2.6070     7.4720     1.2320 N.am  1 <1>  -0.4930 
 18 C        2.9380     8.2760     2.2720 C.2   1 <1>   0.5690 
 19 O        2.8440     7.8610     3.3980 O.2   1 <1>  -0.5700 
 20 C        3.4240     9.6940     2.0740 C.3   1 <1>  -0.1790 
 21 H       -2.7090    -0.7220    -1.8990 H     1 <1>   0.1500 
 22 H       -0.6460     3.4160     1.2770 H     1 <1>   0.0800 
 23 H       -1.2580     3.9840    -0.2480 H     1 <1>   0.0800 
 24 H       -0.8900     1.5360     2.6300 H     1 <1>   0.0800 
 25 H       -0.7350    -0.1900     2.4100 H     1 <1>   0.0800 
 26 H       -2.3060     0.5130     2.7060 H     1 <1>   0.0800 
 27 H        0.7860     3.0710    -1.3730 H     1 <1>   0.0800 
 28 H        1.3680     2.5220     0.1700 H     1 <1>   0.0800 
 29 H        1.3720     5.1180    -2.0170 H     1 <1>   0.3700 
 30 H        2.2990     6.5380     1.5340 H     1 <1>   0.3700 
 31 H        2.6780    10.2670     1.5570 H     1 <1>   0.0800 
 32 H        4.3350     9.6910     1.5070 H     1 <1>   0.0800 
 33 H        3.6120    10.1500     3.0280 H     1 <1>   0.0800 
@<TRIPOS>BOND
  1   1   2  1   
  2   1   3  1   
  3   2   4  2   
  4   2   5  1   
  5   3   6  2   
  6   3  21  1   
  7   4   6  1   
  8   4   7  1   
  9   5   8  1   
 10   5  22  1   
 11   5  23  1   
 12   7  24  1   
 13   7  25  1   
 14   7  26  1   
 15   8   9  1   
 16   8  27  1   
 17   8  28  1   
 18   9  10  2   
 19   9  11  am  
 20  11  12  1   
 21  11  29  1   
 22  12  13  2   
 23  12  14  1   
 24  13  15  1   
 25  14  16  2   
 26  14  17  1   
 27  15  16  1   
 28  17  18  am  
 29  17  30  1   
 30  18  19  2   
 31  18  20  1   
 32  20  31  1   
 33  20  32  1   
 34  20  33  1   
@<TRIPOS>SUBSTRUCTURE
  1 ****   9 GROUP 4 **** **** 0

# MOE 2024.06 (io_trps.svl 2023.06)
