@<TRIPOS>MOLECULE
NONAME
42 44 1 0 0 
SMALL
USER_CHARGES


@<TRIPOS>ATOM
  1 CL       2.1920     4.6290     2.0860 Cl    1 <1>  -0.1770 
  2 C        1.2080     3.7120     0.9670 C.ar  1 <1>   0.1770 
  3 C        1.6940     2.5540     0.3720 C.ar  1 <1>  -0.1440 
  4 C       -0.0640     4.1850     0.7020 C.ar  1 <1>  -0.1500 
  5 C        0.8600     1.8730    -0.5090 C.ar  1 <1>  -0.1500 
  6 C        3.1020     2.0400     0.6610 C.3   1 <1>   0.3640 
  7 C       -0.8800     3.4960    -0.1760 C.ar  1 <1>  -0.1500 
  8 C       -0.4160     2.3400    -0.7800 C.ar  1 <1>  -0.1500 
  9 N        3.0190     0.5930     0.9810 N.am  1 <1>  -0.7300 
 10 C        4.0680     2.3010    -0.5220 C.3   1 <1>   0.2610 
 11 C        3.8870    -0.3290     0.5100 C.2   1 <1>   0.5690 
 12 O        5.2420     1.5080    -0.3930 O.3   1 <1>  -0.5600 
 13 C        4.4230     3.7880    -0.5900 C.2   1 <1>   0.5690 
 14 O        3.7730    -1.4900     0.8100 O.2   1 <1>  -0.5700 
 15 C        5.0070     0.1150    -0.4370 C.3   1 <1>   0.1810 
 16 O        3.6540     4.5600    -1.1140 O.2   1 <1>  -0.5700 
 17 N        5.5970     4.2200    -0.0550 N.am  1 <1>  -0.7300 
 18 C        6.0880     5.6150    -0.1360 C.3   1 <1>   0.1400 
 19 C        5.3940     6.4850     0.9150 C.3   1 <1>   0.0200 
 20 C        5.5090     7.9430     0.5290 C.2   1 <1>   0.0060 
 21 N        6.3880     8.7710     0.9700 N.2   1 <1>  -0.3380 
 22 N        4.6880     8.5300    -0.3510 N.pl3 1 <1>   0.0330 
 23 N        6.1590     9.9490     0.3690 N.2   1 <1>  -0.3380 
 24 C        5.1420     9.7810    -0.4090 C.2   1 <1>   0.2700 
 25 N        4.6030    10.7750    -1.1940 N.pl3 1 <1>  -0.8840 
 26 H       -0.4090     5.0850     1.1790 H     1 <1>   0.1500 
 27 H        1.1950     0.9700    -0.9910 H     1 <1>   0.1500 
 28 H        3.5030     2.5320     1.5290 H     1 <1>   0.0800 
 29 H       -1.8730     3.8550    -0.3890 H     1 <1>   0.1500 
 30 H       -1.0500     1.8020    -1.4640 H     1 <1>   0.1500 
 31 H        2.2750     0.2900     1.6120 H     1 <1>   0.3700 
 32 H        3.5890     2.0340    -1.4470 H     1 <1>   0.0800 
 33 H        4.7530    -0.1560    -1.4450 H     1 <1>   0.0800 
 34 H        5.9210    -0.3810    -0.1640 H     1 <1>   0.0800 
 35 H        6.2590     3.5090     0.2750 H     1 <1>   0.3700 
 36 H        7.1550     5.6440     0.0060 H     1 <1>   0.0800 
 37 H        5.8710     5.9960    -1.1200 H     1 <1>   0.0800 
 38 H        5.8510     6.3270     1.8750 H     1 <1>   0.0800 
 39 H        4.3520     6.2310     0.9830 H     1 <1>   0.0800 
 40 H        3.9210     8.1270    -0.8890 H     1 <1>   0.2700 
 41 H        5.1960    11.6100    -1.1570 H     1 <1>   0.4000 
 42 H        3.6500    11.0380    -0.9330 H     1 <1>   0.4000 
@<TRIPOS>BOND
  1   1   2  1   
  2   2   3  ar  
  3   2   4  ar  
  4   3   5  ar  
  5   3   6  1   
  6   4   7  ar  
  7   4  26  1   
  8   5   8  ar  
  9   5  27  1   
 10   6   9  1   
 11   6  10  1   
 12   6  28  1   
 13   7   8  ar  
 14   7  29  1   
 15   8  30  1   
 16   9  11  am  
 17   9  31  1   
 18  10  12  1   
 19  10  13  1   
 20  10  32  1   
 21  11  14  2   
 22  11  15  1   
 23  12  15  1   
 24  13  16  2   
 25  13  17  am  
 26  15  33  1   
 27  15  34  1   
 28  17  18  1   
 29  17  35  1   
 30  18  19  1   
 31  18  36  1   
 32  18  37  1   
 33  19  20  1   
 34  19  38  1   
 35  19  39  1   
 36  20  21  2   
 37  20  22  1   
 38  21  23  1   
 39  22  24  1   
 40  22  40  1   
 41  23  24  2   
 42  24  25  1   
 43  25  41  1   
 44  25  42  1   
@<TRIPOS>SUBSTRUCTURE
  1 ****  13 GROUP 4 **** **** 0

# MOE 2024.06 (io_trps.svl 2023.06)
