@<TRIPOS>MOLECULE
NONAME
49 51 1 0 0 
SMALL
USER_CHARGES


@<TRIPOS>ATOM
  1 CL      -0.6780     0.3180    -0.7990 Cl    1 <1>  -0.1240 
  2 C       -1.0000     1.7960     0.0820 C.2   1 <1>  -0.0280 
  3 N       -0.4550     2.0800     1.2770 N.pl3 1 <1>   0.3140 
  4 C       -1.8070     2.8110    -0.2800 C.2   1 <1>  -0.1810 
  5 N       -0.9070     3.2720     1.7120 N.2   1 <1>  -0.7070 
  6 C        0.4950     1.2700     2.0520 C.3   1 <1>   0.0160 
  7 C       -1.7050     3.7080     0.7840 C.2   1 <1>   0.1080 
  8 C       -2.6200     2.9130    -1.5460 C.3   1 <1>   0.5240 
  9 C       -2.4120     5.0470     0.9220 C.3   1 <1>   0.0210 
 10 N       -4.0590     2.8260    -1.2010 N.4   1 <1>  -0.9590 
 11 C       -1.8700     6.0860    -0.0660 C.3   1 <1>  -0.2400 
 12 C       -4.4340     1.5790    -0.4810 C.3   1 <1>   0.3430 
 13 C       -4.9690     3.1220    -2.3440 C.3   1 <1>   0.3430 
 14 C       -5.8170     1.7490     0.1570 C.3   1 <1>  -0.1600 
 15 C       -6.4400     2.9680    -1.9340 C.3   1 <1>  -0.1600 
 16 C       -6.6250     2.9220    -0.4140 C.3   1 <1>   0.4180 
 17 O       -6.0620     4.0920     0.1410 O.3   1 <1>  -0.5600 
 18 C       -8.0910     2.7810    -0.0220 C.2   1 <1>  -0.2880 
 19 C       -6.8680     5.2420     0.1790 C.3   1 <1>   0.1200 
 20 C       -8.7760     3.7050     0.6530 C.2   1 <1>  -0.2760 
 21 C       -8.1100     5.0090     1.0480 C.3   1 <1>  -0.0220 
 22 C      -10.2240     3.5580     1.0880 C.3   1 <1>  -0.1020 
 23 H        1.3770     1.1000     1.4650 H     1 <1>   0.0800 
 24 H        0.0370     0.3330     2.3060 H     1 <1>   0.0800 
 25 H        0.7570     1.7980     2.9510 H     1 <1>   0.0800 
 26 H       -2.3500     2.1110    -2.2140 H     1 <1>   0.0800 
 27 H       -2.4080     3.8510    -2.0330 H     1 <1>   0.0800 
 28 H       -2.2580     5.4110     1.9240 H     1 <1>   0.0800 
 29 H       -3.4700     4.9210     0.7890 H     1 <1>   0.0800 
 30 H       -4.2570     3.5700    -0.5060 H     1 <1>   0.4500 
 31 H       -0.8100     6.2050     0.0800 H     1 <1>   0.0800 
 32 H       -2.3440     7.0370     0.1050 H     1 <1>   0.0800 
 33 H       -2.0490     5.7910    -1.0820 H     1 <1>   0.0800 
 34 H       -3.7150     1.3590     0.2930 H     1 <1>   0.0800 
 35 H       -4.4480     0.7530    -1.1730 H     1 <1>   0.0800 
 36 H       -4.7560     2.4640    -3.1720 H     1 <1>   0.0800 
 37 H       -4.8040     4.1370    -2.6710 H     1 <1>   0.0800 
 38 H       -5.7170     1.8780     1.2200 H     1 <1>   0.0800 
 39 H       -6.3580     0.8320     0.0100 H     1 <1>   0.0800 
 40 H       -6.8190     2.0540    -2.3550 H     1 <1>   0.0800 
 41 H       -7.0250     3.7630    -2.3580 H     1 <1>   0.0800 
 42 H       -8.5280     1.8490    -0.3350 H     1 <1>   0.1500 
 43 H       -7.1600     5.4920    -0.8260 H     1 <1>   0.0800 
 44 H       -6.2810     6.0490     0.5820 H     1 <1>   0.0800 
 45 H       -8.7870     5.8320     0.9040 H     1 <1>   0.0800 
 46 H       -7.8330     4.9810     2.0870 H     1 <1>   0.0800 
 47 H      -10.8280     4.3290     0.6440 H     1 <1>   0.0800 
 48 H      -10.2990     3.6300     2.1580 H     1 <1>   0.0800 
 49 H      -10.6150     2.6030     0.7840 H     1 <1>   0.0800 
@<TRIPOS>BOND
  1   1   2  1   
  2   2   3  1   
  3   2   4  2   
  4   3   5  1   
  5   3   6  1   
  6   4   7  1   
  7   4   8  1   
  8   5   7  2   
  9   6  23  1   
 10   6  24  1   
 11   6  25  1   
 12   7   9  1   
 13   8  10  1   
 14   8  26  1   
 15   8  27  1   
 16   9  11  1   
 17   9  28  1   
 18   9  29  1   
 19  10  12  1   
 20  10  13  1   
 21  10  30  1   
 22  11  31  1   
 23  11  32  1   
 24  11  33  1   
 25  12  14  1   
 26  12  34  1   
 27  12  35  1   
 28  13  15  1   
 29  13  36  1   
 30  13  37  1   
 31  14  16  1   
 32  14  38  1   
 33  14  39  1   
 34  15  16  1   
 35  15  40  1   
 36  15  41  1   
 37  16  17  1   
 38  16  18  1   
 39  17  19  1   
 40  18  20  2   
 41  18  42  1   
 42  19  21  1   
 43  19  43  1   
 44  19  44  1   
 45  20  21  1   
 46  20  22  1   
 47  21  45  1   
 48  21  46  1   
 49  22  47  1   
 50  22  48  1   
 51  22  49  1   
@<TRIPOS>SUBSTRUCTURE
  1 ****  10 GROUP 4 **** **** 0

# MOE 2024.06 (io_trps.svl 2023.06)
