@<TRIPOS>MOLECULE
NONAME
49 51 1 0 0 
SMALL
USER_CHARGES


@<TRIPOS>ATOM
  1 O        1.7600    -1.0080     1.7690 O.2   1 <1>  -0.5700 
  2 C        0.9680    -1.4030     0.9380 C.2   1 <1>   0.5440 
  3 N       -0.1240    -0.6290     0.7530 N.am  1 <1>  -0.8000 
  4 C        1.1980    -2.6150     0.1830 C.ar  1 <1>   0.0860 
  5 C        0.1590    -3.4260    -0.3200 C.ar  1 <1>   0.4100 
  6 C        2.5010    -3.0130    -0.0820 C.ar  1 <1>  -0.1500 
  7 N        0.3740    -4.5120    -1.0620 N.ar  1 <1>  -0.6200 
  8 N       -1.1810    -3.1730    -0.0470 N.pl3 1 <1>  -0.8380 
  9 C        2.7240    -4.1430    -0.8370 C.ar  1 <1>  -0.1430 
 10 C        1.6220    -4.8470    -1.3110 C.ar  1 <1>   0.1670 
 11 C       -2.2120    -3.3180    -1.1130 C.3   1 <1>   0.2090 
 12 C       -1.6740    -3.4460     1.3280 C.3   1 <1>   0.2090 
 13 C        4.1570    -4.5710    -1.1240 C.3   1 <1>  -0.0970 
 14 C        1.7970    -6.0900    -2.1650 C.3   1 <1>  -0.0970 
 15 C       -2.8220    -4.7210    -1.0860 C.3   1 <1>  -0.1600 
 16 C       -2.1870    -4.8810     1.3980 C.3   1 <1>  -0.1600 
 17 C       -3.2570    -5.1500     0.3260 C.3   1 <1>   0.1000 
 18 C       -3.7210    -6.6040     0.3540 C.2   1 <1>   0.0060 
 19 N       -4.9320    -6.9260     0.6580 N.2   1 <1>  -0.3380 
 20 N       -2.9790    -7.6920     0.0830 N.pl3 1 <1>   0.0480 
 21 N       -5.0190    -8.2510     0.5950 N.2   1 <1>  -0.3380 
 22 C       -3.8580    -8.6890     0.2520 C.2   1 <1>   0.0060 
 23 C       -1.5550    -7.8440    -0.3010 C.3   1 <1>   0.0160 
 24 C       -3.5350   -10.1600     0.0690 C.3   1 <1>   0.3000 
 25 O       -2.6580   -10.5540     1.0660 O.3   1 <1>  -0.6800 
 26 H       -0.2740     0.1890     1.3420 H     1 <1>   0.3700 
 27 H       -0.9250    -1.0190     0.2460 H     1 <1>   0.3700 
 28 H        3.3210    -2.4290     0.3010 H     1 <1>   0.1500 
 29 H       -1.7650    -3.1350    -2.0760 H     1 <1>   0.0800 
 30 H       -2.9820    -2.5830    -0.9560 H     1 <1>   0.0800 
 31 H       -2.4640    -2.7550     1.5690 H     1 <1>   0.0800 
 32 H       -0.8780    -3.3110     2.0410 H     1 <1>   0.0800 
 33 H        4.8550    -3.9820    -0.5560 H     1 <1>   0.0800 
 34 H        4.3780    -4.4420    -2.1690 H     1 <1>   0.0800 
 35 H        4.2990    -5.6040    -0.8590 H     1 <1>   0.0800 
 36 H        0.8700    -6.3450    -2.6460 H     1 <1>   0.0800 
 37 H        2.1020    -6.9130    -1.5460 H     1 <1>   0.0800 
 38 H        2.5340    -5.9230    -2.9280 H     1 <1>   0.0800 
 39 H       -2.1010    -5.4030    -1.4890 H     1 <1>   0.0800 
 40 H       -3.6750    -4.7460    -1.7400 H     1 <1>   0.0800 
 41 H       -2.6090    -5.0590     2.3710 H     1 <1>   0.0800 
 42 H       -1.3490    -5.5390     1.2840 H     1 <1>   0.0800 
 43 H       -4.1090    -4.5440     0.5830 H     1 <1>   0.0800 
 44 H       -1.0620    -6.8930    -0.3490 H     1 <1>   0.0800 
 45 H       -1.4950    -8.3160    -1.2630 H     1 <1>   0.0800 
 46 H       -1.0560    -8.4570     0.4280 H     1 <1>   0.0800 
 47 H       -3.0740   -10.3420    -0.8860 H     1 <1>   0.0800 
 48 H       -4.4300   -10.7530     0.1520 H     1 <1>   0.0800 
 49 H       -3.0490   -10.3120     1.9300 H     1 <1>   0.4000 
@<TRIPOS>BOND
  1   1   2  2   
  2   2   3  am  
  3   2   4  1   
  4   3  26  1   
  5   3  27  1   
  6   4   5  ar  
  7   4   6  ar  
  8   5   7  ar  
  9   5   8  1   
 10   6   9  ar  
 11   6  28  1   
 12   7  10  ar  
 13   8  11  1   
 14   8  12  1   
 15   9  10  ar  
 16   9  13  1   
 17  10  14  1   
 18  11  15  1   
 19  11  29  1   
 20  11  30  1   
 21  12  16  1   
 22  12  31  1   
 23  12  32  1   
 24  13  33  1   
 25  13  34  1   
 26  13  35  1   
 27  14  36  1   
 28  14  37  1   
 29  14  38  1   
 30  15  17  1   
 31  15  39  1   
 32  15  40  1   
 33  16  17  1   
 34  16  41  1   
 35  16  42  1   
 36  17  18  1   
 37  17  43  1   
 38  18  19  2   
 39  18  20  1   
 40  19  21  1   
 41  20  22  1   
 42  20  23  1   
 43  21  22  2   
 44  22  24  1   
 45  23  44  1   
 46  23  45  1   
 47  23  46  1   
 48  24  25  1   
 49  24  47  1   
 50  24  48  1   
 51  25  49  1   
@<TRIPOS>SUBSTRUCTURE
  1 ****   7 GROUP 4 **** **** 0

# MOE 2024.06 (io_trps.svl 2023.06)
