@<TRIPOS>MOLECULE
NONAME
52 54 1 0 0 
SMALL
USER_CHARGES


@<TRIPOS>ATOM
  1 O       -1.3680     0.7820     0.2300 O.co2 1 <1>  -0.9000 
  2 C       -1.7720     0.0980     1.1760 C.2   1 <1>   0.9060 
  3 O       -1.7800     0.4790     2.3480 O.co2 1 <1>  -0.9000 
  4 C       -2.4460    -1.2380     0.8480 C.3   1 <1>   0.2370 
  5 N       -3.9280    -1.1330     0.5150 N.4   1 <1>  -0.9590 
  6 C       -4.6550    -0.6480     1.7350 C.3   1 <1>   0.3430 
  7 C       -4.1040    -0.1920    -0.6380 C.3   1 <1>   0.3430 
  8 C       -6.1880    -0.7930     1.5920 C.3   1 <1>   0.2200 
  9 C       -5.5530    -0.0680    -1.1640 C.3   1 <1>  -0.0800 
 10 N       -6.5590    -1.7510     0.4800 N.am  1 <1>  -0.6600 
 11 C       -6.8740     0.5750     1.4490 C.3   1 <1>   0.1200 
 12 C       -6.2180     1.2460    -0.7270 C.3   1 <1>   0.1200 
 13 C       -6.4730    -1.2840    -0.9380 C.3   1 <1>   0.1400 
 14 C       -6.7820    -3.0670     0.8080 C.2   1 <1>   0.5690 
 15 O       -6.1320     1.4370     0.6430 O.3   1 <1>  -0.5600 
 16 O       -6.2920    -3.5220     1.8150 O.2   1 <1>  -0.5700 
 17 C       -7.5910    -4.0160    -0.0970 C.3   1 <1>   0.1710 
 18 N       -9.0680    -3.9700     0.0920 N.3   1 <1>  -0.8100 
 19 C       -9.7230    -5.1410    -0.5200 C.3   1 <1>   0.2530 
 20 C       -9.6700    -2.7060    -0.3590 C.3   1 <1>   0.0300 
 21 C      -11.1820    -5.2450    -0.0970 C.ar  1 <1>  -0.1430 
 22 C      -11.5540    -5.2200     1.2320 C.ar  1 <1>  -0.1500 
 23 C      -12.2090    -5.3720    -1.0120 C.ar  1 <1>  -0.1500 
 24 C      -12.8910    -5.3210     1.5740 C.ar  1 <1>   0.1600 
 25 C      -13.5160    -5.4660    -0.5650 C.ar  1 <1>   0.1600 
 26 N      -13.8830    -5.4440     0.7060 N.ar  1 <1>  -0.6200 
 27 H       -2.3080    -1.8790     1.6990 H     1 <1>   0.0800 
 28 H       -1.9150    -1.6600     0.0150 H     1 <1>   0.0800 
 29 H       -4.3280    -2.0520     0.2970 H     1 <1>   0.4500 
 30 H       -4.3420    -1.2310     2.5850 H     1 <1>   0.0800 
 31 H       -4.3940     0.3790     1.9420 H     1 <1>   0.0800 
 32 H       -3.7480     0.7880    -0.3560 H     1 <1>   0.0800 
 33 H       -3.4750    -0.5280    -1.4460 H     1 <1>   0.0800 
 34 H       -6.5540    -1.2010     2.5180 H     1 <1>   0.0800 
 35 H       -5.4610     0.0280    -2.2310 H     1 <1>   0.0800 
 36 H       -6.9250     1.0400     2.4190 H     1 <1>   0.0800 
 37 H       -7.8760     0.4810     1.0680 H     1 <1>   0.0800 
 38 H       -7.2530     1.2900    -1.0200 H     1 <1>   0.0800 
 39 H       -5.7060     2.0780    -1.1820 H     1 <1>   0.0800 
 40 H       -6.1050    -2.0930    -1.5450 H     1 <1>   0.0800 
 41 H       -7.4640    -1.0460    -1.2840 H     1 <1>   0.0800 
 42 H       -7.2520    -5.0110     0.1360 H     1 <1>   0.0800 
 43 H       -7.3570    -3.8360    -1.1290 H     1 <1>   0.0800 
 44 H       -9.6510    -5.0810    -1.5930 H     1 <1>   0.0800 
 45 H       -9.2230    -6.0390    -0.1990 H     1 <1>   0.0800 
 46 H      -10.7270    -2.7010    -0.1500 H     1 <1>   0.0800 
 47 H       -9.5250    -2.5730    -1.4170 H     1 <1>   0.0800 
 48 H       -9.2340    -1.8780     0.1710 H     1 <1>   0.0800 
 49 H      -10.8060    -5.1170     1.9980 H     1 <1>   0.1500 
 50 H      -12.0070    -5.4000    -2.0670 H     1 <1>   0.1500 
 51 H      -13.1580    -5.2980     2.6170 H     1 <1>   0.1500 
 52 H      -14.3040    -5.5640    -1.2920 H     1 <1>   0.1500 
@<TRIPOS>BOND
  1   1   2  ar  
  2   2   3  ar  
  3   2   4  1   
  4   4   5  1   
  5   4  27  1   
  6   4  28  1   
  7   5   6  1   
  8   5   7  1   
  9   5  29  1   
 10   6   8  1   
 11   6  30  1   
 12   6  31  1   
 13   7   9  1   
 14   7  32  1   
 15   7  33  1   
 16   8  10  1   
 17   8  11  1   
 18   8  34  1   
 19   9  12  1   
 20   9  13  1   
 21   9  35  1   
 22  10  13  1   
 23  10  14  am  
 24  11  15  1   
 25  11  36  1   
 26  11  37  1   
 27  12  15  1   
 28  12  38  1   
 29  12  39  1   
 30  13  40  1   
 31  13  41  1   
 32  14  16  2   
 33  14  17  1   
 34  17  18  1   
 35  17  42  1   
 36  17  43  1   
 37  18  19  1   
 38  18  20  1   
 39  19  21  1   
 40  19  44  1   
 41  19  45  1   
 42  20  46  1   
 43  20  47  1   
 44  20  48  1   
 45  21  22  ar  
 46  21  23  ar  
 47  22  24  ar  
 48  22  49  1   
 49  23  25  ar  
 50  23  50  1   
 51  24  26  ar  
 52  24  51  1   
 53  25  26  ar  
 54  25  52  1   
@<TRIPOS>SUBSTRUCTURE
  1 ****  10 GROUP 4 **** **** 0

# MOE 2024.06 (io_trps.svl 2023.06)
