@<TRIPOS>MOLECULE
NONAME
41 43 1 0 0 
SMALL
USER_CHARGES


@<TRIPOS>ATOM
  1 O       -1.3040    -0.2090     1.3790 O.2   1 <1>  -0.5700 
  2 C       -2.1080     0.5050     0.8110 C.2   1 <1>   0.7160 
  3 N       -3.4110     0.0800     0.6840 N.am  1 <1>  -0.6600 
  4 C       -1.6840     1.7550     0.2370 C.2   1 <1>  -0.0860 
  5 C       -4.2650     0.4760    -0.4710 C.3   1 <1>   0.1400 
  6 C       -3.8810    -1.2250     1.2230 C.3   1 <1>   0.1400 
  7 C       -2.1910     3.0040     0.3110 C.2   1 <1>  -0.0400 
  8 C       -0.5850     1.9610    -0.5820 C.2   1 <1>   0.1080 
  9 C       -5.3310    -0.6190    -0.5860 C.3   1 <1>   0.2000 
 10 C       -4.7050    -1.8420     0.0880 C.3   1 <1>  -0.0800 
 11 O       -1.5040     3.8620    -0.4030 O.3   1 <1>  -0.0190 
 12 C       -3.3820     3.5270     1.0910 C.3   1 <1>  -0.0600 
 13 N       -0.5150     3.1860    -0.9420 N.2   1 <1>  -0.4100 
 14 C        0.4110     0.9020    -1.0070 C.3   1 <1>  -0.0590 
 15 O       -6.4410    -0.2380     0.1510 O.3   1 <1>  -0.6800 
 16 C       -3.8200    -2.6190    -0.9080 C.3   1 <1>  -0.0170 
 17 C       -3.1410    -3.8130    -0.2550 C.ar  1 <1>  -0.1440 
 18 C       -3.7900    -5.0190    -0.0870 C.ar  1 <1>  -0.1500 
 19 C       -1.8390    -3.7510     0.2030 C.ar  1 <1>  -0.1500 
 20 C       -3.1250    -6.0740     0.5160 C.ar  1 <1>   0.1600 
 21 C       -1.2680    -4.8650     0.7940 C.ar  1 <1>   0.1600 
 22 N       -1.8800    -6.0260     0.9610 N.ar  1 <1>  -0.6200 
 23 H       -4.7130     1.4440    -0.3230 H     1 <1>   0.0800 
 24 H       -3.6660     0.4960    -1.3650 H     1 <1>   0.0800 
 25 H       -3.0680    -1.8560     1.5350 H     1 <1>   0.0800 
 26 H       -4.5080    -1.0400     2.0770 H     1 <1>   0.0800 
 27 H       -5.6480    -0.7940    -1.6000 H     1 <1>   0.0800 
 28 H       -5.4580    -2.5070     0.4730 H     1 <1>   0.0800 
 29 H       -3.8260     2.7460     1.6810 H     1 <1>   0.0800 
 30 H       -4.1190     3.9200     0.4140 H     1 <1>   0.0800 
 31 H       -3.0620     4.3150     1.7500 H     1 <1>   0.0800 
 32 H       -0.0990     0.0850    -1.4830 H     1 <1>   0.0800 
 33 H        0.9380     0.5340    -0.1460 H     1 <1>   0.0800 
 34 H        1.1220     1.3200    -1.6960 H     1 <1>   0.0800 
 35 H       -6.1690    -0.0030     1.0600 H     1 <1>   0.4000 
 36 H       -3.0660    -1.9720    -1.3240 H     1 <1>   0.0800 
 37 H       -4.4260    -2.9710    -1.7250 H     1 <1>   0.0800 
 38 H       -4.8040    -5.1490    -0.4170 H     1 <1>   0.1500 
 39 H       -1.2640    -2.8460     0.1140 H     1 <1>   0.1500 
 40 H       -3.6460    -7.0080     0.6390 H     1 <1>   0.1500 
 41 H       -0.2540    -4.7950     1.1480 H     1 <1>   0.1500 
@<TRIPOS>BOND
  1   1   2  2   
  2   2   3  am  
  3   2   4  1   
  4   3   5  1   
  5   3   6  1   
  6   4   7  2   
  7   4   8  1   
  8   5   9  1   
  9   5  23  1   
 10   5  24  1   
 11   6  10  1   
 12   6  25  1   
 13   6  26  1   
 14   7  11  1   
 15   7  12  1   
 16   8  13  2   
 17   8  14  1   
 18   9  10  1   
 19   9  15  1   
 20   9  27  1   
 21  10  16  1   
 22  10  28  1   
 23  11  13  1   
 24  12  29  1   
 25  12  30  1   
 26  12  31  1   
 27  14  32  1   
 28  14  33  1   
 29  14  34  1   
 30  15  35  1   
 31  16  17  1   
 32  16  36  1   
 33  16  37  1   
 34  17  18  ar  
 35  17  19  ar  
 36  18  20  ar  
 37  18  38  1   
 38  19  21  ar  
 39  19  39  1   
 40  20  22  ar  
 41  20  40  1   
 42  21  22  ar  
 43  21  41  1   
@<TRIPOS>SUBSTRUCTURE
  1 ****   3 GROUP 4 **** **** 0

# MOE 2024.06 (io_trps.svl 2023.06)
