@<TRIPOS>MOLECULE
NONAME
45 48 1 0 0 
SMALL
USER_CHARGES


@<TRIPOS>ATOM
  1 O        0.0290     0.9410    -0.6700 O.2   1 <1>  -0.5700 
  2 C       -0.1120     2.1380    -0.5620 C.2   1 <1>   0.5690 
  3 N       -1.2010     2.7210     0.0360 N.am  1 <1>  -0.5090 
  4 C        0.9960     3.0260    -1.1200 C.3   1 <1>   0.1810 
  5 C       -1.3040     4.2160     0.1660 C.3   1 <1>   0.3640 
  6 C       -2.0920     1.9390     0.9350 C.3   1 <1>   0.0490 
  7 O        1.0850     4.2480    -0.4350 O.3   1 <1>  -0.5600 
  8 C       -2.5920     4.7060    -0.4940 C.ar  1 <1>  -0.1440 
  9 C       -0.1120     5.0010    -0.4550 C.3   1 <1>   0.2610 
 10 C       -2.7820     0.7220     0.4020 C.3   1 <1>  -0.2000 
 11 C       -3.5790     1.9350     0.7480 C.3   1 <1>  -0.2000 
 12 C       -3.4300     5.5820     0.1830 C.ar  1 <1>   0.1600 
 13 C       -2.9510     4.3000    -1.7680 C.ar  1 <1>  -0.1500 
 14 C        0.0910     6.3770     0.2130 C.2   1 <1>   0.5690 
 15 N       -4.5660     6.0650    -0.2950 N.ar  1 <1>  -0.6200 
 16 C       -4.1300     4.7970    -2.2790 C.ar  1 <1>  -0.1500 
 17 O       -0.6080     6.6700     1.1580 O.2   1 <1>  -0.5700 
 18 N        1.0210     7.2720    -0.2650 N.am  1 <1>  -0.6600 
 19 C       -4.8900     5.6620    -1.5120 C.ar  1 <1>   0.1600 
 20 C        1.2720     8.5670     0.4600 C.3   1 <1>   0.3210 
 21 C        1.9160     7.0200    -1.4330 C.3   1 <1>   0.0600 
 22 C        2.7520     8.8210     0.7530 C.2   1 <1>   0.3350 
 23 N        3.5090     9.5750     0.0540 N.2   1 <1>  -0.4100 
 24 N        3.3770     8.2650     1.7860 N.2   1 <1>  -0.5650 
 25 O        4.6880     9.5500     0.5980 O.3   1 <1>  -0.0190 
 26 C        4.5410     8.7530     1.6240 C.2   1 <1>   0.3280 
 27 H        0.8220     3.2200    -2.1620 H     1 <1>   0.0800 
 28 H        1.9400     2.5230    -1.0120 H     1 <1>   0.0800 
 29 H       -1.3460     4.4260     1.2210 H     1 <1>   0.0800 
 30 H       -1.7060     1.8870     1.9400 H     1 <1>   0.1000 
 31 H       -0.3410     5.1910    -1.4870 H     1 <1>   0.0800 
 32 H       -2.6450     0.4660    -0.6340 H     1 <1>   0.1000 
 33 H       -2.8550    -0.1440     1.0350 H     1 <1>   0.1000 
 34 H       -4.2090     1.8940     1.6190 H     1 <1>   0.1000 
 35 H       -4.0450     2.4600    -0.0660 H     1 <1>   0.1000 
 36 H       -3.1530     5.9080     1.1720 H     1 <1>   0.1500 
 37 H       -2.3480     3.6160    -2.3390 H     1 <1>   0.1500 
 38 H       -4.4640     4.5150    -3.2610 H     1 <1>   0.1500 
 39 H       -5.8110     6.0430    -1.9190 H     1 <1>   0.1500 
 40 H        0.9000     9.3740    -0.1450 H     1 <1>   0.0800 
 41 H        0.7420     8.5920     1.3950 H     1 <1>   0.0800 
 42 H        2.0970     7.9380    -1.9650 H     1 <1>   0.0800 
 43 H        1.4770     6.3160    -2.1170 H     1 <1>   0.0800 
 44 H        2.8560     6.6270    -1.0860 H     1 <1>   0.0800 
 45 H        5.3950     8.5670     2.2510 H     1 <1>   0.1500 
@<TRIPOS>BOND
  1   1   2  2   
  2   2   3  am  
  3   2   4  1   
  4   3   5  1   
  5   3   6  1   
  6   4   7  1   
  7   4  27  1   
  8   4  28  1   
  9   5   8  1   
 10   5   9  1   
 11   5  29  1   
 12   6  10  1   
 13   6  11  1   
 14   6  30  1   
 15   7   9  1   
 16   8  12  ar  
 17   8  13  ar  
 18   9  14  1   
 19   9  31  1   
 20  10  11  1   
 21  10  32  1   
 22  10  33  1   
 23  11  34  1   
 24  11  35  1   
 25  12  15  ar  
 26  12  36  1   
 27  13  16  ar  
 28  13  37  1   
 29  14  17  2   
 30  14  18  am  
 31  15  19  ar  
 32  16  19  ar  
 33  16  38  1   
 34  18  20  1   
 35  18  21  1   
 36  19  39  1   
 37  20  22  1   
 38  20  40  1   
 39  20  41  1   
 40  21  42  1   
 41  21  43  1   
 42  21  44  1   
 43  22  23  2   
 44  22  24  1   
 45  23  25  1   
 46  24  26  2   
 47  25  26  1   
 48  26  45  1   
@<TRIPOS>SUBSTRUCTURE
  1 ****   9 GROUP 4 **** **** 0

# MOE 2024.06 (io_trps.svl 2023.06)
