@<TRIPOS>MOLECULE
NONAME
54 56 1 0 0 
SMALL
USER_CHARGES


@<TRIPOS>ATOM
  1 O        0.6450     2.6450    -0.0570 O.2   1 <1>  -0.5700 
  2 C       -0.0630     3.6040    -0.2600 C.2   1 <1>   0.5690 
  3 N       -1.1600     3.9000     0.5080 N.am  1 <1>  -0.5090 
  4 C        0.3440     4.5280    -1.4130 C.3   1 <1>   0.1810 
  5 C       -1.9140     5.1720     0.3050 C.3   1 <1>   0.3640 
  6 C       -1.5180     3.1310     1.7260 C.3   1 <1>   0.0490 
  7 O       -0.5170     5.6240    -1.6520 O.3   1 <1>  -0.5600 
  8 C       -3.2590     4.9030    -0.3770 C.ar  1 <1>  -0.1440 
  9 C       -1.1010     6.2140    -0.4980 C.3   1 <1>   0.2610 
 10 C       -1.6800     1.6450     1.6390 C.3   1 <1>  -0.2000 
 11 C       -2.8790     2.5150     1.8380 C.3   1 <1>  -0.2000 
 12 C       -4.4210     5.4220     0.1780 C.ar  1 <1>  -0.1500 
 13 C       -3.3500     4.1510    -1.5410 C.ar  1 <1>  -0.1500 
 14 C       -0.0740     6.9480     0.3780 C.2   1 <1>   0.5690 
 15 C       -5.6520     5.1970    -0.4150 C.ar  1 <1>  -0.1500 
 16 C       -4.5780     3.9250    -2.1360 C.ar  1 <1>  -0.1500 
 17 O       -0.3130     7.1320     1.5480 O.2   1 <1>  -0.5700 
 18 N        1.0770     7.4010    -0.1890 N.am  1 <1>  -0.7300 
 19 C       -5.7360     4.4430    -1.5820 C.ar  1 <1>   0.0830 
 20 C        2.1910     8.0770     0.5240 C.3   1 <1>   0.1400 
 21 O       -6.8980     4.1750    -2.2270 O.3   1 <1>  -0.3630 
 22 C        3.4830     7.2270     0.5310 C.3   1 <1>   0.0000 
 23 C       -8.1340     4.6460    -1.7410 C.3   1 <1>   0.0400 
 24 C        4.5830     8.0160     1.2580 C.3   1 <1>  -0.2400 
 25 C        3.2620     5.9020     1.2800 C.3   1 <1>  -0.2400 
 26 C        3.9620     6.9320    -0.9010 C.3   1 <1>  -0.2400 
 27 H        0.3880     3.9510    -2.3190 H     1 <1>   0.0800 
 28 H        1.3270     4.9090    -1.2140 H     1 <1>   0.0800 
 29 H       -2.1270     5.5850     1.2750 H     1 <1>   0.0800 
 30 H       -1.0580     3.5330     2.6130 H     1 <1>   0.1000 
 31 H       -1.7850     6.9630    -0.8520 H     1 <1>   0.0800 
 32 H       -1.5340     1.1680     0.6860 H     1 <1>   0.1000 
 33 H       -1.3350     1.0440     2.4600 H     1 <1>   0.1000 
 34 H       -3.3640     2.4950     2.7980 H     1 <1>   0.1000 
 35 H       -3.5780     2.5840     1.0230 H     1 <1>   0.1000 
 36 H       -4.3790     6.0060     1.0820 H     1 <1>   0.1500 
 37 H       -2.4670     3.7350    -1.9920 H     1 <1>   0.1500 
 38 H       -6.5290     5.6130     0.0420 H     1 <1>   0.1500 
 39 H       -4.6460     3.3420    -3.0370 H     1 <1>   0.1500 
 40 H        1.2260     7.2300    -1.1870 H     1 <1>   0.3700 
 41 H        2.3810     9.0220     0.0470 H     1 <1>   0.0800 
 42 H        1.8940     8.2790     1.5400 H     1 <1>   0.0800 
 43 H       -8.9060     4.3080    -2.4090 H     1 <1>   0.0800 
 44 H       -8.1150     5.7210    -1.7200 H     1 <1>   0.0800 
 45 H       -8.2990     4.2420    -0.7580 H     1 <1>   0.0800 
 46 H        5.4980     7.4510     1.2870 H     1 <1>   0.0800 
 47 H        4.2870     8.2300     2.2700 H     1 <1>   0.0800 
 48 H        4.7770     8.9480     0.7570 H     1 <1>   0.0800 
 49 H        4.1780     5.3400     1.3380 H     1 <1>   0.0800 
 50 H        2.5290     5.2930     0.7840 H     1 <1>   0.0800 
 51 H        2.9150     6.0900     2.2810 H     1 <1>   0.0800 
 52 H        4.8960     6.3980    -0.8810 H     1 <1>   0.0800 
 53 H        4.1090     7.8480    -1.4460 H     1 <1>   0.0800 
 54 H        3.2490     6.3300    -1.4320 H     1 <1>   0.0800 
@<TRIPOS>BOND
  1   1   2  2   
  2   2   3  am  
  3   2   4  1   
  4   3   5  1   
  5   3   6  1   
  6   4   7  1   
  7   4  27  1   
  8   4  28  1   
  9   5   8  1   
 10   5   9  1   
 11   5  29  1   
 12   6  10  1   
 13   6  11  1   
 14   6  30  1   
 15   7   9  1   
 16   8  12  ar  
 17   8  13  ar  
 18   9  14  1   
 19   9  31  1   
 20  10  11  1   
 21  10  32  1   
 22  10  33  1   
 23  11  34  1   
 24  11  35  1   
 25  12  15  ar  
 26  12  36  1   
 27  13  16  ar  
 28  13  37  1   
 29  14  17  2   
 30  14  18  am  
 31  15  19  ar  
 32  15  38  1   
 33  16  19  ar  
 34  16  39  1   
 35  18  20  1   
 36  18  40  1   
 37  19  21  1   
 38  20  22  1   
 39  20  41  1   
 40  20  42  1   
 41  21  23  1   
 42  22  24  1   
 43  22  25  1   
 44  22  26  1   
 45  23  43  1   
 46  23  44  1   
 47  23  45  1   
 48  24  46  1   
 49  24  47  1   
 50  24  48  1   
 51  25  49  1   
 52  25  50  1   
 53  25  51  1   
 54  26  52  1   
 55  26  53  1   
 56  26  54  1   
@<TRIPOS>SUBSTRUCTURE
  1 ****   5 GROUP 4 **** **** 0

# MOE 2024.06 (io_trps.svl 2023.06)
