@<TRIPOS>MOLECULE
NONAME
37 39 1 0 0 
SMALL
USER_CHARGES


@<TRIPOS>ATOM
  1 O       -0.4460     0.2220    -0.1270 O.2   1 <1>  -0.5700 
  2 C       -1.5090     0.8090    -0.0550 C.2   1 <1>   0.7160 
  3 N       -2.6680     0.0710     0.0290 N.am  1 <1>  -0.6600 
  4 C       -1.5220     2.2520    -0.0760 C.2   1 <1>  -0.0860 
  5 C       -4.0200     0.5690    -0.3410 C.3   1 <1>   0.1400 
  6 C       -2.6610    -1.4180     0.0080 C.3   1 <1>   0.1400 
  7 C       -0.7450     3.0770    -0.8290 C.2   1 <1>  -0.0100 
  8 C       -2.3130     3.1370     0.6880 C.2   1 <1>  -0.1500 
  9 C       -4.9460    -0.6200    -0.1000 C.3   1 <1>   0.2000 
 10 C       -4.0690    -1.8260    -0.4410 C.3   1 <1>  -0.0800 
 11 O       -1.0170     4.3390    -0.5990 O.3   1 <1>  -0.2800 
 12 C       -1.9590     4.3850     0.3180 C.2   1 <1>  -0.0100 
 13 O       -5.2660    -0.6430     1.2500 O.3   1 <1>  -0.6800 
 14 C       -4.5380    -3.1760     0.1320 C.3   1 <1>   0.0210 
 15 C       -3.5800    -4.2880    -0.2510 C.2   1 <1>   0.1080 
 16 N       -3.2990    -4.5820    -1.4820 N.2   1 <1>  -0.7070 
 17 C       -2.8980    -5.0960     0.6520 C.2   1 <1>  -0.1500 
 18 N       -2.4190    -5.5980    -1.3960 N.pl3 1 <1>   0.3000 
 19 C       -2.1590    -5.9270    -0.1130 C.2   1 <1>  -0.3320 
 20 C       -1.2070    -7.0300     0.3080 C.3   1 <1>  -0.0600 
 21 H       -4.3220     1.4180     0.2450 H     1 <1>   0.0800 
 22 H       -4.0230     0.8310    -1.3850 H     1 <1>   0.0800 
 23 H       -1.9160    -1.7970    -0.6730 H     1 <1>   0.0800 
 24 H       -2.4500    -1.7830     0.9990 H     1 <1>   0.0800 
 25 H        0.0180     2.8240    -1.5450 H     1 <1>   0.1500 
 26 H       -3.0390     2.8430     1.4240 H     1 <1>   0.1500 
 27 H       -5.8580    -0.5760    -0.6710 H     1 <1>   0.0800 
 28 H       -4.0430    -1.9160    -1.5130 H     1 <1>   0.0800 
 29 H       -2.3110     5.3460     0.6510 H     1 <1>   0.1500 
 30 H       -4.4390    -0.5640     1.7670 H     1 <1>   0.4000 
 31 H       -5.5120    -3.4120    -0.2580 H     1 <1>   0.0800 
 32 H       -4.6110    -3.1310     1.2030 H     1 <1>   0.0800 
 33 H       -2.9630    -5.0470     1.7250 H     1 <1>   0.1500 
 34 H       -2.0160    -6.0440    -2.2290 H     1 <1>   0.2700 
 35 H       -1.1710    -7.0980     1.3810 H     1 <1>   0.0800 
 36 H       -0.2160    -6.8250    -0.0560 H     1 <1>   0.0800 
 37 H       -1.5370    -7.9760    -0.0830 H     1 <1>   0.0800 
@<TRIPOS>BOND
  1   1   2  2   
  2   2   3  am  
  3   2   4  1   
  4   3   5  1   
  5   3   6  1   
  6   4   7  2   
  7   4   8  1   
  8   5   9  1   
  9   5  21  1   
 10   5  22  1   
 11   6  10  1   
 12   6  23  1   
 13   6  24  1   
 14   7  11  1   
 15   7  25  1   
 16   8  12  2   
 17   8  26  1   
 18   9  10  1   
 19   9  13  1   
 20   9  27  1   
 21  10  14  1   
 22  10  28  1   
 23  11  12  1   
 24  12  29  1   
 25  13  30  1   
 26  14  15  1   
 27  14  31  1   
 28  14  32  1   
 29  15  16  2   
 30  15  17  1   
 31  16  18  1   
 32  17  19  2   
 33  17  33  1   
 34  18  19  1   
 35  18  34  1   
 36  19  20  1   
 37  20  35  1   
 38  20  36  1   
 39  20  37  1   
@<TRIPOS>SUBSTRUCTURE
  1 ****   6 GROUP 4 **** **** 0

# MOE 2024.06 (io_trps.svl 2023.06)
