@<TRIPOS>MOLECULE
NONAME
40 41 1 0 0 
SMALL
USER_CHARGES


@<TRIPOS>ATOM
  1 O       -0.1330     1.0660    -1.0050 O.co2 1 <1>  -0.9000 
  2 C       -0.8210     0.2470    -0.3740 C.2   1 <1>   0.9060 
  3 O       -0.5040    -0.9280    -0.1940 O.co2 1 <1>  -0.9000 
  4 C       -2.1320     0.7990     0.2200 C.3   1 <1>   0.3170 
  5 N       -2.2040     2.2970     0.0540 N.4   1 <1>  -0.9590 
  6 C       -3.3910     0.2570    -0.4650 C.3   1 <1>  -0.1600 
  7 C       -3.5090     2.6430    -0.5670 C.3   1 <1>   0.3430 
  8 C       -1.8940     3.0160     1.2980 C.3   1 <1>   0.5240 
  9 C       -4.3870     1.4020    -0.3830 C.3   1 <1>   0.2000 
 10 C       -1.7120     4.4720     0.9400 C.2   1 <1>  -0.1810 
 11 O       -4.9210     1.4160     0.9010 O.3   1 <1>  -0.6800 
 12 C       -0.7190     5.0700     0.2430 C.2   1 <1>  -0.3320 
 13 C       -2.5890     5.4970     1.2660 C.2   1 <1>   0.1390 
 14 N       -1.0320     6.3860     0.1750 N.pl3 1 <1>   0.3140 
 15 C        0.5290     4.4470    -0.3730 C.3   1 <1>  -0.0600 
 16 N       -2.1940     6.6400     0.8060 N.2   1 <1>  -0.7070 
 17 C       -0.2650     7.4680    -0.4790 C.3   1 <1>   0.0960 
 18 C        0.7380     8.0970     0.4990 C.3   1 <1>  -0.1600 
 19 C        1.5510     9.2100    -0.1740 C.3   1 <1>  -0.2400 
 20 H       -2.1630     0.5440     1.2640 H     1 <1>   0.0800 
 21 H       -1.4100     2.4770    -0.6000 H     1 <1>   0.4500 
 22 H       -3.7370    -0.6500    -0.0050 H     1 <1>   0.0800 
 23 H       -3.1620     0.0480    -1.4960 H     1 <1>   0.0800 
 24 H       -3.9590     3.5120    -0.1160 H     1 <1>   0.0800 
 25 H       -3.3610     2.8230    -1.6180 H     1 <1>   0.0800 
 26 H       -2.6940     2.8940     2.0100 H     1 <1>   0.0800 
 27 H       -0.9790     2.6350     1.7220 H     1 <1>   0.0800 
 28 H       -5.1880     1.3420    -1.1000 H     1 <1>   0.0800 
 29 H       -5.4860     0.6290     1.0460 H     1 <1>   0.4000 
 30 H       -3.5000     5.3780     1.8310 H     1 <1>   0.1500 
 31 H        0.6240     3.4120    -0.0950 H     1 <1>   0.0800 
 32 H        1.4110     4.9610    -0.0350 H     1 <1>   0.0800 
 33 H        0.4850     4.5020    -1.4460 H     1 <1>   0.0800 
 34 H        0.2440     7.0630    -1.3330 H     1 <1>   0.0800 
 35 H       -0.9620     8.2120    -0.8170 H     1 <1>   0.0800 
 36 H        0.2010     8.5090     1.3370 H     1 <1>   0.0800 
 37 H        1.4100     7.3400     0.8650 H     1 <1>   0.0800 
 38 H        0.8990     9.9900    -0.5270 H     1 <1>   0.0800 
 39 H        2.1120     8.8210    -1.0050 H     1 <1>   0.0800 
 40 H        2.2400     9.6370     0.5330 H     1 <1>   0.0800 
@<TRIPOS>BOND
  1   1   2  ar  
  2   2   3  ar  
  3   2   4  1   
  4   4   5  1   
  5   4   6  1   
  6   4  20  1   
  7   5   7  1   
  8   5   8  1   
  9   5  21  1   
 10   6   9  1   
 11   6  22  1   
 12   6  23  1   
 13   7   9  1   
 14   7  24  1   
 15   7  25  1   
 16   8  10  1   
 17   8  26  1   
 18   8  27  1   
 19   9  11  1   
 20   9  28  1   
 21  10  12  2   
 22  10  13  1   
 23  11  29  1   
 24  12  14  1   
 25  12  15  1   
 26  13  16  2   
 27  13  30  1   
 28  14  16  1   
 29  14  17  1   
 30  15  31  1   
 31  15  32  1   
 32  15  33  1   
 33  17  18  1   
 34  17  34  1   
 35  17  35  1   
 36  18  19  1   
 37  18  36  1   
 38  18  37  1   
 39  19  38  1   
 40  19  39  1   
 41  19  40  1   
@<TRIPOS>SUBSTRUCTURE
  1 ****  10 GROUP 4 **** **** 0

# MOE 2024.06 (io_trps.svl 2023.06)
