@<TRIPOS>MOLECULE
NONAME
51 54 1 0 0 
SMALL
USER_CHARGES


@<TRIPOS>ATOM
  1 CL      -0.2030    -0.9110     2.9620 Cl    1 <1>  -0.1770 
  2 C       -1.0160    -2.2250     2.1530 C.ar  1 <1>   0.1770 
  3 C       -2.3620    -2.4380     2.3800 C.ar  1 <1>  -0.1500 
  4 C       -0.3050    -3.0380     1.2920 C.ar  1 <1>  -0.1500 
  5 C       -3.0020    -3.4810     1.7340 C.ar  1 <1>  -0.1500 
  6 C       -0.9550    -4.0780     0.6520 C.ar  1 <1>  -0.1500 
  7 C       -2.3150    -4.3270     0.8580 C.ar  1 <1>   0.0530 
  8 C       -2.9770    -5.4170     0.1820 C.2   1 <1>   0.0870 
  9 O       -2.4860    -5.9130    -0.9320 O.3   1 <1>  -0.0190 
 10 C       -4.1040    -6.1190     0.4550 C.2   1 <1>  -0.2330 
 11 N       -3.2150    -6.8860    -1.4200 N.2   1 <1>  -0.4100 
 12 C       -4.1930    -7.0180    -0.5990 C.2   1 <1>   0.3720 
 13 C       -5.0380    -6.0520     1.5250 C.2   1 <1>   1.0330 
 14 N       -5.2200    -7.9410    -0.7590 N.pl3 1 <1>  -0.8210 
 15 O       -4.9340    -6.7850     2.5240 O.co2 1 <1>  -0.9000 
 16 O       -6.0370    -5.3130     1.4580 O.co2 1 <1>  -0.9000 
 17 C       -4.9930    -9.3640    -0.4200 C.3   1 <1>   0.2090 
 18 C       -6.3180    -7.6550    -1.7100 C.3   1 <1>   0.2090 
 19 C       -6.3060    -9.9440     0.1550 C.3   1 <1>   0.0000 
 20 C       -7.6270    -8.2330    -1.1300 C.3   1 <1>   0.0000 
 21 C       -6.6160    -9.1690     1.4620 C.3   1 <1>   0.3430 
 22 C       -7.4300    -9.7500    -0.8900 C.3   1 <1>  -0.1600 
 23 C       -6.1330   -11.4430     0.4550 C.3   1 <1>  -0.2400 
 24 C       -7.9070    -7.4860     0.2010 C.3   1 <1>   0.3430 
 25 C       -8.7860    -8.0120    -2.1170 C.3   1 <1>  -0.2400 
 26 N       -7.8930    -8.3780     1.4090 N.4   1 <1>  -0.9590 
 27 C       -7.9720    -7.5200     2.6320 C.3   1 <1>   0.2630 
 28 H       -2.9020    -1.7970     3.0530 H     1 <1>   0.1500 
 29 H        0.7410    -2.8560     1.1280 H     1 <1>   0.1500 
 30 H       -4.0530    -3.6350     1.9110 H     1 <1>   0.1500 
 31 H       -0.4020    -4.7150    -0.0160 H     1 <1>   0.1500 
 32 H       -4.1960    -9.4370     0.3030 H     1 <1>   0.0800 
 33 H       -4.6960    -9.8950    -1.3080 H     1 <1>   0.0800 
 34 H       -6.0880    -8.1060    -2.6610 H     1 <1>   0.0800 
 35 H       -6.4010    -6.5890    -1.8520 H     1 <1>   0.0800 
 36 H       -5.7970    -8.5010     1.6510 H     1 <1>   0.0800 
 37 H       -6.6560    -9.8570     2.2890 H     1 <1>   0.0800 
 38 H       -8.3460   -10.1970    -0.5440 H     1 <1>   0.0800 
 39 H       -7.1610   -10.2340    -1.8140 H     1 <1>   0.0800 
 40 H       -5.3360   -11.5970     1.1620 H     1 <1>   0.0800 
 41 H       -5.8920   -11.9830    -0.4450 H     1 <1>   0.0800 
 42 H       -7.0370   -11.8560     0.8650 H     1 <1>   0.0800 
 43 H       -8.8560    -6.9820     0.1390 H     1 <1>   0.0800 
 44 H       -7.1570    -6.7270     0.3190 H     1 <1>   0.0800 
 45 H       -8.5850    -8.5080    -3.0510 H     1 <1>   0.0800 
 46 H       -8.9190    -6.9620    -2.3150 H     1 <1>   0.0800 
 47 H       -9.7060    -8.4030    -1.7180 H     1 <1>   0.0800 
 48 H       -8.6860    -9.0220     1.3610 H     1 <1>   0.4500 
 49 H       -7.1440    -6.8330     2.6650 H     1 <1>   0.0800 
 50 H       -7.9390    -8.1260     3.5210 H     1 <1>   0.0800 
 51 H       -8.8820    -6.9450     2.6310 H     1 <1>   0.0800 
@<TRIPOS>BOND
  1   1   2  1   
  2   2   3  ar  
  3   2   4  ar  
  4   3   5  ar  
  5   3  28  1   
  6   4   6  ar  
  7   4  29  1   
  8   5   7  ar  
  9   5  30  1   
 10   6   7  ar  
 11   6  31  1   
 12   7   8  1   
 13   8   9  1   
 14   8  10  2   
 15   9  11  1   
 16  10  12  1   
 17  10  13  1   
 18  11  12  2   
 19  12  14  1   
 20  13  15  ar  
 21  13  16  ar  
 22  14  17  1   
 23  14  18  1   
 24  17  19  1   
 25  17  32  1   
 26  17  33  1   
 27  18  20  1   
 28  18  34  1   
 29  18  35  1   
 30  19  21  1   
 31  19  22  1   
 32  19  23  1   
 33  20  22  1   
 34  20  24  1   
 35  20  25  1   
 36  21  26  1   
 37  21  36  1   
 38  21  37  1   
 39  22  38  1   
 40  22  39  1   
 41  23  40  1   
 42  23  41  1   
 43  23  42  1   
 44  24  26  1   
 45  24  43  1   
 46  24  44  1   
 47  25  45  1   
 48  25  46  1   
 49  25  47  1   
 50  26  27  1   
 51  26  48  1   
 52  27  49  1   
 53  27  50  1   
 54  27  51  1   
@<TRIPOS>SUBSTRUCTURE
  1 ****  10 GROUP 4 **** **** 0

# MOE 2024.06 (io_trps.svl 2023.06)
