@<TRIPOS>MOLECULE
NONAME
45 46 1 0 0 
SMALL
USER_CHARGES


@<TRIPOS>ATOM
  1 O       -0.6820     0.0460    -0.9160 O.2   1 <1>  -0.5700 
  2 C       -1.6330     0.6080    -0.4250 C.2   1 <1>   0.5690 
  3 N       -2.7070    -0.1200     0.0270 N.am  1 <1>  -0.6600 
  4 C       -1.5710     2.1440    -0.3580 C.3   1 <1>  -0.0190 
  5 C       -3.9750     0.3700     0.6290 C.3   1 <1>   0.1400 
  6 C       -2.7270    -1.6020    -0.0730 C.3   1 <1>   0.1400 
  7 C       -1.8650     2.6970     1.0600 C.3   1 <1>  -0.1600 
  8 C       -2.4370     2.7620    -1.4830 C.3   1 <1>  -0.1600 
  9 C       -4.8980    -0.8460     0.6400 C.3   1 <1>   0.2000 
 10 C       -3.9670    -2.0510     0.7010 C.3   1 <1>  -0.0800 
 11 C       -0.9640     3.8740     1.4620 C.3   1 <1>  -0.2400 
 12 C       -2.3030     4.2810    -1.6360 C.3   1 <1>  -0.2400 
 13 O       -5.7460    -0.8330     1.7350 O.3   1 <1>  -0.6800 
 14 C       -4.6020    -3.3370     0.1530 C.3   1 <1>   0.0210 
 15 C       -3.6030    -4.4770     0.1540 C.2   1 <1>   0.1080 
 16 N       -3.0880    -4.9580     1.2430 N.2   1 <1>  -0.7070 
 17 C       -3.1220    -5.1170    -0.9830 C.2   1 <1>  -0.1500 
 18 N       -2.2550    -5.9290     0.8240 N.pl3 1 <1>   0.3000 
 19 C       -2.2570    -6.0440    -0.5210 C.2   1 <1>  -0.3320 
 20 C       -1.4190    -7.0460    -1.2920 C.3   1 <1>  -0.0600 
 21 H       -0.5480     2.3910    -0.5860 H     1 <1>   0.0800 
 22 H       -3.7840     0.7010     1.6340 H     1 <1>   0.0800 
 23 H       -4.4060     1.1620     0.0470 H     1 <1>   0.0800 
 24 H       -2.7960    -1.8790    -1.1110 H     1 <1>   0.0800 
 25 H       -1.8300    -2.0270     0.3460 H     1 <1>   0.0800 
 26 H       -2.8970     2.9890     1.1370 H     1 <1>   0.0800 
 27 H       -1.6940     1.9130     1.7780 H     1 <1>   0.0800 
 28 H       -2.1420     2.3060    -2.4130 H     1 <1>   0.0800 
 29 H       -3.4730     2.5230    -1.3310 H     1 <1>   0.0800 
 30 H       -5.4970    -0.8530    -0.2550 H     1 <1>   0.0800 
 31 H       -3.6580    -2.2190     1.7190 H     1 <1>   0.0800 
 32 H       -1.0890     4.7130     0.8050 H     1 <1>   0.0800 
 33 H        0.0700     3.5760     1.4430 H     1 <1>   0.0800 
 34 H       -1.2040     4.1920     2.4610 H     1 <1>   0.0800 
 35 H       -1.2690     4.5620    -1.7310 H     1 <1>   0.0800 
 36 H       -2.7330     4.7900    -0.7920 H     1 <1>   0.0800 
 37 H       -2.8240     4.6050    -2.5200 H     1 <1>   0.0800 
 38 H       -5.2450    -1.0210     2.5530 H     1 <1>   0.4000 
 39 H       -4.9600    -3.1770    -0.8480 H     1 <1>   0.0800 
 40 H       -5.4400    -3.6140     0.7680 H     1 <1>   0.0800 
 41 H       -3.3950    -4.8980    -2.0000 H     1 <1>   0.1500 
 42 H       -1.7010    -6.4930     1.4790 H     1 <1>   0.2700 
 43 H       -1.5960    -6.9400    -2.3480 H     1 <1>   0.0800 
 44 H       -1.6760    -8.0490    -1.0010 H     1 <1>   0.0800 
 45 H       -0.3730    -6.8810    -1.1020 H     1 <1>   0.0800 
@<TRIPOS>BOND
  1   1   2  2   
  2   2   3  am  
  3   2   4  1   
  4   3   5  1   
  5   3   6  1   
  6   4   7  1   
  7   4   8  1   
  8   4  21  1   
  9   5   9  1   
 10   5  22  1   
 11   5  23  1   
 12   6  10  1   
 13   6  24  1   
 14   6  25  1   
 15   7  11  1   
 16   7  26  1   
 17   7  27  1   
 18   8  12  1   
 19   8  28  1   
 20   8  29  1   
 21   9  10  1   
 22   9  13  1   
 23   9  30  1   
 24  10  14  1   
 25  10  31  1   
 26  11  32  1   
 27  11  33  1   
 28  11  34  1   
 29  12  35  1   
 30  12  36  1   
 31  12  37  1   
 32  13  38  1   
 33  14  15  1   
 34  14  39  1   
 35  14  40  1   
 36  15  16  2   
 37  15  17  1   
 38  16  18  1   
 39  17  19  2   
 40  17  41  1   
 41  18  19  1   
 42  18  42  1   
 43  19  20  1   
 44  20  43  1   
 45  20  44  1   
 46  20  45  1   
@<TRIPOS>SUBSTRUCTURE
  1 ****   6 GROUP 4 **** **** 0

# MOE 2024.06 (io_trps.svl 2023.06)
