@<TRIPOS>MOLECULE
NONAME
47 50 1 0 0 
SMALL
USER_CHARGES


@<TRIPOS>ATOM
  1 O       -1.6590     1.2030     2.8910 O.2   1 <1>  -0.5700 
  2 C       -1.5810     1.7480     1.8020 C.2   1 <1>   0.5440 
  3 N       -1.4830     0.9200     0.6950 N.am  1 <1>  -0.6600 
  4 C       -1.6210     3.2140     1.7440 C.ar  1 <1>   0.3960 
  5 C       -1.5440    -0.5550     0.7950 C.3   1 <1>   0.1400 
  6 C       -1.4710     1.3470    -0.7240 C.3   1 <1>   0.1400 
  7 N       -1.0510     3.8930     0.7350 N.ar  1 <1>  -0.6200 
  8 C       -2.2690     3.8870     2.7860 C.ar  1 <1>   0.1600 
  9 C       -1.9540    -1.0210    -0.5960 C.3   1 <1>  -0.1600 
 10 C       -1.4140     0.0550    -1.5330 C.3   1 <1>  -0.1600 
 11 C       -1.1610     5.2090     0.8250 C.ar  1 <1>   0.4100 
 12 N       -2.4050     5.2020     2.8940 N.ar  1 <1>  -0.6200 
 13 N       -0.5940     5.9660    -0.1900 N.3   1 <1>  -0.5900 
 14 C       -1.8370     5.8300     1.8860 C.ar  1 <1>   0.1600 
 15 C        0.3270     7.1040     0.1640 C.3   1 <1>   0.2450 
 16 C        0.4950     5.3910    -1.0690 C.3   1 <1>   0.2450 
 17 C        1.1320     6.7950    -1.1190 C.3   1 <1>   0.2580 
 18 O        2.5270     6.7420    -0.8820 O.3   1 <1>  -0.3400 
 19 C        3.2470     7.8750    -0.6900 C.ar  1 <1>   0.0820 
 20 C        4.5360     7.7200    -0.2050 C.ar  1 <1>  -0.1500 
 21 C        2.7610     9.1540    -0.9500 C.ar  1 <1>  -0.1500 
 22 C        5.3420     8.8220     0.0310 C.ar  1 <1>  -0.1440 
 23 C        3.5650    10.2560    -0.7160 C.ar  1 <1>  -0.1500 
 24 C        4.8500    10.0910    -0.2280 C.ar  1 <1>  -0.1500 
 25 C        6.7530     8.6480     0.5620 C.3   1 <1>  -0.0970 
 26 H       -2.2530    -0.8680     1.5430 H     1 <1>   0.0800 
 27 H       -0.5660    -0.9270     1.0480 H     1 <1>   0.0800 
 28 H       -0.6140     1.9650    -0.9330 H     1 <1>   0.0800 
 29 H       -2.3750     1.8920    -0.9400 H     1 <1>   0.0800 
 30 H       -2.7030     3.2970     3.5750 H     1 <1>   0.1500 
 31 H       -3.0280    -1.0490    -0.6510 H     1 <1>   0.0800 
 32 H       -1.5650    -1.9970    -0.8220 H     1 <1>   0.0800 
 33 H       -0.3870    -0.1570    -1.7770 H     1 <1>   0.0800 
 34 H       -1.9810     0.1290    -2.4440 H     1 <1>   0.0800 
 35 H       -1.9010     6.9020     1.8770 H     1 <1>   0.1500 
 36 H        0.8600     6.9090     1.0780 H     1 <1>   0.0000 
 37 H       -0.1870     8.0480     0.1360 H     1 <1>   0.0000 
 38 H        0.1030     5.0590    -2.0130 H     1 <1>   0.0000 
 39 H        1.0960     4.6640    -0.5490 H     1 <1>   0.0000 
 40 H        0.8800     7.3690    -1.9940 H     1 <1>   0.0000 
 41 H        4.9000     6.7270    -0.0150 H     1 <1>   0.1500 
 42 H        1.7740     9.3150    -1.3370 H     1 <1>   0.1500 
 43 H        3.1930    11.2460    -0.9160 H     1 <1>   0.1500 
 44 H        5.4670    10.9550    -0.0510 H     1 <1>   0.1500 
 45 H        6.8830     7.6680     0.9850 H     1 <1>   0.0800 
 46 H        6.9530     9.3770     1.3270 H     1 <1>   0.0800 
 47 H        7.4600     8.7760    -0.2370 H     1 <1>   0.0800 
@<TRIPOS>BOND
  1   1   2  2   
  2   2   3  am  
  3   2   4  1   
  4   3   5  1   
  5   3   6  1   
  6   4   7  ar  
  7   4   8  ar  
  8   5   9  1   
  9   5  26  1   
 10   5  27  1   
 11   6  10  1   
 12   6  28  1   
 13   6  29  1   
 14   7  11  ar  
 15   8  12  ar  
 16   8  30  1   
 17   9  10  1   
 18   9  31  1   
 19   9  32  1   
 20  10  33  1   
 21  10  34  1   
 22  11  13  1   
 23  11  14  ar  
 24  12  14  ar  
 25  13  15  1   
 26  13  16  1   
 27  14  35  1   
 28  15  17  1   
 29  15  36  1   
 30  15  37  1   
 31  16  17  1   
 32  16  38  1   
 33  16  39  1   
 34  17  18  1   
 35  17  40  1   
 36  18  19  1   
 37  19  20  ar  
 38  19  21  ar  
 39  20  22  ar  
 40  20  41  1   
 41  21  23  ar  
 42  21  42  1   
 43  22  24  ar  
 44  22  25  1   
 45  23  24  ar  
 46  23  43  1   
 47  24  44  1   
 48  25  45  1   
 49  25  46  1   
 50  25  47  1   
@<TRIPOS>SUBSTRUCTURE
  1 ****  16 GROUP 4 **** **** 0

# MOE 2024.06 (io_trps.svl 2023.06)
