@<TRIPOS>MOLECULE
NONAME
49 52 1 0 0 
SMALL
USER_CHARGES


@<TRIPOS>ATOM
  1 S       -0.7480     1.3130     1.0060 S.3   1 <1>  -0.0800 
  2 C        0.4410     2.5600     1.3210 C.2   1 <1>  -0.1400 
  3 C       -0.1860     1.1710    -0.6540 C.2   1 <1>  -0.1100 
  4 C        1.1930     2.8180     0.2440 C.2   1 <1>  -0.1810 
  5 C        0.5690     3.2410     2.6560 C.3   1 <1>   0.0200 
  6 C        0.8300     2.0230    -0.8950 C.2   1 <1>  -0.1500 
  7 C        2.3140     3.8610     0.2920 C.3   1 <1>   0.4610 
  8 C        1.3620     4.5370     2.4310 C.3   1 <1>   0.1200 
  9 O        2.4940     4.3120     1.6230 O.3   1 <1>  -0.5600 
 10 C        1.9610     5.0700    -0.5900 C.3   1 <1>  -0.1600 
 11 C        3.6620     3.2270    -0.1030 C.3   1 <1>  -0.1600 
 12 C        3.1960     5.9260    -0.8570 C.3   1 <1>   0.1400 
 13 C        4.1430     3.6500    -1.4930 C.3   1 <1>   0.1400 
 14 N        4.2420     5.1390    -1.5810 N.am  1 <1>  -0.6600 
 15 C        5.2680     5.7150    -2.2920 C.2   1 <1>   0.5690 
 16 O        6.0280     5.0430    -2.9520 O.2   1 <1>  -0.5700 
 17 C        5.5070     7.2200    -2.2940 C.3   1 <1>   0.0390 
 18 C        5.9770     7.7450    -0.9320 C.2   1 <1>  -0.1240 
 19 C        5.0990     8.5950    -0.1850 C.2   1 <1>   0.7670 
 20 C        7.1870     7.4330    -0.3970 C.2   1 <1>  -0.0380 
 21 O        4.0040     8.9270    -0.6180 O.2   1 <1>  -0.5700 
 22 N        5.4480     9.0620     1.0520 N.2   1 <1>  -0.6610 
 23 N        7.4720     7.9390     0.8390 N.pl3 1 <1>  -0.5500 
 24 C        8.2730     6.5670    -1.0160 C.3   1 <1>  -0.1020 
 25 C        6.5910     8.7280     1.5120 C.2   1 <1>   0.4390 
 26 C        7.0230     9.2150     2.8730 C.3   1 <1>  -0.1790 
 27 H       -0.6840     0.4540    -1.2820 H     1 <1>   0.1500 
 28 H        1.0880     2.6010     3.3460 H     1 <1>   0.0800 
 29 H       -0.4010     3.4710     3.0570 H     1 <1>   0.0800 
 30 H        1.3430     2.1260    -1.8350 H     1 <1>   0.1500 
 31 H        1.7050     4.9310     3.3720 H     1 <1>   0.0800 
 32 H        0.7420     5.2770     1.9580 H     1 <1>   0.0800 
 33 H        1.1950     5.6630    -0.1310 H     1 <1>   0.0800 
 34 H        1.5720     4.7340    -1.5330 H     1 <1>   0.0800 
 35 H        3.5850     2.1560    -0.0700 H     1 <1>   0.0800 
 36 H        4.4220     3.5130     0.6020 H     1 <1>   0.0800 
 37 H        3.5970     6.2720     0.0810 H     1 <1>   0.0800 
 38 H        2.9050     6.7790    -1.4450 H     1 <1>   0.0800 
 39 H        3.4590     3.2990    -2.2470 H     1 <1>   0.0800 
 40 H        5.1040     3.2020    -1.6830 H     1 <1>   0.0800 
 41 H        4.6140     7.7100    -2.6320 H     1 <1>   0.0800 
 42 H        6.2600     7.4440    -3.0270 H     1 <1>   0.0800 
 43 H        8.3630     7.7200     1.2890 H     1 <1>   0.4000 
 44 H        9.2230     7.0670    -0.9570 H     1 <1>   0.0800 
 45 H        8.0820     6.3550    -2.0510 H     1 <1>   0.0800 
 46 H        8.3380     5.6320    -0.4890 H     1 <1>   0.0800 
 47 H        7.9190     9.8010     2.7860 H     1 <1>   0.0800 
 48 H        7.2000     8.3780     3.5220 H     1 <1>   0.0800 
 49 H        6.2520     9.8280     3.3050 H     1 <1>   0.0800 
@<TRIPOS>BOND
  1   1   2  1   
  2   1   3  1   
  3   2   4  2   
  4   2   5  1   
  5   3   6  2   
  6   3  27  1   
  7   4   6  1   
  8   4   7  1   
  9   5   8  1   
 10   5  28  1   
 11   5  29  1   
 12   6  30  1   
 13   7   9  1   
 14   7  10  1   
 15   7  11  1   
 16   8   9  1   
 17   8  31  1   
 18   8  32  1   
 19  10  12  1   
 20  10  33  1   
 21  10  34  1   
 22  11  13  1   
 23  11  35  1   
 24  11  36  1   
 25  12  14  1   
 26  12  37  1   
 27  12  38  1   
 28  13  14  1   
 29  13  39  1   
 30  13  40  1   
 31  14  15  am  
 32  15  16  2   
 33  15  17  1   
 34  17  18  1   
 35  17  41  1   
 36  17  42  1   
 37  18  19  1   
 38  18  20  2   
 39  19  21  2   
 40  19  22  1   
 41  20  23  1   
 42  20  24  1   
 43  22  25  2   
 44  23  25  1   
 45  23  43  1   
 46  24  44  1   
 47  24  45  1   
 48  24  46  1   
 49  25  26  1   
 50  26  47  1   
 51  26  48  1   
 52  26  49  1   
@<TRIPOS>SUBSTRUCTURE
  1 ****  12 GROUP 4 **** **** 0

# MOE 2024.06 (io_trps.svl 2023.06)
