@<TRIPOS>MOLECULE
NONAME
48 49 1 0 0 
SMALL
USER_CHARGES


@<TRIPOS>ATOM
  1 O       -1.4470    -0.0190     3.3160 O.2   1 <1>  -0.5700 
  2 C       -1.6430     0.5280     2.2550 C.2   1 <1>   0.5690 
  3 N       -1.8420    -0.2010     1.1050 N.am  1 <1>  -0.6600 
  4 C       -1.6970     2.0550     2.2830 C.3   1 <1>   0.0450 
  5 C       -2.0300    -1.6760     1.1860 C.3   1 <1>   0.3200 
  6 C       -1.8130     0.3530    -0.2820 C.3   1 <1>   0.1400 
  7 C       -0.6540     2.7540     1.4160 C.ar  1 <1>  -0.1440 
  8 C       -3.4860    -2.0090     0.9220 C.2   1 <1>  -0.3320 
  9 C       -3.1530     0.9850    -0.6760 C.3   1 <1>   0.1200 
 10 C       -1.0250     3.7790     0.5610 C.ar  1 <1>  -0.1500 
 11 C        0.6740     2.3650     1.4680 C.ar  1 <1>  -0.1500 
 12 N       -4.0300    -2.3810    -0.2570 N.pl3 1 <1>   0.0480 
 13 C       -4.4960    -1.9920     1.8200 C.2   1 <1>   0.0770 
 14 O       -3.1300     1.2660    -2.0360 O.3   1 <1>  -0.6800 
 15 C       -0.0820     4.3960    -0.2430 C.ar  1 <1>  -0.1500 
 16 C        1.6150     2.9820     0.6630 C.ar  1 <1>  -0.1500 
 17 C       -5.3430    -2.5580     0.0160 C.2   1 <1>   0.0360 
 18 C       -3.3900    -2.5550    -1.5740 C.3   1 <1>   0.0160 
 19 N       -5.6630    -2.3370     1.2490 N.2   1 <1>  -0.5650 
 20 C        1.2470     4.0020    -0.2030 C.ar  1 <1>  -0.1430 
 21 C        2.2740     4.6910    -1.0990 C.3   1 <1>   0.0630 
 22 C        2.9040     3.6940    -2.0760 C.3   1 <1>  -0.2400 
 23 C        3.3520     5.3860    -0.2610 C.3   1 <1>  -0.2400 
 24 H       -1.5520     2.3780     3.2980 H     1 <1>   0.0800 
 25 H       -2.6860     2.3570     2.0000 H     1 <1>   0.0800 
 26 H       -1.7670    -2.0380     2.1650 H     1 <1>   0.0800 
 27 H       -1.3850    -2.1710     0.4820 H     1 <1>   0.0800 
 28 H       -1.5910    -0.4420    -0.9700 H     1 <1>   0.0800 
 29 H       -1.0250     1.0760    -0.3750 H     1 <1>   0.0800 
 30 H       -3.3290     1.9020    -0.1460 H     1 <1>   0.0800 
 31 H       -3.9670     0.3060    -0.4960 H     1 <1>   0.0800 
 32 H       -2.0480     4.1090     0.5140 H     1 <1>   0.1500 
 33 H        0.9840     1.5780     2.1350 H     1 <1>   0.1500 
 34 H       -4.4380    -1.7410     2.8670 H     1 <1>   0.1500 
 35 H       -2.5110     1.9990    -2.2260 H     1 <1>   0.4000 
 36 H       -0.3900     5.1900    -0.8990 H     1 <1>   0.1500 
 37 H        2.6410     2.6630     0.7180 H     1 <1>   0.1500 
 38 H       -6.0460    -2.8570    -0.7410 H     1 <1>   0.1500 
 39 H       -2.3880    -2.9200    -1.4470 H     1 <1>   0.0800 
 40 H       -3.3720    -1.6110    -2.0880 H     1 <1>   0.0800 
 41 H       -3.9530    -3.2630    -2.1540 H     1 <1>   0.0800 
 42 H        1.7750     5.4480    -1.6790 H     1 <1>   0.0800 
 43 H        3.4590     2.9390    -1.5490 H     1 <1>   0.0800 
 44 H        3.5690     4.2030    -2.7500 H     1 <1>   0.0800 
 45 H        2.1340     3.2130    -2.6530 H     1 <1>   0.0800 
 46 H        3.9210     4.6690     0.3040 H     1 <1>   0.0800 
 47 H        2.8930     6.0740     0.4260 H     1 <1>   0.0800 
 48 H        4.0240     5.9340    -0.8970 H     1 <1>   0.0800 
@<TRIPOS>BOND
  1   1   2  2   
  2   2   3  am  
  3   2   4  1   
  4   3   5  1   
  5   3   6  1   
  6   4   7  1   
  7   4  24  1   
  8   4  25  1   
  9   5   8  1   
 10   5  26  1   
 11   5  27  1   
 12   6   9  1   
 13   6  28  1   
 14   6  29  1   
 15   7  10  ar  
 16   7  11  ar  
 17   8  12  1   
 18   8  13  2   
 19   9  14  1   
 20   9  30  1   
 21   9  31  1   
 22  10  15  ar  
 23  10  32  1   
 24  11  16  ar  
 25  11  33  1   
 26  12  17  1   
 27  12  18  1   
 28  13  19  1   
 29  13  34  1   
 30  14  35  1   
 31  15  20  ar  
 32  15  36  1   
 33  16  20  ar  
 34  16  37  1   
 35  17  19  2   
 36  17  38  1   
 37  18  39  1   
 38  18  40  1   
 39  18  41  1   
 40  20  21  1   
 41  21  22  1   
 42  21  23  1   
 43  21  42  1   
 44  22  43  1   
 45  22  44  1   
 46  22  45  1   
 47  23  46  1   
 48  23  47  1   
 49  23  48  1   
@<TRIPOS>SUBSTRUCTURE
  1 ****   6 GROUP 4 **** **** 0

# MOE 2024.06 (io_trps.svl 2023.06)
