@<TRIPOS>MOLECULE
NONAME
45 48 1 0 0 
SMALL
USER_CHARGES


@<TRIPOS>ATOM
  1 S       -1.0810    -0.1880     1.1170 S.3   1 <1>  -0.0800 
  2 C       -1.3480    -1.5660     0.0950 C.2   1 <1>   0.4420 
  3 C       -0.2000     0.5230    -0.1930 C.2   1 <1>   0.1980 
  4 N       -0.8070    -1.4250    -1.0600 N.2   1 <1>  -0.3380 
  5 N       -2.0640    -2.6600     0.5220 N.am  1 <1>  -0.4940 
  6 N       -0.1520    -0.2360    -1.2170 N.2   1 <1>  -0.3380 
  7 C        0.4120     1.9040     0.0340 C.3   1 <1>   0.3800 
  8 C       -2.7090    -2.9590     1.6840 C.2   1 <1>   0.5690 
  9 O       -0.5640     2.8360     0.4080 O.3   1 <1>  -0.5600 
 10 C        1.0930     2.5120    -1.1880 C.3   1 <1>  -0.1600 
 11 O       -2.7490    -2.2330     2.6460 O.2   1 <1>  -0.5700 
 12 C       -3.4150    -4.3140     1.7370 C.3   1 <1>   0.1710 
 13 C       -0.3070     4.1030    -0.1170 C.3   1 <1>   0.1200 
 14 C        0.9880     3.9980    -0.9130 C.3   1 <1>  -0.1600 
 15 N       -3.7030    -4.8890     0.3890 N.3   1 <1>  -0.8100 
 16 C       -4.0740    -6.3120     0.4730 C.3   1 <1>   0.1100 
 17 C       -4.7920    -4.1840    -0.3260 C.3   1 <1>   0.1100 
 18 C       -5.1050    -6.5150    -0.6290 C.3   1 <1>  -0.0800 
 19 C       -5.9010    -5.2130    -0.5560 C.3   1 <1>  -0.0800 
 20 C       -5.9340    -7.8070    -0.5170 C.3   1 <1>  -0.0220 
 21 C       -6.9250    -5.1640     0.6030 C.3   1 <1>  -0.0220 
 22 C       -7.1440    -7.6640     0.3850 C.2   1 <1>  -0.2880 
 23 C       -7.5810    -6.5040     0.8750 C.2   1 <1>  -0.2880 
 24 H       -2.1810    -3.3970    -0.1780 H     1 <1>   0.3700 
 25 H        1.1150     1.8480     0.8470 H     1 <1>   0.0800 
 26 H        2.1070     2.1720    -1.2940 H     1 <1>   0.0800 
 27 H        0.5380     2.2600    -2.0750 H     1 <1>   0.0800 
 28 H       -4.3270    -4.2100     2.2980 H     1 <1>   0.0800 
 29 H       -2.7710    -4.9860     2.2750 H     1 <1>   0.0800 
 30 H       -1.1340     4.3620    -0.7550 H     1 <1>   0.0800 
 31 H       -0.2330     4.8100     0.6920 H     1 <1>   0.0800 
 32 H        0.9560     4.5850    -1.8140 H     1 <1>   0.0800 
 33 H        1.8100     4.3290    -0.3020 H     1 <1>   0.0800 
 34 H       -3.2110    -6.9410     0.3330 H     1 <1>   0.0800 
 35 H       -4.5260    -6.5310     1.4280 H     1 <1>   0.0800 
 36 H       -5.1500    -3.3220     0.2130 H     1 <1>   0.0800 
 37 H       -4.4140    -3.8550    -1.2800 H     1 <1>   0.0800 
 38 H       -4.5660    -6.5460    -1.5610 H     1 <1>   0.0800 
 39 H       -6.4120    -5.0350    -1.4860 H     1 <1>   0.0800 
 40 H       -6.2850    -8.0800    -1.4970 H     1 <1>   0.0800 
 41 H       -5.3070    -8.6070    -0.1620 H     1 <1>   0.0800 
 42 H       -6.4500    -4.8480     1.5140 H     1 <1>   0.0800 
 43 H       -7.6820    -4.4380     0.3640 H     1 <1>   0.0800 
 44 H       -7.6330    -8.6030     0.5890 H     1 <1>   0.1500 
 45 H       -8.4410    -6.4310     1.5200 H     1 <1>   0.1500 
@<TRIPOS>BOND
  1   1   2  1   
  2   1   3  1   
  3   2   4  2   
  4   2   5  1   
  5   3   6  2   
  6   3   7  1   
  7   4   6  1   
  8   5   8  am  
  9   5  24  1   
 10   7   9  1   
 11   7  10  1   
 12   7  25  1   
 13   8  11  2   
 14   8  12  1   
 15   9  13  1   
 16  10  14  1   
 17  10  26  1   
 18  10  27  1   
 19  12  15  1   
 20  12  28  1   
 21  12  29  1   
 22  13  14  1   
 23  13  30  1   
 24  13  31  1   
 25  14  32  1   
 26  14  33  1   
 27  15  16  1   
 28  15  17  1   
 29  16  18  1   
 30  16  34  1   
 31  16  35  1   
 32  17  19  1   
 33  17  36  1   
 34  17  37  1   
 35  18  19  1   
 36  18  20  1   
 37  18  38  1   
 38  19  21  1   
 39  19  39  1   
 40  20  22  1   
 41  20  40  1   
 42  20  41  1   
 43  21  23  1   
 44  21  42  1   
 45  21  43  1   
 46  22  23  2   
 47  22  44  1   
 48  23  45  1   
@<TRIPOS>SUBSTRUCTURE
  1 ****   5 GROUP 4 **** **** 0

# MOE 2024.06 (io_trps.svl 2023.06)
