@<TRIPOS>MOLECULE
NONAME
47 49 1 0 0 
SMALL
USER_CHARGES


@<TRIPOS>ATOM
  1 S        0.0580     0.1050     0.1760 S.o2  1 <1>   1.3330 
  2 O       -0.5050     1.4230     0.3660 O.2   1 <1>  -0.6500 
  3 O        0.0490    -0.8400     1.2700 O.2   1 <1>  -0.6500 
  4 N       -0.7070    -0.6230    -1.1520 N.am  1 <1>  -0.8490 
  5 C        1.7410     0.3150    -0.4070 C.3   1 <1>  -0.0550 
  6 C       -0.5640    -2.0830    -1.1810 C.3   1 <1>   0.1160 
  7 C       -2.1240    -0.2590    -1.2490 C.3   1 <1>   0.1160 
  8 C        2.6240     1.1160     0.5670 C.3   1 <1>  -0.0800 
  9 C        3.9930     1.4050    -0.0360 C.3   1 <1>   0.2200 
 10 C        2.9480     0.3380     1.8530 C.3   1 <1>   0.1200 
 11 N        4.4270     2.7510     0.3960 N.am  1 <1>  -0.7300 
 12 C        4.8660     0.3480     0.6240 C.3   1 <1>   0.1200 
 13 O        4.3350     0.1950     1.8990 O.3   1 <1>  -0.5600 
 14 C        4.4910     3.8530    -0.4050 C.2   1 <1>   0.6160 
 15 O        4.2390     3.7200    -1.5870 O.2   1 <1>  -0.5700 
 16 C        4.8160     5.1350     0.1620 C.2   1 <1>  -0.0140 
 17 C        5.8730     5.9600    -0.3900 C.ar  1 <1>   0.0280 
 18 C        4.1170     5.5950     1.2430 C.2   1 <1>  -0.0410 
 19 C        6.1330     7.2180     0.1960 C.ar  1 <1>   0.0860 
 20 C        6.6670     5.5680    -1.4760 C.ar  1 <1>  -0.1500 
 21 N        4.3850     6.8120     1.8110 N.am  1 <1>  -0.5390 
 22 C        5.3510     7.6450     1.3310 C.2   1 <1>   0.5440 
 23 C        7.1500     8.0220    -0.3290 C.ar  1 <1>  -0.1500 
 24 C        7.6650     6.3750    -1.9760 C.ar  1 <1>  -0.1500 
 25 O        5.5020     8.7110     1.8990 O.2   1 <1>  -0.5700 
 26 C        7.9090     7.6110    -1.4010 C.ar  1 <1>  -0.1500 
 27 H        2.1810    -0.6450    -0.5920 H     1 <1>   0.0800 
 28 H        1.7030     0.8440    -1.3410 H     1 <1>   0.0800 
 29 H       -0.9860    -2.4780    -2.0890 H     1 <1>   0.0800 
 30 H       -1.0670    -2.5280    -0.3380 H     1 <1>   0.0800 
 31 H        0.4770    -2.3550    -1.1440 H     1 <1>   0.0800 
 32 H       -2.5720    -0.7240    -2.1100 H     1 <1>   0.0800 
 33 H       -2.2240     0.8090    -1.3550 H     1 <1>   0.0800 
 34 H       -2.6520    -0.5690    -0.3620 H     1 <1>   0.0800 
 35 H        2.1130     2.0340     0.8050 H     1 <1>   0.0800 
 36 H        4.0140     1.3260    -1.1100 H     1 <1>   0.0800 
 37 H        2.5160    -0.6480     1.8610 H     1 <1>   0.0800 
 38 H        2.6350     0.8730     2.7330 H     1 <1>   0.0800 
 39 H        4.6860     2.8130     1.3840 H     1 <1>   0.3700 
 40 H        5.9000     0.6400     0.6910 H     1 <1>   0.0800 
 41 H        4.7820    -0.5960     0.1140 H     1 <1>   0.0800 
 42 H        3.3180     5.0170     1.6800 H     1 <1>   0.1500 
 43 H        6.5050     4.6150    -1.9490 H     1 <1>   0.1500 
 44 H        3.8680     7.1850     2.6120 H     1 <1>   0.3700 
 45 H        7.3380     8.9820     0.1210 H     1 <1>   0.1500 
 46 H        8.2570     6.0490    -2.8150 H     1 <1>   0.1500 
 47 H        8.6880     8.2430    -1.7940 H     1 <1>   0.1500 
@<TRIPOS>BOND
  1   1   2  2   
  2   1   3  2   
  3   1   4  am  
  4   1   5  1   
  5   4   6  1   
  6   4   7  1   
  7   5   8  1   
  8   5  27  1   
  9   5  28  1   
 10   6  29  1   
 11   6  30  1   
 12   6  31  1   
 13   7  32  1   
 14   7  33  1   
 15   7  34  1   
 16   8   9  1   
 17   8  10  1   
 18   8  35  1   
 19   9  11  1   
 20   9  12  1   
 21   9  36  1   
 22  10  13  1   
 23  10  37  1   
 24  10  38  1   
 25  11  14  am  
 26  11  39  1   
 27  12  13  1   
 28  12  40  1   
 29  12  41  1   
 30  14  15  2   
 31  14  16  1   
 32  16  17  1   
 33  16  18  2   
 34  17  19  ar  
 35  17  20  ar  
 36  18  21  1   
 37  18  42  1   
 38  19  22  1   
 39  19  23  ar  
 40  20  24  ar  
 41  20  43  1   
 42  21  22  am  
 43  21  44  1   
 44  22  25  2   
 45  23  26  ar  
 46  23  45  1   
 47  24  26  ar  
 48  24  46  1   
 49  26  47  1   
@<TRIPOS>SUBSTRUCTURE
  1 ****  11 GROUP 4 **** **** 0

# MOE 2024.06 (io_trps.svl 2023.06)
