@<TRIPOS>MOLECULE
NONAME
55 57 1 0 0 
SMALL
USER_CHARGES


@<TRIPOS>ATOM
  1 O       -0.4780    -0.4530     0.1680 O.2   1 <1>  -0.5700 
  2 C       -1.3680     0.2270    -0.2900 C.2   1 <1>   0.5690 
  3 N       -2.6710     0.0130     0.0860 N.am  1 <1>  -0.6600 
  4 C       -1.0030     1.2830    -1.3310 C.3   1 <1>   0.0440 
  5 C       -3.8930     0.6080    -0.5020 C.3   1 <1>   0.1400 
  6 C       -3.0270    -1.0310     1.0720 C.3   1 <1>   0.1400 
  7 C       -0.0160     2.3480    -0.8210 C.ar  1 <1>  -0.1440 
  8 C       -5.0390     0.1760     0.4230 C.3   1 <1>  -0.0800 
  9 C       -4.5530    -1.1520     1.0300 C.3   1 <1>  -0.0800 
 10 C        1.3520     2.2290    -1.0740 C.ar  1 <1>  -0.1430 
 11 C       -0.4780     3.4520    -0.1020 C.ar  1 <1>  -0.1430 
 12 C       -6.4610     0.1310    -0.2170 C.3   1 <1>   0.2800 
 13 C       -5.0280    -2.3450     0.1850 C.3   1 <1>  -0.1600 
 14 C        2.2250     3.2110    -0.6350 C.ar  1 <1>  -0.1500 
 15 C        1.9500     1.0390    -1.8170 C.3   1 <1>  -0.0970 
 16 C        0.4140     4.4210     0.3270 C.ar  1 <1>  -0.1500 
 17 C       -1.9470     3.6420     0.2520 C.3   1 <1>  -0.0970 
 18 O       -6.3680    -0.0660    -1.5820 O.3   1 <1>  -0.6800 
 19 C       -7.2590    -1.0620     0.3430 C.3   1 <1>  -0.1600 
 20 C       -7.2510     1.4410    -0.0060 C.3   1 <1>  -0.1600 
 21 C       -6.5650    -2.4250     0.1280 C.3   1 <1>  -0.1600 
 22 C        1.7650     4.3120     0.0620 C.ar  1 <1>  -0.1430 
 23 C       -6.6050     2.7100    -0.5900 C.3   1 <1>  -0.2400 
 24 C        2.7330     5.3790     0.5380 C.3   1 <1>  -0.0970 
 25 H       -0.5950     0.7650    -2.1750 H     1 <1>   0.0800 
 26 H       -1.8800     1.7700    -1.7030 H     1 <1>   0.0800 
 27 H       -3.8260     1.6770    -0.5570 H     1 <1>   0.0800 
 28 H       -4.0100     0.2060    -1.4930 H     1 <1>   0.0800 
 29 H       -2.5430    -1.9620     0.8290 H     1 <1>   0.0800 
 30 H       -2.7020    -0.7090     2.0460 H     1 <1>   0.0800 
 31 H       -5.0650     0.8780     1.2380 H     1 <1>   0.0800 
 32 H       -4.9260    -1.2730     2.0320 H     1 <1>   0.0800 
 33 H       -4.6480    -2.2310    -0.8170 H     1 <1>   0.0800 
 34 H       -4.6330    -3.2650     0.5790 H     1 <1>   0.0800 
 35 H        3.2770     3.1190    -0.8320 H     1 <1>   0.1500 
 36 H        3.0230     1.0590    -1.7790 H     1 <1>   0.0800 
 37 H        1.6480     1.0580    -2.8480 H     1 <1>   0.0800 
 38 H        1.6230     0.1190    -1.3660 H     1 <1>   0.0800 
 39 H        0.0590     5.2720     0.8790 H     1 <1>   0.1500 
 40 H       -2.0910     4.5300     0.8390 H     1 <1>   0.0800 
 41 H       -2.2920     2.8060     0.8310 H     1 <1>   0.0800 
 42 H       -2.5370     3.7350    -0.6410 H     1 <1>   0.0800 
 43 H       -7.2600    -0.1970    -1.9490 H     1 <1>   0.4000 
 44 H       -7.3800    -0.9100     1.4010 H     1 <1>   0.0800 
 45 H       -8.2480    -1.0890    -0.0810 H     1 <1>   0.0800 
 46 H       -8.2320     1.3290    -0.4340 H     1 <1>   0.0800 
 47 H       -7.3920     1.5920     1.0510 H     1 <1>   0.0800 
 48 H       -6.9170    -3.1110     0.8790 H     1 <1>   0.0800 
 49 H       -6.8480    -2.8240    -0.8310 H     1 <1>   0.0800 
 50 H       -6.3990     2.5850    -1.6390 H     1 <1>   0.0800 
 51 H       -5.6890     2.9440    -0.0800 H     1 <1>   0.0800 
 52 H       -7.2730     3.5450    -0.4740 H     1 <1>   0.0800 
 53 H        3.5690     5.4540    -0.1340 H     1 <1>   0.0800 
 54 H        3.0950     5.1270     1.5190 H     1 <1>   0.0800 
 55 H        2.2460     6.3360     0.5820 H     1 <1>   0.0800 
@<TRIPOS>BOND
  1   1   2  2   
  2   2   3  am  
  3   2   4  1   
  4   3   5  1   
  5   3   6  1   
  6   4   7  1   
  7   4  25  1   
  8   4  26  1   
  9   5   8  1   
 10   5  27  1   
 11   5  28  1   
 12   6   9  1   
 13   6  29  1   
 14   6  30  1   
 15   7  10  ar  
 16   7  11  ar  
 17   8   9  1   
 18   8  12  1   
 19   8  31  1   
 20   9  13  1   
 21   9  32  1   
 22  10  14  ar  
 23  10  15  1   
 24  11  16  ar  
 25  11  17  1   
 26  12  18  1   
 27  12  19  1   
 28  12  20  1   
 29  13  21  1   
 30  13  33  1   
 31  13  34  1   
 32  14  22  ar  
 33  14  35  1   
 34  15  36  1   
 35  15  37  1   
 36  15  38  1   
 37  16  22  ar  
 38  16  39  1   
 39  17  40  1   
 40  17  41  1   
 41  17  42  1   
 42  18  43  1   
 43  19  21  1   
 44  19  44  1   
 45  19  45  1   
 46  20  23  1   
 47  20  46  1   
 48  20  47  1   
 49  21  48  1   
 50  21  49  1   
 51  22  24  1   
 52  23  50  1   
 53  23  51  1   
 54  23  52  1   
 55  24  53  1   
 56  24  54  1   
 57  24  55  1   
@<TRIPOS>SUBSTRUCTURE
  1 ****   3 GROUP 4 **** **** 0

# MOE 2024.06 (io_trps.svl 2023.06)
