@<TRIPOS>MOLECULE
NONAME
48 49 1 0 0 
SMALL
USER_CHARGES


@<TRIPOS>ATOM
  1 S        0.2430     0.2500    -0.7700 S.o2  1 <1>   1.3330 
  2 O        0.2820    -1.1940    -0.8090 O.2   1 <1>  -0.6500 
  3 O       -0.0920     0.9870    -1.9680 O.2   1 <1>  -0.6500 
  4 N       -0.8450     0.7070     0.4490 N.am  1 <1>  -0.8490 
  5 C        1.8010     0.9080    -0.1790 C.3   1 <1>  -0.0550 
  6 C       -0.8200    -0.1910     1.6100 C.3   1 <1>   0.1160 
  7 C       -2.2170     0.8230    -0.0550 C.3   1 <1>   0.1160 
  8 C        2.9900     0.6220    -1.1280 C.3   1 <1>  -0.0800 
  9 C        4.2590     1.4040    -0.7990 C.3   1 <1>   0.2200 
 10 C        3.4960    -0.8010    -0.9090 C.3   1 <1>   0.1200 
 11 N        3.9980     2.8020    -0.3650 N.am  1 <1>  -0.7300 
 12 C        4.9270     0.5350     0.2740 C.3   1 <1>   0.1200 
 13 O        4.3010    -0.7160     0.2210 O.3   1 <1>  -0.5600 
 14 C        4.9600     3.6710     0.0710 C.2   1 <1>   0.5440 
 15 O        6.1040     3.2700     0.1570 O.2   1 <1>  -0.5700 
 16 C        4.6250     5.0480     0.3940 C.ar  1 <1>   0.0860 
 17 C        5.5840     6.0540     0.3060 C.ar  1 <1>  -0.1500 
 18 C        3.3420     5.4180     0.8010 C.ar  1 <1>  -0.1500 
 19 C        5.2820     7.3800     0.5970 C.ar  1 <1>   0.0820 
 20 C        3.0290     6.7330     1.0900 C.ar  1 <1>  -0.1500 
 21 O        6.2010     8.3790     0.5170 O.3   1 <1>  -0.3620 
 22 C        3.9920     7.7220     0.9890 C.ar  1 <1>  -0.1440 
 23 C        7.5510     8.1230     0.1960 C.3   1 <1>   0.0400 
 24 C        3.6340     9.1660     1.3100 C.3   1 <1>  -0.0970 
 25 H        1.6680     1.9640    -0.0690 H     1 <1>   0.0800 
 26 H        2.0200     0.5110     0.7940 H     1 <1>   0.0800 
 27 H       -1.4650     0.1890     2.3850 H     1 <1>   0.0800 
 28 H        0.1780    -0.2620     2.0060 H     1 <1>   0.0800 
 29 H       -1.1520    -1.1780     1.3320 H     1 <1>   0.0800 
 30 H       -2.8820     1.1270     0.7360 H     1 <1>   0.0800 
 31 H       -2.5510    -0.1200    -0.4560 H     1 <1>   0.0800 
 32 H       -2.2620     1.5650    -0.8350 H     1 <1>   0.0800 
 33 H        2.7020     0.7750    -2.1540 H     1 <1>   0.0800 
 34 H        4.9050     1.4270    -1.6600 H     1 <1>   0.0800 
 35 H        4.1130    -1.1260    -1.7310 H     1 <1>   0.0800 
 36 H        2.7210    -1.5260    -0.7360 H     1 <1>   0.0800 
 37 H        3.1210     3.2010    -0.6970 H     1 <1>   0.3700 
 38 H        4.7820     0.9390     1.2600 H     1 <1>   0.0800 
 39 H        5.9770     0.4080     0.0750 H     1 <1>   0.0800 
 40 H        6.5730     5.7700     0.0030 H     1 <1>   0.1500 
 41 H        2.5760     4.6710     0.9030 H     1 <1>   0.1500 
 42 H        2.0290     6.9840     1.3990 H     1 <1>   0.1500 
 43 H        8.0830     9.0560     0.2260 H     1 <1>   0.0800 
 44 H        7.6010     7.7040    -0.7930 H     1 <1>   0.0800 
 45 H        7.9600     7.4450     0.9240 H     1 <1>   0.0800 
 46 H        2.6000     9.2610     1.5870 H     1 <1>   0.0800 
 47 H        3.8180     9.7860     0.4500 H     1 <1>   0.0800 
 48 H        4.2430     9.5190     2.1230 H     1 <1>   0.0800 
@<TRIPOS>BOND
  1   1   2  2   
  2   1   3  2   
  3   1   4  am  
  4   1   5  1   
  5   4   6  1   
  6   4   7  1   
  7   5   8  1   
  8   5  25  1   
  9   5  26  1   
 10   6  27  1   
 11   6  28  1   
 12   6  29  1   
 13   7  30  1   
 14   7  31  1   
 15   7  32  1   
 16   8   9  1   
 17   8  10  1   
 18   8  33  1   
 19   9  11  1   
 20   9  12  1   
 21   9  34  1   
 22  10  13  1   
 23  10  35  1   
 24  10  36  1   
 25  11  14  am  
 26  11  37  1   
 27  12  13  1   
 28  12  38  1   
 29  12  39  1   
 30  14  15  2   
 31  14  16  1   
 32  16  17  ar  
 33  16  18  ar  
 34  17  19  ar  
 35  17  40  1   
 36  18  20  ar  
 37  18  41  1   
 38  19  21  1   
 39  19  22  ar  
 40  20  22  ar  
 41  20  42  1   
 42  21  23  1   
 43  22  24  1   
 44  23  43  1   
 45  23  44  1   
 46  23  45  1   
 47  24  46  1   
 48  24  47  1   
 49  24  48  1   
@<TRIPOS>SUBSTRUCTURE
  1 ****  11 GROUP 4 **** **** 0

# MOE 2024.06 (io_trps.svl 2023.06)
