@<TRIPOS>MOLECULE
NONAME
42 44 1 0 0 
SMALL
USER_CHARGES


@<TRIPOS>ATOM
  1 F        1.4790     0.4530    -1.8790 F     1 <1>  -0.3400 
  2 C        0.6930     1.4200    -1.4150 C.3   1 <1>   1.1640 
  3 F        0.1690     0.9300    -0.2960 F     1 <1>  -0.3400 
  4 F       -0.2940     1.5150    -2.3000 F     1 <1>  -0.3400 
  5 C        1.4610     2.7320    -1.2090 C.ar  1 <1>  -0.1430 
  6 C        0.7610     3.8600    -0.7240 C.ar  1 <1>   0.3100 
  7 C        2.8070     2.8200    -1.4880 C.ar  1 <1>  -0.1500 
  8 N       -0.5620     3.7460    -0.4450 N.ar  1 <1>  -0.6200 
  9 C        1.4610     5.0800    -0.5390 C.ar  1 <1>   0.0000 
 10 C        3.4990     4.0150    -1.2970 C.ar  1 <1>  -0.1500 
 11 C       -1.1870     4.7980    -0.0100 C.ar  1 <1>   0.1600 
 12 C        0.7470     6.2090    -0.0590 C.ar  1 <1>   0.1000 
 13 C        2.8400     5.1160    -0.8330 C.ar  1 <1>  -0.1500 
 14 C       -0.5890     6.0360     0.1930 C.ar  1 <1>  -0.1500 
 15 N        1.3740     7.4340     0.1220 N.pl3 1 <1>  -0.8690 
 16 C        1.0420     8.4430     1.1600 C.3   1 <1>   0.2890 
 17 C        1.0650     9.8460     0.5250 C.3   1 <1>   0.1400 
 18 C        2.1690     8.4570     2.1970 C.3   1 <1>  -0.0990 
 19 N        2.4340    10.3290     0.7910 N.am  1 <1>  -0.6600 
 20 C        3.0580     9.5710     1.7210 C.2   1 <1>   0.5690 
 21 C        2.9900    11.5310     0.1330 C.3   1 <1>   0.1400 
 22 O        4.1760     9.7410     2.1380 O.2   1 <1>  -0.5700 
 23 C        3.4000    11.1920    -1.3020 C.3   1 <1>  -0.1600 
 24 C        4.0070    12.4080    -2.0100 C.3   1 <1>  -0.2400 
 25 H        3.3670     1.9760    -1.8580 H     1 <1>   0.1500 
 26 H        4.5520     4.0550    -1.5190 H     1 <1>   0.1500 
 27 H       -2.2380     4.7020     0.2030 H     1 <1>   0.1500 
 28 H        3.3870     6.0290    -0.6870 H     1 <1>   0.1500 
 29 H       -1.2000     6.8450     0.5370 H     1 <1>   0.1500 
 30 H        2.3240     7.5470    -0.2480 H     1 <1>   0.4000 
 31 H        0.0910     8.2280     1.6120 H     1 <1>   0.0800 
 32 H        0.3600    10.4940     1.0150 H     1 <1>   0.0800 
 33 H        0.8550     9.8020    -0.5290 H     1 <1>   0.0800 
 34 H        2.6960     7.5220     2.2510 H     1 <1>   0.0800 
 35 H        1.7880     8.7190     3.1660 H     1 <1>   0.0800 
 36 H        3.8520    11.8690     0.6840 H     1 <1>   0.0800 
 37 H        2.2540    12.3170     0.1390 H     1 <1>   0.0800 
 38 H        2.5420    10.8560    -1.8570 H     1 <1>   0.0800 
 39 H        4.1270    10.3990    -1.2800 H     1 <1>   0.0800 
 40 H        3.2950    13.2130    -2.0580 H     1 <1>   0.0800 
 41 H        4.2930    12.1440    -3.0130 H     1 <1>   0.0800 
 42 H        4.8830    12.7490    -1.4850 H     1 <1>   0.0800 
@<TRIPOS>BOND
  1   1   2  1   
  2   2   3  1   
  3   2   4  1   
  4   2   5  1   
  5   5   6  ar  
  6   5   7  ar  
  7   6   8  ar  
  8   6   9  ar  
  9   7  10  ar  
 10   7  25  1   
 11   8  11  ar  
 12   9  12  ar  
 13   9  13  ar  
 14  10  13  ar  
 15  10  26  1   
 16  11  14  ar  
 17  11  27  1   
 18  12  14  ar  
 19  12  15  1   
 20  13  28  1   
 21  14  29  1   
 22  15  16  1   
 23  15  30  1   
 24  16  17  1   
 25  16  18  1   
 26  16  31  1   
 27  17  19  1   
 28  17  32  1   
 29  17  33  1   
 30  18  20  1   
 31  18  34  1   
 32  18  35  1   
 33  19  20  am  
 34  19  21  1   
 35  20  22  2   
 36  21  23  1   
 37  21  36  1   
 38  21  37  1   
 39  23  24  1   
 40  23  38  1   
 41  23  39  1   
 42  24  40  1   
 43  24  41  1   
 44  24  42  1   
@<TRIPOS>SUBSTRUCTURE
  1 ****  12 GROUP 4 **** **** 0

# MOE 2024.06 (io_trps.svl 2023.06)
