@<TRIPOS>MOLECULE
Untitled Document
48 50 1 0 0 
SMALL
USER_CHARGES


@<TRIPOS>ATOM
  1 CL       1.3730    -2.2820    -2.8650 Cl    1 <1>  -0.1770 
  2 C        2.2090    -1.9280    -1.3700 C.ar  1 <1>   0.1770 
  3 C        1.6820    -2.3190    -0.1510 C.ar  1 <1>   0.1900 
  4 C        3.4120    -1.2510    -1.4140 C.ar  1 <1>  -0.1500 
  5 F        0.5480    -2.9620    -0.1010 F     1 <1>  -0.1900 
  6 C        2.3390    -2.0400     1.0330 C.ar  1 <1>  -0.1500 
  7 C        4.1100    -0.9610    -0.2400 C.ar  1 <1>   0.0860 
  8 C        3.5450    -1.3610     0.9780 C.ar  1 <1>  -0.1500 
  9 C        5.3740    -0.2520    -0.2920 C.2   1 <1>   0.5440 
 10 O        5.4510     0.7640    -0.9550 O.2   1 <1>  -0.5700 
 11 N        6.4960    -0.7000     0.3760 N.am  1 <1>  -0.6600 
 12 C        6.7160    -2.1160     0.7790 C.3   1 <1>   0.1400 
 13 C        7.6810     0.1790     0.5900 C.3   1 <1>   0.1400 
 14 C        7.8830    -2.6900    -0.0300 C.3   1 <1>  -0.1600 
 15 C        8.8670    -0.3590    -0.2100 C.3   1 <1>  -0.1600 
 16 C        9.1530    -1.8350     0.1060 C.3   1 <1>   0.3400 
 17 F        9.5060    -1.8950     1.3890 F     1 <1>  -0.3400 
 18 C       10.3290    -2.4110    -0.7190 C.3   1 <1>   0.1100 
 19 N       11.5890    -1.6750    -0.5280 N.3   1 <1>  -0.9000 
 20 C       12.7440    -2.3240    -1.1910 C.3   1 <1>   0.2530 
 21 C       14.1040    -1.8130    -0.6940 C.ar  1 <1>   0.4770 
 22 N       14.9420    -1.3640    -1.6190 N.ar  1 <1>  -0.6200 
 23 N       14.3180    -1.8880     0.6140 N.ar  1 <1>  -0.6200 
 24 C       16.1010    -0.9310    -1.1750 C.ar  1 <1>   0.1600 
 25 C       15.4860    -1.4480     1.0250 C.ar  1 <1>   0.1600 
 26 C       16.4330    -0.9500     0.1600 C.ar  1 <1>  -0.1430 
 27 C       17.7780    -0.4420     0.6550 C.3   1 <1>  -0.0970 
 28 H        3.8160    -0.9390    -2.3620 H     1 <1>   0.1500 
 29 H        1.9100    -2.3450     1.9710 H     1 <1>   0.1500 
 30 H        4.0660    -1.1260     1.8910 H     1 <1>   0.1500 
 31 H        5.8380    -2.7100     0.6020 H     1 <1>   0.0800 
 32 H        6.9430    -2.1520     1.8320 H     1 <1>   0.0800 
 33 H        7.9230     0.1930     1.6390 H     1 <1>   0.0800 
 34 H        7.4660     1.1900     0.2880 H     1 <1>   0.0800 
 35 H        7.5930    -2.7300    -1.0640 H     1 <1>   0.0800 
 36 H        8.0870    -3.6960     0.2910 H     1 <1>   0.0800 
 37 H        9.7410     0.2340    -0.0070 H     1 <1>   0.0800 
 38 H        8.6470    -0.2540    -1.2570 H     1 <1>   0.0800 
 39 H       10.0660    -2.3790    -1.7630 H     1 <1>   0.0800 
 40 H       10.4660    -3.4420    -0.4440 H     1 <1>   0.0800 
 41 H       11.8080    -1.6530     0.4820 H     1 <1>   0.3600 
 42 H       12.6740    -2.1670    -2.2520 H     1 <1>   0.0800 
 43 H       12.7170    -3.3830    -1.0050 H     1 <1>   0.0800 
 44 H       16.8010    -0.5510    -1.8990 H     1 <1>   0.1500 
 45 H       15.6900    -1.4870     2.0820 H     1 <1>   0.1500 
 46 H       18.5320    -0.5710    -0.1010 H     1 <1>   0.0800 
 47 H       18.0840    -0.9820     1.5340 H     1 <1>   0.0800 
 48 H       17.7060     0.6030     0.8990 H     1 <1>   0.0800 
@<TRIPOS>BOND
  1   1   2  1   
  2   2   3  ar  
  3   2   4  ar  
  4   3   5  1   
  5   3   6  ar  
  6   4   7  ar  
  7   4  28  1   
  8   6   8  ar  
  9   6  29  1   
 10   7   8  ar  
 11   7   9  1   
 12   8  30  1   
 13   9  10  2   
 14   9  11  am  
 15  11  12  1   
 16  11  13  1   
 17  12  14  1   
 18  12  31  1   
 19  12  32  1   
 20  13  15  1   
 21  13  33  1   
 22  13  34  1   
 23  14  16  1   
 24  14  35  1   
 25  14  36  1   
 26  15  16  1   
 27  15  37  1   
 28  15  38  1   
 29  16  17  1   
 30  16  18  1   
 31  18  19  1   
 32  18  39  1   
 33  18  40  1   
 34  19  20  1   
 35  19  41  1   
 36  20  21  1   
 37  20  42  1   
 38  20  43  1   
 39  21  22  ar  
 40  21  23  ar  
 41  22  24  ar  
 42  23  25  ar  
 43  24  26  ar  
 44  24  44  1   
 45  25  26  ar  
 46  25  45  1   
 47  26  27  1   
 48  27  46  1   
 49  27  47  1   
 50  27  48  1   
@<TRIPOS>SUBSTRUCTURE
  1 ****  16 GROUP 4 **** **** 0

# MOE 2024.06 (io_trps.svl 2023.06)
