@<TRIPOS>MOLECULE
NONAME
50 52 1 0 0 
SMALL
USER_CHARGES


@<TRIPOS>ATOM
  1 O        2.9620     1.0500    -1.2320 O.2   1 <1>  -0.5700 
  2 C        3.2850     0.0220    -0.6940 C.2   1 <1>   0.5690 
  3 N        3.0110    -0.2080     0.6060 N.am  1 <1>  -0.7300 
  4 C        4.0340    -1.0520    -1.4530 C.3   1 <1>  -0.0990 
  5 C        3.3850    -1.4610     1.2890 C.3   1 <1>   0.1400 
  6 C        3.5170    -2.4670    -1.1050 C.3   1 <1>  -0.0800 
  7 C        3.0760    -2.6540     0.3660 C.3   1 <1>  -0.0800 
  8 C        4.5400    -3.5650    -1.4200 C.3   1 <1>  -0.1600 
  9 C        3.7070    -3.9600     0.8730 C.3   1 <1>  -0.1600 
 10 C        4.4120    -4.6130    -0.3160 C.3   1 <1>   0.2200 
 11 N        5.7180    -5.2570     0.0310 N.am  1 <1>  -0.6600 
 12 C        6.8880    -4.6240     0.4390 C.2   1 <1>   0.5440 
 13 C        5.7560    -6.7090    -0.3190 C.3   1 <1>   0.0600 
 14 O        7.9450    -5.2040     0.2840 O.2   1 <1>  -0.5700 
 15 C        6.9280    -3.3170     1.0700 C.ar  1 <1>   0.0860 
 16 C        7.1710    -2.1560     0.3410 C.ar  1 <1>  -0.1500 
 17 C        6.7550    -3.1840     2.4470 C.ar  1 <1>  -0.1500 
 18 C        7.1580    -0.9060     0.9330 C.ar  1 <1>   0.0820 
 19 C        6.7690    -1.9440     3.0610 C.ar  1 <1>  -0.1500 
 20 O        7.3320     0.1520     0.1040 O.3   1 <1>  -0.3630 
 21 C        6.9610    -0.8010     2.3060 C.ar  1 <1>  -0.1500 
 22 C        7.0170     1.4750     0.4790 C.3   1 <1>   0.2000 
 23 C        6.5680     2.2060    -0.7840 C.3   1 <1>  -0.2400 
 24 C        8.2690     2.1230     1.0740 C.3   1 <1>  -0.2400 
 25 H        2.5240     0.5220     1.1280 H     1 <1>   0.3700 
 26 H        3.9450    -0.8750    -2.5090 H     1 <1>   0.0800 
 27 H        5.0690    -0.9520    -1.1880 H     1 <1>   0.0800 
 28 H        4.4360    -1.4290     1.5120 H     1 <1>   0.0800 
 29 H        2.8380    -1.5530     2.2120 H     1 <1>   0.0800 
 30 H        2.6440    -2.6470    -1.7120 H     1 <1>   0.0800 
 31 H        2.0070    -2.7810     0.3710 H     1 <1>   0.0800 
 32 H        5.5310    -3.1670    -1.4520 H     1 <1>   0.0800 
 33 H        4.3340    -4.0080    -2.3780 H     1 <1>   0.0800 
 34 H        2.9420    -4.6190     1.2410 H     1 <1>   0.0800 
 35 H        4.3850    -3.7710     1.6770 H     1 <1>   0.0800 
 36 H        3.7410    -5.3680    -0.6910 H     1 <1>   0.0800 
 37 H        4.8810    -7.2040     0.0640 H     1 <1>   0.0800 
 38 H        6.6230    -7.1850     0.1070 H     1 <1>   0.0800 
 39 H        5.7920    -6.8220    -1.3880 H     1 <1>   0.0800 
 40 H        7.3750    -2.2250    -0.7110 H     1 <1>   0.1500 
 41 H        6.6090    -4.0730     3.0360 H     1 <1>   0.1500 
 42 H        6.6320    -1.8690     4.1260 H     1 <1>   0.1500 
 43 H        6.9620     0.1530     2.7990 H     1 <1>   0.1500 
 44 H        6.2040     1.4580     1.1840 H     1 <1>   0.0800 
 45 H        7.3510     2.2020    -1.5200 H     1 <1>   0.0800 
 46 H        6.3180     3.2240    -0.5500 H     1 <1>   0.0800 
 47 H        5.6940     1.7320    -1.1920 H     1 <1>   0.0800 
 48 H        9.0610     2.1340     0.3470 H     1 <1>   0.0800 
 49 H        8.5990     1.5870     1.9440 H     1 <1>   0.0800 
 50 H        8.0540     3.1360     1.3620 H     1 <1>   0.0800 
@<TRIPOS>BOND
  1   1   2  2   
  2   2   3  am  
  3   2   4  1   
  4   3   5  1   
  5   3  25  1   
  6   4   6  1   
  7   4  26  1   
  8   4  27  1   
  9   5   7  1   
 10   5  28  1   
 11   5  29  1   
 12   6   7  1   
 13   6   8  1   
 14   6  30  1   
 15   7   9  1   
 16   7  31  1   
 17   8  10  1   
 18   8  32  1   
 19   8  33  1   
 20   9  10  1   
 21   9  34  1   
 22   9  35  1   
 23  10  11  1   
 24  10  36  1   
 25  11  12  am  
 26  11  13  1   
 27  12  14  2   
 28  12  15  1   
 29  13  37  1   
 30  13  38  1   
 31  13  39  1   
 32  15  16  ar  
 33  15  17  ar  
 34  16  18  ar  
 35  16  40  1   
 36  17  19  ar  
 37  17  41  1   
 38  18  20  1   
 39  18  21  ar  
 40  19  21  ar  
 41  19  42  1   
 42  20  22  1   
 43  21  43  1   
 44  22  23  1   
 45  22  24  1   
 46  22  44  1   
 47  23  45  1   
 48  23  46  1   
 49  23  47  1   
 50  24  48  1   
 51  24  49  1   
 52  24  50  1   
@<TRIPOS>SUBSTRUCTURE
  1 ****  16 GROUP 4 **** **** 0

# MOE 2024.06 (io_trps.svl 2023.06)
