@<TRIPOS>MOLECULE
NONAME
46 48 1 0 0 
SMALL
USER_CHARGES


@<TRIPOS>ATOM
  1 F        1.8500    -1.0960     1.2730 F     1 <1>  -0.1900 
  2 C        2.2620     0.0790     0.8770 C.ar  1 <1>   0.1900 
  3 C        3.2580     0.1510    -0.0700 C.ar  1 <1>  -0.1500 
  4 C        1.6840     1.2040     1.4310 C.ar  1 <1>  -0.1500 
  5 C        3.7220     1.3940    -0.4990 C.ar  1 <1>   0.0860 
  6 C        2.1210     2.4450     1.0060 C.ar  1 <1>  -0.1500 
  7 C        4.7980     1.4380    -1.4690 C.2   1 <1>   0.5440 
  8 C        3.1250     2.5480     0.0400 C.ar  1 <1>   0.0830 
  9 O        4.6650     0.9120    -2.5540 O.2   1 <1>  -0.5700 
 10 N        6.0170     1.9870    -1.2070 N.am  1 <1>  -0.7300 
 11 O        3.5570     3.7510    -0.4150 O.3   1 <1>  -0.3630 
 12 C        6.4410     2.7200     0.0080 C.3   1 <1>   0.1400 
 13 C        3.0980     4.9890     0.0820 C.3   1 <1>   0.1200 
 14 C        7.6900     2.0940     0.6410 C.3   1 <1>   0.1400 
 15 C        3.6120     6.1260    -0.8030 C.3   1 <1>   0.0960 
 16 N        8.8990     2.2840    -0.1990 N.am  1 <1>  -0.7300 
 17 N        5.0820     6.1420    -0.9310 N.pl3 1 <1>   0.3140 
 18 C        9.7640     3.3270    -0.2080 C.2   1 <1>   0.5690 
 19 N        5.6910     5.8540    -2.0820 N.2   1 <1>  -0.4180 
 20 C        5.9900     6.5790    -0.0500 C.2   1 <1>  -0.3020 
 21 O       10.8300     3.2090    -0.7550 O.2   1 <1>  -0.5700 
 22 C        9.4200     4.6490     0.4670 C.3   1 <1>  -0.0990 
 23 N        6.9470     6.0900    -1.9530 N.2   1 <1>  -0.2270 
 24 C        7.1580     6.5440    -0.7130 C.2   1 <1>   0.0460 
 25 C        9.5940     5.8510    -0.4820 C.3   1 <1>  -0.1600 
 26 C        8.5500     6.9570    -0.2540 C.3   1 <1>   0.0210 
 27 H        3.6800    -0.7490    -0.4810 H     1 <1>   0.1500 
 28 H        0.9110     1.1010     2.1720 H     1 <1>   0.1500 
 29 H        1.6610     3.3140     1.4380 H     1 <1>   0.1500 
 30 H        6.6440     2.0710    -2.0120 H     1 <1>   0.3700 
 31 H        5.6550     2.7030     0.7390 H     1 <1>   0.0800 
 32 H        6.6290     3.7460    -0.2520 H     1 <1>   0.0800 
 33 H        3.4430     5.1000     1.0950 H     1 <1>   0.0800 
 34 H        2.0230     4.9870     0.0590 H     1 <1>   0.0800 
 35 H        7.5230     1.0420     0.7970 H     1 <1>   0.0800 
 36 H        7.8590     2.5420     1.6040 H     1 <1>   0.0800 
 37 H        3.2990     7.0710    -0.4010 H     1 <1>   0.0800 
 38 H        3.1890     6.0270    -1.7870 H     1 <1>   0.0800 
 39 H        9.1810     1.4800    -0.7650 H     1 <1>   0.3700 
 40 H        5.7590     6.8940     0.9490 H     1 <1>   0.1500 
 41 H       10.0630     4.7720     1.3190 H     1 <1>   0.0800 
 42 H        8.4120     4.6260     0.8270 H     1 <1>   0.0800 
 43 H        9.5240     5.5180    -1.5050 H     1 <1>   0.0800 
 44 H       10.5840     6.2530    -0.3540 H     1 <1>   0.0800 
 45 H        8.5260     7.2380     0.7840 H     1 <1>   0.0800 
 46 H        8.8380     7.8230    -0.8230 H     1 <1>   0.0800 
@<TRIPOS>BOND
  1   1   2  1   
  2   2   3  ar  
  3   2   4  ar  
  4   3   5  ar  
  5   3  27  1   
  6   4   6  ar  
  7   4  28  1   
  8   5   7  1   
  9   5   8  ar  
 10   6   8  ar  
 11   6  29  1   
 12   7   9  2   
 13   7  10  am  
 14   8  11  1   
 15  10  12  1   
 16  10  30  1   
 17  11  13  1   
 18  12  14  1   
 19  12  31  1   
 20  12  32  1   
 21  13  15  1   
 22  13  33  1   
 23  13  34  1   
 24  14  16  1   
 25  14  35  1   
 26  14  36  1   
 27  15  17  1   
 28  15  37  1   
 29  15  38  1   
 30  16  18  am  
 31  16  39  1   
 32  17  19  1   
 33  17  20  1   
 34  18  21  2   
 35  18  22  1   
 36  19  23  2   
 37  20  24  2   
 38  20  40  1   
 39  22  25  1   
 40  22  41  1   
 41  22  42  1   
 42  23  24  1   
 43  24  26  1   
 44  25  26  1   
 45  25  43  1   
 46  25  44  1   
 47  26  45  1   
 48  26  46  1   
@<TRIPOS>SUBSTRUCTURE
  1 ****  12 GROUP 4 **** **** 0

# MOE 2024.06 (io_trps.svl 2023.06)
