@<TRIPOS>MOLECULE
NONAME
36 37 1 0 0 
SMALL
USER_CHARGES


@<TRIPOS>ATOM
  1 O       -1.3960    -0.0870    -0.3450 O.2   1 <1>  -0.5700 
  2 C       -2.1630     0.7480     0.0830 C.2   1 <1>   0.6300 
  3 N       -3.1900     0.3950     0.9170 N.am  1 <1>  -0.6600 
  4 C       -1.9970     2.1960    -0.3780 C.3   1 <1>  -0.1000 
  5 C       -3.2780    -1.0000     1.4390 C.3   1 <1>   0.3200 
  6 C       -4.3760     1.2570     1.1960 C.3   1 <1>   0.1400 
  7 C       -0.6840     2.9270    -0.3810 C.3   1 <1>  -0.1900 
  8 C       -1.7220     3.3050     0.6170 C.3   1 <1>  -0.2000 
  9 C       -3.9550    -1.9020     0.4230 C.2   1 <1>   0.0060 
 10 C       -5.4280     1.1110     0.0900 C.3   1 <1>   0.1200 
 11 C       -0.3950     3.8930    -1.5340 C.3   1 <1>  -0.1450 
 12 C        0.5940     2.2510     0.1310 C.3   1 <1>  -0.1450 
 13 N       -5.0940    -2.4960     0.5900 N.2   1 <1>  -0.5650 
 14 N       -3.3880    -2.1440    -0.7780 N.pl3 1 <1>   0.0330 
 15 O       -6.5040     1.9390     0.3740 O.3   1 <1>  -0.6800 
 16 C       -5.2770    -3.1640    -0.5660 C.2   1 <1>   0.0770 
 17 C       -4.2460    -2.9600    -1.4140 C.2   1 <1>  -0.3020 
 18 H       -2.6700     2.4130    -1.1860 H     1 <1>   0.1000 
 19 H       -3.8330    -1.0170     2.3610 H     1 <1>   0.0800 
 20 H       -2.2900    -1.3750     1.6440 H     1 <1>   0.0800 
 21 H       -4.0770     2.2870     1.2610 H     1 <1>   0.0800 
 22 H       -4.8080     0.9770     2.1410 H     1 <1>   0.0800 
 23 H       -1.5660     3.0450     1.6500 H     1 <1>   0.1000 
 24 H       -2.2470     4.2370     0.5050 H     1 <1>   0.1000 
 25 H       -5.7900     0.1000     0.0190 H     1 <1>   0.0800 
 26 H       -5.0210     1.4180    -0.8570 H     1 <1>   0.0800 
 27 H       -1.2960     4.3820    -1.8620 H     1 <1>   0.0800 
 28 H        0.0240     3.3570    -2.3670 H     1 <1>   0.0800 
 29 H        0.3050     4.6470    -1.2210 H     1 <1>   0.0800 
 30 H        0.3870     1.6190     0.9760 H     1 <1>   0.0800 
 31 H        1.3140     2.9910     0.4310 H     1 <1>   0.0800 
 32 H        1.0240     1.6430    -0.6460 H     1 <1>   0.0800 
 33 H       -2.4960    -1.7400    -1.0980 H     1 <1>   0.2700 
 34 H       -7.0880     1.5260     1.0400 H     1 <1>   0.4000 
 35 H       -6.1560    -3.7670    -0.7290 H     1 <1>   0.1500 
 36 H       -4.0800    -3.3380    -2.4070 H     1 <1>   0.1500 
@<TRIPOS>BOND
  1   1   2  2   
  2   2   3  am  
  3   2   4  1   
  4   3   5  1   
  5   3   6  1   
  6   4   7  1   
  7   4   8  1   
  8   4  18  1   
  9   5   9  1   
 10   5  19  1   
 11   5  20  1   
 12   6  10  1   
 13   6  21  1   
 14   6  22  1   
 15   7   8  1   
 16   7  11  1   
 17   7  12  1   
 18   8  23  1   
 19   8  24  1   
 20   9  13  2   
 21   9  14  1   
 22  10  15  1   
 23  10  25  1   
 24  10  26  1   
 25  11  27  1   
 26  11  28  1   
 27  11  29  1   
 28  12  30  1   
 29  12  31  1   
 30  12  32  1   
 31  13  16  1   
 32  14  17  1   
 33  14  33  1   
 34  15  34  1   
 35  16  17  2   
 36  16  35  1   
 37  17  36  1   
@<TRIPOS>SUBSTRUCTURE
  1 ****   3 GROUP 4 **** **** 0

# MOE 2024.06 (io_trps.svl 2023.06)
