@<TRIPOS>MOLECULE
NONAME
44 46 1 0 0 
SMALL
USER_CHARGES


@<TRIPOS>ATOM
  1 O       -1.2800    -1.2280     1.0820 O.3   1 <1>  -0.3630 
  2 C       -0.9350    -2.4260     0.5530 C.ar  1 <1>   0.0830 
  3 C       -0.3120    -0.3060     1.5310 C.3   1 <1>   0.0400 
  4 C       -1.9470    -3.2680     0.1770 C.ar  1 <1>  -0.1500 
  5 C        0.3980    -2.8330     0.3760 C.ar  1 <1>  -0.1500 
  6 C       -1.6980    -4.5290    -0.3810 C.ar  1 <1>   0.3100 
  7 C        0.6730    -4.0610    -0.1640 C.ar  1 <1>  -0.1500 
  8 N       -2.7660    -5.2900    -0.7210 N.ar  1 <1>  -0.6200 
  9 C       -0.3550    -4.9440    -0.5560 C.ar  1 <1>   0.0000 
 10 C       -2.5240    -6.4610    -1.2350 C.ar  1 <1>   0.4100 
 11 C       -0.1320    -6.2220    -1.1150 C.ar  1 <1>  -0.1430 
 12 N       -3.6020    -7.2550    -1.5540 N.pl3 1 <1>  -0.8380 
 13 C       -1.2270    -6.9590    -1.4450 C.ar  1 <1>  -0.1500 
 14 C        1.2710    -6.7650    -1.3440 C.3   1 <1>  -0.0970 
 15 C       -3.8960    -8.4000    -0.6400 C.3   1 <1>   0.2090 
 16 C       -4.7630    -6.6490    -2.2600 C.3   1 <1>   0.2090 
 17 C       -5.3300    -8.3560    -0.0760 C.3   1 <1>  -0.0800 
 18 C       -5.8520    -6.1820    -1.2810 C.3   1 <1>  -0.1600 
 19 C       -5.8370    -6.9120     0.0680 C.3   1 <1>   0.2000 
 20 C       -5.4080    -9.0950     1.2660 C.3   1 <1>   0.1200 
 21 O       -4.9980    -6.2170     0.9130 O.3   1 <1>  -0.6800 
 22 O       -5.0580   -10.4250     1.0830 O.3   1 <1>  -0.6800 
 23 H       -0.8270     0.5550     1.9190 H     1 <1>   0.0800 
 24 H        0.3070    -0.0170     0.7010 H     1 <1>   0.0800 
 25 H        0.2710    -0.7640     2.3100 H     1 <1>   0.0800 
 26 H       -2.9690    -2.9700     0.3090 H     1 <1>   0.1500 
 27 H        1.2080    -2.1900     0.6610 H     1 <1>   0.1500 
 28 H        1.6970    -4.3600    -0.2930 H     1 <1>   0.1500 
 29 H       -1.1460    -7.9380    -1.8760 H     1 <1>   0.1500 
 30 H        1.2340    -7.7500    -1.7720 H     1 <1>   0.0800 
 31 H        1.8010    -6.8220    -0.4100 H     1 <1>   0.0800 
 32 H        1.8090    -6.1230    -2.0180 H     1 <1>   0.0800 
 33 H       -3.7390    -9.3270    -1.1640 H     1 <1>   0.0800 
 34 H       -3.1980    -8.3710     0.1810 H     1 <1>   0.0800 
 35 H       -4.4310    -5.8170    -2.8590 H     1 <1>   0.0800 
 36 H       -5.1710    -7.3900    -2.9260 H     1 <1>   0.0800 
 37 H       -5.9820    -8.8560    -0.7670 H     1 <1>   0.0800 
 38 H       -6.8030    -6.3440    -1.7530 H     1 <1>   0.0800 
 39 H       -5.7620    -5.1210    -1.1210 H     1 <1>   0.0800 
 40 H       -6.8180    -6.8930     0.5110 H     1 <1>   0.0800 
 41 H       -6.4020    -9.0580     1.6770 H     1 <1>   0.0800 
 42 H       -4.7210    -8.6630     1.9770 H     1 <1>   0.0800 
 43 H       -4.1820    -5.9830     0.3950 H     1 <1>   0.4000 
 44 H       -5.7510   -10.9020     0.5880 H     1 <1>   0.4000 
@<TRIPOS>BOND
  1   1   2  1   
  2   1   3  1   
  3   2   4  ar  
  4   2   5  ar  
  5   3  23  1   
  6   3  24  1   
  7   3  25  1   
  8   4   6  ar  
  9   4  26  1   
 10   5   7  ar  
 11   5  27  1   
 12   6   8  ar  
 13   6   9  ar  
 14   7   9  ar  
 15   7  28  1   
 16   8  10  ar  
 17   9  11  ar  
 18  10  12  1   
 19  10  13  ar  
 20  11  13  ar  
 21  11  14  1   
 22  12  15  1   
 23  12  16  1   
 24  13  29  1   
 25  14  30  1   
 26  14  31  1   
 27  14  32  1   
 28  15  17  1   
 29  15  33  1   
 30  15  34  1   
 31  16  18  1   
 32  16  35  1   
 33  16  36  1   
 34  17  19  1   
 35  17  20  1   
 36  17  37  1   
 37  18  19  1   
 38  18  38  1   
 39  18  39  1   
 40  19  21  1   
 41  19  40  1   
 42  20  22  1   
 43  20  41  1   
 44  20  42  1   
 45  21  43  1   
 46  22  44  1   
@<TRIPOS>SUBSTRUCTURE
  1 ****   8 GROUP 4 **** **** 0

# MOE 2024.06 (io_trps.svl 2023.06)
