@<TRIPOS>MOLECULE
NONAME
53 55 1 0 0 
SMALL
USER_CHARGES


@<TRIPOS>ATOM
  1 CL       6.5440    -4.0120    -1.7290 Cl    1 <1>  -0.1770 
  2 C        5.2940    -4.0260    -0.5100 C.ar  1 <1>   0.1770 
  3 C        3.9750    -3.9090    -0.8890 C.ar  1 <1>  -0.1500 
  4 C        5.6480    -4.1640     0.8180 C.ar  1 <1>  -0.1500 
  5 C        2.9560    -3.9500     0.0620 C.ar  1 <1>   0.0860 
  6 C        4.6560    -4.1830     1.7810 C.ar  1 <1>  -0.1500 
  7 C        3.3140    -4.0760     1.4120 C.ar  1 <1>   0.0830 
  8 C        1.5780    -3.8880    -0.3780 C.2   1 <1>   0.5440 
  9 O        2.3140    -4.0990     2.3280 O.3   1 <1>  -0.3630 
 10 O        1.1770    -2.8510    -0.8770 O.2   1 <1>  -0.5700 
 11 N        0.7090    -4.9640    -0.3100 N.am  1 <1>  -0.6600 
 12 C        2.5410    -4.3300     3.7000 C.3   1 <1>   0.0400 
 13 C        1.1300    -6.3140     0.2210 C.3   1 <1>   0.3640 
 14 C       -0.7480    -4.7360    -0.5370 C.3   1 <1>   0.1400 
 15 C        2.3670    -6.7840    -0.5530 C.ar  1 <1>  -0.1430 
 16 C        0.0500    -7.4420     0.1620 C.3   1 <1>   0.2000 
 17 C       -1.4800    -6.0220    -0.9130 C.3   1 <1>   0.1200 
 18 C        3.5070    -7.1810     0.1290 C.ar  1 <1>  -0.1500 
 19 C        2.3830    -6.7910    -1.9400 C.ar  1 <1>  -0.1500 
 20 O       -1.2680    -6.9690     0.0820 O.3   1 <1>  -0.5600 
 21 C        0.0870    -8.3620     1.3940 C.3   1 <1>   0.1200 
 22 C        4.6610    -7.5530    -0.5390 C.ar  1 <1>   0.0830 
 23 C        3.5210    -7.1740    -2.6270 C.ar  1 <1>  -0.1500 
 24 O        1.3670    -8.8410     1.6540 O.3   1 <1>  -0.6800 
 25 O        5.7060    -7.8820     0.2730 O.3   1 <1>  -0.3630 
 26 C        4.6730    -7.5490    -1.9440 C.ar  1 <1>   0.0830 
 27 C        7.0440    -7.7350    -0.1450 C.3   1 <1>   0.0400 
 28 O        5.7850    -7.9200    -2.6370 O.3   1 <1>  -0.3630 
 29 C        6.1030    -7.2810    -3.8550 C.3   1 <1>   0.0400 
 30 H        3.7240    -3.8020    -1.9290 H     1 <1>   0.1500 
 31 H        6.6850    -4.2550     1.0880 H     1 <1>   0.1500 
 32 H        4.9470    -4.2860     2.8090 H     1 <1>   0.1500 
 33 H        1.5880    -4.3390     4.1990 H     1 <1>   0.0800 
 34 H        3.1500    -3.5350     4.0930 H     1 <1>   0.0800 
 35 H        3.0240    -5.2840     3.8190 H     1 <1>   0.0800 
 36 H        1.3990    -6.1830     1.2540 H     1 <1>   0.0800 
 37 H       -1.1820    -4.3290     0.3600 H     1 <1>   0.0800 
 38 H       -0.8870    -4.0180    -1.3260 H     1 <1>   0.0800 
 39 H        0.2120    -8.0430    -0.7150 H     1 <1>   0.0800 
 40 H       -1.1340    -6.4080    -1.8560 H     1 <1>   0.0800 
 41 H       -2.5380    -5.8400    -0.9740 H     1 <1>   0.0800 
 42 H        3.5180    -7.1900     1.2050 H     1 <1>   0.1500 
 43 H        1.5090    -6.4850    -2.4890 H     1 <1>   0.1500 
 44 H       -0.5630    -9.2070     1.2470 H     1 <1>   0.0800 
 45 H       -0.2330    -7.8160     2.2650 H     1 <1>   0.0800 
 46 H        3.4920    -7.1780    -3.7000 H     1 <1>   0.1500 
 47 H        1.7130    -9.3660     0.9040 H     1 <1>   0.4000 
 48 H        7.6720    -7.7570     0.7270 H     1 <1>   0.0800 
 49 H        7.1520    -6.7930    -0.6540 H     1 <1>   0.0800 
 50 H        7.2960    -8.5530    -0.7950 H     1 <1>   0.0800 
 51 H        7.1270    -7.5070    -4.0930 H     1 <1>   0.0800 
 52 H        5.9810    -6.2190    -3.7360 H     1 <1>   0.0800 
 53 H        5.4590    -7.6590    -4.6280 H     1 <1>   0.0800 
@<TRIPOS>BOND
  1   1   2  1   
  2   2   3  ar  
  3   2   4  ar  
  4   3   5  ar  
  5   3  30  1   
  6   4   6  ar  
  7   4  31  1   
  8   5   7  ar  
  9   5   8  1   
 10   6   7  ar  
 11   6  32  1   
 12   7   9  1   
 13   8  10  2   
 14   8  11  am  
 15   9  12  1   
 16  11  13  1   
 17  11  14  1   
 18  12  33  1   
 19  12  34  1   
 20  12  35  1   
 21  13  15  1   
 22  13  16  1   
 23  13  36  1   
 24  14  17  1   
 25  14  37  1   
 26  14  38  1   
 27  15  18  ar  
 28  15  19  ar  
 29  16  20  1   
 30  16  21  1   
 31  16  39  1   
 32  17  20  1   
 33  17  40  1   
 34  17  41  1   
 35  18  22  ar  
 36  18  42  1   
 37  19  23  ar  
 38  19  43  1   
 39  21  24  1   
 40  21  44  1   
 41  21  45  1   
 42  22  25  1   
 43  22  26  ar  
 44  23  26  ar  
 45  23  46  1   
 46  24  47  1   
 47  25  27  1   
 48  26  28  1   
 49  27  48  1   
 50  27  49  1   
 51  27  50  1   
 52  28  29  1   
 53  29  51  1   
 54  29  52  1   
 55  29  53  1   
@<TRIPOS>SUBSTRUCTURE
  1 ****  15 GROUP 4 **** **** 0

# MOE 2024.06 (io_trps.svl 2023.06)
