@<TRIPOS>MOLECULE
NONAME
45 47 1 0 0 
SMALL
USER_CHARGES


@<TRIPOS>ATOM
  1 O        1.6650    -1.2530     1.4660 O.3   1 <1>  -0.0190 
  2 N        1.8150     0.0190     1.6750 N.2   1 <1>  -0.4100 
  3 C        1.6070    -1.3540     0.1600 C.2   1 <1>   0.2980 
  4 C        1.8420     0.5860     0.5360 C.2   1 <1>   0.3350 
  5 N        1.7040    -0.2580    -0.4780 N.2   1 <1>  -0.5650 
  6 C        1.4300    -2.7270    -0.4660 C.3   1 <1>   0.1000 
  7 C        2.0050     2.0790     0.3140 C.3   1 <1>   0.0210 
  8 C        0.1000    -3.3430    -0.0100 C.3   1 <1>   0.2090 
  9 C        2.6160    -3.6540    -0.1360 C.3   1 <1>  -0.1600 
 10 C        3.4750     2.5400     0.3880 C.3   1 <1>  -0.0800 
 11 N       -0.0640    -4.7090    -0.5810 N.pl3 1 <1>  -0.8380 
 12 C        2.3740    -5.0690    -0.6890 C.3   1 <1>  -0.1600 
 13 C        3.5600     4.0690     0.2950 C.3   1 <1>  -0.2400 
 14 C        4.3320     1.9100    -0.7190 C.3   1 <1>  -0.2400 
 15 C       -1.3540    -5.2140    -0.5960 C.ar  1 <1>   0.4100 
 16 C        1.0350    -5.6420    -0.2120 C.3   1 <1>   0.2090 
 17 N       -1.6740    -6.0710     0.3640 N.ar  1 <1>  -0.6200 
 18 C       -2.2720    -4.8110    -1.5800 C.ar  1 <1>   0.1600 
 19 C       -2.9250    -6.4870     0.2850 C.ar  1 <1>   0.1670 
 20 N       -3.5250    -5.2170    -1.6660 N.ar  1 <1>  -0.6200 
 21 C       -3.8200    -6.0720    -0.6970 C.ar  1 <1>   0.1600 
 22 C       -3.3570    -7.4710     1.3530 C.3   1 <1>  -0.0970 
 23 H        1.3800    -2.5970    -1.5330 H     1 <1>   0.0800 
 24 H        1.4360     2.5880     1.0710 H     1 <1>   0.0800 
 25 H        1.5850     2.3390    -0.6410 H     1 <1>   0.0800 
 26 H       -0.7150    -2.7140    -0.3250 H     1 <1>   0.0800 
 27 H        0.0750    -3.4100     1.0650 H     1 <1>   0.0800 
 28 H        2.7410    -3.7120     0.9320 H     1 <1>   0.0800 
 29 H        3.5200    -3.2480    -0.5550 H     1 <1>   0.0800 
 30 H        3.8750     2.2370     1.3420 H     1 <1>   0.0800 
 31 H        3.1690    -5.7210    -0.3750 H     1 <1>   0.0800 
 32 H        2.3740    -5.0460    -1.7650 H     1 <1>   0.0800 
 33 H        3.1720     4.4160    -0.6470 H     1 <1>   0.0800 
 34 H        4.5830     4.3920     0.3830 H     1 <1>   0.0800 
 35 H        2.9960     4.5260     1.0900 H     1 <1>   0.0800 
 36 H        3.9420     2.1590    -1.6910 H     1 <1>   0.0800 
 37 H        4.3490     0.8390    -0.6220 H     1 <1>   0.0800 
 38 H        5.3460     2.2640    -0.6550 H     1 <1>   0.0800 
 39 H        0.8620    -6.6020    -0.6700 H     1 <1>   0.0800 
 40 H        1.0460    -5.7760     0.8570 H     1 <1>   0.0800 
 41 H       -1.9200    -4.1190    -2.3210 H     1 <1>   0.1500 
 42 H       -4.8230    -6.4600    -0.6870 H     1 <1>   0.1500 
 43 H       -2.7440    -8.3520     1.2980 H     1 <1>   0.0800 
 44 H       -4.3860    -7.7560     1.2290 H     1 <1>   0.0800 
 45 H       -3.2340    -7.0250     2.3230 H     1 <1>   0.0800 
@<TRIPOS>BOND
  1   1   2  1   
  2   1   3  1   
  3   2   4  2   
  4   3   5  2   
  5   3   6  1   
  6   4   5  1   
  7   4   7  1   
  8   6   8  1   
  9   6   9  1   
 10   6  23  1   
 11   7  10  1   
 12   7  24  1   
 13   7  25  1   
 14   8  11  1   
 15   8  26  1   
 16   8  27  1   
 17   9  12  1   
 18   9  28  1   
 19   9  29  1   
 20  10  13  1   
 21  10  14  1   
 22  10  30  1   
 23  11  15  1   
 24  11  16  1   
 25  12  16  1   
 26  12  31  1   
 27  12  32  1   
 28  13  33  1   
 29  13  34  1   
 30  13  35  1   
 31  14  36  1   
 32  14  37  1   
 33  14  38  1   
 34  15  17  ar  
 35  15  18  ar  
 36  16  39  1   
 37  16  40  1   
 38  17  19  ar  
 39  18  20  ar  
 40  18  41  1   
 41  19  21  ar  
 42  19  22  1   
 43  20  21  ar  
 44  21  42  1   
 45  22  43  1   
 46  22  44  1   
 47  22  45  1   
@<TRIPOS>SUBSTRUCTURE
  1 ****   8 GROUP 4 **** **** 0

# MOE 2024.06 (io_trps.svl 2023.06)
