@<TRIPOS>MOLECULE
NONAME
60 62 1 0 0 
SMALL
USER_CHARGES


@<TRIPOS>ATOM
  1 O        0.0610    -0.3060    -1.0010 O.3   1 <1>  -0.5600 
  2 C        1.4280    -0.6040    -1.1820 C.3   1 <1>   0.2000 
  3 C       -0.2540     1.0540    -0.9110 C.3   1 <1>   0.1200 
  4 C        2.2900     0.0270    -0.0560 C.3   1 <1>   0.5660 
  5 C        1.5970    -2.1320    -1.1970 C.3   1 <1>   0.1200 
  6 C        0.4760     1.6950     0.2830 C.3   1 <1>   0.3430 
  7 N        1.9450     1.4590     0.1890 N.4   1 <1>  -0.9590 
  8 C        3.7810    -0.0790    -0.3560 C.ar  1 <1>  -0.1430 
  9 O        1.4750    -2.6440     0.0930 O.3   1 <1>  -0.6800 
 10 C        2.7310     2.0810     1.2850 C.3   1 <1>   0.5240 
 11 C        4.5710    -0.8850     0.4520 C.ar  1 <1>  -0.1500 
 12 C        4.3730     0.6150    -1.4050 C.ar  1 <1>  -0.1500 
 13 C        3.5680     3.1780     0.6350 C.2   1 <1>   0.1080 
 14 C        5.9330    -0.9900     0.2320 C.ar  1 <1>   0.0830 
 15 C        5.7370     0.5240    -1.6220 C.ar  1 <1>  -0.1500 
 16 N        3.2860     3.6810    -0.5370 N.2   1 <1>  -0.7070 
 17 C        4.7190     3.7330     1.1810 C.2   1 <1>  -0.1500 
 18 O        6.6250    -1.8210     1.0460 O.3   1 <1>  -0.3630 
 19 C        6.5290    -0.2560    -0.7990 C.ar  1 <1>   0.0830 
 20 N        4.2660     4.5840    -0.7610 N.pl3 1 <1>   0.3000 
 21 C        5.1430     4.6250     0.2630 C.2   1 <1>  -0.3320 
 22 C        7.1540    -2.9830     0.4440 C.3   1 <1>   0.0400 
 23 O        7.8630    -0.2540    -1.0470 O.3   1 <1>  -0.3630 
 24 C        6.3670     5.5290     0.2960 C.3   1 <1>   0.0200 
 25 C        8.7200     0.1410     0.0030 C.3   1 <1>   0.0400 
 26 C        7.3870     5.1660    -0.7990 C.3   1 <1>  -0.0800 
 27 C        7.9090     3.7300    -0.6360 C.3   1 <1>  -0.2400 
 28 C        8.5660     6.1460    -0.7730 C.3   1 <1>  -0.2400 
 29 H        1.7210    -0.2120    -2.1390 H     1 <1>   0.0800 
 30 H        0.0140     1.5370    -1.8350 H     1 <1>   0.0800 
 31 H       -1.3190     1.1330    -0.7780 H     1 <1>   0.0800 
 32 H        2.0890    -0.5310     0.8440 H     1 <1>   0.0800 
 33 H        2.5720    -2.4020    -1.5680 H     1 <1>   0.0800 
 34 H        0.8440    -2.5810    -1.8230 H     1 <1>   0.0800 
 35 H        0.0900     1.2650     1.1930 H     1 <1>   0.0800 
 36 H        0.2750     2.7540     0.2980 H     1 <1>   0.0800 
 37 H        2.3000     2.0050    -0.6180 H     1 <1>   0.4500 
 38 H        1.3350    -3.6140     0.0670 H     1 <1>   0.4000 
 39 H        2.0810     2.5120     2.0280 H     1 <1>   0.0800 
 40 H        3.3810     1.3600     1.7530 H     1 <1>   0.0800 
 41 H        4.1420    -1.4530     1.2600 H     1 <1>   0.1500 
 42 H        3.7930     1.2430    -2.0600 H     1 <1>   0.1500 
 43 H        6.1990     1.0670    -2.4270 H     1 <1>   0.1500 
 44 H        5.1720     3.4890     2.1280 H     1 <1>   0.1500 
 45 H        4.3200     5.1540    -1.6160 H     1 <1>   0.2700 
 46 H        7.6440    -3.5630     1.2060 H     1 <1>   0.0800 
 47 H        7.8630    -2.7040    -0.3150 H     1 <1>   0.0800 
 48 H        6.3480    -3.5480     0.0110 H     1 <1>   0.0800 
 49 H        6.0520     6.5510     0.1720 H     1 <1>   0.0800 
 50 H        6.8380     5.4520     1.2610 H     1 <1>   0.0800 
 51 H        9.6830     0.3670    -0.4180 H     1 <1>   0.0800 
 52 H        8.8130    -0.6630     0.7090 H     1 <1>   0.0800 
 53 H        8.3120     1.0130     0.4810 H     1 <1>   0.0800 
 54 H        6.9090     5.2460    -1.7600 H     1 <1>   0.0800 
 55 H        8.3890     3.6090     0.3190 H     1 <1>   0.0800 
 56 H        8.6210     3.5010    -1.4090 H     1 <1>   0.0800 
 57 H        7.1030     3.0220    -0.7060 H     1 <1>   0.0800 
 58 H        9.0830     6.0950     0.1700 H     1 <1>   0.0800 
 59 H        8.2210     7.1540    -0.9220 H     1 <1>   0.0800 
 60 H        9.2640     5.9110    -1.5580 H     1 <1>   0.0800 
@<TRIPOS>BOND
  1   1   2  1   
  2   1   3  1   
  3   2   4  1   
  4   2   5  1   
  5   2  29  1   
  6   3   6  1   
  7   3  30  1   
  8   3  31  1   
  9   4   7  1   
 10   4   8  1   
 11   4  32  1   
 12   5   9  1   
 13   5  33  1   
 14   5  34  1   
 15   6   7  1   
 16   6  35  1   
 17   6  36  1   
 18   7  10  1   
 19   7  37  1   
 20   8  11  ar  
 21   8  12  ar  
 22   9  38  1   
 23  10  13  1   
 24  10  39  1   
 25  10  40  1   
 26  11  14  ar  
 27  11  41  1   
 28  12  15  ar  
 29  12  42  1   
 30  13  16  2   
 31  13  17  1   
 32  14  18  1   
 33  14  19  ar  
 34  15  19  ar  
 35  15  43  1   
 36  16  20  1   
 37  17  21  2   
 38  17  44  1   
 39  18  22  1   
 40  19  23  1   
 41  20  21  1   
 42  20  45  1   
 43  21  24  1   
 44  22  46  1   
 45  22  47  1   
 46  22  48  1   
 47  23  25  1   
 48  24  26  1   
 49  24  49  1   
 50  24  50  1   
 51  25  51  1   
 52  25  52  1   
 53  25  53  1   
 54  26  27  1   
 55  26  28  1   
 56  26  54  1   
 57  27  55  1   
 58  27  56  1   
 59  27  57  1   
 60  28  58  1   
 61  28  59  1   
 62  28  60  1   
@<TRIPOS>SUBSTRUCTURE
  1 ****  12 GROUP 4 **** **** 0

# MOE 2024.06 (io_trps.svl 2023.06)
