@<TRIPOS>MOLECULE
NONAME
25 26 1 0 0 
SMALL
USER_CHARGES


@<TRIPOS>ATOM
  1 N       -0.0810    -0.4330     0.4940 N.4   1 <1>  -0.8970 
  2 C        1.1290    -0.9930    -0.2330 C.3   1 <1>   0.4720 
  3 C       -0.9030    -0.6560    -0.7540 C.3   1 <1>   0.4720 
  4 C       -0.1110     0.9800     0.9920 C.3   1 <1>   0.2630 
  5 C        2.1120    -0.0350    -0.9670 C.3   1 <1>   0.3430 
  6 C        1.9970    -1.8730     0.6650 C.3   1 <1>  -0.1600 
  7 C        0.1300    -1.7360    -1.1580 C.3   1 <1>   0.0000 
  8 N        3.4920    -0.4170    -0.5220 N.4   1 <1>  -0.9060 
  9 C        3.4070    -1.7740     0.0830 C.3   1 <1>   0.3430 
 10 H       -0.4220    -1.0930     1.2120 H     1 <1>   0.4500 
 11 H       -0.8820     0.2080    -1.3930 H     1 <1>   0.0000 
 12 H       -1.8850    -1.0340    -0.5350 H     1 <1>   0.0000 
 13 H        0.1370     1.6730     0.2040 H     1 <1>   0.0800 
 14 H        0.5850     1.1080     1.8050 H     1 <1>   0.0800 
 15 H       -1.0980     1.2220     1.3540 H     1 <1>   0.0800 
 16 H        1.9090     0.9960    -0.7310 H     1 <1>   0.0800 
 17 H        2.0250    -0.1790    -2.0330 H     1 <1>   0.0800 
 18 H        1.6740    -2.8990     0.6920 H     1 <1>   0.0800 
 19 H        2.0160    -1.4850     1.6690 H     1 <1>   0.0800 
 20 H       -0.1450    -2.7160    -0.8080 H     1 <1>   0.0000 
 21 H        0.3870    -1.7200    -2.2020 H     1 <1>   0.0000 
 22 H        3.8580     0.2490     0.1770 H     1 <1>   0.4500 
 23 H        4.1710    -0.4050    -1.3020 H     1 <1>   0.4500 
 24 H        3.5340    -2.5220    -0.6860 H     1 <1>   0.0800 
 25 H        4.1640    -1.9230     0.8390 H     1 <1>   0.0800 
@<TRIPOS>BOND
  1   1   2  1   
  2   1   3  1   
  3   1   4  1   
  4   1  10  1   
  5   2   5  1   
  6   2   6  1   
  7   2   7  1   
  8   3   7  1   
  9   3  11  1   
 10   3  12  1   
 11   4  13  1   
 12   4  14  1   
 13   4  15  1   
 14   5   8  1   
 15   5  16  1   
 16   5  17  1   
 17   6   9  1   
 18   6  18  1   
 19   6  19  1   
 20   7  20  1   
 21   7  21  1   
 22   8   9  1   
 23   8  22  1   
 24   8  23  1   
 25   9  24  1   
 26   9  25  1   
@<TRIPOS>SUBSTRUCTURE
  1 ****   2 GROUP 4 **** **** 0

# MOE 2024.06 (io_trps.svl 2023.06)
