@<TRIPOS>MOLECULE
NONAME
44 46 1 0 0 
SMALL
USER_CHARGES


@<TRIPOS>ATOM
  1 O       -3.7780    -0.6290     2.0680 O.2   1 <1>  -0.5700 
  2 C       -3.1220     0.0110     1.2720 C.2   1 <1>   0.5690 
  3 N       -2.9590    -0.4390    -0.0170 N.am  1 <1>  -0.6600 
  4 C       -2.5020     1.3420     1.7300 C.3   1 <1>  -0.0190 
  5 C       -3.4600    -1.7860    -0.3900 C.3   1 <1>   0.1400 
  6 C       -2.6940     0.4100    -1.2150 C.3   1 <1>   0.1400 
  7 C       -1.9790     1.2800     3.1770 C.3   1 <1>  -0.2400 
  8 C       -3.5030     2.5020     1.5960 C.3   1 <1>  -0.2400 
  9 C       -4.8370    -1.5990    -1.0350 C.3   1 <1>   0.2890 
 10 C       -3.9830     0.5410    -2.0530 C.3   1 <1>  -0.1600 
 11 N       -5.4960    -2.9030    -1.2570 N.pl3 1 <1>  -0.8690 
 12 C       -4.6770    -0.8110    -2.3380 C.3   1 <1>  -0.1600 
 13 C       -6.0640    -3.6720    -0.2990 C.2   1 <1>   0.2710 
 14 N       -6.5900    -4.8130    -0.7450 N.2   1 <1>  -0.6210 
 15 C       -6.0940    -3.3260     1.0320 C.2   1 <1>  -0.1410 
 16 C       -7.1400    -5.6110     0.1140 C.2   1 <1>   0.9190 
 17 C       -6.6810    -4.2140     1.8950 C.cat 1 <1>   0.7910 
 18 N       -7.2050    -5.3500     1.4400 N.pl3 1 <1>  -0.6690 
 19 N       -7.6650    -6.7460    -0.3400 N.pl3 1 <1>  -0.8500 
 20 N       -6.8670    -4.2120     3.2230 N.pl3 1 <1>  -0.3930 
 21 C       -7.6970    -5.9980     2.5450 C.2   1 <1>   0.5030 
 22 N       -7.5100    -5.3410     3.6290 N.2   1 <1>  -0.2600 
 23 H       -1.6520     1.5480     1.1070 H     1 <1>   0.0800 
 24 H       -3.5270    -2.4150     0.4780 H     1 <1>   0.0800 
 25 H       -2.7820    -2.2460    -1.0860 H     1 <1>   0.0800 
 26 H       -1.9230    -0.0560    -1.8060 H     1 <1>   0.0800 
 27 H       -2.3470     1.3880    -0.9350 H     1 <1>   0.0800 
 28 H       -2.7900     1.1120     3.8640 H     1 <1>   0.0800 
 29 H       -1.4870     2.1990     3.4410 H     1 <1>   0.0800 
 30 H       -1.2750     0.4730     3.2790 H     1 <1>   0.0800 
 31 H       -4.3550     2.3320     2.2310 H     1 <1>   0.0800 
 32 H       -3.8480     2.5870     0.5810 H     1 <1>   0.0800 
 33 H       -3.0420     3.4320     1.8790 H     1 <1>   0.0800 
 34 H       -5.4520    -1.0220    -0.3640 H     1 <1>   0.0800 
 35 H       -3.7520     1.0300    -2.9830 H     1 <1>   0.0800 
 36 H       -4.6660     1.1790    -1.5190 H     1 <1>   0.0800 
 37 H       -5.5200    -3.2410    -2.2260 H     1 <1>   0.4000 
 38 H       -5.6430    -0.6340    -2.7770 H     1 <1>   0.0800 
 39 H       -4.0800    -1.3790    -3.0300 H     1 <1>   0.0800 
 40 H       -5.6790    -2.4100     1.4030 H     1 <1>   0.1500 
 41 H       -7.6070    -6.9200    -1.3450 H     1 <1>   0.4000 
 42 H       -8.1390    -7.4560     0.2080 H     1 <1>   0.4000 
 43 H       -6.5580    -3.4690     3.8630 H     1 <1>   0.4500 
 44 H       -8.1860    -6.9580     2.4860 H     1 <1>   0.1500 
@<TRIPOS>BOND
  1   1   2  2   
  2   2   3  am  
  3   2   4  1   
  4   3   5  1   
  5   3   6  1   
  6   4   7  1   
  7   4   8  1   
  8   4  23  1   
  9   5   9  1   
 10   5  24  1   
 11   5  25  1   
 12   6  10  1   
 13   6  26  1   
 14   6  27  1   
 15   7  28  1   
 16   7  29  1   
 17   7  30  1   
 18   8  31  1   
 19   8  32  1   
 20   8  33  1   
 21   9  11  1   
 22   9  12  1   
 23   9  34  1   
 24  10  12  1   
 25  10  35  1   
 26  10  36  1   
 27  11  13  1   
 28  11  37  1   
 29  12  38  1   
 30  12  39  1   
 31  13  14  1   
 32  13  15  2   
 33  14  16  2   
 34  15  17  1   
 35  15  40  1   
 36  16  18  1   
 37  16  19  1   
 38  17  18  ar  
 39  17  20  ar  
 40  18  21  1   
 41  19  41  1   
 42  19  42  1   
 43  20  22  1   
 44  20  43  1   
 45  21  22  2   
 46  21  44  1   
@<TRIPOS>SUBSTRUCTURE
  1 ****  15 GROUP 4 **** **** 0

# MOE 2024.06 (io_trps.svl 2023.06)
