@<TRIPOS>MOLECULE
NONAME
46 48 1 0 0 
SMALL
USER_CHARGES


@<TRIPOS>ATOM
  1 O        1.2650     0.8640     0.9630 O.3   1 <1>  -0.2800 
  2 C        1.7180     1.2630    -0.2110 C.2   1 <1>  -0.0400 
  3 C        1.2310    -0.4530     0.9530 C.2   1 <1>  -0.0100 
  4 C        1.9820     0.1970    -0.9990 C.2   1 <1>  -0.1500 
  5 C        1.8610     2.7530    -0.4960 C.3   1 <1>   0.2900 
  6 C        1.6630    -0.9310    -0.2330 C.2   1 <1>  -0.1500 
  7 N        2.8340     3.4100     0.4030 N.3   1 <1>  -0.8100 
  8 C        2.9140     4.8580     0.1330 C.3   1 <1>   0.1100 
  9 C        4.1690     2.7860     0.3520 C.3   1 <1>   0.1100 
 10 C        3.8660     5.5640     1.1150 C.3   1 <1>   0.2090 
 11 C        5.1400     3.4570     1.3420 C.3   1 <1>   0.2090 
 12 N        5.2400     4.9390     1.0900 N.pl3 1 <1>  -0.8380 
 13 C        6.3530     5.6650     0.8040 C.ar  1 <1>   0.7710 
 14 N        6.2300     6.9200     0.4040 N.ar  1 <1>  -0.6200 
 15 N        7.5590     5.0910     0.9400 N.ar  1 <1>  -0.1790 
 16 C        7.3170     7.6040     0.1040 C.ar  1 <1>   0.4100 
 17 C        8.7030     5.7640     0.6810 C.ar  1 <1>   0.2110 
 18 N        7.1220     8.8680    -0.3530 N.pl3 1 <1>  -0.8380 
 19 C        8.6130     7.0490     0.2580 C.ar  1 <1>  -0.1430 
 20 C        7.6290     9.3350    -1.6720 C.3   1 <1>   0.1290 
 21 C        6.0860     9.7570     0.2450 C.3   1 <1>   0.1290 
 22 C        9.8780     7.8660     0.0020 C.3   1 <1>  -0.0970 
 23 H        0.8850    -0.9690     1.8310 H     1 <1>   0.1500 
 24 H        2.3570     0.1770    -2.0070 H     1 <1>   0.1500 
 25 H        0.8970     3.2130    -0.3670 H     1 <1>   0.0800 
 26 H        2.1650     2.8890    -1.5190 H     1 <1>   0.0800 
 27 H        1.7530    -1.9540    -0.5540 H     1 <1>   0.1500 
 28 H        1.9340     5.2930     0.2340 H     1 <1>   0.0800 
 29 H        3.2550     5.0300    -0.8740 H     1 <1>   0.0800 
 30 H        4.5660     2.8500    -0.6470 H     1 <1>   0.0800 
 31 H        4.0880     1.7450     0.6160 H     1 <1>   0.0800 
 32 H        3.4570     5.4780     2.1080 H     1 <1>   0.0800 
 33 H        3.8930     6.6120     0.8730 H     1 <1>   0.0800 
 34 H        6.0950     2.9730     1.2600 H     1 <1>   0.0800 
 35 H        4.7700     3.2920     2.3410 H     1 <1>   0.0800 
 36 H        7.5510     4.1410     1.2860 H     1 <1>   0.4570 
 37 H        9.6470     5.2640     0.8290 H     1 <1>   0.1500 
 38 H        8.0960     8.5260    -2.2050 H     1 <1>   0.0800 
 39 H        8.3440    10.1280    -1.5300 H     1 <1>   0.0800 
 40 H        6.8130     9.7040    -2.2700 H     1 <1>   0.0800 
 41 H        5.8190     9.4130     1.2300 H     1 <1>   0.0800 
 42 H        5.2040     9.7580    -0.3720 H     1 <1>   0.0800 
 43 H        6.4650    10.7610     0.3240 H     1 <1>   0.0800 
 44 H        9.7790     8.8450     0.4390 H     1 <1>   0.0800 
 45 H       10.0490     7.9760    -1.0530 H     1 <1>   0.0800 
 46 H       10.7430     7.3960     0.4360 H     1 <1>   0.0800 
@<TRIPOS>BOND
  1   1   2  1   
  2   1   3  1   
  3   2   4  2   
  4   2   5  1   
  5   3   6  2   
  6   3  23  1   
  7   4   6  1   
  8   4  24  1   
  9   5   7  1   
 10   5  25  1   
 11   5  26  1   
 12   6  27  1   
 13   7   8  1   
 14   7   9  1   
 15   8  10  1   
 16   8  28  1   
 17   8  29  1   
 18   9  11  1   
 19   9  30  1   
 20   9  31  1   
 21  10  12  1   
 22  10  32  1   
 23  10  33  1   
 24  11  12  1   
 25  11  34  1   
 26  11  35  1   
 27  12  13  1   
 28  13  14  ar  
 29  13  15  ar  
 30  14  16  ar  
 31  15  17  ar  
 32  15  36  1   
 33  16  18  1   
 34  16  19  ar  
 35  17  19  ar  
 36  17  37  1   
 37  18  20  1   
 38  18  21  1   
 39  19  22  1   
 40  20  38  1   
 41  20  39  1   
 42  20  40  1   
 43  21  41  1   
 44  21  42  1   
 45  21  43  1   
 46  22  44  1   
 47  22  45  1   
 48  22  46  1   
@<TRIPOS>SUBSTRUCTURE
  1 ****  12 GROUP 4 **** **** 0

# MOE 2024.06 (io_trps.svl 2023.06)
