@<TRIPOS>MOLECULE
NONAME
40 41 1 0 0 
SMALL
USER_CHARGES


@<TRIPOS>ATOM
  1 S        0.0550    -0.4530    -0.0560 S.3   1 <1>  -0.0800 
  2 C       -1.3590    -0.9320     0.8230 C.2   1 <1>   0.4420 
  3 C       -0.3000     1.1800     0.4030 C.2   1 <1>   0.1980 
  4 N       -1.9570     0.0680     1.3610 N.2   1 <1>  -0.3380 
  5 N       -1.6490    -2.2800     0.8290 N.am  1 <1>  -0.4940 
  6 N       -1.3490     1.2690     1.1180 N.2   1 <1>  -0.3380 
  7 C        0.6210     2.3020    -0.0740 C.3   1 <1>   0.3800 
  8 C       -2.6780    -2.9390     1.4360 C.2   1 <1>   0.5690 
  9 O        0.7420     2.2890    -1.4670 O.3   1 <1>  -0.5600 
 10 C        2.0330     2.1760     0.4960 C.3   1 <1>  -0.2400 
 11 O       -3.5190    -2.4030     2.1070 O.2   1 <1>  -0.5700 
 12 C       -2.7660    -4.4370     1.2390 C.3   1 <1>  -0.0990 
 13 C       -0.4000     2.6960    -2.1590 C.3   1 <1>   0.0400 
 14 C       -3.7960    -4.7930     0.1620 C.3   1 <1>  -0.0170 
 15 C       -3.8090    -6.2940    -0.0760 C.ar  1 <1>  -0.1430 
 16 C       -3.0970    -6.8480    -1.1280 C.ar  1 <1>  -0.1500 
 17 C       -4.5330    -7.1250     0.7630 C.ar  1 <1>  -0.1500 
 18 C       -3.1080    -8.2170    -1.3360 C.ar  1 <1>  -0.1500 
 19 C       -4.5430    -8.4930     0.5550 C.ar  1 <1>  -0.1500 
 20 C       -3.8290    -9.0470    -0.4940 C.ar  1 <1>  -0.1430 
 21 C       -3.8430   -10.5480    -0.7240 C.3   1 <1>  -0.0970 
 22 H       -1.0010    -2.8550     0.3010 H     1 <1>   0.3700 
 23 H        0.2080     3.2510     0.2210 H     1 <1>   0.0800 
 24 H        2.4930     1.2630     0.1650 H     1 <1>   0.0800 
 25 H        1.9920     2.1730     1.5700 H     1 <1>   0.0800 
 26 H        2.6300     3.0110     0.1770 H     1 <1>   0.0800 
 27 H       -3.0560    -4.8880     2.1720 H     1 <1>   0.0800 
 28 H       -1.8040    -4.8330     0.9690 H     1 <1>   0.0800 
 29 H       -0.1800     2.6670    -3.2120 H     1 <1>   0.0800 
 30 H       -0.6530     3.7030    -1.8720 H     1 <1>   0.0800 
 31 H       -1.2140     2.0260    -1.9440 H     1 <1>   0.0800 
 32 H       -3.5630    -4.2820    -0.7550 H     1 <1>   0.0800 
 33 H       -4.7740    -4.4680     0.4760 H     1 <1>   0.0800 
 34 H       -2.5320    -6.2210    -1.7930 H     1 <1>   0.1500 
 35 H       -5.0930    -6.7110     1.5830 H     1 <1>   0.1500 
 36 H       -2.5530    -8.6340    -2.1580 H     1 <1>   0.1500 
 37 H       -5.1120    -9.1250     1.2140 H     1 <1>   0.1500 
 38 H       -2.9180   -10.8690    -1.1690 H     1 <1>   0.0800 
 39 H       -4.6540   -10.8080    -1.3800 H     1 <1>   0.0800 
 40 H       -3.9680   -11.0700     0.2080 H     1 <1>   0.0800 
@<TRIPOS>BOND
  1   1   2  1   
  2   1   3  1   
  3   2   4  2   
  4   2   5  1   
  5   3   6  2   
  6   3   7  1   
  7   4   6  1   
  8   5   8  am  
  9   5  22  1   
 10   7   9  1   
 11   7  10  1   
 12   7  23  1   
 13   8  11  2   
 14   8  12  1   
 15   9  13  1   
 16  10  24  1   
 17  10  25  1   
 18  10  26  1   
 19  12  14  1   
 20  12  27  1   
 21  12  28  1   
 22  13  29  1   
 23  13  30  1   
 24  13  31  1   
 25  14  15  1   
 26  14  32  1   
 27  14  33  1   
 28  15  16  ar  
 29  15  17  ar  
 30  16  18  ar  
 31  16  34  1   
 32  17  19  ar  
 33  17  35  1   
 34  18  20  ar  
 35  18  36  1   
 36  19  20  ar  
 37  19  37  1   
 38  20  21  1   
 39  21  38  1   
 40  21  39  1   
 41  21  40  1   
@<TRIPOS>SUBSTRUCTURE
  1 ****   5 GROUP 4 **** **** 0

# MOE 2024.06 (io_trps.svl 2023.06)
