@<TRIPOS>MOLECULE
NONAME
51 54 1 0 0 
SMALL
USER_CHARGES


@<TRIPOS>ATOM
  1 O       -3.4710    -2.7620     2.1720 O.2   1 <1>  -0.5700 
  2 C       -2.3340    -2.7760     1.7480 C.2   1 <1>   0.6900 
  3 N       -1.9380    -1.9950     0.6800 N.am  1 <1>  -0.4770 
  4 N       -1.4380    -3.5990     2.3430 N.am  1 <1>  -0.4900 
  5 C       -2.8430    -1.3850    -0.2020 C.ar  1 <1>   0.1170 
  6 C       -0.4990    -1.9530     0.2970 C.3   1 <1>   0.1400 
  7 C       -0.2180    -3.8930     1.8450 C.2   1 <1>   0.5690 
  8 C       -3.6880    -2.1460    -1.0250 C.ar  1 <1>   0.0860 
  9 C       -2.8930     0.0040    -0.2660 C.ar  1 <1>  -0.1500 
 10 C        0.1530    -3.3240     0.4950 C.3   1 <1>  -0.0990 
 11 O        0.5560    -4.5850     2.4500 O.2   1 <1>  -0.5700 
 12 C       -3.6670    -3.5880    -0.9710 C.2   1 <1>   0.5440 
 13 C       -4.5520    -1.4780    -1.8930 C.ar  1 <1>  -0.1500 
 14 C       -3.7580     0.6450    -1.1300 C.ar  1 <1>  -0.1500 
 15 O       -2.6920    -4.2010    -1.3700 O.2   1 <1>  -0.5700 
 16 N       -4.7210    -4.2960    -0.4450 N.am  1 <1>  -0.6600 
 17 C       -4.5910    -0.0990    -1.9480 C.ar  1 <1>  -0.1500 
 18 C       -5.9040    -3.6900     0.2240 C.3   1 <1>   0.1400 
 19 C       -4.5800    -5.7160    -0.0490 C.3   1 <1>   0.1400 
 20 C       -6.3100    -4.6940     1.3040 C.3   1 <1>   0.2000 
 21 C       -5.8440    -6.0460     0.7510 C.3   1 <1>  -0.0800 
 22 O       -5.6340    -4.4010     2.4810 O.3   1 <1>  -0.6800 
 23 C       -5.6360    -7.1430     1.8120 C.3   1 <1>   0.0200 
 24 C       -5.3310    -8.5060     1.2140 C.2   1 <1>  -0.0400 
 25 O       -5.0260    -9.4890     2.0190 O.3   1 <1>  -0.0190 
 26 C       -5.3000    -8.9840    -0.0410 C.2   1 <1>  -0.1500 
 27 N       -4.7900   -10.5950     1.3730 N.2   1 <1>  -0.4100 
 28 C       -4.9460   -10.3200     0.1290 C.2   1 <1>   0.1080 
 29 C       -4.7680   -11.3190    -0.9920 C.3   1 <1>  -0.0590 
 30 H       -1.7330    -4.0690     3.1920 H     1 <1>   0.3700 
 31 H       -0.4030    -1.6530    -0.7330 H     1 <1>   0.0800 
 32 H       -0.0030    -1.2220     0.9130 H     1 <1>   0.0800 
 33 H       -2.2510     0.5830     0.3720 H     1 <1>   0.1500 
 34 H        1.2210    -3.2390     0.4170 H     1 <1>   0.0800 
 35 H       -0.1860    -3.9990    -0.2700 H     1 <1>   0.0800 
 36 H       -5.1960    -2.0580    -2.5320 H     1 <1>   0.1500 
 37 H       -3.7880     1.7210    -1.1680 H     1 <1>   0.1500 
 38 H       -5.2650     0.3990    -2.6250 H     1 <1>   0.1500 
 39 H       -5.6870    -2.7240     0.6460 H     1 <1>   0.0800 
 40 H       -6.6960    -3.5970    -0.4990 H     1 <1>   0.0800 
 41 H       -4.4770    -6.3400    -0.9190 H     1 <1>   0.0800 
 42 H       -3.7020    -5.8200     0.5670 H     1 <1>   0.0800 
 43 H       -7.3650    -4.6730     1.5140 H     1 <1>   0.0800 
 44 H       -6.5910    -6.3810     0.0540 H     1 <1>   0.0800 
 45 H       -4.8320    -3.8470     2.2920 H     1 <1>   0.4000 
 46 H       -6.5230    -7.2270     2.4150 H     1 <1>   0.0800 
 47 H       -4.8260    -6.8690     2.4660 H     1 <1>   0.0800 
 48 H       -5.4940    -8.4980    -0.9780 H     1 <1>   0.1500 
 49 H       -3.9940   -10.9860    -1.6580 H     1 <1>   0.0800 
 50 H       -5.6870   -11.4240    -1.5370 H     1 <1>   0.0800 
 51 H       -4.4920   -12.2770    -0.5880 H     1 <1>   0.0800 
@<TRIPOS>BOND
  1   1   2  2   
  2   2   3  am  
  3   2   4  am  
  4   3   5  1   
  5   3   6  1   
  6   4   7  am  
  7   4  30  1   
  8   5   8  ar  
  9   5   9  ar  
 10   6  10  1   
 11   6  31  1   
 12   6  32  1   
 13   7  10  1   
 14   7  11  2   
 15   8  12  1   
 16   8  13  ar  
 17   9  14  ar  
 18   9  33  1   
 19  10  34  1   
 20  10  35  1   
 21  12  15  2   
 22  12  16  am  
 23  13  17  ar  
 24  13  36  1   
 25  14  17  ar  
 26  14  37  1   
 27  16  18  1   
 28  16  19  1   
 29  17  38  1   
 30  18  20  1   
 31  18  39  1   
 32  18  40  1   
 33  19  21  1   
 34  19  41  1   
 35  19  42  1   
 36  20  21  1   
 37  20  22  1   
 38  20  43  1   
 39  21  23  1   
 40  21  44  1   
 41  22  45  1   
 42  23  24  1   
 43  23  46  1   
 44  23  47  1   
 45  24  25  1   
 46  24  26  2   
 47  25  27  1   
 48  26  28  1   
 49  26  48  1   
 50  27  28  2   
 51  28  29  1   
 52  29  49  1   
 53  29  50  1   
 54  29  51  1   
@<TRIPOS>SUBSTRUCTURE
  1 ****  16 GROUP 4 **** **** 0

# MOE 2024.06 (io_trps.svl 2023.06)
