@<TRIPOS>MOLECULE
NONAME
43 45 1 0 0 
SMALL
USER_CHARGES


@<TRIPOS>ATOM
  1 CL      -0.2710     0.3560     1.2680 Cl    1 <1>  -0.1770 
  2 C        1.0610    -0.6020     0.6610 C.ar  1 <1>   0.1770 
  3 C        2.0870     0.0000    -0.0560 C.ar  1 <1>   0.0820 
  4 C        1.0630    -1.9590     0.9170 C.ar  1 <1>  -0.1500 
  5 O        2.0630     1.3240    -0.3210 O.3   1 <1>  -0.3630 
  6 C        3.1220    -0.8100    -0.5090 C.ar  1 <1>   0.1770 
  7 C        2.0960    -2.7760     0.4540 C.ar  1 <1>   0.0860 
  8 C        2.7530     2.1660     0.5740 C.3   1 <1>   0.0400 
  9 CL       4.4490    -0.1220    -1.4180 Cl    1 <1>  -0.1770 
 10 C        3.1320    -2.1680    -0.2570 C.ar  1 <1>  -0.1500 
 11 C        2.1130    -4.2020     0.7070 C.2   1 <1>   0.5440 
 12 O        3.1090    -4.7100     1.1840 O.2   1 <1>  -0.5700 
 13 N        1.0380    -5.0090     0.4110 N.am  1 <1>  -0.6600 
 14 C       -0.0470    -4.6680    -0.5490 C.3   1 <1>   0.1400 
 15 C        1.0590    -6.4760     0.6530 C.3   1 <1>   0.1400 
 16 C       -0.9410    -5.9060    -0.5760 C.3   1 <1>   0.2000 
 17 C        0.0310    -7.0630    -0.3210 C.3   1 <1>  -0.0800 
 18 O       -1.8370    -5.8120     0.4770 O.3   1 <1>  -0.6800 
 19 C       -0.6250    -8.3670     0.1710 C.3   1 <1>   0.0200 
 20 C        0.3540    -9.5250     0.2790 C.2   1 <1>  -0.0400 
 21 O       -0.0590   -10.6430     0.8140 O.3   1 <1>  -0.0190 
 22 C        1.6390    -9.6920    -0.0720 C.2   1 <1>  -0.1500 
 23 N        0.8790   -11.5460     0.8440 N.2   1 <1>  -0.4100 
 24 C        1.9140   -11.0000     0.3170 C.2   1 <1>   0.1080 
 25 C        3.2480   -11.6940     0.1470 C.3   1 <1>  -0.0590 
 26 H        0.2580    -2.3880     1.4880 H     1 <1>   0.1500 
 27 H        2.6420     3.1800     0.2340 H     1 <1>   0.0800 
 28 H        3.7930     1.8930     0.5840 H     1 <1>   0.0800 
 29 H        2.3240     2.0590     1.5550 H     1 <1>   0.0800 
 30 H        3.9520    -2.7670    -0.6130 H     1 <1>   0.1500 
 31 H       -0.5990    -3.7950    -0.2500 H     1 <1>   0.0800 
 32 H        0.3850    -4.5070    -1.5220 H     1 <1>   0.0800 
 33 H        2.0420    -6.8800     0.4820 H     1 <1>   0.0800 
 34 H        0.7760    -6.6650     1.6750 H     1 <1>   0.0800 
 35 H       -1.4980    -6.0070    -1.4920 H     1 <1>   0.0800 
 36 H        0.5390    -7.2670    -1.2480 H     1 <1>   0.0800 
 37 H       -1.3460    -5.5990     1.2960 H     1 <1>   0.4000 
 38 H       -1.4100    -8.6500    -0.5080 H     1 <1>   0.0800 
 39 H       -1.0730    -8.2130     1.1370 H     1 <1>   0.0800 
 40 H        2.3310    -9.0180    -0.5410 H     1 <1>   0.1500 
 41 H        3.5110   -11.7280    -0.8940 H     1 <1>   0.0800 
 42 H        3.1890   -12.6980     0.5250 H     1 <1>   0.0800 
 43 H        4.0070   -11.1610     0.6890 H     1 <1>   0.0800 
@<TRIPOS>BOND
  1   1   2  1   
  2   2   3  ar  
  3   2   4  ar  
  4   3   5  1   
  5   3   6  ar  
  6   4   7  ar  
  7   4  26  1   
  8   5   8  1   
  9   6   9  1   
 10   6  10  ar  
 11   7  10  ar  
 12   7  11  1   
 13   8  27  1   
 14   8  28  1   
 15   8  29  1   
 16  10  30  1   
 17  11  12  2   
 18  11  13  am  
 19  13  14  1   
 20  13  15  1   
 21  14  16  1   
 22  14  31  1   
 23  14  32  1   
 24  15  17  1   
 25  15  33  1   
 26  15  34  1   
 27  16  17  1   
 28  16  18  1   
 29  16  35  1   
 30  17  19  1   
 31  17  36  1   
 32  18  37  1   
 33  19  20  1   
 34  19  38  1   
 35  19  39  1   
 36  20  21  1   
 37  20  22  2   
 38  21  23  1   
 39  22  24  1   
 40  22  40  1   
 41  23  24  2   
 42  24  25  1   
 43  25  41  1   
 44  25  42  1   
 45  25  43  1   
@<TRIPOS>SUBSTRUCTURE
  1 ****  13 GROUP 4 **** **** 0

# MOE 2024.06 (io_trps.svl 2023.06)
