@<TRIPOS>MOLECULE
NONAME
37 38 1 0 0 
SMALL
USER_CHARGES


@<TRIPOS>ATOM
  1 F       -0.5060     0.8340     1.0380 F     1 <1>  -0.1900 
  2 C       -1.3950     1.2600     0.1780 C.ar  1 <1>   0.1900 
  3 C       -1.0470     2.2850    -0.6900 C.ar  1 <1>  -0.1440 
  4 C       -2.6480     0.6550     0.1740 C.ar  1 <1>  -0.1440 
  5 C       -2.0260     2.6870    -1.5840 C.ar  1 <1>   0.1900 
  6 C        0.3280     2.9310    -0.6710 C.3   1 <1>   0.3530 
  7 C       -3.5950     1.0950    -0.7410 C.ar  1 <1>  -0.1500 
  8 C       -2.9840    -0.4650     1.1490 C.3   1 <1>  -0.0960 
  9 F       -1.7670     3.6480    -2.4310 F     1 <1>  -0.1900 
 10 C       -3.2850     2.1140    -1.6260 C.ar  1 <1>  -0.1500 
 11 N        0.2060     4.3160    -0.1740 N.pl3 1 <1>  -0.8690 
 12 C        1.2860     5.1470    -0.0170 C.ar  1 <1>   0.4100 
 13 N        2.4790     4.6020    -0.1280 N.ar  1 <1>  -0.6200 
 14 C        1.1250     6.5040     0.2400 C.ar  1 <1>  -0.1430 
 15 C        3.5020     5.4150     0.0200 C.ar  1 <1>   0.4770 
 16 C        2.2780     7.2400     0.3680 C.ar  1 <1>   0.1600 
 17 C       -0.2790     7.1030     0.3700 C.3   1 <1>  -0.0160 
 18 N        3.4810     6.7110     0.2590 N.ar  1 <1>  -0.6200 
 19 C        4.8710     4.7900    -0.1060 C.3   1 <1>  -0.0970 
 20 C       -0.3250     8.5890     0.7490 C.3   1 <1>  -0.2400 
 21 H        0.7390     2.9460    -1.6660 H     1 <1>   0.0800 
 22 H        1.0070     2.3850    -0.0380 H     1 <1>   0.0800 
 23 H       -4.5740     0.6470    -0.7700 H     1 <1>   0.1500 
 24 H       -2.3150    -1.2940     0.9980 H     1 <1>   0.0800 
 25 H       -3.9920    -0.8100     1.0120 H     1 <1>   0.0800 
 26 H       -2.8760    -0.1150     2.1600 H     1 <1>   0.0800 
 27 H       -4.0090     2.4630    -2.3410 H     1 <1>   0.1500 
 28 H       -0.6820     4.7510    -0.4250 H     1 <1>   0.4000 
 29 H        2.2410     8.2960     0.5660 H     1 <1>   0.1500 
 30 H       -0.8170     6.5470     1.1200 H     1 <1>   0.0800 
 31 H       -0.7950     6.9730    -0.5650 H     1 <1>   0.0800 
 32 H        4.8260     3.7460     0.1420 H     1 <1>   0.0800 
 33 H        5.5590     5.2770     0.5590 H     1 <1>   0.0800 
 34 H        5.2180     4.9000    -1.1160 H     1 <1>   0.0800 
 35 H        0.1630     8.7520     1.6940 H     1 <1>   0.0800 
 36 H       -1.3480     8.9090     0.8390 H     1 <1>   0.0800 
 37 H        0.1500     9.1870    -0.0070 H     1 <1>   0.0800 
@<TRIPOS>BOND
  1   1   2  1   
  2   2   3  ar  
  3   2   4  ar  
  4   3   5  ar  
  5   3   6  1   
  6   4   7  ar  
  7   4   8  1   
  8   5   9  1   
  9   5  10  ar  
 10   6  11  1   
 11   6  21  1   
 12   6  22  1   
 13   7  10  ar  
 14   7  23  1   
 15   8  24  1   
 16   8  25  1   
 17   8  26  1   
 18  10  27  1   
 19  11  12  1   
 20  11  28  1   
 21  12  13  ar  
 22  12  14  ar  
 23  13  15  ar  
 24  14  16  ar  
 25  14  17  1   
 26  15  18  ar  
 27  15  19  1   
 28  16  18  ar  
 29  16  29  1   
 30  17  20  1   
 31  17  30  1   
 32  17  31  1   
 33  19  32  1   
 34  19  33  1   
 35  19  34  1   
 36  20  35  1   
 37  20  36  1   
 38  20  37  1   
@<TRIPOS>SUBSTRUCTURE
  1 ****  11 GROUP 4 **** **** 0

# MOE 2024.06 (io_trps.svl 2023.06)
