@<TRIPOS>MOLECULE
NONAME
46 48 1 0 0 
SMALL
USER_CHARGES


@<TRIPOS>ATOM
  1 F       -1.3780     1.8010     1.8510 F     1 <1>  -0.1900 
  2 C       -0.8950     2.5320     0.8820 C.ar  1 <1>   0.1900 
  3 C       -1.5370     2.5360    -0.3550 C.ar  1 <1>   0.0860 
  4 C        0.2400     3.2770     1.1480 C.ar  1 <1>  -0.1500 
  5 C       -2.7250     1.7580    -0.6160 C.2   1 <1>   0.5440 
  6 C       -0.9750     3.3320    -1.3520 C.ar  1 <1>  -0.1500 
  7 C        0.7710     4.0650     0.1430 C.ar  1 <1>  -0.1500 
  8 O       -2.6210     0.7370    -1.2690 O.2   1 <1>  -0.5700 
  9 N       -3.9700     2.1750    -0.1920 N.am  1 <1>  -0.6600 
 10 C        0.1600     4.0860    -1.1010 C.ar  1 <1>   0.0830 
 11 C       -5.2070     1.4210    -0.5600 C.3   1 <1>   0.1400 
 12 C       -4.1650     3.4340     0.5870 C.3   1 <1>   0.1400 
 13 O        0.6880     4.8490    -2.0680 O.3   1 <1>  -0.5320 
 14 C       -6.3220     2.3960    -0.9450 C.3   1 <1>  -0.1600 
 15 C       -5.5500     3.4640     1.2350 C.3   1 <1>  -0.1600 
 16 C       -6.6740     3.4100     0.1780 C.3   1 <1>   0.2800 
 17 O       -6.7030     4.6700    -0.4610 O.3   1 <1>  -0.5600 
 18 C       -8.0450     3.1300     0.8730 C.3   1 <1>   0.2000 
 19 C       -7.4780     5.6790     0.1190 C.3   1 <1>   0.1200 
 20 O       -8.2900     1.7680     1.0770 O.3   1 <1>  -0.6800 
 21 C       -9.2330     3.8130     0.1450 C.3   1 <1>   0.2800 
 22 C       -8.9690     5.3260     0.0100 C.3   1 <1>  -0.1600 
 23 O      -10.3620     3.6440     0.9290 O.3   1 <1>  -0.6800 
 24 C       -9.5880     3.1990    -1.2170 C.3   1 <1>  -0.2400 
 25 H        0.6960     3.2390     2.1220 H     1 <1>   0.1500 
 26 H       -1.4410     3.3470    -2.3210 H     1 <1>   0.1500 
 27 H        1.6520     4.6590     0.3110 H     1 <1>   0.1500 
 28 H       -5.0120     0.7620    -1.3890 H     1 <1>   0.0800 
 29 H       -5.5170     0.8190     0.2760 H     1 <1>   0.0800 
 30 H       -3.4180     3.5050     1.3570 H     1 <1>   0.0800 
 31 H       -4.0580     4.2770    -0.0750 H     1 <1>   0.0800 
 32 H        0.2220     4.7760    -2.9210 H     1 <1>   0.4500 
 33 H       -7.1800     1.8130    -1.2160 H     1 <1>   0.0800 
 34 H       -6.0030     2.9200    -1.8290 H     1 <1>   0.0800 
 35 H       -5.6440     4.3440     1.8420 H     1 <1>   0.0800 
 36 H       -5.6320     2.6180     1.8940 H     1 <1>   0.0800 
 37 H       -7.9980     3.5640     1.8570 H     1 <1>   0.0800 
 38 H       -7.1820     5.7980     1.1470 H     1 <1>   0.0800 
 39 H       -7.2700     6.5970    -0.4040 H     1 <1>   0.0800 
 40 H       -9.2210     1.6860     1.3730 H     1 <1>   0.4000 
 41 H       -9.3310     5.6850    -0.9360 H     1 <1>   0.0800 
 42 H       -9.4880     5.8710     0.7790 H     1 <1>   0.0800 
 43 H      -11.1380     4.0090     0.4630 H     1 <1>   0.4000 
 44 H       -8.7930     3.3740    -1.9180 H     1 <1>   0.0800 
 45 H      -10.4800     3.6430    -1.6190 H     1 <1>   0.0800 
 46 H       -9.7330     2.1370    -1.1300 H     1 <1>   0.0800 
@<TRIPOS>BOND
  1   1   2  1   
  2   2   3  ar  
  3   2   4  ar  
  4   3   5  1   
  5   3   6  ar  
  6   4   7  ar  
  7   4  25  1   
  8   5   8  2   
  9   5   9  am  
 10   6  10  ar  
 11   6  26  1   
 12   7  10  ar  
 13   7  27  1   
 14   9  11  1   
 15   9  12  1   
 16  10  13  1   
 17  11  14  1   
 18  11  28  1   
 19  11  29  1   
 20  12  15  1   
 21  12  30  1   
 22  12  31  1   
 23  13  32  1   
 24  14  16  1   
 25  14  33  1   
 26  14  34  1   
 27  15  16  1   
 28  15  35  1   
 29  15  36  1   
 30  16  17  1   
 31  16  18  1   
 32  17  19  1   
 33  18  20  1   
 34  18  21  1   
 35  18  37  1   
 36  19  22  1   
 37  19  38  1   
 38  19  39  1   
 39  20  40  1   
 40  21  22  1   
 41  21  23  1   
 42  21  24  1   
 43  22  41  1   
 44  22  42  1   
 45  23  43  1   
 46  24  44  1   
 47  24  45  1   
 48  24  46  1   
@<TRIPOS>SUBSTRUCTURE
  1 ****  12 GROUP 4 **** **** 0

# MOE 2024.06 (io_trps.svl 2023.06)
