@<TRIPOS>MOLECULE
NONAME
40 41 1 0 0 
SMALL
USER_CHARGES


@<TRIPOS>ATOM
  1 O       -0.9940    -1.1680    -1.4000 O.2   1 <1>  -0.5700 
  2 C       -0.7370    -1.9040    -0.4670 C.2   1 <1>   0.5440 
  3 N        0.5450    -1.9210     0.0130 N.am  1 <1>  -0.7300 
  4 C       -1.7680    -2.7240     0.1300 C.ar  1 <1>   0.0860 
  5 C        1.6690    -1.1400    -0.5390 C.3   1 <1>   0.1400 
  6 C       -3.1160    -2.4070    -0.0410 C.ar  1 <1>   0.1600 
  7 C       -1.4890    -3.8550     0.8970 C.ar  1 <1>  -0.1500 
  8 C        2.9400    -1.9730    -0.4300 C.3   1 <1>  -0.2400 
  9 N       -4.1440    -3.0670     0.4650 N.ar  1 <1>  -0.6200 
 10 C       -2.5450    -4.5530     1.4300 C.ar  1 <1>  -0.1500 
 11 C       -3.8490    -4.1300     1.1890 C.ar  1 <1>   0.4100 
 12 N       -4.9250    -4.7840     1.6930 N.pl3 1 <1>  -0.8690 
 13 C       -5.1120    -6.2560     1.5060 C.3   1 <1>   0.3530 
 14 C       -6.3960    -6.6300     0.7510 C.ar  1 <1>   0.4770 
 15 N       -7.4240    -5.7910     0.8410 N.ar  1 <1>  -0.6200 
 16 N       -6.3570    -7.7740     0.0800 N.ar  1 <1>  -0.6200 
 17 C       -8.5060    -6.1330     0.1830 C.ar  1 <1>   0.1670 
 18 C       -7.4510    -8.0980    -0.5690 C.ar  1 <1>   0.1670 
 19 C       -8.5670    -7.2960    -0.5470 C.ar  1 <1>  -0.1500 
 20 C       -9.6850    -5.1870     0.2650 C.3   1 <1>  -0.0970 
 21 C       -7.4290    -9.3960    -1.3470 C.3   1 <1>  -0.0970 
 22 H        0.7470    -2.4180     0.8800 H     1 <1>   0.3700 
 23 H        1.7720    -0.2230     0.0160 H     1 <1>   0.0800 
 24 H        1.4750    -0.8960    -1.5710 H     1 <1>   0.0800 
 25 H       -3.3500    -1.5420    -0.6390 H     1 <1>   0.1500 
 26 H       -0.4770    -4.1770     1.0650 H     1 <1>   0.1500 
 27 H        3.1580    -2.1990     0.5980 H     1 <1>   0.0800 
 28 H        3.7660    -1.4220    -0.8400 H     1 <1>   0.0800 
 29 H        2.8330    -2.8870    -0.9880 H     1 <1>   0.0800 
 30 H       -2.3830    -5.4220     2.0370 H     1 <1>   0.1500 
 31 H       -5.8020    -4.3090     1.4410 H     1 <1>   0.4000 
 32 H       -5.1460    -6.7250     2.4730 H     1 <1>   0.0800 
 33 H       -4.2750    -6.6610     0.9670 H     1 <1>   0.0800 
 34 H       -9.4560    -7.5670    -1.0820 H     1 <1>   0.1500 
 35 H       -9.9820    -5.0730     1.2920 H     1 <1>   0.0800 
 36 H      -10.5190    -5.5570    -0.3010 H     1 <1>   0.0800 
 37 H       -9.3990    -4.2260    -0.1210 H     1 <1>   0.0800 
 38 H       -7.2300   -10.2130    -0.6770 H     1 <1>   0.0800 
 39 H       -6.6500    -9.3580    -2.0870 H     1 <1>   0.0800 
 40 H       -8.3680    -9.5700    -1.8380 H     1 <1>   0.0800 
@<TRIPOS>BOND
  1   1   2  2   
  2   2   3  am  
  3   2   4  1   
  4   3   5  1   
  5   3  22  1   
  6   4   6  ar  
  7   4   7  ar  
  8   5   8  1   
  9   5  23  1   
 10   5  24  1   
 11   6   9  ar  
 12   6  25  1   
 13   7  10  ar  
 14   7  26  1   
 15   8  27  1   
 16   8  28  1   
 17   8  29  1   
 18   9  11  ar  
 19  10  11  ar  
 20  10  30  1   
 21  11  12  1   
 22  12  13  1   
 23  12  31  1   
 24  13  14  1   
 25  13  32  1   
 26  13  33  1   
 27  14  15  ar  
 28  14  16  ar  
 29  15  17  ar  
 30  16  18  ar  
 31  17  19  ar  
 32  17  20  1   
 33  18  19  ar  
 34  18  21  1   
 35  19  34  1   
 36  20  35  1   
 37  20  36  1   
 38  20  37  1   
 39  21  38  1   
 40  21  39  1   
 41  21  40  1   
@<TRIPOS>SUBSTRUCTURE
  1 ****  11 GROUP 4 **** **** 0

# MOE 2024.06 (io_trps.svl 2023.06)
