@<TRIPOS>MOLECULE
NONAME
53 55 1 0 0 
SMALL
USER_CHARGES


@<TRIPOS>ATOM
  1 S        0.7060     0.7100    -1.3440 S.3   1 <1>  -0.0800 
  2 C        0.7810    -0.4730    -0.0590 C.2   1 <1>   0.1980 
  3 C       -0.5980    -0.1840    -2.0570 C.2   1 <1>  -0.1100 
  4 N       -0.0800    -1.4050    -0.1590 N.2   1 <1>  -0.5650 
  5 C        1.8420    -0.2810     1.0090 C.3   1 <1>   0.1640 
  6 C       -0.8670    -1.2800    -1.3160 C.2   1 <1>   0.1410 
  7 C        3.1230    -1.0020     0.6130 C.ar  1 <1>  -0.1440 
  8 C       -1.8650    -2.2930    -1.6200 C.2   1 <1>   0.7160 
  9 C        4.1340    -0.3310    -0.0580 C.ar  1 <1>  -0.1500 
 10 C        3.2840    -2.3470     0.9140 C.ar  1 <1>  -0.1500 
 11 O       -3.0370    -1.9700    -1.7330 O.2   1 <1>  -0.5700 
 12 N       -1.5670    -3.6410    -1.7040 N.am  1 <1>  -0.6600 
 13 C        5.2930    -0.9960    -0.4210 C.ar  1 <1>  -0.1500 
 14 C        4.4420    -3.0120     0.5520 C.ar  1 <1>  -0.1500 
 15 C       -0.1690    -4.1640    -1.6820 C.3   1 <1>   0.3200 
 16 C       -2.6520    -4.6730    -1.7800 C.3   1 <1>   0.1400 
 17 C        5.4480    -2.3360    -0.1160 C.ar  1 <1>  -0.1500 
 18 C       -0.0180    -5.0360    -0.4540 C.2   1 <1>  -0.3320 
 19 C       -3.2610    -5.0040    -0.3970 C.3   1 <1>   0.3430 
 20 N        0.0370    -6.3830    -0.4540 N.pl3 1 <1>   0.0330 
 21 C        0.0740    -4.6550     0.8380 C.2   1 <1>   0.0770 
 22 N       -3.7830    -3.7870     0.3060 N.4   1 <1>  -0.9590 
 23 C        0.1100    -6.7310     0.8480 C.2   1 <1>   0.0060 
 24 N        0.1160    -5.7210     1.6530 N.2   1 <1>  -0.5650 
 25 C       -2.8480    -3.3560     1.3890 C.3   1 <1>   0.2630 
 26 C       -5.1650    -3.9800     0.8300 C.3   1 <1>   0.2630 
 27 C        0.1920    -8.1710     1.3110 C.3   1 <1>  -0.0600 
 28 H       -1.0320     0.1900    -2.9670 H     1 <1>   0.1500 
 29 H        1.4800    -0.6790     1.9390 H     1 <1>   0.0800 
 30 H        2.0310     0.7680     1.1520 H     1 <1>   0.0800 
 31 H        4.0270     0.7110    -0.3060 H     1 <1>   0.1500 
 32 H        2.5110    -2.8880     1.4320 H     1 <1>   0.1500 
 33 H        6.0750    -0.4700    -0.9420 H     1 <1>   0.1500 
 34 H        4.5580    -4.0550     0.7910 H     1 <1>   0.1500 
 35 H        0.5550    -3.3680    -1.6520 H     1 <1>   0.0800 
 36 H        0.0180    -4.7350    -2.5760 H     1 <1>   0.0800 
 37 H       -2.2600    -5.5750    -2.2150 H     1 <1>   0.0800 
 38 H       -3.4340    -4.3250    -2.4340 H     1 <1>   0.0800 
 39 H        6.3490    -2.8530    -0.3970 H     1 <1>   0.1500 
 40 H       -2.5130    -5.4850     0.2130 H     1 <1>   0.0800 
 41 H       -4.0630    -5.7080    -0.5420 H     1 <1>   0.0800 
 42 H        0.0550    -7.0230    -1.2540 H     1 <1>   0.2700 
 43 H        0.1050    -3.6520     1.2310 H     1 <1>   0.1500 
 44 H       -3.7960    -3.0210    -0.4050 H     1 <1>   0.4500 
 45 H       -2.6890    -4.1570     2.0930 H     1 <1>   0.0800 
 46 H       -3.2460    -2.5030     1.9120 H     1 <1>   0.0800 
 47 H       -1.8980    -3.0780     0.9650 H     1 <1>   0.0800 
 48 H       -5.1790    -4.7660     1.5680 H     1 <1>   0.0800 
 49 H       -5.8360    -4.2420     0.0280 H     1 <1>   0.0800 
 50 H       -5.5180    -3.0700     1.2880 H     1 <1>   0.0800 
 51 H       -0.6700    -8.7210     0.9840 H     1 <1>   0.0800 
 52 H        0.2350    -8.2060     2.3860 H     1 <1>   0.0800 
 53 H        1.0800    -8.6340     0.9200 H     1 <1>   0.0800 
@<TRIPOS>BOND
  1   1   2  1   
  2   1   3  1   
  3   2   4  2   
  4   2   5  1   
  5   3   6  2   
  6   3  28  1   
  7   4   6  1   
  8   5   7  1   
  9   5  29  1   
 10   5  30  1   
 11   6   8  1   
 12   7   9  ar  
 13   7  10  ar  
 14   8  11  2   
 15   8  12  am  
 16   9  13  ar  
 17   9  31  1   
 18  10  14  ar  
 19  10  32  1   
 20  12  15  1   
 21  12  16  1   
 22  13  17  ar  
 23  13  33  1   
 24  14  17  ar  
 25  14  34  1   
 26  15  18  1   
 27  15  35  1   
 28  15  36  1   
 29  16  19  1   
 30  16  37  1   
 31  16  38  1   
 32  17  39  1   
 33  18  20  1   
 34  18  21  2   
 35  19  22  1   
 36  19  40  1   
 37  19  41  1   
 38  20  23  1   
 39  20  42  1   
 40  21  24  1   
 41  21  43  1   
 42  22  25  1   
 43  22  26  1   
 44  22  44  1   
 45  23  24  2   
 46  23  27  1   
 47  25  45  1   
 48  25  46  1   
 49  25  47  1   
 50  26  48  1   
 51  26  49  1   
 52  26  50  1   
 53  27  51  1   
 54  27  52  1   
 55  27  53  1   
@<TRIPOS>SUBSTRUCTURE
  1 ****   4 GROUP 4 **** **** 0

# MOE 2024.06 (io_trps.svl 2023.06)
