@<TRIPOS>MOLECULE
NONAME
46 48 1 0 0 
SMALL
USER_CHARGES


@<TRIPOS>ATOM
  1 O       -0.9370     0.2300    -0.7230 O.2   1 <1>  -0.5700 
  2 C       -1.6940     0.8390     0.0120 C.2   1 <1>   0.6160 
  3 N       -2.7380     0.1490     0.5890 N.am  1 <1>  -0.6600 
  4 C       -1.4980     2.2530     0.2420 C.2   1 <1>   0.0140 
  5 C       -2.7340    -1.3480     0.6550 C.3   1 <1>   0.1400 
  6 C       -4.1170     0.7200     0.6660 C.3   1 <1>   0.1400 
  7 C       -1.8130     2.8660     1.4320 C.2   1 <1>  -0.0410 
  8 C       -0.9480     3.0780    -0.7890 C.2   1 <1>  -0.1500 
  9 C       -3.7400    -1.9430    -0.3450 C.3   1 <1>   0.3440 
 10 C       -5.0660     0.0130    -0.3300 C.3   1 <1>   0.2000 
 11 N       -1.6370     4.2130     1.6180 N.am  1 <1>  -0.5390 
 12 C       -0.7730     4.4130    -0.5920 C.2   1 <1>  -0.1360 
 13 O       -5.0060    -1.3730    -0.1330 O.3   1 <1>  -0.5600 
 14 C       -3.8230    -3.4580    -0.1850 C.ar  1 <1>  -0.1430 
 15 C       -6.5410     0.4570    -0.1850 C.3   1 <1>  -0.0800 
 16 C       -1.1280     5.0230     0.6410 C.2   1 <1>   0.6160 
 17 C       -4.7190    -4.0500     0.6950 C.ar  1 <1>  -0.1500 
 18 C       -2.9740    -4.2690    -0.9260 C.ar  1 <1>  -0.1500 
 19 C       -7.4530    -0.2940    -1.1700 C.3   1 <1>  -0.2400 
 20 C       -6.7200     1.9690    -0.4070 C.3   1 <1>  -0.2400 
 21 O       -1.0080     6.2130     0.8710 O.2   1 <1>  -0.5700 
 22 C       -4.7650    -5.4260     0.8330 C.ar  1 <1>  -0.1500 
 23 C       -3.0190    -5.6460    -0.7900 C.ar  1 <1>  -0.1500 
 24 C       -3.9150    -6.2260     0.0910 C.ar  1 <1>  -0.1500 
 25 H       -1.7520    -1.7340     0.4430 H     1 <1>   0.0800 
 26 H       -3.0000    -1.6620     1.6480 H     1 <1>   0.0800 
 27 H       -4.4970     0.6010     1.6660 H     1 <1>   0.0800 
 28 H       -4.0920     1.7710     0.4400 H     1 <1>   0.0800 
 29 H       -2.2060     2.2970     2.2600 H     1 <1>   0.1500 
 30 H       -0.6760     2.6070    -1.7200 H     1 <1>   0.1500 
 31 H       -3.4330    -1.7080    -1.3490 H     1 <1>   0.0800 
 32 H       -4.7400     0.2180    -1.3360 H     1 <1>   0.0800 
 33 H       -1.8530     4.6960     2.4920 H     1 <1>   0.3700 
 34 H       -0.3640     5.0610    -1.3430 H     1 <1>   0.1500 
 35 H       -6.8630     0.2260     0.8160 H     1 <1>   0.0800 
 36 H       -5.3870    -3.4360     1.2750 H     1 <1>   0.1500 
 37 H       -2.2710    -3.8310    -1.6140 H     1 <1>   0.1500 
 38 H       -7.1510    -0.1080    -2.1860 H     1 <1>   0.0800 
 39 H       -8.4750     0.0170    -1.0510 H     1 <1>   0.0800 
 40 H       -7.4070    -1.3540    -0.9910 H     1 <1>   0.0800 
 41 H       -6.3450     2.2580    -1.3740 H     1 <1>   0.0800 
 42 H       -6.2090     2.5380     0.3480 H     1 <1>   0.0800 
 43 H       -7.7630     2.2300    -0.3580 H     1 <1>   0.0800 
 44 H       -5.4650    -5.8730     1.5170 H     1 <1>   0.1500 
 45 H       -2.3570    -6.2660    -1.3690 H     1 <1>   0.1500 
 46 H       -3.9510    -7.2960     0.1970 H     1 <1>   0.1500 
@<TRIPOS>BOND
  1   1   2  2   
  2   2   3  am  
  3   2   4  1   
  4   3   5  1   
  5   3   6  1   
  6   4   7  2   
  7   4   8  1   
  8   5   9  1   
  9   5  25  1   
 10   5  26  1   
 11   6  10  1   
 12   6  27  1   
 13   6  28  1   
 14   7  11  1   
 15   7  29  1   
 16   8  12  2   
 17   8  30  1   
 18   9  13  1   
 19   9  14  1   
 20   9  31  1   
 21  10  13  1   
 22  10  15  1   
 23  10  32  1   
 24  11  16  am  
 25  11  33  1   
 26  12  16  1   
 27  12  34  1   
 28  14  17  ar  
 29  14  18  ar  
 30  15  19  1   
 31  15  20  1   
 32  15  35  1   
 33  16  21  2   
 34  17  22  ar  
 35  17  36  1   
 36  18  23  ar  
 37  18  37  1   
 38  19  38  1   
 39  19  39  1   
 40  19  40  1   
 41  20  41  1   
 42  20  42  1   
 43  20  43  1   
 44  22  24  ar  
 45  22  44  1   
 46  23  24  ar  
 47  23  45  1   
 48  24  46  1   
@<TRIPOS>SUBSTRUCTURE
  1 ****   3 GROUP 4 **** **** 0

# MOE 2024.06 (io_trps.svl 2023.06)
