@<TRIPOS>MOLECULE
NONAME
33 34 1 0 0 
SMALL
USER_CHARGES


@<TRIPOS>ATOM
  1 S        2.6140     0.0700    -1.6940 S.3   1 <1>  -0.0920 
  2 C        1.8480     0.2570    -0.1220 C.2   1 <1>  -0.1510 
  3 C        1.0840    -0.3590    -2.4380 C.2   1 <1>  -0.1220 
  4 C        0.5290     0.0010    -0.2090 C.2   1 <1>  -0.1610 
  5 C        2.7230     0.6520     1.0510 C.3   1 <1>   0.0070 
  6 C        0.0940    -0.3480    -1.5270 C.2   1 <1>  -0.1610 
  7 C        3.2470     2.0800     0.8550 C.3   1 <1>  -0.1710 
  8 C        4.1110     2.5520     2.0420 C.3   1 <1>  -0.1110 
  9 C        4.6500     3.9690     1.9160 C.2   1 <1>   0.8480 
 10 O        5.1910     4.4850     2.8560 O.2   1 <1>  -0.5770 
 11 N        4.5150     4.6270     0.7380 N.pl3 1 <1>  -0.7350 
 12 C        4.9250     5.8600     0.4450 C.cat 1 <1>   1.0680 
 13 N        5.5550     6.6810     1.2630 N.pl3 1 <1>  -0.7060 
 14 N        4.7540     6.4500    -0.7380 N.pl3 1 <1>  -0.7690 
 15 C        5.8100     7.8560     0.6000 C.2   1 <1>   0.1890 
 16 C        5.3140     7.7150    -0.6430 C.2   1 <1>   0.1890 
 17 C        4.1070     5.9480    -1.9810 C.3   1 <1>   0.2640 
 18 H        1.0870    -0.5780    -3.4910 H     1 <1>   0.1390 
 19 H       -0.1720     0.0400     0.6060 H     1 <1>   0.1390 
 20 H        3.5420    -0.0420     1.1310 H     1 <1>   0.0680 
 21 H        2.1430     0.5950     1.9550 H     1 <1>   0.0680 
 22 H       -0.9390    -0.5770    -1.7240 H     1 <1>   0.1390 
 23 H        2.3990     2.7340     0.7350 H     1 <1>   0.0680 
 24 H        3.8310     2.1010    -0.0490 H     1 <1>   0.0680 
 25 H        4.9490     1.8870     2.1590 H     1 <1>   0.0680 
 26 H        3.5290     2.4990     2.9460 H     1 <1>   0.0680 
 27 H        4.0410     4.1220     0.0040 H     1 <1>   0.4420 
 28 H        5.7800     6.4080     2.2290 H     1 <1>   0.4420 
 29 H        6.3180     8.6950     1.0520 H     1 <1>   0.1390 
 30 H        5.3210     8.4220    -1.4590 H     1 <1>   0.1390 
 31 H        3.7390     4.9460    -1.8510 H     1 <1>   0.0680 
 32 H        4.8190     5.9510    -2.7890 H     1 <1>   0.0680 
 33 H        3.2810     6.5870    -2.2460 H     1 <1>   0.0680 
@<TRIPOS>BOND
  1   1   2  1   
  2   1   3  1   
  3   2   4  2   
  4   2   5  1   
  5   3   6  2   
  6   3  18  1   
  7   4   6  1   
  8   4  19  1   
  9   5   7  1   
 10   5  20  1   
 11   5  21  1   
 12   6  22  1   
 13   7   8  1   
 14   7  23  1   
 15   7  24  1   
 16   8   9  1   
 17   8  25  1   
 18   8  26  1   
 19   9  10  2   
 20   9  11  1   
 21  11  12  ar  
 22  11  27  1   
 23  12  13  ar  
 24  12  14  ar  
 25  13  15  1   
 26  13  28  1   
 27  14  16  1   
 28  14  17  1   
 29  15  16  2   
 30  15  29  1   
 31  16  30  1   
 32  17  31  1   
 33  17  32  1   
 34  17  33  1   
@<TRIPOS>SUBSTRUCTURE
  1 ****   7 GROUP 4 **** **** 0

# MOE 2024.06 (io_trps.svl 2023.06)
