@<TRIPOS>MOLECULE
NONAME
52 55 1 0 0 
SMALL
USER_CHARGES


@<TRIPOS>ATOM
  1 F        1.4330     0.7470    -1.4650 F     1 <1>  -0.1900 
  2 C        1.9160    -0.3510    -0.9480 C.ar  1 <1>   0.1900 
  3 C        1.6820    -1.5470    -1.5970 C.ar  1 <1>  -0.1500 
  4 C        2.6390    -0.2750     0.2250 C.ar  1 <1>  -0.1500 
  5 C        2.1900    -2.7170    -1.0500 C.ar  1 <1>  -0.1440 
  6 C        3.1470    -1.4420     0.7690 C.ar  1 <1>  -0.1500 
  7 C        2.9260    -2.6660     0.1360 C.ar  1 <1>   0.0830 
  8 C        1.9430    -4.0430    -1.7440 C.3   1 <1>   0.4870 
  9 O        3.3940    -3.8440     0.6320 O.3   1 <1>  -0.3630 
 10 N        1.2120    -4.9350    -0.8130 N.4   1 <1>  -0.9590 
 11 C        4.3520    -3.8650     1.6730 C.3   1 <1>   0.0400 
 12 C       -0.1470    -4.3970    -0.4450 C.3   1 <1>   0.3430 
 13 C        1.1370    -6.3480    -1.3110 C.3   1 <1>   0.3430 
 14 C       -0.8990    -5.3380     0.5190 C.3   1 <1>   0.1900 
 15 C        0.3570    -7.2540    -0.3380 C.3   1 <1>   0.1100 
 16 N       -0.9860    -6.7030    -0.0550 N.3   1 <1>  -0.8100 
 17 C       -2.3070    -4.7890     0.8190 C.3   1 <1>   0.1200 
 18 C       -1.7810    -7.5900     0.8350 C.3   1 <1>   0.3330 
 19 O       -2.9720    -5.6490     1.6940 O.3   1 <1>  -0.5600 
 20 C       -2.0020    -8.9480     0.1740 C.ar  1 <1>  -0.1430 
 21 C       -3.1410    -6.9460     1.1850 C.3   1 <1>   0.1200 
 22 C       -1.6810   -10.1140     0.8540 C.ar  1 <1>  -0.1500 
 23 C       -2.5180    -9.0370    -1.1120 C.ar  1 <1>  -0.1500 
 24 C       -1.8690   -11.3480     0.2580 C.ar  1 <1>  -0.1500 
 25 C       -2.7090   -10.2710    -1.7090 C.ar  1 <1>  -0.1500 
 26 C       -2.3830   -11.4280    -1.0240 C.ar  1 <1>  -0.1500 
 27 H        1.1150    -1.5390    -2.5120 H     1 <1>   0.1500 
 28 H        2.7990     0.6790     0.6980 H     1 <1>   0.1500 
 29 H        3.7080    -1.3720     1.6840 H     1 <1>   0.1500 
 30 H        2.8930    -4.4830    -2.0040 H     1 <1>   0.0800 
 31 H        1.3730    -3.8950    -2.6470 H     1 <1>   0.0800 
 32 H        1.7880    -4.9200     0.0450 H     1 <1>   0.4500 
 33 H        4.6600    -4.8840     1.8310 H     1 <1>   0.0800 
 34 H        3.9070    -3.4780     2.5730 H     1 <1>   0.0800 
 35 H        5.2020    -3.2720     1.3830 H     1 <1>   0.0800 
 36 H       -0.0430    -3.4290     0.0180 H     1 <1>   0.0800 
 37 H       -0.7420    -4.2780    -1.3350 H     1 <1>   0.0800 
 38 H        0.6350    -6.3720    -2.2650 H     1 <1>   0.0800 
 39 H        2.1290    -6.7450    -1.4460 H     1 <1>   0.0800 
 40 H       -0.3590    -5.3710     1.4500 H     1 <1>   0.0800 
 41 H        0.9120    -7.3700     0.5780 H     1 <1>   0.0800 
 42 H        0.2630    -8.2270    -0.7900 H     1 <1>   0.0800 
 43 H       -2.8900    -4.6980    -0.0820 H     1 <1>   0.0800 
 44 H       -2.2470    -3.8270     1.2970 H     1 <1>   0.0800 
 45 H       -1.2450    -7.7350     1.7580 H     1 <1>   0.0800 
 46 H       -3.6420    -7.5320     1.9350 H     1 <1>   0.0800 
 47 H       -3.7710    -6.8950     0.3150 H     1 <1>   0.0800 
 48 H       -1.2830   -10.0720     1.8530 H     1 <1>   0.1500 
 49 H       -2.7710    -8.1420    -1.6530 H     1 <1>   0.1500 
 50 H       -1.6190   -12.2490     0.7910 H     1 <1>   0.1500 
 51 H       -3.1110   -10.3320    -2.7060 H     1 <1>   0.1500 
 52 H       -2.5310   -12.3880    -1.4880 H     1 <1>   0.1500 
@<TRIPOS>BOND
  1   1   2  1   
  2   2   3  ar  
  3   2   4  ar  
  4   3   5  ar  
  5   3  27  1   
  6   4   6  ar  
  7   4  28  1   
  8   5   7  ar  
  9   5   8  1   
 10   6   7  ar  
 11   6  29  1   
 12   7   9  1   
 13   8  10  1   
 14   8  30  1   
 15   8  31  1   
 16   9  11  1   
 17  10  12  1   
 18  10  13  1   
 19  10  32  1   
 20  11  33  1   
 21  11  34  1   
 22  11  35  1   
 23  12  14  1   
 24  12  36  1   
 25  12  37  1   
 26  13  15  1   
 27  13  38  1   
 28  13  39  1   
 29  14  16  1   
 30  14  17  1   
 31  14  40  1   
 32  15  16  1   
 33  15  41  1   
 34  15  42  1   
 35  16  18  1   
 36  17  19  1   
 37  17  43  1   
 38  17  44  1   
 39  18  20  1   
 40  18  21  1   
 41  18  45  1   
 42  19  21  1   
 43  20  22  ar  
 44  20  23  ar  
 45  21  46  1   
 46  21  47  1   
 47  22  24  ar  
 48  22  48  1   
 49  23  25  ar  
 50  23  49  1   
 51  24  26  ar  
 52  24  50  1   
 53  25  26  ar  
 54  25  51  1   
 55  26  52  1   
@<TRIPOS>SUBSTRUCTURE
  1 ****  12 GROUP 4 **** **** 0

# MOE 2024.06 (io_trps.svl 2023.06)
