@<TRIPOS>MOLECULE
NONAME
55 58 1 0 0 
SMALL
USER_CHARGES


@<TRIPOS>ATOM
  1 O       -0.2180     0.7580     0.6950 O.2   1 <1>  -0.5700 
  2 C       -0.1790     1.9510     0.4280 C.2   1 <1>   0.7160 
  3 N       -1.3950     2.5900     0.2250 N.am  1 <1>  -0.6600 
  4 C        1.1280     2.6080     0.3340 C.2   1 <1>   0.2030 
  5 C       -2.6740     1.9290     0.6190 C.3   1 <1>   0.1400 
  6 C       -1.5010     3.9420    -0.4030 C.3   1 <1>   0.1400 
  7 N        1.3950     3.9040     0.3170 N.2   1 <1>  -0.7070 
  8 C        2.3260     1.8880     0.2640 C.2   1 <1>  -0.1500 
  9 C       -3.7080     2.9840     1.0160 C.3   1 <1>  -0.1600 
 10 C       -2.8460     4.0820    -1.1160 C.3   1 <1>  -0.1600 
 11 N        2.7310     3.9840     0.2370 N.pl3 1 <1>   0.3000 
 12 C        3.3460     2.7820     0.2020 C.2   1 <1>  -0.2050 
 13 C       -4.0350     3.9620    -0.1420 C.3   1 <1>   0.2800 
 14 C        4.7840     2.5960     0.1220 C.ar  1 <1>   0.0530 
 15 O       -4.2030     5.2440     0.4040 O.3   1 <1>  -0.5600 
 16 C       -5.3140     3.5630    -0.9290 C.3   1 <1>  -0.1600 
 17 C        5.7050     3.6380    -0.1050 C.ar  1 <1>   0.0830 
 18 C        5.2970     1.3090     0.2810 C.ar  1 <1>  -0.1500 
 19 C       -5.2500     5.4520     1.3180 C.3   1 <1>   0.1200 
 20 C       -6.5270     4.4540    -0.6410 C.3   1 <1>   0.2800 
 21 O        5.2330     4.9080    -0.2620 O.3   1 <1>  -0.3630 
 22 C        7.0710     3.3660    -0.1670 C.ar  1 <1>  -0.1500 
 23 C        6.6520     1.0460     0.2170 C.ar  1 <1>  -0.1500 
 24 C       -6.5650     4.8120     0.8420 C.3   1 <1>  -0.1600 
 25 O       -6.3500     5.6220    -1.3360 O.3   1 <1>  -0.6800 
 26 C       -7.8340     3.8400    -1.1320 C.3   1 <1>  -0.2400 
 27 C        6.0740     5.9970    -0.5800 C.3   1 <1>   0.0400 
 28 C        7.5430     2.0770    -0.0080 C.ar  1 <1>  -0.1500 
 29 H       -2.5010     1.2690     1.4530 H     1 <1>   0.0800 
 30 H       -3.0360     1.3400    -0.2060 H     1 <1>   0.0800 
 31 H       -0.7100     4.0760    -1.1200 H     1 <1>   0.0800 
 32 H       -1.4040     4.6990     0.3580 H     1 <1>   0.0800 
 33 H        2.3780     0.8140     0.2630 H     1 <1>   0.1500 
 34 H       -3.2910     3.5260     1.8460 H     1 <1>   0.0800 
 35 H       -4.5970     2.4930     1.3630 H     1 <1>   0.0800 
 36 H       -2.8910     3.3080    -1.8600 H     1 <1>   0.0800 
 37 H       -2.8930     5.0250    -1.6310 H     1 <1>   0.0800 
 38 H        3.2520     4.8710     0.1940 H     1 <1>   0.2700 
 39 H       -5.5630     2.5460    -0.6890 H     1 <1>   0.0800 
 40 H       -5.1360     3.5710    -1.9900 H     1 <1>   0.0800 
 41 H        4.6260     0.4900     0.4600 H     1 <1>   0.1500 
 42 H       -5.3750     6.5170     1.4070 H     1 <1>   0.0800 
 43 H       -4.9580     5.0670     2.2790 H     1 <1>   0.0800 
 44 H        7.7920     4.1420    -0.3370 H     1 <1>   0.1500 
 45 H        7.0130     0.0400     0.3430 H     1 <1>   0.1500 
 46 H       -7.3880     5.4740     1.0460 H     1 <1>   0.0800 
 47 H       -6.7360     3.9170     1.4130 H     1 <1>   0.0800 
 48 H       -5.4950     5.9970    -1.0330 H     1 <1>   0.4000 
 49 H       -8.0360     2.9230    -0.6110 H     1 <1>   0.0800 
 50 H       -7.7730     3.6290    -2.1850 H     1 <1>   0.0800 
 51 H       -8.6510     4.5180    -0.9580 H     1 <1>   0.0800 
 52 H        5.4620     6.8740    -0.6880 H     1 <1>   0.0800 
 53 H        6.5810     5.7900    -1.5060 H     1 <1>   0.0800 
 54 H        6.7780     6.1420     0.2210 H     1 <1>   0.0800 
 55 H        8.5990     1.8750    -0.0570 H     1 <1>   0.1500 
@<TRIPOS>BOND
  1   1   2  2   
  2   2   3  am  
  3   2   4  1   
  4   3   5  1   
  5   3   6  1   
  6   4   7  2   
  7   4   8  1   
  8   5   9  1   
  9   5  29  1   
 10   5  30  1   
 11   6  10  1   
 12   6  31  1   
 13   6  32  1   
 14   7  11  1   
 15   8  12  2   
 16   8  33  1   
 17   9  13  1   
 18   9  34  1   
 19   9  35  1   
 20  10  13  1   
 21  10  36  1   
 22  10  37  1   
 23  11  12  1   
 24  11  38  1   
 25  12  14  1   
 26  13  15  1   
 27  13  16  1   
 28  14  17  ar  
 29  14  18  ar  
 30  15  19  1   
 31  16  20  1   
 32  16  39  1   
 33  16  40  1   
 34  17  21  1   
 35  17  22  ar  
 36  18  23  ar  
 37  18  41  1   
 38  19  24  1   
 39  19  42  1   
 40  19  43  1   
 41  20  24  1   
 42  20  25  1   
 43  20  26  1   
 44  21  27  1   
 45  22  28  ar  
 46  22  44  1   
 47  23  28  ar  
 48  23  45  1   
 49  24  46  1   
 50  24  47  1   
 51  25  48  1   
 52  26  49  1   
 53  26  50  1   
 54  26  51  1   
 55  27  52  1   
 56  27  53  1   
 57  27  54  1   
 58  28  55  1   
@<TRIPOS>SUBSTRUCTURE
  1 ****   4 GROUP 4 **** **** 0

# MOE 2024.06 (io_trps.svl 2023.06)
