@<TRIPOS>MOLECULE
NONAME
49 51 1 0 0 
SMALL
USER_CHARGES


@<TRIPOS>ATOM
  1 S       -0.5460     0.4980    -0.0080 S.3   1 <1>  -0.0800 
  2 C        0.7930    -0.6170    -0.1630 C.2   1 <1>   0.1980 
  3 C        0.5910     1.7650     0.3430 C.2   1 <1>  -0.1100 
  4 N        1.9360    -0.0950     0.0290 N.2   1 <1>  -0.5650 
  5 C        0.4750    -2.0570    -0.4920 C.3   1 <1>   0.0200 
  6 C        1.8370     1.2610     0.3150 C.2   1 <1>   0.0460 
  7 C        0.0440    -2.7960     0.7740 C.3   1 <1>   0.1400 
  8 C        3.1450     2.0110     0.5640 C.3   1 <1>   0.1010 
  9 N       -0.2070    -4.2240     0.4700 N.am  1 <1>  -0.7300 
 10 C        2.9170     3.4040     1.1670 C.3   1 <1>  -0.2400 
 11 C        3.9480     2.1330    -0.7360 C.3   1 <1>  -0.2400 
 12 C       -1.3980    -4.7540     0.0830 C.2   1 <1>   0.5690 
 13 O       -2.3730    -4.0550    -0.0580 O.2   1 <1>  -0.5700 
 14 C       -1.4960    -6.2630    -0.1740 C.3   1 <1>   0.2610 
 15 O       -0.2020    -6.8580    -0.0810 O.3   1 <1>  -0.5600 
 16 C       -2.5100    -6.8950     0.8210 C.3   1 <1>   0.3640 
 17 C       -0.1770    -8.2520    -0.2870 C.3   1 <1>   0.1810 
 18 N       -2.1960    -8.3090     1.1480 N.am  1 <1>  -0.7300 
 19 C       -3.9350    -6.8450     0.2720 C.ar  1 <1>  -0.1440 
 20 C       -1.1510    -8.9890     0.6320 C.2   1 <1>   0.5690 
 21 C       -4.8100    -5.8620     0.7130 C.ar  1 <1>  -0.1500 
 22 C       -4.3800    -7.7650    -0.6710 C.ar  1 <1>  -0.1500 
 23 O       -0.9990   -10.1610     0.8650 O.2   1 <1>  -0.5700 
 24 C       -6.1040    -5.8000     0.2260 C.ar  1 <1>  -0.1500 
 25 C       -5.6740    -7.7040    -1.1570 C.ar  1 <1>  -0.1500 
 26 C       -6.5380    -6.7220    -0.7090 C.ar  1 <1>  -0.1500 
 27 H        0.2030     2.7490     0.5300 H     1 <1>   0.1500 
 28 H       -0.3110    -2.0920    -1.2250 H     1 <1>   0.0800 
 29 H        1.3550    -2.5190    -0.8980 H     1 <1>   0.0800 
 30 H       -0.8550    -2.3480     1.1640 H     1 <1>   0.0800 
 31 H        0.8130    -2.7190     1.5230 H     1 <1>   0.0800 
 32 H        3.7200     1.4330     1.2680 H     1 <1>   0.0800 
 33 H        0.5930    -4.8650     0.5210 H     1 <1>   0.3700 
 34 H        2.3710     4.0290     0.4830 H     1 <1>   0.0800 
 35 H        3.8600     3.8730     1.3830 H     1 <1>   0.0800 
 36 H        2.3610     3.3220     2.0850 H     1 <1>   0.0800 
 37 H        3.3890     2.6870    -1.4700 H     1 <1>   0.0800 
 38 H        4.1530     1.1540    -1.1320 H     1 <1>   0.0800 
 39 H        4.8840     2.6310    -0.5570 H     1 <1>   0.0800 
 40 H       -1.8460    -6.4050    -1.1800 H     1 <1>   0.0800 
 41 H       -2.4740    -6.3350     1.7400 H     1 <1>   0.0800 
 42 H       -0.4250    -8.4530    -1.3140 H     1 <1>   0.0800 
 43 H        0.8230    -8.5960    -0.0950 H     1 <1>   0.0800 
 44 H       -2.8820    -8.8180     1.7080 H     1 <1>   0.3700 
 45 H       -4.4890    -5.1270     1.4320 H     1 <1>   0.1500 
 46 H       -3.7260    -8.5390    -1.0320 H     1 <1>   0.1500 
 47 H       -6.7720    -5.0310     0.5740 H     1 <1>   0.1500 
 48 H       -6.0100    -8.4220    -1.8850 H     1 <1>   0.1500 
 49 H       -7.5440    -6.6730    -1.0870 H     1 <1>   0.1500 
@<TRIPOS>BOND
  1   1   2  1   
  2   1   3  1   
  3   2   4  2   
  4   2   5  1   
  5   3   6  2   
  6   3  27  1   
  7   4   6  1   
  8   5   7  1   
  9   5  28  1   
 10   5  29  1   
 11   6   8  1   
 12   7   9  1   
 13   7  30  1   
 14   7  31  1   
 15   8  10  1   
 16   8  11  1   
 17   8  32  1   
 18   9  12  am  
 19   9  33  1   
 20  10  34  1   
 21  10  35  1   
 22  10  36  1   
 23  11  37  1   
 24  11  38  1   
 25  11  39  1   
 26  12  13  2   
 27  12  14  1   
 28  14  15  1   
 29  14  16  1   
 30  14  40  1   
 31  15  17  1   
 32  16  18  1   
 33  16  19  1   
 34  16  41  1   
 35  17  20  1   
 36  17  42  1   
 37  17  43  1   
 38  18  20  am  
 39  18  44  1   
 40  19  21  ar  
 41  19  22  ar  
 42  20  23  2   
 43  21  24  ar  
 44  21  45  1   
 45  22  25  ar  
 46  22  46  1   
 47  24  26  ar  
 48  24  47  1   
 49  25  26  ar  
 50  25  48  1   
 51  26  49  1   
@<TRIPOS>SUBSTRUCTURE
  1 ****  12 GROUP 4 **** **** 0

# MOE 2024.06 (io_trps.svl 2023.06)
