@<TRIPOS>MOLECULE
NONAME
50 53 1 0 0 
SMALL
USER_CHARGES


@<TRIPOS>ATOM
  1 O        0.4130     0.0670     1.5130 O.3   1 <1>  -0.6800 
  2 C        1.4260    -0.0730     0.5720 C.3   1 <1>   0.2000 
  3 C        2.2600    -1.3220     0.8620 C.3   1 <1>  -0.0800 
  4 C        2.4180     1.0860     0.6420 C.3   1 <1>   0.2090 
  5 C        3.6320    -0.9950     0.2610 C.3   1 <1>   0.2090 
  6 C        1.6320    -2.6080     0.2890 C.3   1 <1>  -0.0170 
  7 N        3.7180     0.4820     0.2640 N.pl3 1 <1>  -0.8380 
  8 C        2.3940    -3.9130     0.5520 C.ar  1 <1>  -0.1440 
  9 C        4.9030     1.1770     0.2920 C.ar  1 <1>   0.7200 
 10 C        2.0800    -5.0820    -0.1870 C.ar  1 <1>   0.0000 
 11 C        3.3770    -4.0250     1.4960 C.ar  1 <1>  -0.1500 
 12 N        6.0170     0.4750     0.0960 N.ar  1 <1>  -0.6200 
 13 N        4.8240     2.4880     0.5060 N.ar  1 <1>  -0.6200 
 14 C        2.8270    -6.2570     0.0780 C.ar  1 <1>   0.3100 
 15 C        1.0640    -5.1600    -1.1700 C.ar  1 <1>  -0.1500 
 16 C        4.0490    -5.2380     1.6830 C.ar  1 <1>   0.1600 
 17 C        7.1370     1.1550     0.1170 C.ar  1 <1>   0.1600 
 18 C        5.9620     3.1380     0.5220 C.ar  1 <1>   0.1600 
 19 N        3.8060    -6.3180     1.0140 N.ar  1 <1>  -0.6200 
 20 C        2.5460    -7.4250    -0.6490 C.ar  1 <1>  -0.1500 
 21 C        0.8130    -6.3160    -1.8590 C.ar  1 <1>  -0.1500 
 22 C        7.1730     2.5140     0.3310 C.ar  1 <1>  -0.1440 
 23 C        1.5640    -7.4640    -1.6000 C.ar  1 <1>  -0.1500 
 24 C        8.4820     3.2870     0.3500 C.3   1 <1>  -0.0170 
 25 C        8.8310     3.7870    -1.0560 C.3   1 <1>  -0.1600 
 26 C       10.1470     4.5720    -1.0620 C.3   1 <1>  -0.2400 
 27 H       -0.2030    -0.6890     1.4750 H     1 <1>   0.4000 
 28 H        0.9870    -0.1070    -0.4100 H     1 <1>   0.0800 
 29 H        2.3770    -1.4040     1.9280 H     1 <1>   0.0800 
 30 H        2.4840     1.4710     1.6460 H     1 <1>   0.0800 
 31 H        2.1530     1.8720    -0.0430 H     1 <1>   0.0800 
 32 H        3.7050    -1.3420    -0.7560 H     1 <1>   0.0800 
 33 H        4.4290    -1.4280     0.8400 H     1 <1>   0.0800 
 34 H        1.5440    -2.4700    -0.7740 H     1 <1>   0.0800 
 35 H        0.6390    -2.7190     0.6870 H     1 <1>   0.0800 
 36 H        3.6760    -3.2100     2.1260 H     1 <1>   0.1500 
 37 H        0.4650    -4.2970    -1.3860 H     1 <1>   0.1500 
 38 H        4.8200    -5.2730     2.4340 H     1 <1>   0.1500 
 39 H        8.0530     0.6130    -0.0430 H     1 <1>   0.1500 
 40 H        5.9260     4.2000     0.6910 H     1 <1>   0.1500 
 41 H        3.1360    -8.2960    -0.4290 H     1 <1>   0.1500 
 42 H        0.0380    -6.3570    -2.6050 H     1 <1>   0.1500 
 43 H        1.3600    -8.3670    -2.1490 H     1 <1>   0.1500 
 44 H        8.3970     4.1230     1.0230 H     1 <1>   0.0800 
 45 H        9.2710     2.6520     0.7170 H     1 <1>   0.0800 
 46 H        8.9150     2.9470    -1.7250 H     1 <1>   0.0800 
 47 H        8.0390     4.4190    -1.4190 H     1 <1>   0.0800 
 48 H       10.9590     3.9510    -0.7270 H     1 <1>   0.0800 
 49 H       10.0780     5.4320    -0.4190 H     1 <1>   0.0800 
 50 H       10.3670     4.9100    -2.0600 H     1 <1>   0.0800 
@<TRIPOS>BOND
  1   1   2  1   
  2   1  27  1   
  3   2   3  1   
  4   2   4  1   
  5   2  28  1   
  6   3   5  1   
  7   3   6  1   
  8   3  29  1   
  9   4   7  1   
 10   4  30  1   
 11   4  31  1   
 12   5   7  1   
 13   5  32  1   
 14   5  33  1   
 15   6   8  1   
 16   6  34  1   
 17   6  35  1   
 18   7   9  1   
 19   8  10  ar  
 20   8  11  ar  
 21   9  12  ar  
 22   9  13  ar  
 23  10  14  ar  
 24  10  15  ar  
 25  11  16  ar  
 26  11  36  1   
 27  12  17  ar  
 28  13  18  ar  
 29  14  19  ar  
 30  14  20  ar  
 31  15  21  ar  
 32  15  37  1   
 33  16  19  ar  
 34  16  38  1   
 35  17  22  ar  
 36  17  39  1   
 37  18  22  ar  
 38  18  40  1   
 39  20  23  ar  
 40  20  41  1   
 41  21  23  ar  
 42  21  42  1   
 43  22  24  1   
 44  23  43  1   
 45  24  25  1   
 46  24  44  1   
 47  24  45  1   
 48  25  26  1   
 49  25  46  1   
 50  25  47  1   
 51  26  48  1   
 52  26  49  1   
 53  26  50  1   
@<TRIPOS>SUBSTRUCTURE
  1 ****   5 GROUP 4 **** **** 0

# MOE 2024.06 (io_trps.svl 2023.06)
