@<TRIPOS>MOLECULE
NONAME
48 50 1 0 0 
SMALL
USER_CHARGES


@<TRIPOS>ATOM
  1 O        1.2350     0.0610    -1.7840 O.2   1 <1>  -0.5700 
  2 C        1.9790    -0.6250    -1.1100 C.2   1 <1>   0.5440 
  3 N        3.3290    -0.3530    -1.1050 N.am  1 <1>  -0.6600 
  4 C        1.4310    -1.6960    -0.3140 C.ar  1 <1>   0.0860 
  5 C        4.3410    -1.1060    -0.2930 C.3   1 <1>   0.1400 
  6 C        3.9020     0.7670    -1.9000 C.3   1 <1>   0.1400 
  7 C        1.4190    -3.0090    -0.7640 C.ar  1 <1>   0.1660 
  8 C        0.9170    -1.4840     0.9590 C.ar  1 <1>   0.1660 
  9 C        4.7700    -0.3410     0.9700 C.3   1 <1>   0.1400 
 10 C        3.8280     2.0950    -1.1320 C.3   1 <1>  -0.1600 
 11 N        0.9950    -4.0060    -0.0200 N.ar  1 <1>  -0.6200 
 12 C        1.9120    -3.3830    -2.1520 C.3   1 <1>  -0.0960 
 13 N        0.4920    -2.4690     1.7180 N.ar  1 <1>  -0.6200 
 14 C        0.8130    -0.1010     1.5820 C.3   1 <1>  -0.0970 
 15 N        5.2230     1.0530     0.6670 N.am  1 <1>  -0.6600 
 16 C        4.1150     2.0060     0.3740 C.3   1 <1>   0.1400 
 17 C        0.5540    -3.6760     1.1820 C.ar  1 <1>   0.4700 
 18 C        6.5420     1.3090     0.3530 C.2   1 <1>   0.5440 
 19 O        7.2770     0.3660     0.1240 O.2   1 <1>  -0.5700 
 20 C        7.0630     2.6510     0.2680 C.ar  1 <1>   0.0860 
 21 C        6.8530     3.5740     1.2910 C.ar  1 <1>   0.1600 
 22 C        7.8040     3.0860    -0.8270 C.ar  1 <1>  -0.1500 
 23 N        7.2650     4.8300     1.3050 N.ar  1 <1>  -0.6200 
 24 C        8.2480     4.3860    -0.8290 C.ar  1 <1>  -0.1500 
 25 C        7.9530     5.2170     0.2470 C.ar  1 <1>   0.4100 
 26 N        8.3720     6.5010     0.2890 N.pl3 1 <1>  -0.9000 
 27 H        5.2140    -1.2900    -0.8950 H     1 <1>   0.0800 
 28 H        3.9540    -2.0650    -0.0010 H     1 <1>   0.0800 
 29 H        3.3720     0.8600    -2.8330 H     1 <1>   0.0800 
 30 H        4.9300     0.5470    -2.1320 H     1 <1>   0.0800 
 31 H        5.5720    -0.8810     1.4450 H     1 <1>   0.0800 
 32 H        3.9520    -0.3110     1.6670 H     1 <1>   0.0800 
 33 H        2.8450     2.5090    -1.2640 H     1 <1>   0.0800 
 34 H        4.5160     2.7870    -1.5820 H     1 <1>   0.0800 
 35 H        1.6920    -2.6080    -2.8640 H     1 <1>   0.0800 
 36 H        1.4280    -4.2850    -2.4840 H     1 <1>   0.0800 
 37 H        2.9720    -3.5510    -2.1290 H     1 <1>   0.0800 
 38 H        0.8860     0.6810     0.8500 H     1 <1>   0.0800 
 39 H        1.5890     0.0260     2.3140 H     1 <1>   0.0800 
 40 H       -0.1380    -0.0030     2.0740 H     1 <1>   0.0800 
 41 H        3.2240     1.6700     0.8750 H     1 <1>   0.0800 
 42 H        4.3430     2.9850     0.7570 H     1 <1>   0.0800 
 43 H        0.2020    -4.4870     1.7970 H     1 <1>   0.1500 
 44 H        6.3040     3.2400     2.1540 H     1 <1>   0.1500 
 45 H        8.0160     2.4110    -1.6380 H     1 <1>   0.1500 
 46 H        8.8190     4.7740    -1.6510 H     1 <1>   0.1500 
 47 H        9.2440     6.7630    -0.1690 H     1 <1>   0.4000 
 48 H        8.2080     6.9650     1.1840 H     1 <1>   0.4000 
@<TRIPOS>BOND
  1   1   2  2   
  2   2   3  am  
  3   2   4  1   
  4   3   5  1   
  5   3   6  1   
  6   4   7  ar  
  7   4   8  ar  
  8   5   9  1   
  9   5  27  1   
 10   5  28  1   
 11   6  10  1   
 12   6  29  1   
 13   6  30  1   
 14   7  11  ar  
 15   7  12  1   
 16   8  13  ar  
 17   8  14  1   
 18   9  15  1   
 19   9  31  1   
 20   9  32  1   
 21  10  16  1   
 22  10  33  1   
 23  10  34  1   
 24  11  17  ar  
 25  12  35  1   
 26  12  36  1   
 27  12  37  1   
 28  13  17  ar  
 29  14  38  1   
 30  14  39  1   
 31  14  40  1   
 32  15  16  1   
 33  15  18  am  
 34  16  41  1   
 35  16  42  1   
 36  17  43  1   
 37  18  19  2   
 38  18  20  1   
 39  20  21  ar  
 40  20  22  ar  
 41  21  23  ar  
 42  21  44  1   
 43  22  24  ar  
 44  22  45  1   
 45  23  25  ar  
 46  24  25  ar  
 47  24  46  1   
 48  25  26  1   
 49  26  47  1   
 50  26  48  1   
@<TRIPOS>SUBSTRUCTURE
  1 ****  15 GROUP 4 **** **** 0

# MOE 2024.06 (io_trps.svl 2023.06)
