@<TRIPOS>MOLECULE
NONAME
59 62 1 0 0 
SMALL
USER_CHARGES


@<TRIPOS>ATOM
  1 O        0.5190     0.3440     0.1270 O.3   1 <1>  -0.5600 
  2 C        0.4750     1.7090     0.4100 C.3   1 <1>   0.2950 
  3 C        1.7640    -0.2580     0.3270 C.3   1 <1>   0.2000 
  4 C       -0.9960     2.1430     0.2880 C.3   1 <1>  -0.1950 
  5 C        1.4520     2.4600    -0.5280 C.3   1 <1>   0.2090 
  6 C        2.8170     0.3890    -0.6010 C.3   1 <1>   0.2090 
  7 C        1.5720    -1.7590     0.0700 C.3   1 <1>  -0.1600 
  8 C       -1.6870     2.3960    -1.0160 C.3   1 <1>  -0.2000 
  9 C       -1.4380     3.5330    -0.0630 C.3   1 <1>  -0.2000 
 10 N        2.8500     1.8960    -0.4570 N.pl3 1 <1>  -0.8380 
 11 C        2.8260    -2.5910     0.3890 C.3   1 <1>  -0.1600 
 12 C        4.0090     2.5750    -0.2860 C.ar  1 <1>   0.7710 
 13 C        2.5490    -4.0880     0.2140 C.3   1 <1>  -0.1600 
 14 N        5.1410     1.8970    -0.1090 N.ar  1 <1>  -0.6200 
 15 N        4.0030     3.9110    -0.3040 N.ar  1 <1>  -0.1790 
 16 C        3.7960    -4.9190     0.5260 C.3   1 <1>  -0.2400 
 17 C        6.2540     2.5540     0.0550 C.ar  1 <1>   0.4100 
 18 C        5.1360     4.6680    -0.1370 C.ar  1 <1>   0.3610 
 19 N        7.3360     1.7910     0.2340 N.pl3 1 <1>  -0.9000 
 20 C        6.3350     3.9810     0.0490 C.ar  1 <1>   0.0000 
 21 C        5.1070     6.0610    -0.1450 C.ar  1 <1>  -0.1500 
 22 C        7.5100     4.7320     0.2050 C.ar  1 <1>  -0.1500 
 23 C        6.2610     6.7890     0.0280 C.ar  1 <1>   0.0820 
 24 C        7.4850     6.1070     0.1800 C.ar  1 <1>   0.0820 
 25 O        6.1210     8.1320     0.0430 O.3   1 <1>  -0.3620 
 26 O        8.6640     6.7570     0.2970 O.3   1 <1>  -0.3620 
 27 C        6.8440     8.9210     0.9680 C.3   1 <1>   0.0400 
 28 C        9.2360     7.2110    -0.9110 C.3   1 <1>   0.0400 
 29 H        0.7860     1.8480     1.4310 H     1 <1>   0.0800 
 30 H        2.0460    -0.1120     1.3560 H     1 <1>   0.0800 
 31 H       -1.5850     1.6430     1.0390 H     1 <1>   0.1000 
 32 H        1.4370     3.4990    -0.2590 H     1 <1>   0.0800 
 33 H        1.0930     2.3720    -1.5400 H     1 <1>   0.0800 
 34 H        2.5760     0.1390    -1.6210 H     1 <1>   0.0800 
 35 H        3.7740    -0.0500    -0.3850 H     1 <1>   0.0800 
 36 H        0.7640    -2.1030     0.6910 H     1 <1>   0.0800 
 37 H        1.2910    -1.9110    -0.9570 H     1 <1>   0.0800 
 38 H       -1.1310     2.3430    -1.9350 H     1 <1>   0.1000 
 39 H       -2.6920     2.0270    -1.1340 H     1 <1>   0.1000 
 40 H       -2.2830     3.9490     0.4600 H     1 <1>   0.1000 
 41 H       -0.7430     4.2920    -0.3700 H     1 <1>   0.1000 
 42 H        3.6340    -2.3110    -0.2640 H     1 <1>   0.0800 
 43 H        3.1320    -2.4050     1.4050 H     1 <1>   0.0800 
 44 H        1.7510    -4.3890     0.8720 H     1 <1>   0.0800 
 45 H        2.2370    -4.2840    -0.7980 H     1 <1>   0.0800 
 46 H        3.1180     4.3620    -0.4850 H     1 <1>   0.4570 
 47 H        4.1140    -4.7560     1.5410 H     1 <1>   0.0800 
 48 H        4.6010    -4.6540    -0.1370 H     1 <1>   0.0800 
 49 H        3.5810    -5.9660     0.4000 H     1 <1>   0.0800 
 50 H        7.2520     0.7710     0.2350 H     1 <1>   0.4000 
 51 H        8.2860     2.1350     0.3880 H     1 <1>   0.4000 
 52 H        4.1830     6.5950    -0.2790 H     1 <1>   0.1500 
 53 H        8.4540     4.2360     0.3410 H     1 <1>   0.1500 
 54 H        6.3120     9.8440     1.1100 H     1 <1>   0.0800 
 55 H        7.8200     9.1270     0.5700 H     1 <1>   0.0800 
 56 H        6.9210     8.3940     1.9020 H     1 <1>   0.0800 
 57 H       10.1460     7.7350    -0.6770 H     1 <1>   0.0800 
 58 H        8.5450     7.8750    -1.4010 H     1 <1>   0.0800 
 59 H        9.4500     6.3630    -1.5370 H     1 <1>   0.0800 
@<TRIPOS>BOND
  1   1   2  1   
  2   1   3  1   
  3   2   4  1   
  4   2   5  1   
  5   2  29  1   
  6   3   6  1   
  7   3   7  1   
  8   3  30  1   
  9   4   8  1   
 10   4   9  1   
 11   4  31  1   
 12   5  10  1   
 13   5  32  1   
 14   5  33  1   
 15   6  10  1   
 16   6  34  1   
 17   6  35  1   
 18   7  11  1   
 19   7  36  1   
 20   7  37  1   
 21   8   9  1   
 22   8  38  1   
 23   8  39  1   
 24   9  40  1   
 25   9  41  1   
 26  10  12  1   
 27  11  13  1   
 28  11  42  1   
 29  11  43  1   
 30  12  14  ar  
 31  12  15  ar  
 32  13  16  1   
 33  13  44  1   
 34  13  45  1   
 35  14  17  ar  
 36  15  18  ar  
 37  15  46  1   
 38  16  47  1   
 39  16  48  1   
 40  16  49  1   
 41  17  19  1   
 42  17  20  ar  
 43  18  20  ar  
 44  18  21  ar  
 45  19  50  1   
 46  19  51  1   
 47  20  22  ar  
 48  21  23  ar  
 49  21  52  1   
 50  22  24  ar  
 51  22  53  1   
 52  23  24  ar  
 53  23  25  1   
 54  24  26  1   
 55  25  27  1   
 56  26  28  1   
 57  27  54  1   
 58  27  55  1   
 59  27  56  1   
 60  28  57  1   
 61  28  58  1   
 62  28  59  1   
@<TRIPOS>SUBSTRUCTURE
  1 ****  12 GROUP 4 **** **** 0

# MOE 2024.06 (io_trps.svl 2023.06)
