@<TRIPOS>MOLECULE
NONAME
46 47 1 0 0 
SMALL
USER_CHARGES


@<TRIPOS>ATOM
  1 CL       3.6950    -0.2910    -3.5680 Cl    1 <1>  -0.1770 
  2 C        3.2990    -1.2270    -2.1500 C.ar  1 <1>   0.1770 
  3 C        3.6250    -0.7330    -0.9040 C.ar  1 <1>  -0.1500 
  4 C        2.6620    -2.4420    -2.3070 C.ar  1 <1>  -0.1500 
  5 C        3.3080    -1.4750     0.2300 C.ar  1 <1>   0.0830 
  6 C        2.3440    -3.1970    -1.1880 C.ar  1 <1>  -0.1440 
  7 O        3.5710    -1.0130     1.4850 O.3   1 <1>  -0.3620 
  8 C        2.6780    -2.7210     0.0790 C.ar  1 <1>   0.0830 
  9 C        1.6380    -4.5340    -1.3700 C.3   1 <1>   0.4870 
 10 C        4.1690     0.2460     1.7120 C.3   1 <1>   0.0400 
 11 O        2.3400    -3.5030     1.1420 O.3   1 <1>  -0.3630 
 12 N        0.4130    -4.5900    -0.5330 N.4   1 <1>  -0.9590 
 13 C        3.3280    -3.8290     2.1000 C.3   1 <1>   0.0400 
 14 C       -0.2330    -5.9300    -0.5660 C.3   1 <1>   0.5240 
 15 C       -0.5340    -3.4560    -0.7500 C.3   1 <1>   0.3430 
 16 C        0.7240    -6.9520     0.0320 C.2   1 <1>   0.0460 
 17 C       -1.3520    -3.1550     0.5130 C.3   1 <1>   0.1200 
 18 N        1.3560    -6.6720     1.1900 N.2   1 <1>  -0.5650 
 19 C        1.0850    -8.1710    -0.4340 C.2   1 <1>  -0.3320 
 20 O       -2.3990    -2.3250     0.1530 O.3   1 <1>  -0.6800 
 21 C        2.0740    -7.7240     1.4140 C.2   1 <1>   0.0360 
 22 N        1.9560    -8.6730     0.4630 N.pl3 1 <1>   0.0330 
 23 C        0.6680    -8.9410    -1.6780 C.3   1 <1>  -0.0600 
 24 H        4.1140     0.2200    -0.8500 H     1 <1>   0.1500 
 25 H        2.4290    -2.7760    -3.3030 H     1 <1>   0.1500 
 26 H        2.3130    -5.3230    -1.0750 H     1 <1>   0.0800 
 27 H        1.3830    -4.6740    -2.4070 H     1 <1>   0.0800 
 28 H        4.2620     0.3850     2.7740 H     1 <1>   0.0800 
 29 H        3.5390     1.0140     1.2990 H     1 <1>   0.0800 
 30 H        5.1440     0.2590     1.2570 H     1 <1>   0.0800 
 31 H        0.8100    -4.5130     0.4260 H     1 <1>   0.4500 
 32 H        3.0500    -4.7570     2.5670 H     1 <1>   0.0800 
 33 H        3.3690    -3.0510     2.8410 H     1 <1>   0.0800 
 34 H        4.2800    -3.9340     1.6100 H     1 <1>   0.0800 
 35 H       -0.4900    -6.2050    -1.5750 H     1 <1>   0.0800 
 36 H       -1.1300    -5.9190     0.0290 H     1 <1>   0.0800 
 37 H       -1.2040    -3.6910    -1.5600 H     1 <1>   0.0800 
 38 H        0.0100    -2.5630    -1.0070 H     1 <1>   0.0800 
 39 H       -0.7470    -2.6440     1.2430 H     1 <1>   0.0800 
 40 H       -1.7750    -4.0490     0.9380 H     1 <1>   0.0800 
 41 H       -2.9080    -2.0290     0.9370 H     1 <1>   0.4000 
 42 H        2.7130    -7.8540     2.2720 H     1 <1>   0.1500 
 43 H        2.4270    -9.5840     0.4440 H     1 <1>   0.2700 
 44 H       -0.0390    -8.3820    -2.2620 H     1 <1>   0.0800 
 45 H        0.2110    -9.8750    -1.3980 H     1 <1>   0.0800 
 46 H        1.5270    -9.1510    -2.2910 H     1 <1>   0.0800 
@<TRIPOS>BOND
  1   1   2  1   
  2   2   3  ar  
  3   2   4  ar  
  4   3   5  ar  
  5   3  24  1   
  6   4   6  ar  
  7   4  25  1   
  8   5   7  1   
  9   5   8  ar  
 10   6   8  ar  
 11   6   9  1   
 12   7  10  1   
 13   8  11  1   
 14   9  12  1   
 15   9  26  1   
 16   9  27  1   
 17  10  28  1   
 18  10  29  1   
 19  10  30  1   
 20  11  13  1   
 21  12  14  1   
 22  12  15  1   
 23  12  31  1   
 24  13  32  1   
 25  13  33  1   
 26  13  34  1   
 27  14  16  1   
 28  14  35  1   
 29  14  36  1   
 30  15  17  1   
 31  15  37  1   
 32  15  38  1   
 33  16  18  1   
 34  16  19  2   
 35  17  20  1   
 36  17  39  1   
 37  17  40  1   
 38  18  21  2   
 39  19  22  1   
 40  19  23  1   
 41  20  41  1   
 42  21  22  1   
 43  21  42  1   
 44  22  43  1   
 45  23  44  1   
 46  23  45  1   
 47  23  46  1   
@<TRIPOS>SUBSTRUCTURE
  1 ****   9 GROUP 4 **** **** 0

# MOE 2024.06 (io_trps.svl 2023.06)
