@<TRIPOS>MOLECULE
NONAME
52 53 1 0 0 
SMALL
USER_CHARGES


@<TRIPOS>ATOM
  1 S        0.4940    -0.0850     0.3040 S.o2  1 <1>   1.3330 
  2 O       -0.2140     0.9100     1.0780 O.2   1 <1>  -0.6500 
  3 O        0.9500    -1.2980     0.9430 O.2   1 <1>  -0.6500 
  4 N       -0.4830    -0.5140    -1.0160 N.am  1 <1>  -0.8490 
  5 C        1.9070     0.6820    -0.4890 C.3   1 <1>  -0.0550 
  6 C       -1.3290     0.5850    -1.4960 C.3   1 <1>   0.1160 
  7 C       -1.3120    -1.6900    -0.7340 C.3   1 <1>   0.1160 
  8 C        2.9120     1.2830     0.5100 C.3   1 <1>  -0.0800 
  9 C        4.0090     2.0580    -0.2100 C.3   1 <1>   0.2200 
 10 C        3.6790     0.2140     1.3070 C.3   1 <1>   0.1200 
 11 N        4.3030     3.2830     0.5580 N.am  1 <1>  -0.7300 
 12 C        5.1940     1.1070    -0.1280 C.3   1 <1>   0.1200 
 13 O        5.0350     0.4540     1.0870 O.3   1 <1>  -0.5600 
 14 C        4.0040     4.5460     0.1580 C.2   1 <1>   0.5690 
 15 O        3.4640     4.7560    -0.9030 O.2   1 <1>  -0.5700 
 16 C        4.3510     5.7270     1.0760 C.3   1 <1>   0.1710 
 17 N        5.7320     6.2690     0.9520 N.3   1 <1>  -0.8100 
 18 C        5.9660     6.8140    -0.4020 C.3   1 <1>   0.2530 
 19 C        6.7630     5.2950     1.3400 C.3   1 <1>   0.0300 
 20 C        7.2910     7.5650    -0.4840 C.ar  1 <1>  -0.1440 
 21 C        7.5780     8.5790     0.4180 C.ar  1 <1>  -0.1500 
 22 C        8.2200     7.2470    -1.4630 C.ar  1 <1>  -0.1500 
 23 C        8.7760     9.2670     0.3440 C.ar  1 <1>  -0.1500 
 24 C        9.4200     7.9340    -1.5390 C.ar  1 <1>  -0.1500 
 25 C        9.6990     8.9440    -0.6360 C.ar  1 <1>  -0.1500 
 26 H        2.3990    -0.0390    -1.1120 H     1 <1>   0.0800 
 27 H        1.5510     1.4720    -1.1210 H     1 <1>   0.0800 
 28 H       -1.8550     0.2850    -2.3860 H     1 <1>   0.0800 
 29 H       -0.7250     1.4440    -1.7340 H     1 <1>   0.0800 
 30 H       -2.0460     0.8660    -0.7430 H     1 <1>   0.0800 
 31 H       -1.9070    -1.9430    -1.5940 H     1 <1>   0.0800 
 32 H       -1.9620    -1.4980     0.1040 H     1 <1>   0.0800 
 33 H       -0.6870    -2.5350    -0.4990 H     1 <1>   0.0800 
 34 H        2.3710     1.9260     1.1840 H     1 <1>   0.0800 
 35 H        3.7650     2.3040    -1.2300 H     1 <1>   0.0800 
 36 H        3.4640    -0.7840     0.9660 H     1 <1>   0.0800 
 37 H        3.4860     0.2820     2.3640 H     1 <1>   0.0800 
 38 H        4.7720     3.1160     1.4520 H     1 <1>   0.3700 
 39 H        6.1420     1.6150    -0.1500 H     1 <1>   0.0800 
 40 H        5.1510     0.3690    -0.9100 H     1 <1>   0.0800 
 41 H        4.1900     5.4240     2.0950 H     1 <1>   0.0800 
 42 H        3.6520     6.5180     0.8710 H     1 <1>   0.0800 
 43 H        5.9510     6.0160    -1.1250 H     1 <1>   0.0800 
 44 H        5.1750     7.5000    -0.6510 H     1 <1>   0.0800 
 45 H        7.7260     5.7770     1.3810 H     1 <1>   0.0800 
 46 H        6.8120     4.4880     0.6300 H     1 <1>   0.0800 
 47 H        6.5480     4.9000     2.3170 H     1 <1>   0.0800 
 48 H        6.8620     8.8240     1.1830 H     1 <1>   0.1500 
 49 H        8.0140     6.4640    -2.1700 H     1 <1>   0.1500 
 50 H        8.9890    10.0500     1.0490 H     1 <1>   0.1500 
 51 H       10.1370     7.6820    -2.3010 H     1 <1>   0.1500 
 52 H       10.6310     9.4780    -0.6950 H     1 <1>   0.1500 
@<TRIPOS>BOND
  1   1   2  2   
  2   1   3  2   
  3   1   4  am  
  4   1   5  1   
  5   4   6  1   
  6   4   7  1   
  7   5   8  1   
  8   5  26  1   
  9   5  27  1   
 10   6  28  1   
 11   6  29  1   
 12   6  30  1   
 13   7  31  1   
 14   7  32  1   
 15   7  33  1   
 16   8   9  1   
 17   8  10  1   
 18   8  34  1   
 19   9  11  1   
 20   9  12  1   
 21   9  35  1   
 22  10  13  1   
 23  10  36  1   
 24  10  37  1   
 25  11  14  am  
 26  11  38  1   
 27  12  13  1   
 28  12  39  1   
 29  12  40  1   
 30  14  15  2   
 31  14  16  1   
 32  16  17  1   
 33  16  41  1   
 34  16  42  1   
 35  17  18  1   
 36  17  19  1   
 37  18  20  1   
 38  18  43  1   
 39  18  44  1   
 40  19  45  1   
 41  19  46  1   
 42  19  47  1   
 43  20  21  ar  
 44  20  22  ar  
 45  21  23  ar  
 46  21  48  1   
 47  22  24  ar  
 48  22  49  1   
 49  23  25  ar  
 50  23  50  1   
 51  24  25  ar  
 52  24  51  1   
 53  25  52  1   
@<TRIPOS>SUBSTRUCTURE
  1 ****  11 GROUP 4 **** **** 0

# MOE 2024.06 (io_trps.svl 2023.06)
