@<TRIPOS>MOLECULE
NONAME
49 50 1 0 0 
SMALL
USER_CHARGES


@<TRIPOS>ATOM
  1 O       -1.0020    -0.5520    -1.0720 O.2   1 <1>  -0.5700 
  2 C       -1.9930    -0.1990    -0.4660 C.2   1 <1>   0.7150 
  3 N       -2.6010    -1.1200     0.3110 N.am  1 <1>  -0.8000 
  4 C       -2.4900     1.1530    -0.5710 C.2   1 <1>   0.0550 
  5 O       -3.5220     1.5750     0.1480 O.3   1 <1>  -0.2800 
  6 C       -2.0620     2.1870    -1.3380 C.2   1 <1>  -0.1500 
  7 C       -3.7760     2.8390    -0.1250 C.2   1 <1>  -0.0400 
  8 C       -2.8800     3.2830    -1.0460 C.2   1 <1>  -0.1810 
  9 C       -4.9620     3.4710     0.6250 C.3   1 <1>   0.1800 
 10 C       -2.6900     4.6330    -1.7070 C.3   1 <1>   0.5240 
 11 C       -6.2340     2.6680     0.3160 C.3   1 <1>  -0.2400 
 12 C       -4.6880     3.4170     2.1340 C.3   1 <1>  -0.2400 
 13 C       -5.2140     4.9320     0.2330 C.3   1 <1>  -0.2400 
 14 N       -1.8440     5.4980    -0.8320 N.4   1 <1>  -0.9590 
 15 C       -1.6980     6.8920    -1.3370 C.3   1 <1>   0.5660 
 16 C       -0.5050     4.8660    -0.5630 C.3   1 <1>   0.2630 
 17 C       -0.8520     7.6900    -0.3590 C.ar  1 <1>  -0.1430 
 18 C       -3.0590     7.5650    -1.5180 C.3   1 <1>  -0.2400 
 19 C        0.3480     8.2310    -0.7990 C.ar  1 <1>   0.1600 
 20 C       -1.2240     7.8910     0.9600 C.ar  1 <1>  -0.1500 
 21 N        1.1870     8.9170    -0.0470 N.ar  1 <1>  -0.6200 
 22 C       -0.3590     8.6140     1.7530 C.ar  1 <1>  -0.1500 
 23 C        0.8180     9.0980     1.2100 C.ar  1 <1>   0.1600 
 24 H       -2.2320    -2.0700     0.3540 H     1 <1>   0.3700 
 25 H       -3.4470    -0.9100     0.8390 H     1 <1>   0.3700 
 26 H       -1.2450     2.1500    -2.0400 H     1 <1>   0.1500 
 27 H       -3.6540     5.0840    -1.8630 H     1 <1>   0.0800 
 28 H       -2.2210     4.4990    -2.6680 H     1 <1>   0.0800 
 29 H       -6.1220     1.6460     0.6320 H     1 <1>   0.0800 
 30 H       -6.4330     2.6720    -0.7410 H     1 <1>   0.0800 
 31 H       -7.0840     3.0850     0.8270 H     1 <1>   0.0800 
 32 H       -4.5670     2.3980     2.4580 H     1 <1>   0.0800 
 33 H       -5.5050     3.8480     2.6870 H     1 <1>   0.0800 
 34 H       -3.7880     3.9530     2.3750 H     1 <1>   0.0800 
 35 H       -5.4350     5.0110    -0.8160 H     1 <1>   0.0800 
 36 H       -4.3700     5.5430     0.4810 H     1 <1>   0.0800 
 37 H       -6.0640     5.3150     0.7720 H     1 <1>   0.0800 
 38 H       -2.3270     5.5550     0.0710 H     1 <1>   0.4500 
 39 H       -1.1940     6.8730    -2.2910 H     1 <1>   0.0800 
 40 H        0.0470     4.7420    -1.4800 H     1 <1>   0.0800 
 41 H       -0.6300     3.8980    -0.1040 H     1 <1>   0.0800 
 42 H        0.0770     5.4770     0.1090 H     1 <1>   0.0800 
 43 H       -3.6360     7.5390    -0.6120 H     1 <1>   0.0800 
 44 H       -3.6170     7.1230    -2.3220 H     1 <1>   0.0800 
 45 H       -2.9040     8.5990    -1.7750 H     1 <1>   0.0800 
 46 H        0.6480     8.0970    -1.8260 H     1 <1>   0.1500 
 47 H       -2.1440     7.5130     1.3740 H     1 <1>   0.1500 
 48 H       -0.5900     8.8090     2.7860 H     1 <1>   0.1500 
 49 H        1.4870     9.6620     1.8380 H     1 <1>   0.1500 
@<TRIPOS>BOND
  1   1   2  2   
  2   2   3  am  
  3   2   4  1   
  4   3  24  1   
  5   3  25  1   
  6   4   5  1   
  7   4   6  2   
  8   5   7  1   
  9   6   8  1   
 10   6  26  1   
 11   7   8  2   
 12   7   9  1   
 13   8  10  1   
 14   9  11  1   
 15   9  12  1   
 16   9  13  1   
 17  10  14  1   
 18  10  27  1   
 19  10  28  1   
 20  11  29  1   
 21  11  30  1   
 22  11  31  1   
 23  12  32  1   
 24  12  33  1   
 25  12  34  1   
 26  13  35  1   
 27  13  36  1   
 28  13  37  1   
 29  14  15  1   
 30  14  16  1   
 31  14  38  1   
 32  15  17  1   
 33  15  18  1   
 34  15  39  1   
 35  16  40  1   
 36  16  41  1   
 37  16  42  1   
 38  17  19  ar  
 39  17  20  ar  
 40  18  43  1   
 41  18  44  1   
 42  18  45  1   
 43  19  21  ar  
 44  19  46  1   
 45  20  22  ar  
 46  20  47  1   
 47  21  23  ar  
 48  22  23  ar  
 49  22  48  1   
 50  23  49  1   
@<TRIPOS>SUBSTRUCTURE
  1 ****  14 GROUP 4 **** **** 0

# MOE 2024.06 (io_trps.svl 2023.06)
