@<TRIPOS>MOLECULE
NONAME
54 57 1 0 0 
SMALL
USER_CHARGES


@<TRIPOS>ATOM
  1 O       -0.0270     2.7900    -2.3830 O.2   1 <1>  -0.5700 
  2 C        0.0520     3.0020    -1.1860 C.2   1 <1>   0.5440 
  3 N        1.2890     2.9390    -0.5750 N.am  1 <1>  -0.6600 
  4 C       -1.1490     3.2720    -0.4290 C.ar  1 <1>   0.0860 
  5 C        1.4970     3.5900     0.7620 C.3   1 <1>   0.1400 
  6 C        2.5040     2.6340    -1.4070 C.3   1 <1>   0.1400 
  7 C       -1.7060     4.5550    -0.3190 C.ar  1 <1>   0.0830 
  8 C       -1.7850     2.2200     0.2290 C.ar  1 <1>  -0.1500 
  9 C        2.8490     3.2790     1.4460 C.3   1 <1>   0.1400 
 10 C        3.7200     2.1960    -0.5770 C.3   1 <1>   0.1400 
 11 O       -1.0870     5.5760    -0.9670 O.3   1 <1>  -0.3630 
 12 C       -2.8560     4.7580     0.4400 C.ar  1 <1>  -0.1500 
 13 C       -2.9260     2.4250     0.9770 C.ar  1 <1>  -0.1500 
 14 N        3.9780     3.2110     0.4760 N.am  1 <1>  -0.6600 
 15 C       -1.7360     6.8120    -1.2100 C.3   1 <1>   0.1200 
 16 C       -3.4690     3.6930     1.0910 C.ar  1 <1>   0.0830 
 17 C        5.0050     4.1120     0.3290 C.2   1 <1>   0.5690 
 18 C       -0.8560     7.7060    -2.0870 C.3   1 <1>   0.0960 
 19 O       -4.5840     3.8090     1.8480 O.3   1 <1>  -0.3630 
 20 O        5.9880     3.8440    -0.3190 O.2   1 <1>  -0.5700 
 21 C        4.9140     5.5300     0.8870 C.3   1 <1>  -0.0990 
 22 N        0.3730     8.0780    -1.3700 N.pl3 1 <1>   0.3140 
 23 C       -5.2310     5.0460     2.0480 C.3   1 <1>   0.0400 
 24 C        3.6040     6.2050     0.4460 C.3   1 <1>  -0.1600 
 25 N        0.4630     9.1440    -0.5660 N.2   1 <1>  -0.4180 
 26 C        1.5120     7.3970    -1.3300 C.2   1 <1>  -0.3020 
 27 C        3.6730     7.6760     0.0250 C.3   1 <1>   0.0210 
 28 N        1.6310     9.1430    -0.0180 N.2   1 <1>  -0.2270 
 29 C        2.2880     8.0670    -0.4640 C.2   1 <1>   0.0460 
 30 H        0.7120     3.2860     1.4320 H     1 <1>   0.0800 
 31 H        1.3940     4.6510     0.6300 H     1 <1>   0.0800 
 32 H        2.7650     3.5120    -1.9710 H     1 <1>   0.0800 
 33 H        2.2670     1.8550    -2.1100 H     1 <1>   0.0800 
 34 H       -1.3730     1.2300     0.1430 H     1 <1>   0.1500 
 35 H        2.7690     2.3240     1.9360 H     1 <1>   0.0800 
 36 H        3.0500     4.0070     2.2100 H     1 <1>   0.0800 
 37 H        4.5740     2.0920    -1.2240 H     1 <1>   0.0800 
 38 H        3.5290     1.2400    -0.1240 H     1 <1>   0.0800 
 39 H       -3.2760     5.7370     0.5340 H     1 <1>   0.1500 
 40 H       -3.4080     1.6040     1.4790 H     1 <1>   0.1500 
 41 H       -1.9250     7.2980    -0.2680 H     1 <1>   0.0800 
 42 H       -2.6660     6.6070    -1.7110 H     1 <1>   0.0800 
 43 H       -1.3850     8.6070    -2.3330 H     1 <1>   0.0800 
 44 H       -0.5980     7.1960    -2.9960 H     1 <1>   0.0800 
 45 H        5.7520     6.0880     0.5100 H     1 <1>   0.0800 
 46 H        4.9910     5.5040     1.9580 H     1 <1>   0.0800 
 47 H       -6.0820     4.8780     2.6840 H     1 <1>   0.0800 
 48 H       -5.5570     5.4280     1.0970 H     1 <1>   0.0800 
 49 H       -4.5480     5.7250     2.5260 H     1 <1>   0.0800 
 50 H        2.8880     6.1290     1.2440 H     1 <1>   0.0800 
 51 H        3.2250     5.6560    -0.3970 H     1 <1>   0.0800 
 52 H        1.6790     6.4920    -1.8850 H     1 <1>   0.1500 
 53 H        4.3840     7.8140    -0.7700 H     1 <1>   0.0800 
 54 H        3.9570     8.2910     0.8610 H     1 <1>   0.0800 
@<TRIPOS>BOND
  1   1   2  2   
  2   2   3  am  
  3   2   4  1   
  4   3   5  1   
  5   3   6  1   
  6   4   7  ar  
  7   4   8  ar  
  8   5   9  1   
  9   5  30  1   
 10   5  31  1   
 11   6  10  1   
 12   6  32  1   
 13   6  33  1   
 14   7  11  1   
 15   7  12  ar  
 16   8  13  ar  
 17   8  34  1   
 18   9  14  1   
 19   9  35  1   
 20   9  36  1   
 21  10  14  1   
 22  10  37  1   
 23  10  38  1   
 24  11  15  1   
 25  12  16  ar  
 26  12  39  1   
 27  13  16  ar  
 28  13  40  1   
 29  14  17  am  
 30  15  18  1   
 31  15  41  1   
 32  15  42  1   
 33  16  19  1   
 34  17  20  2   
 35  17  21  1   
 36  18  22  1   
 37  18  43  1   
 38  18  44  1   
 39  19  23  1   
 40  21  24  1   
 41  21  45  1   
 42  21  46  1   
 43  22  25  1   
 44  22  26  1   
 45  23  47  1   
 46  23  48  1   
 47  23  49  1   
 48  24  27  1   
 49  24  50  1   
 50  24  51  1   
 51  25  28  2   
 52  26  29  2   
 53  26  52  1   
 54  27  29  1   
 55  27  53  1   
 56  27  54  1   
 57  28  29  1   
@<TRIPOS>SUBSTRUCTURE
  1 ****   5 GROUP 4 **** **** 0

# MOE 2024.06 (io_trps.svl 2023.06)
