@<TRIPOS>MOLECULE
NONAME
47 48 1 0 0 
SMALL
USER_CHARGES


@<TRIPOS>ATOM
  1 S        0.4840     0.1650    -1.3830 S.o2  1 <1>   1.3330 
  2 O        0.4790     0.9340    -2.6070 O.2   1 <1>  -0.6500 
  3 O        0.4500    -1.2790    -1.4470 O.2   1 <1>  -0.6500 
  4 N       -0.8260     0.6750    -0.4330 N.am  1 <1>  -0.8490 
  5 C        1.9020     0.7140    -0.4380 C.3   1 <1>  -0.0550 
  6 C       -2.0350     0.8930    -1.2340 C.3   1 <1>   0.1160 
  7 C       -1.1260    -0.2400     0.6750 C.3   1 <1>   0.1160 
  8 C        3.2530     0.3070    -1.0780 C.3   1 <1>  -0.0800 
  9 C        4.4690     1.0270    -0.5030 C.3   1 <1>   0.2200 
 10 C        3.5910    -1.1290    -0.6880 C.3   1 <1>   0.1200 
 11 N        4.2230     2.4610    -0.2100 N.am  1 <1>  -0.7300 
 12 C        4.8120     0.1860     0.7330 C.3   1 <1>   0.1200 
 13 O        4.1250    -1.0250     0.5920 O.3   1 <1>  -0.5600 
 14 C        5.1040     3.2790     0.4160 C.2   1 <1>   0.5690 
 15 O        6.1580     2.8840     0.8480 O.2   1 <1>  -0.5700 
 16 C        4.7610     4.7430     0.5550 C.3   1 <1>  -0.0990 
 17 C        5.4030     5.5580    -0.5710 C.3   1 <1>   0.0200 
 18 C        5.0490     7.0280    -0.4320 C.2   1 <1>  -0.3320 
 19 N        5.6040     7.8880     0.4550 N.pl3 1 <1>   0.3140 
 20 C        4.1440     7.7350    -1.1430 C.2   1 <1>  -0.1500 
 21 N        5.0760     9.1180     0.3370 N.2   1 <1>  -0.7070 
 22 C        6.6550     7.6160     1.4460 C.3   1 <1>   0.0160 
 23 C        4.2060     9.0200    -0.6200 C.2   1 <1>   0.1390 
 24 H        1.8320     1.7800    -0.3670 H     1 <1>   0.0800 
 25 H        1.8500     0.3240     0.5600 H     1 <1>   0.0800 
 26 H       -2.8430     1.2290    -0.6080 H     1 <1>   0.0800 
 27 H       -2.3250    -0.0190    -1.7300 H     1 <1>   0.0800 
 28 H       -1.8520     1.6480    -1.9800 H     1 <1>   0.0800 
 29 H       -1.9070     0.1710     1.2920 H     1 <1>   0.0800 
 30 H       -0.2530    -0.3850     1.2870 H     1 <1>   0.0800 
 31 H       -1.4460    -1.1980     0.2980 H     1 <1>   0.0800 
 32 H        3.2150     0.4160    -2.1480 H     1 <1>   0.0800 
 33 H        5.2920     0.9530    -1.1940 H     1 <1>   0.0800 
 34 H        4.3510    -1.5400    -1.3320 H     1 <1>   0.0800 
 35 H        2.7440    -1.7920    -0.6640 H     1 <1>   0.0800 
 36 H        3.4030     2.8690    -0.6580 H     1 <1>   0.3700 
 37 H        4.4750     0.6560     1.6400 H     1 <1>   0.0800 
 38 H        5.8670    -0.0160     0.7880 H     1 <1>   0.0800 
 39 H        3.6950     4.8730     0.5370 H     1 <1>   0.0800 
 40 H        5.1200     5.0850     1.5080 H     1 <1>   0.0800 
 41 H        5.0430     5.1970    -1.5190 H     1 <1>   0.0800 
 42 H        6.4720     5.4300    -0.5590 H     1 <1>   0.0800 
 43 H        3.5000     7.4120    -1.9410 H     1 <1>   0.1500 
 44 H        7.4080     6.9890     1.0080 H     1 <1>   0.0800 
 45 H        6.2180     7.1300     2.2970 H     1 <1>   0.0800 
 46 H        7.0960     8.5460     1.7510 H     1 <1>   0.0800 
 47 H        3.6070     9.8470    -0.9610 H     1 <1>   0.1500 
@<TRIPOS>BOND
  1   1   2  2   
  2   1   3  2   
  3   1   4  am  
  4   1   5  1   
  5   4   6  1   
  6   4   7  1   
  7   5   8  1   
  8   5  24  1   
  9   5  25  1   
 10   6  26  1   
 11   6  27  1   
 12   6  28  1   
 13   7  29  1   
 14   7  30  1   
 15   7  31  1   
 16   8   9  1   
 17   8  10  1   
 18   8  32  1   
 19   9  11  1   
 20   9  12  1   
 21   9  33  1   
 22  10  13  1   
 23  10  34  1   
 24  10  35  1   
 25  11  14  am  
 26  11  36  1   
 27  12  13  1   
 28  12  37  1   
 29  12  38  1   
 30  14  15  2   
 31  14  16  1   
 32  16  17  1   
 33  16  39  1   
 34  16  40  1   
 35  17  18  1   
 36  17  41  1   
 37  17  42  1   
 38  18  19  1   
 39  18  20  2   
 40  19  21  1   
 41  19  22  1   
 42  20  23  1   
 43  20  43  1   
 44  21  23  2   
 45  22  44  1   
 46  22  45  1   
 47  22  46  1   
 48  23  47  1   
@<TRIPOS>SUBSTRUCTURE
  1 ****  11 GROUP 4 **** **** 0

# MOE 2024.06 (io_trps.svl 2023.06)
