@<TRIPOS>MOLECULE
NONAME
42 44 1 0 0 
SMALL
USER_CHARGES


@<TRIPOS>ATOM
  1 O        1.3290     3.4600     1.0700 O.co2 1 <1>  -0.9000 
  2 C        1.9800     3.2740     0.0340 C.2   1 <1>   0.9470 
  3 O        1.8710     4.0330    -0.9390 O.co2 1 <1>  -0.9000 
  4 C        3.1120     2.2490     0.0420 C.3   1 <1>  -0.2420 
  5 C        3.1660     0.7510    -0.1280 C.3   1 <1>  -0.2420 
  6 C        4.1030     2.6030     1.1300 C.3   1 <1>   0.2350 
  7 C        3.5330     1.6520    -1.2800 C.3   1 <1>  -0.2000 
  8 C        2.0380    -0.2700    -0.3000 C.2   1 <1>   0.9470 
  9 C        4.2450     0.2240     0.8100 C.3   1 <1>   0.2350 
 10 N        5.0260     1.4350     1.1900 N.am  1 <1>  -0.6600 
 11 O        1.6870    -0.6090    -1.4380 O.co2 1 <1>  -0.9000 
 12 O        1.6020    -0.8510     0.7040 O.co2 1 <1>  -0.9000 
 13 C        6.3990     1.4340     1.1930 C.2   1 <1>   0.5690 
 14 O        6.9930     0.4010     1.4340 O.2   1 <1>  -0.5700 
 15 C        7.2360     2.7270     0.8700 C.3   1 <1>   0.4300 
 16 N        6.7500     3.3890    -0.3900 N.pl3 1 <1>  -0.8690 
 17 C        7.2020     3.6890     2.0720 C.3   1 <1>  -0.2400 
 18 C        8.7040     2.3680     0.5850 C.3   1 <1>  -0.2400 
 19 C        6.5840     4.7600    -0.5800 C.ar  1 <1>   0.1000 
 20 C        5.3340     5.2480    -0.9430 C.ar  1 <1>  -0.1500 
 21 C        7.6320     5.6660    -0.4530 C.ar  1 <1>  -0.1500 
 22 C        5.1230     6.6010    -1.1300 C.ar  1 <1>  -0.1500 
 23 C        7.4290     7.0210    -0.6420 C.ar  1 <1>  -0.1500 
 24 C        6.1700     7.4930    -0.9760 C.ar  1 <1>  -0.1500 
 25 H        3.5820     2.6900     2.0690 H     1 <1>   0.0800 
 26 H        4.5910     3.5300     0.9190 H     1 <1>   0.0800 
 27 H        4.5550     1.6990    -1.6050 H     1 <1>   0.1000 
 28 H        2.8400     1.7200    -2.1020 H     1 <1>   0.1000 
 29 H        4.8590    -0.5090     0.3160 H     1 <1>   0.0800 
 30 H        3.8020    -0.2080     1.6910 H     1 <1>   0.0800 
 31 H        5.9130     2.8680    -0.6930 H     1 <1>   0.4000 
 32 H        7.4740     3.1540     2.9630 H     1 <1>   0.0800 
 33 H        6.2200     4.0970     2.2170 H     1 <1>   0.0800 
 34 H        7.8980     4.4960     1.9470 H     1 <1>   0.0800 
 35 H        9.1430     1.8930     1.4440 H     1 <1>   0.0800 
 36 H        9.2790     3.2410     0.3490 H     1 <1>   0.0800 
 37 H        8.7530     1.6830    -0.2410 H     1 <1>   0.0800 
 38 H        4.5050     4.5740    -1.0830 H     1 <1>   0.1500 
 39 H        8.6120     5.3050    -0.2110 H     1 <1>   0.1500 
 40 H        4.1370     6.9450    -1.3940 H     1 <1>   0.1500 
 41 H        8.2480     7.7080    -0.5330 H     1 <1>   0.1500 
 42 H        6.0040     8.5450    -1.1200 H     1 <1>   0.1500 
@<TRIPOS>BOND
  1   1   2  ar  
  2   2   3  ar  
  3   2   4  1   
  4   4   5  1   
  5   4   6  1   
  6   4   7  1   
  7   5   7  1   
  8   5   8  1   
  9   5   9  1   
 10   6  10  1   
 11   6  25  1   
 12   6  26  1   
 13   7  27  1   
 14   7  28  1   
 15   8  11  ar  
 16   8  12  ar  
 17   9  10  1   
 18   9  29  1   
 19   9  30  1   
 20  10  13  am  
 21  13  14  2   
 22  13  15  1   
 23  15  16  1   
 24  15  17  1   
 25  15  18  1   
 26  16  19  1   
 27  16  31  1   
 28  17  32  1   
 29  17  33  1   
 30  17  34  1   
 31  18  35  1   
 32  18  36  1   
 33  18  37  1   
 34  19  20  ar  
 35  19  21  ar  
 36  20  22  ar  
 37  20  38  1   
 38  21  23  ar  
 39  21  39  1   
 40  22  24  ar  
 41  22  40  1   
 42  23  24  ar  
 43  23  41  1   
 44  24  42  1   
@<TRIPOS>SUBSTRUCTURE
  1 ****   6 GROUP 4 **** **** 0

# MOE 2024.06 (io_trps.svl 2023.06)
