@<TRIPOS>MOLECULE
NONAME
39 40 1 0 0 
SMALL
USER_CHARGES


@<TRIPOS>ATOM
  1 S       -0.7910    -0.9290     0.4770 S.3   1 <1>  -0.0800 
  2 C       -1.8580    -1.3050    -0.8380 C.2   1 <1>   0.4420 
  3 C       -0.7730     0.7000    -0.1030 C.2   1 <1>   0.1980 
  4 N       -2.1090    -0.2750    -1.5630 N.2   1 <1>  -0.3380 
  5 N       -2.2850    -2.6110    -0.9340 N.am  1 <1>  -0.4940 
  6 N       -1.4870     0.8640    -1.1380 N.2   1 <1>  -0.3380 
  7 C        0.0500     1.7290     0.6400 C.3   1 <1>   0.0200 
  8 C       -3.1510    -3.1790    -1.8250 C.2   1 <1>   0.5690 
  9 C       -0.0790     3.0760    -0.0820 C.3   1 <1>   0.3430 
 10 O       -3.6960    -2.5700    -2.7090 O.2   1 <1>  -0.5700 
 11 C       -3.4340    -4.6660    -1.6950 C.3   1 <1>   0.0440 
 12 N        0.7540     4.1600     0.5390 N.4   1 <1>  -0.9590 
 13 C       -4.0250    -5.0270    -0.3330 C.ar  1 <1>  -0.1430 
 14 C        0.2510     4.5690     1.8910 C.3   1 <1>   0.2630 
 15 C        0.7880     5.3470    -0.3720 C.3   1 <1>   0.2630 
 16 C       -3.2280    -5.2230     0.7870 C.ar  1 <1>   0.1900 
 17 C       -5.4000    -5.1670    -0.1810 C.ar  1 <1>  -0.1500 
 18 F       -1.9290    -5.0750     0.6800 F     1 <1>  -0.1900 
 19 C       -3.7810    -5.5550     2.0120 C.ar  1 <1>   0.1900 
 20 C       -5.9560    -5.5000     1.0490 C.ar  1 <1>  -0.1500 
 21 F       -3.0120    -5.7330     3.0560 F     1 <1>  -0.1900 
 22 C       -5.1480    -5.6990     2.1590 C.ar  1 <1>  -0.1500 
 23 H       -1.9180    -3.2410    -0.2220 H     1 <1>   0.3700 
 24 H        1.0750     1.4080     0.6490 H     1 <1>   0.0800 
 25 H       -0.3190     1.7980     1.6460 H     1 <1>   0.0800 
 26 H       -1.1160     3.3720    -0.0930 H     1 <1>   0.0800 
 27 H        0.2240     2.9350    -1.1080 H     1 <1>   0.0800 
 28 H       -2.5220    -5.2090    -1.8610 H     1 <1>   0.0800 
 29 H       -4.1180    -4.9540    -2.4730 H     1 <1>   0.0800 
 30 H        1.7230     3.8150     0.6360 H     1 <1>   0.4500 
 31 H       -0.7650     4.9220     1.8220 H     1 <1>   0.0800 
 32 H        0.8620     5.3610     2.2930 H     1 <1>   0.0800 
 33 H        0.2820     3.7370     2.5750 H     1 <1>   0.0800 
 34 H       -0.2060     5.7430    -0.5100 H     1 <1>   0.0800 
 35 H        1.1830     5.0690    -1.3360 H     1 <1>   0.0800 
 36 H        1.4120     6.1220     0.0430 H     1 <1>   0.0800 
 37 H       -6.0540    -5.0140    -1.0240 H     1 <1>   0.1500 
 38 H       -7.0250    -5.6030     1.1420 H     1 <1>   0.1500 
 39 H       -5.5660    -5.9570     3.1150 H     1 <1>   0.1500 
@<TRIPOS>BOND
  1   1   2  1   
  2   1   3  1   
  3   2   4  2   
  4   2   5  1   
  5   3   6  2   
  6   3   7  1   
  7   4   6  1   
  8   5   8  am  
  9   5  23  1   
 10   7   9  1   
 11   7  24  1   
 12   7  25  1   
 13   8  10  2   
 14   8  11  1   
 15   9  12  1   
 16   9  26  1   
 17   9  27  1   
 18  11  13  1   
 19  11  28  1   
 20  11  29  1   
 21  12  14  1   
 22  12  15  1   
 23  12  30  1   
 24  13  16  ar  
 25  13  17  ar  
 26  14  31  1   
 27  14  32  1   
 28  14  33  1   
 29  15  34  1   
 30  15  35  1   
 31  15  36  1   
 32  16  18  1   
 33  16  19  ar  
 34  17  20  ar  
 35  17  37  1   
 36  19  21  1   
 37  19  22  ar  
 38  20  22  ar  
 39  20  38  1   
 40  22  39  1   
@<TRIPOS>SUBSTRUCTURE
  1 ****   2 GROUP 4 **** **** 0

# MOE 2024.06 (io_trps.svl 2023.06)
