@<TRIPOS>MOLECULE
NONAME
44 45 1 0 0 
SMALL
USER_CHARGES


@<TRIPOS>ATOM
  1 S        0.4010     0.6830    -0.8540 S.o2  1 <1>   1.3330 
  2 O        0.2250    -0.6950    -1.2560 O.2   1 <1>  -0.6500 
  3 O       -0.5530     1.6820    -1.2810 O.2   1 <1>  -0.6500 
  4 N        0.4440     0.7300     0.8440 N.am  1 <1>  -0.8490 
  5 C        2.0500     1.1980    -1.3360 C.3   1 <1>  -0.0550 
  6 C        0.3060     2.0850     1.3920 C.3   1 <1>   0.1160 
  7 C       -0.5640    -0.1500     1.4420 C.3   1 <1>   0.1160 
  8 C        3.1550     0.1550    -1.0540 C.3   1 <1>  -0.0800 
  9 C        4.5450     0.5500    -1.5320 C.3   1 <1>   0.2200 
 10 C        3.3910    -0.1660     0.4280 C.3   1 <1>   0.1200 
 11 N        4.8280     1.9600    -1.1820 N.am  1 <1>  -0.7300 
 12 C        5.4040    -0.3510    -0.6570 C.3   1 <1>   0.1200 
 13 O        4.7670    -0.3610     0.5850 O.3   1 <1>  -0.5600 
 14 C        4.7270     3.0200    -2.0220 C.2   1 <1>   0.5690 
 15 O        4.4850     2.8780    -3.1950 O.2   1 <1>  -0.5700 
 16 C        4.8910     4.4250    -1.4660 C.3   1 <1>   0.1310 
 17 S        4.0830     4.5530     0.2060 S.3   1 <1>  -0.3310 
 18 C        4.3170     6.2470     0.7560 C.ar  1 <1>   0.1010 
 19 C        4.9390     7.2150    -0.0050 C.ar  1 <1>  -0.1500 
 20 C        3.8520     6.5980     2.0020 C.ar  1 <1>  -0.1500 
 21 C        5.0600     8.4870     0.5270 C.ar  1 <1>   0.1600 
 22 C        4.0290     7.9000     2.4310 C.ar  1 <1>   0.1600 
 23 N        4.6210     8.8500     1.7230 N.ar  1 <1>  -0.6200 
 24 H        2.0470     1.3950    -2.3910 H     1 <1>   0.0800 
 25 H        2.2810     2.1210    -0.8440 H     1 <1>   0.0800 
 26 H        0.4190     2.0630     2.4620 H     1 <1>   0.0800 
 27 H       -0.6610     2.4940     1.1500 H     1 <1>   0.0800 
 28 H        1.0650     2.7320     0.9860 H     1 <1>   0.0800 
 29 H       -0.5030    -0.1130     2.5160 H     1 <1>   0.0800 
 30 H       -0.3970    -1.1680     1.1310 H     1 <1>   0.0800 
 31 H       -1.5520     0.1480     1.1310 H     1 <1>   0.0800 
 32 H        2.8850    -0.7640    -1.5440 H     1 <1>   0.0800 
 33 H        4.6970     0.3760    -2.5850 H     1 <1>   0.0800 
 34 H        2.8700    -1.0570     0.7330 H     1 <1>   0.0800 
 35 H        3.1100     0.6550     1.0640 H     1 <1>   0.0800 
 36 H        4.9640     2.1170    -0.1780 H     1 <1>   0.3700 
 37 H        6.4120     0.0070    -0.5480 H     1 <1>   0.0800 
 38 H        5.4100    -1.3590    -1.0340 H     1 <1>   0.0800 
 39 H        4.4110     5.1370    -2.1120 H     1 <1>   0.0800 
 40 H        5.9310     4.6620    -1.3470 H     1 <1>   0.0800 
 41 H        5.3240     7.0140    -0.9840 H     1 <1>   0.1500 
 42 H        3.3620     5.8740     2.6260 H     1 <1>   0.1500 
 43 H        5.5440     9.2490    -0.0610 H     1 <1>   0.1500 
 44 H        3.6650     8.1770     3.4060 H     1 <1>   0.1500 
@<TRIPOS>BOND
  1   1   2  2   
  2   1   3  2   
  3   1   4  am  
  4   1   5  1   
  5   4   6  1   
  6   4   7  1   
  7   5   8  1   
  8   5  24  1   
  9   5  25  1   
 10   6  26  1   
 11   6  27  1   
 12   6  28  1   
 13   7  29  1   
 14   7  30  1   
 15   7  31  1   
 16   8   9  1   
 17   8  10  1   
 18   8  32  1   
 19   9  11  1   
 20   9  12  1   
 21   9  33  1   
 22  10  13  1   
 23  10  34  1   
 24  10  35  1   
 25  11  14  am  
 26  11  36  1   
 27  12  13  1   
 28  12  37  1   
 29  12  38  1   
 30  14  15  2   
 31  14  16  1   
 32  16  17  1   
 33  16  39  1   
 34  16  40  1   
 35  17  18  1   
 36  18  19  ar  
 37  18  20  ar  
 38  19  21  ar  
 39  19  41  1   
 40  20  22  ar  
 41  20  42  1   
 42  21  23  ar  
 43  21  43  1   
 44  22  23  ar  
 45  22  44  1   
@<TRIPOS>SUBSTRUCTURE
  1 ****  17 GROUP 4 **** **** 0

# MOE 2024.06 (io_trps.svl 2023.06)
