@<TRIPOS>MOLECULE
NONAME
25 26 1 0 0 
SMALL
USER_CHARGES


@<TRIPOS>ATOM
  1 N        6.1410     1.4400     0.6000 N.ar  1 <1>  -0.6200 
  2 C        5.2550     0.8590    -0.1820 C.ar  1 <1>   0.4100 
  3 C        6.0940     2.7600     0.6340 C.ar  1 <1>   0.4700 
  4 N        5.2610    -0.5180    -0.2300 N.pl3 1 <1>  -0.8380 
  5 C        4.3500     1.6030    -0.9140 C.ar  1 <1>  -0.1500 
  6 N        5.2730     3.5670    -0.0160 N.ar  1 <1>  -0.6200 
  7 C        4.1110    -1.2210     0.4120 C.3   1 <1>   0.2090 
  8 C        6.5840    -1.2060    -0.0960 C.3   1 <1>   0.2090 
  9 C        4.3980     2.9650    -0.7980 C.ar  1 <1>   0.1600 
 10 C        4.0580    -2.7090     0.0020 C.3   1 <1>   0.3430 
 11 C        6.4950    -2.6880    -0.5100 C.3   1 <1>   0.3430 
 12 N        5.3770    -3.4080     0.1980 N.4   1 <1>  -0.9060 
 13 H        6.8150     3.2420     1.2730 H     1 <1>   0.1500 
 14 H        3.6410     1.1200    -1.5550 H     1 <1>   0.1500 
 15 H        3.1900    -0.7420     0.1280 H     1 <1>   0.0800 
 16 H        4.2020    -1.1400     1.4830 H     1 <1>   0.0800 
 17 H        6.9250    -1.1310     0.9230 H     1 <1>   0.0800 
 18 H        7.3080    -0.7060    -0.7180 H     1 <1>   0.0800 
 19 H        3.7130     3.5840    -1.3510 H     1 <1>   0.1500 
 20 H        3.7780    -2.7580    -1.0380 H     1 <1>   0.0800 
 21 H        3.2900    -3.2050     0.5720 H     1 <1>   0.0800 
 22 H        7.4360    -3.1700    -0.3010 H     1 <1>   0.0800 
 23 H        6.3330    -2.7280    -1.5750 H     1 <1>   0.0800 
 24 H        5.3170    -4.3780    -0.1360 H     1 <1>   0.4500 
 25 H        5.5910    -3.4390     1.2020 H     1 <1>   0.4500 
@<TRIPOS>BOND
  1   1   2  ar  
  2   1   3  ar  
  3   2   4  1   
  4   2   5  ar  
  5   3   6  ar  
  6   3  13  1   
  7   4   7  1   
  8   4   8  1   
  9   5   9  ar  
 10   5  14  1   
 11   6   9  ar  
 12   7  10  1   
 13   7  15  1   
 14   7  16  1   
 15   8  11  1   
 16   8  17  1   
 17   8  18  1   
 18   9  19  1   
 19  10  12  1   
 20  10  20  1   
 21  10  21  1   
 22  11  12  1   
 23  11  22  1   
 24  11  23  1   
 25  12  24  1   
 26  12  25  1   
@<TRIPOS>SUBSTRUCTURE
  1 ****   4 GROUP 4 **** **** 0

# MOE 2024.06 (io_trps.svl 2023.06)
