@<TRIPOS>MOLECULE
NONAME
49 51 1 0 0 
SMALL
USER_CHARGES


@<TRIPOS>ATOM
  1 O       -0.4420    -0.4750    -0.6850 O.3   1 <1>  -0.3630 
  2 C       -1.5550    -1.0300    -0.1690 C.ar  1 <1>   0.0830 
  3 C        0.5670    -0.0960     0.2240 C.3   1 <1>   0.0400 
  4 C       -1.6820    -2.4080    -0.0630 C.ar  1 <1>  -0.1440 
  5 C       -2.6090    -0.2350     0.2480 C.ar  1 <1>  -0.1440 
  6 C       -2.8550    -2.9130     0.4900 C.ar  1 <1>   0.1660 
  7 C       -0.5470    -3.3170    -0.5460 C.3   1 <1>  -0.0960 
  8 C       -3.7220    -0.8580     0.7790 C.ar  1 <1>   0.1600 
  9 C       -2.5650     1.2830     0.1260 C.3   1 <1>  -0.0970 
 10 N       -3.8690    -2.1670     0.9110 N.ar  1 <1>  -0.6200 
 11 C       -3.0650    -4.4170     0.6500 C.3   1 <1>   0.4860 
 12 N       -3.9220    -4.9730    -0.4530 N.4   1 <1>  -0.9590 
 13 C       -5.3410    -4.4840    -0.3520 C.3   1 <1>   0.3430 
 14 C       -3.9580    -6.4630    -0.4410 C.3   1 <1>   0.3430 
 15 C       -6.2250    -5.7340    -0.2700 C.3   1 <1>   0.2000 
 16 C       -5.2960    -6.8510     0.1850 C.3   1 <1>  -0.0800 
 17 O       -7.2680    -5.5860     0.6310 O.3   1 <1>  -0.6800 
 18 C       -5.7900    -8.2510    -0.2250 C.3   1 <1>  -0.0170 
 19 C       -4.8510    -9.3480     0.2560 C.ar  1 <1>   0.1670 
 20 N       -3.6330    -9.3560    -0.2680 N.ar  1 <1>  -0.6200 
 21 C       -5.2890   -10.2780     1.1980 C.ar  1 <1>   0.1600 
 22 C       -2.9000   -10.3590     0.1950 C.ar  1 <1>   0.1600 
 23 N       -4.5500   -11.2650     1.6730 N.ar  1 <1>  -0.6200 
 24 C       -3.3440   -11.2810     1.1350 C.ar  1 <1>   0.1600 
 25 H        1.3780     0.3360    -0.3340 H     1 <1>   0.0800 
 26 H        0.9060    -0.9680     0.7530 H     1 <1>   0.0800 
 27 H        0.1680     0.6270     0.9130 H     1 <1>   0.0800 
 28 H       -0.9220    -4.2100    -1.0110 H     1 <1>   0.0800 
 29 H        0.0860    -3.5840     0.2810 H     1 <1>   0.0800 
 30 H        0.0600    -2.8170    -1.2810 H     1 <1>   0.0800 
 31 H       -4.5420    -0.2440     1.1150 H     1 <1>   0.1500 
 32 H       -3.5560     1.7000     0.1530 H     1 <1>   0.0800 
 33 H       -2.1070     1.5700    -0.8040 H     1 <1>   0.0800 
 34 H       -1.9950     1.7010     0.9360 H     1 <1>   0.0800 
 35 H       -3.5300    -4.5990     1.6040 H     1 <1>   0.0800 
 36 H       -2.1070    -4.9080     0.6510 H     1 <1>   0.0800 
 37 H       -3.5240    -4.6320    -1.3390 H     1 <1>   0.4500 
 38 H       -5.4740    -3.8910     0.5380 H     1 <1>   0.0800 
 39 H       -5.6040    -3.8910    -1.2130 H     1 <1>   0.0800 
 40 H       -3.9240    -6.8360    -1.4530 H     1 <1>   0.0800 
 41 H       -3.1320    -6.8880     0.1070 H     1 <1>   0.0800 
 42 H       -6.6480    -5.9410    -1.2390 H     1 <1>   0.0800 
 43 H       -5.1770    -6.8160     1.2550 H     1 <1>   0.0800 
 44 H       -6.9640    -5.4180     1.5460 H     1 <1>   0.4000 
 45 H       -5.8730    -8.3180    -1.2960 H     1 <1>   0.0800 
 46 H       -6.7730    -8.4110     0.1840 H     1 <1>   0.0800 
 47 H       -6.2930   -10.2070     1.5790 H     1 <1>   0.1500 
 48 H       -1.8990   -10.4600    -0.1870 H     1 <1>   0.1500 
 49 H       -2.6740   -12.0610     1.4530 H     1 <1>   0.1500 
@<TRIPOS>BOND
  1   1   2  1   
  2   1   3  1   
  3   2   4  ar  
  4   2   5  ar  
  5   3  25  1   
  6   3  26  1   
  7   3  27  1   
  8   4   6  ar  
  9   4   7  1   
 10   5   8  ar  
 11   5   9  1   
 12   6  10  ar  
 13   6  11  1   
 14   7  28  1   
 15   7  29  1   
 16   7  30  1   
 17   8  10  ar  
 18   8  31  1   
 19   9  32  1   
 20   9  33  1   
 21   9  34  1   
 22  11  12  1   
 23  11  35  1   
 24  11  36  1   
 25  12  13  1   
 26  12  14  1   
 27  12  37  1   
 28  13  15  1   
 29  13  38  1   
 30  13  39  1   
 31  14  16  1   
 32  14  40  1   
 33  14  41  1   
 34  15  16  1   
 35  15  17  1   
 36  15  42  1   
 37  16  18  1   
 38  16  43  1   
 39  17  44  1   
 40  18  19  1   
 41  18  45  1   
 42  18  46  1   
 43  19  20  ar  
 44  19  21  ar  
 45  20  22  ar  
 46  21  23  ar  
 47  21  47  1   
 48  22  24  ar  
 49  22  48  1   
 50  23  24  ar  
 51  24  49  1   
@<TRIPOS>SUBSTRUCTURE
  1 ****  12 GROUP 4 **** **** 0

# MOE 2024.06 (io_trps.svl 2023.06)
