@<TRIPOS>MOLECULE
NONAME
48 50 1 0 0 
SMALL
USER_CHARGES


@<TRIPOS>ATOM
  1 O        2.8120    -1.2010    -3.4650 O.2   1 <1>  -0.5700 
  2 C        2.3560    -1.6450    -2.4290 C.2   1 <1>   0.7160 
  3 N        1.4520    -2.6600    -2.5010 N.am  1 <1>  -0.4900 
  4 C        2.6830    -1.1990    -1.1270 C.2   1 <1>  -0.0860 
  5 C        0.8950    -3.2190    -1.3680 C.2   1 <1>   0.4490 
  6 C        2.0890    -1.7900    -0.0560 C.2   1 <1>  -0.0260 
  7 C        3.5210    -0.2320    -0.5770 C.2   1 <1>   0.1390 
  8 N        1.1790    -2.8240    -0.1720 N.2   1 <1>  -0.5760 
  9 C       -0.1100    -4.3730    -1.5540 C.3   1 <1>   0.4040 
 10 N        2.5720    -1.1700     1.0480 N.pl3 1 <1>   0.3140 
 11 N        3.4630    -0.2100     0.7190 N.2   1 <1>  -0.7070 
 12 N       -0.3060    -5.2020    -0.3100 N.4   1 <1>  -0.9590 
 13 C        2.2270    -1.4380     2.4490 C.3   1 <1>   0.0160 
 14 C        0.9150    -6.0220    -0.0330 C.3   1 <1>   0.3430 
 15 C       -1.5440    -6.0390    -0.4200 C.3   1 <1>   0.2630 
 16 C        0.8740    -6.6520     1.3670 C.3   1 <1>  -0.1600 
 17 C        0.9470    -8.1890     1.3200 C.3   1 <1>   0.0960 
 18 N       -0.1880    -8.7680     0.5710 N.pl3 1 <1>   0.3140 
 19 N       -0.1870    -8.7930    -0.7770 N.2   1 <1>  -0.7070 
 20 C       -1.3310    -9.2900     1.0680 C.2   1 <1>  -0.3320 
 21 C       -1.2990    -9.3730    -1.1020 C.2   1 <1>   0.1080 
 22 C       -2.0650    -9.6960     0.0100 C.2   1 <1>  -0.1500 
 23 C       -1.6820    -9.4090     2.5430 C.3   1 <1>  -0.0600 
 24 C       -1.6840    -9.6590    -2.5350 C.3   1 <1>  -0.0590 
 25 H        1.2370    -2.9490    -3.4530 H     1 <1>   0.3700 
 26 H        4.1470     0.4240    -1.1600 H     1 <1>   0.1500 
 27 H        0.2270    -5.0090    -2.3550 H     1 <1>   0.0800 
 28 H       -1.0520    -3.9410    -1.8460 H     1 <1>   0.0800 
 29 H       -0.3980    -4.5260     0.4660 H     1 <1>   0.4500 
 30 H        1.2380    -1.8520     2.5020 H     1 <1>   0.0800 
 31 H        2.2630    -0.5160     2.9990 H     1 <1>   0.0800 
 32 H        2.9400    -2.1280     2.8590 H     1 <1>   0.0800 
 33 H        1.7880    -5.3910    -0.0920 H     1 <1>   0.0800 
 34 H        1.0190    -6.7890    -0.7840 H     1 <1>   0.0800 
 35 H       -1.4550    -6.7300    -1.2430 H     1 <1>   0.0800 
 36 H       -2.4100    -5.4180    -0.5800 H     1 <1>   0.0800 
 37 H       -1.6950    -6.6120     0.4800 H     1 <1>   0.0800 
 38 H        0.0040    -6.3470     1.9200 H     1 <1>   0.0800 
 39 H        1.7350    -6.3040     1.9100 H     1 <1>   0.0800 
 40 H        0.9450    -8.5930     2.3160 H     1 <1>   0.0800 
 41 H        1.8540    -8.5040     0.8370 H     1 <1>   0.0800 
 42 H       -3.0270   -10.1770     0.0000 H     1 <1>   0.1500 
 43 H       -1.6880    -8.4400     3.0100 H     1 <1>   0.0800 
 44 H       -0.9690   -10.0390     3.0450 H     1 <1>   0.0800 
 45 H       -2.6570    -9.8480     2.6570 H     1 <1>   0.0800 
 46 H       -1.6810    -8.7490    -3.1050 H     1 <1>   0.0800 
 47 H       -2.6630   -10.1000    -2.5810 H     1 <1>   0.0800 
 48 H       -0.9740   -10.3420    -2.9650 H     1 <1>   0.0800 
@<TRIPOS>BOND
  1   1   2  2   
  2   2   3  am  
  3   2   4  1   
  4   3   5  1   
  5   3  25  1   
  6   4   6  2   
  7   4   7  1   
  8   5   8  2   
  9   5   9  1   
 10   6   8  1   
 11   6  10  1   
 12   7  11  2   
 13   7  26  1   
 14   9  12  1   
 15   9  27  1   
 16   9  28  1   
 17  10  11  1   
 18  10  13  1   
 19  12  14  1   
 20  12  15  1   
 21  12  29  1   
 22  13  30  1   
 23  13  31  1   
 24  13  32  1   
 25  14  16  1   
 26  14  33  1   
 27  14  34  1   
 28  15  35  1   
 29  15  36  1   
 30  15  37  1   
 31  16  17  1   
 32  16  38  1   
 33  16  39  1   
 34  17  18  1   
 35  17  40  1   
 36  17  41  1   
 37  18  19  1   
 38  18  20  1   
 39  19  21  2   
 40  20  22  2   
 41  20  23  1   
 42  21  22  1   
 43  21  24  1   
 44  22  42  1   
 45  23  43  1   
 46  23  44  1   
 47  23  45  1   
 48  24  46  1   
 49  24  47  1   
 50  24  48  1   
@<TRIPOS>SUBSTRUCTURE
  1 ****  12 GROUP 4 **** **** 0

# MOE 2024.06 (io_trps.svl 2023.06)
