@<TRIPOS>MOLECULE
NONAME
48 51 1 0 0 
SMALL
USER_CHARGES


@<TRIPOS>ATOM
  1 S        0.5060    -0.0370     1.4180 S.3   1 <1>  -0.0800 
  2 C        0.8740    -1.4090     0.3960 C.ar  1 <1>   0.0400 
  3 C        1.6440     0.9390     0.4940 C.2   1 <1>   0.1980 
  4 C        1.8110    -1.0060    -0.5370 C.ar  1 <1>   0.2270 
  5 C        0.3580    -2.6900     0.4550 C.ar  1 <1>  -0.1500 
  6 N        2.2240     0.3230    -0.4550 N.2   1 <1>  -0.5650 
  7 C        1.7970     2.3840     0.9340 C.3   1 <1>   0.0200 
  8 C        2.2570    -1.9380    -1.4640 C.ar  1 <1>  -0.1500 
  9 C        0.8140    -3.6070    -0.4770 C.ar  1 <1>  -0.1500 
 10 C        2.8450     3.1340     0.0940 C.3   1 <1>  -0.0990 
 11 C        1.7590    -3.2320    -1.4300 C.ar  1 <1>  -0.1500 
 12 C        3.0050     4.5980     0.4760 C.2   1 <1>   0.5690 
 13 O        2.4460     4.9920     1.4730 O.2   1 <1>  -0.5700 
 14 N        3.7780     5.4510    -0.2830 N.am  1 <1>  -0.6600 
 15 C        3.9190     6.8760     0.1660 C.3   1 <1>   0.1400 
 16 C        4.6830     4.9820    -1.3830 C.3   1 <1>   0.1400 
 17 C        5.2600     7.1780     0.8880 C.3   1 <1>   0.4230 
 18 C        6.1700     5.3600    -1.1970 C.3   1 <1>  -0.0800 
 19 N        6.3600     7.6110    -0.0520 N.4   1 <1>  -0.9590 
 20 C        5.7690     6.0370     1.8120 C.3   1 <1>   0.1200 
 21 C        6.8640     4.7560     0.0440 C.3   1 <1>   0.1200 
 22 C        6.3920     6.8670    -1.3460 C.3   1 <1>   0.3430 
 23 C        6.3270     9.0870    -0.2930 C.3   1 <1>   0.2630 
 24 O        6.0670     4.8140     1.1850 O.3   1 <1>  -0.5600 
 25 H       -0.3710    -2.9550     1.2010 H     1 <1>   0.1500 
 26 H        0.8440     2.8750     0.8430 H     1 <1>   0.0800 
 27 H        2.0860     2.4020     1.9690 H     1 <1>   0.0800 
 28 H        2.9850    -1.6380    -2.1940 H     1 <1>   0.1500 
 29 H        0.4390    -4.6160    -0.4670 H     1 <1>   0.1500 
 30 H        2.5570     3.0770    -0.9390 H     1 <1>   0.0800 
 31 H        3.7930     2.6440     0.2160 H     1 <1>   0.0800 
 32 H        2.1040    -3.9560    -2.1480 H     1 <1>   0.1500 
 33 H        3.7870     7.5320    -0.6750 H     1 <1>   0.0800 
 34 H        3.1250     7.1130     0.8520 H     1 <1>   0.0800 
 35 H        4.6310     3.9120    -1.4780 H     1 <1>   0.0800 
 36 H        4.3210     5.3900    -2.3110 H     1 <1>   0.0800 
 37 H        5.0600     8.0110     1.5400 H     1 <1>   0.0800 
 38 H        6.6710     4.9290    -2.0460 H     1 <1>   0.0800 
 39 H        7.2360     7.3850     0.4400 H     1 <1>   0.4500 
 40 H        5.0050     5.8220     2.5400 H     1 <1>   0.0800 
 41 H        6.6450     6.3550     2.3480 H     1 <1>   0.0800 
 42 H        7.8110     5.2230     0.2530 H     1 <1>   0.0800 
 43 H        7.0460     3.7090    -0.1350 H     1 <1>   0.0800 
 44 H        5.6410     7.2610    -2.0120 H     1 <1>   0.0800 
 45 H        7.3520     7.0290    -1.8110 H     1 <1>   0.0800 
 46 H        5.4180     9.3660    -0.8000 H     1 <1>   0.0800 
 47 H        7.1660     9.3860    -0.9020 H     1 <1>   0.0800 
 48 H        6.3780     9.6220     0.6420 H     1 <1>   0.0800 
@<TRIPOS>BOND
  1   1   2  1   
  2   1   3  1   
  3   2   4  ar  
  4   2   5  ar  
  5   3   6  2   
  6   3   7  1   
  7   4   6  1   
  8   4   8  ar  
  9   5   9  ar  
 10   5  25  1   
 11   7  10  1   
 12   7  26  1   
 13   7  27  1   
 14   8  11  ar  
 15   8  28  1   
 16   9  11  ar  
 17   9  29  1   
 18  10  12  1   
 19  10  30  1   
 20  10  31  1   
 21  11  32  1   
 22  12  13  2   
 23  12  14  am  
 24  14  15  1   
 25  14  16  1   
 26  15  17  1   
 27  15  33  1   
 28  15  34  1   
 29  16  18  1   
 30  16  35  1   
 31  16  36  1   
 32  17  19  1   
 33  17  20  1   
 34  17  37  1   
 35  18  21  1   
 36  18  22  1   
 37  18  38  1   
 38  19  22  1   
 39  19  23  1   
 40  19  39  1   
 41  20  24  1   
 42  20  40  1   
 43  20  41  1   
 44  21  24  1   
 45  21  42  1   
 46  21  43  1   
 47  22  44  1   
 48  22  45  1   
 49  23  46  1   
 50  23  47  1   
 51  23  48  1   
@<TRIPOS>SUBSTRUCTURE
  1 ****  10 GROUP 4 **** **** 0

# MOE 2024.06 (io_trps.svl 2023.06)
