@<TRIPOS>MOLECULE
NONAME
42 43 1 0 0 
SMALL
USER_CHARGES


@<TRIPOS>ATOM
  1 S        0.4120     0.3320     1.1030 S.o2  1 <1>   1.4470 
  2 O        1.4110    -0.4280     1.8230 O.2   1 <1>  -0.6500 
  3 O       -0.1940     1.4490     1.7950 O.2   1 <1>  -0.6500 
  4 N       -0.8250    -0.7650     0.7310 N.am  1 <1>  -0.8490 
  5 C        0.9830     0.8910    -0.5130 C.ar  1 <1>  -0.0090 
  6 C       -0.3150    -1.9600     0.0150 C.3   1 <1>   0.1960 
  7 C       -1.6170    -1.1260     1.8990 C.3   1 <1>   0.1960 
  8 C        0.1200     1.5110    -1.4020 C.ar  1 <1>   0.1900 
  9 C        2.2850     0.7340    -0.9640 C.ar  1 <1>   0.1900 
 10 C       -1.3740    -3.0670    -0.2540 C.3   1 <1>  -0.1060 
 11 C       -2.9030    -1.8410     1.4720 C.3   1 <1>  -0.1600 
 12 F       -1.1210     1.7240    -1.0580 F     1 <1>  -0.1900 
 13 C        0.5010     1.9380    -2.6640 C.ar  1 <1>  -0.1500 
 14 F        3.1820     0.1800    -0.1970 F     1 <1>  -0.1900 
 15 C        2.7100     1.1460    -2.2180 C.ar  1 <1>  -0.1500 
 16 C       -1.3810    -3.3900    -1.7580 C.2   1 <1>   0.9060 
 17 C       -2.7770    -2.5160     0.1030 C.3   1 <1>   0.2000 
 18 C       -0.9800    -4.4070     0.4560 C.3   1 <1>  -0.1600 
 19 C        1.8090     1.7510    -3.0770 C.ar  1 <1>  -0.1500 
 20 O       -0.3470    -3.2510    -2.4240 O.co2 1 <1>  -0.9000 
 21 O       -2.4150    -3.8430    -2.2750 O.co2 1 <1>  -0.9000 
 22 O       -3.7290    -3.5110     0.0080 O.3   1 <1>  -0.6800 
 23 C       -0.7910    -4.4150     1.9820 C.3   1 <1>  -0.1600 
 24 C       -0.3490    -5.7990     2.4640 C.3   1 <1>  -0.2400 
 25 H        0.0990    -1.6110    -0.9140 H     1 <1>   0.0800 
 26 H        0.5080    -2.3890     0.5610 H     1 <1>   0.0800 
 27 H       -1.0320    -1.7490     2.5520 H     1 <1>   0.0800 
 28 H       -1.8880    -0.2410     2.4510 H     1 <1>   0.0800 
 29 H       -3.6900    -1.1130     1.4070 H     1 <1>   0.0800 
 30 H       -3.1830    -2.5500     2.2260 H     1 <1>   0.0800 
 31 H       -0.2220     2.4040    -3.3100 H     1 <1>   0.1500 
 32 H        3.7330     0.9890    -2.5130 H     1 <1>   0.1500 
 33 H       -3.0290    -1.7780    -0.6430 H     1 <1>   0.0800 
 34 H       -1.7190    -5.1490     0.2040 H     1 <1>   0.0800 
 35 H       -0.0590    -4.7430     0.0100 H     1 <1>   0.0800 
 36 H        2.1210     2.0710    -4.0570 H     1 <1>   0.1500 
 37 H       -3.5770    -3.9080    -0.8960 H     1 <1>   0.4000 
 38 H       -0.0430    -3.7000     2.2720 H     1 <1>   0.0800 
 39 H       -1.7170    -4.1700     2.4660 H     1 <1>   0.0800 
 40 H        0.5880    -6.0720     2.0120 H     1 <1>   0.0800 
 41 H       -1.0870    -6.5380     2.2050 H     1 <1>   0.0800 
 42 H       -0.2270    -5.7960     3.5330 H     1 <1>   0.0800 
@<TRIPOS>BOND
  1   1   2  2   
  2   1   3  2   
  3   1   4  am  
  4   1   5  1   
  5   4   6  1   
  6   4   7  1   
  7   5   8  ar  
  8   5   9  ar  
  9   6  10  1   
 10   6  25  1   
 11   6  26  1   
 12   7  11  1   
 13   7  27  1   
 14   7  28  1   
 15   8  12  1   
 16   8  13  ar  
 17   9  14  1   
 18   9  15  ar  
 19  10  16  1   
 20  10  17  1   
 21  10  18  1   
 22  11  17  1   
 23  11  29  1   
 24  11  30  1   
 25  13  19  ar  
 26  13  31  1   
 27  15  19  ar  
 28  15  32  1   
 29  16  20  ar  
 30  16  21  ar  
 31  17  22  1   
 32  17  33  1   
 33  18  23  1   
 34  18  34  1   
 35  18  35  1   
 36  19  36  1   
 37  22  37  1   
 38  23  24  1   
 39  23  38  1   
 40  23  39  1   
 41  24  40  1   
 42  24  41  1   
 43  24  42  1   
@<TRIPOS>SUBSTRUCTURE
  1 ****   6 GROUP 4 **** **** 0

# MOE 2024.06 (io_trps.svl 2023.06)
