@<TRIPOS>MOLECULE
NONAME
47 49 1 0 0 
SMALL
USER_CHARGES


@<TRIPOS>ATOM
  1 O       -0.2560    -1.0870     0.6720 O.2   1 <1>  -0.5700 
  2 C        0.5880    -1.9610     0.7230 C.2   1 <1>   0.5440 
  3 N        1.8830    -1.6180     1.0350 N.am  1 <1>  -0.6600 
  4 C        0.2070    -3.3310     0.4460 C.ar  1 <1>   0.0860 
  5 C        2.2710    -0.2210     1.3350 C.3   1 <1>   0.1400 
  6 C        3.0760    -2.4410     0.7340 C.3   1 <1>   0.1400 
  7 C       -0.5610    -3.6660    -0.6520 C.ar  1 <1>  -0.1500 
  8 C        0.5660    -4.3980     1.2580 C.ar  1 <1>  -0.1500 
  9 C        3.7930    -0.2420     1.4140 C.3   1 <1>  -0.1600 
 10 C        4.2060    -1.4340     0.5570 C.3   1 <1>  -0.1600 
 11 C       -0.9170    -4.9830    -0.9020 C.ar  1 <1>   0.4100 
 12 C        0.1700    -5.6780     0.9340 C.ar  1 <1>   0.1600 
 13 N       -0.5560    -5.9970    -0.1250 N.ar  1 <1>  -0.6200 
 14 N       -1.6960    -5.2620    -2.0020 N.pl3 1 <1>  -0.8690 
 15 C       -2.3030    -6.5840    -2.2910 C.3   1 <1>   0.2090 
 16 C       -3.5050    -6.8250    -1.3720 C.3   1 <1>  -0.0990 
 17 C       -3.3890    -8.1620    -0.6800 C.2   1 <1>   0.5690 
 18 O       -4.2300    -8.9970    -0.8990 O.2   1 <1>  -0.5700 
 19 N       -2.3200    -8.3460     0.1460 N.am  1 <1>  -0.5470 
 20 C       -1.9200    -9.4530     0.9040 C.ar  1 <1>   0.1170 
 21 C       -2.8210   -10.3900     1.4000 C.ar  1 <1>  -0.1500 
 22 C       -0.5690    -9.6180     1.1850 C.ar  1 <1>  -0.1500 
 23 C       -2.3830   -11.4610     2.1580 C.ar  1 <1>  -0.1500 
 24 C       -0.1260   -10.6870     1.9440 C.ar  1 <1>  -0.1500 
 25 C       -1.0340   -11.6110     2.4320 C.ar  1 <1>  -0.1500 
 26 H        1.8250     0.1070     2.2590 H     1 <1>   0.0800 
 27 H        1.9410     0.4160     0.5320 H     1 <1>   0.0800 
 28 H        2.9330    -3.0310    -0.1560 H     1 <1>   0.0800 
 29 H        3.2830    -3.0840     1.5720 H     1 <1>   0.0800 
 30 H       -0.8880    -2.8920    -1.3190 H     1 <1>   0.1500 
 31 H        1.1470    -4.2180     2.1450 H     1 <1>   0.1500 
 32 H        4.0870    -0.4040     2.4360 H     1 <1>   0.0800 
 33 H        4.2220     0.6820     1.0680 H     1 <1>   0.0800 
 34 H        4.2550    -1.1400    -0.4770 H     1 <1>   0.0800 
 35 H        5.1580    -1.8420     0.8510 H     1 <1>   0.0800 
 36 H        0.4640    -6.4850     1.5840 H     1 <1>   0.1500 
 37 H       -2.1610    -4.4670    -2.4470 H     1 <1>   0.4000 
 38 H       -1.5540    -7.3490    -2.1650 H     1 <1>   0.0800 
 39 H       -2.6190    -6.6150    -3.3200 H     1 <1>   0.0800 
 40 H       -4.4080    -6.8100    -1.9540 H     1 <1>   0.0800 
 41 H       -3.5780    -6.0630    -0.6190 H     1 <1>   0.0800 
 42 H       -1.6540    -7.5600     0.1390 H     1 <1>   0.3700 
 43 H       -3.8700   -10.2810     1.1940 H     1 <1>   0.1500 
 44 H        0.1400    -8.9080     0.8000 H     1 <1>   0.1500 
 45 H       -3.0930   -12.1760     2.5340 H     1 <1>   0.1500 
 46 H        0.9230   -10.8050     2.1520 H     1 <1>   0.1500 
 47 H       -0.6940   -12.4440     3.0220 H     1 <1>   0.1500 
@<TRIPOS>BOND
  1   1   2  2   
  2   2   3  am  
  3   2   4  1   
  4   3   5  1   
  5   3   6  1   
  6   4   7  ar  
  7   4   8  ar  
  8   5   9  1   
  9   5  26  1   
 10   5  27  1   
 11   6  10  1   
 12   6  28  1   
 13   6  29  1   
 14   7  11  ar  
 15   7  30  1   
 16   8  12  ar  
 17   8  31  1   
 18   9  10  1   
 19   9  32  1   
 20   9  33  1   
 21  10  34  1   
 22  10  35  1   
 23  11  13  ar  
 24  11  14  1   
 25  12  13  ar  
 26  12  36  1   
 27  14  15  1   
 28  14  37  1   
 29  15  16  1   
 30  15  38  1   
 31  15  39  1   
 32  16  17  1   
 33  16  40  1   
 34  16  41  1   
 35  17  18  2   
 36  17  19  am  
 37  19  20  1   
 38  19  42  1   
 39  20  21  ar  
 40  20  22  ar  
 41  21  23  ar  
 42  21  43  1   
 43  22  24  ar  
 44  22  44  1   
 45  23  25  ar  
 46  23  45  1   
 47  24  25  ar  
 48  24  46  1   
 49  25  47  1   
@<TRIPOS>SUBSTRUCTURE
  1 ****  13 GROUP 4 **** **** 0

# MOE 2024.06 (io_trps.svl 2023.06)
