@<TRIPOS>MOLECULE
NONAME
54 58 1 0 0 
SMALL
USER_CHARGES


@<TRIPOS>ATOM
  1 S        1.1170    -2.7500    -0.5910 S.3   1 <1>  -0.0800 
  2 C        0.6710    -2.4450    -2.2520 C.2   1 <1>   0.2280 
  3 C       -0.4660    -2.2200    -0.1050 C.2   1 <1>  -0.1100 
  4 N       -0.5140    -2.0060    -2.4090 N.2   1 <1>  -0.5650 
  5 C       -1.1720    -1.8710    -1.1960 C.2   1 <1>   0.0460 
  6 C       -2.5950    -1.3420    -1.3080 C.3   1 <1>   0.0210 
  7 C       -3.4510    -1.2630    -0.0150 C.3   1 <1>   0.0610 
  8 C       -3.5840    -2.6740     0.5790 C.2   1 <1>   0.5690 
  9 C       -2.8820    -0.1960     0.9580 C.3   1 <1>   0.2200 
 10 C       -4.8330    -0.6220    -0.3620 C.3   1 <1>  -0.1600 
 11 O       -2.9520    -2.9860     1.5600 O.2   1 <1>  -0.5700 
 12 N       -4.4030    -3.5710    -0.0360 N.am  1 <1>  -0.7300 
 13 N       -3.3640     1.0210     0.3070 N.am  1 <1>  -0.6600 
 14 C       -3.6760    -0.0970     2.2760 C.3   1 <1>  -0.1600 
 15 C       -4.7940     0.7470     0.3350 C.3   1 <1>   0.2200 
 16 C       -4.6150    -4.9640     0.4000 C.3   1 <1>   0.1400 
 17 C       -2.7140     2.2290     0.2770 C.2   1 <1>   0.5440 
 18 C       -5.0060     0.5400     1.8370 C.3   1 <1>  -0.1600 
 19 C       -6.1100    -5.2590     0.3680 C.3   1 <1>  -0.2400 
 20 O       -1.6190     2.3140     0.7990 O.2   1 <1>  -0.5700 
 21 C       -3.3060     3.3920    -0.3440 C.ar  1 <1>   0.0860 
 22 C       -3.9560     3.2740    -1.5900 C.ar  1 <1>   0.1600 
 23 C       -3.2620     4.6380     0.2250 C.ar  1 <1>  -0.1500 
 24 N       -4.5460     4.2380    -2.2290 N.ar  1 <1>  -0.6200 
 25 C       -3.8760     5.7190    -0.4270 C.ar  1 <1>   0.0000 
 26 C       -4.5170     5.4720    -1.6610 C.ar  1 <1>   0.3100 
 27 C       -3.8810     7.0280     0.0950 C.ar  1 <1>  -0.1500 
 28 C       -5.1410     6.5420    -2.3190 C.ar  1 <1>  -0.1500 
 29 C       -4.4980     8.0510    -0.5720 C.ar  1 <1>  -0.1500 
 30 C       -5.1370     7.8080    -1.7920 C.ar  1 <1>  -0.1500 
 31 H        1.4130    -2.6470    -3.0030 H     1 <1>   0.1500 
 32 H       -0.6830    -2.2330     0.9470 H     1 <1>   0.1500 
 33 H       -2.5300    -0.3680    -1.7600 H     1 <1>   0.0800 
 34 H       -3.1060    -1.9720    -2.0140 H     1 <1>   0.0800 
 35 H       -1.8150    -0.2180     1.0930 H     1 <1>   0.0800 
 36 H       -5.6640    -1.2000     0.0020 H     1 <1>   0.0800 
 37 H       -4.9600    -0.4820    -1.4210 H     1 <1>   0.0800 
 38 H       -4.8820    -3.3130    -0.8990 H     1 <1>   0.3700 
 39 H       -3.8190    -1.0400     2.7690 H     1 <1>   0.0800 
 40 H       -3.1530     0.5590     2.9500 H     1 <1>   0.0800 
 41 H       -5.4180     1.5060    -0.1050 H     1 <1>   0.0800 
 42 H       -4.0870    -5.6300    -0.2620 H     1 <1>   0.0800 
 43 H       -4.2330    -5.1030     1.3990 H     1 <1>   0.0800 
 44 H       -5.1490     1.4880     2.3240 H     1 <1>   0.0800 
 45 H       -5.8510    -0.0930     2.0440 H     1 <1>   0.0800 
 46 H       -6.4960    -5.1560    -0.6290 H     1 <1>   0.0800 
 47 H       -6.6330    -4.5940     1.0320 H     1 <1>   0.0800 
 48 H       -6.2820    -6.2690     0.6960 H     1 <1>   0.0800 
 49 H       -3.9580     2.2990    -2.0450 H     1 <1>   0.1500 
 50 H       -2.7610     4.7920     1.1640 H     1 <1>   0.1500 
 51 H       -3.3870     7.2100     1.0340 H     1 <1>   0.1500 
 52 H       -5.6240     6.3360    -3.2560 H     1 <1>   0.1500 
 53 H       -4.5010     9.0500    -0.1700 H     1 <1>   0.1500 
 54 H       -5.6190     8.6210    -2.3070 H     1 <1>   0.1500 
@<TRIPOS>BOND
  1   1   2  1   
  2   1   3  1   
  3   2   4  2   
  4   2  31  1   
  5   3   5  2   
  6   3  32  1   
  7   4   5  1   
  8   5   6  1   
  9   6   7  1   
 10   6  33  1   
 11   6  34  1   
 12   7   8  1   
 13   7   9  1   
 14   7  10  1   
 15   8  11  2   
 16   8  12  am  
 17   9  13  1   
 18   9  14  1   
 19   9  35  1   
 20  10  15  1   
 21  10  36  1   
 22  10  37  1   
 23  12  16  1   
 24  12  38  1   
 25  13  15  1   
 26  13  17  am  
 27  14  18  1   
 28  14  39  1   
 29  14  40  1   
 30  15  18  1   
 31  15  41  1   
 32  16  19  1   
 33  16  42  1   
 34  16  43  1   
 35  17  20  2   
 36  17  21  1   
 37  18  44  1   
 38  18  45  1   
 39  19  46  1   
 40  19  47  1   
 41  19  48  1   
 42  21  22  ar  
 43  21  23  ar  
 44  22  24  ar  
 45  22  49  1   
 46  23  25  ar  
 47  23  50  1   
 48  24  26  ar  
 49  25  26  ar  
 50  25  27  ar  
 51  26  28  ar  
 52  27  29  ar  
 53  27  51  1   
 54  28  30  ar  
 55  28  52  1   
 56  29  30  ar  
 57  29  53  1   
 58  30  54  1   
@<TRIPOS>SUBSTRUCTURE
  1 ****  13 GROUP 4 **** **** 0

# MOE 2024.06 (io_trps.svl 2023.06)
