@<TRIPOS>MOLECULE
NONAME
46 48 1 0 0 
SMALL
USER_CHARGES


@<TRIPOS>ATOM
  1 O       -0.3890    -3.0000    -0.4960 O.co2 1 <1>  -0.9000 
  2 C        0.5230    -3.6740    -0.9900 C.2   1 <1>   1.0330 
  3 O        0.1660    -4.6360    -1.7010 O.co2 1 <1>  -0.9000 
  4 C        1.8560    -3.5880    -0.4990 C.2   1 <1>  -0.2330 
  5 C        2.5840    -4.7240    -0.1620 C.2   1 <1>   0.3720 
  6 C        2.6680    -2.5630    -0.1270 C.2   1 <1>   0.0870 
  7 N        3.6960    -4.4260     0.3990 N.2   1 <1>  -0.4100 
  8 N        2.1360    -6.0210    -0.3730 N.pl3 1 <1>  -0.8520 
  9 O        3.7400    -3.1180     0.3980 O.3   1 <1>  -0.0190 
 10 C        2.5610    -1.1230    -0.1910 C.ar  1 <1>   0.0530 
 11 C        1.6540    -6.7240     0.8450 C.3   1 <1>   0.2090 
 12 C        1.5590    -0.4800    -0.9210 C.ar  1 <1>  -0.1500 
 13 C        3.4730    -0.3040     0.4800 C.ar  1 <1>  -0.1500 
 14 C        0.3500    -6.1220     1.4250 C.3   1 <1>   0.3430 
 15 C        1.4640     0.8980    -0.9780 C.ar  1 <1>  -0.1500 
 16 C        3.3880     1.0750     0.4280 C.ar  1 <1>  -0.1500 
 17 N       -0.7740    -6.0280     0.4390 N.4   1 <1>  -0.9590 
 18 C        2.3840     1.6910    -0.3000 C.ar  1 <1>   0.0830 
 19 C       -1.8880    -5.1430     0.9100 C.3   1 <1>   0.3430 
 20 C       -1.2730    -7.3090    -0.1430 C.3   1 <1>   0.3430 
 21 O        2.3640     3.0450    -0.3020 O.3   1 <1>  -0.3630 
 22 C       -2.9710    -5.0030    -0.1760 C.3   1 <1>   0.1200 
 23 C       -2.3880    -7.0380    -1.1720 C.3   1 <1>   0.1200 
 24 C        1.3580     3.7620    -0.9810 C.3   1 <1>   0.0400 
 25 O       -3.4050    -6.2710    -0.5920 O.3   1 <1>  -0.5600 
 26 H        1.4050    -5.9590    -1.1080 H     1 <1>   0.4000 
 27 H        2.4240    -6.6740     1.5970 H     1 <1>   0.0800 
 28 H        1.5030    -7.7630     0.6120 H     1 <1>   0.0800 
 29 H        0.8340    -1.0630    -1.4580 H     1 <1>   0.1500 
 30 H        4.2640    -0.7520     1.0550 H     1 <1>   0.1500 
 31 H        0.5820    -5.1320     1.7820 H     1 <1>   0.0800 
 32 H        0.0380    -6.7090     2.2710 H     1 <1>   0.0800 
 33 H        0.6690     1.3320    -1.5530 H     1 <1>   0.1500 
 34 H        4.1010     1.6860     0.9520 H     1 <1>   0.1500 
 35 H       -0.4160    -5.4910    -0.3890 H     1 <1>   0.4500 
 36 H       -1.5030    -4.1620     1.1390 H     1 <1>   0.0800 
 37 H       -2.3360    -5.5490     1.8010 H     1 <1>   0.0800 
 38 H       -1.6640    -7.9410     0.6360 H     1 <1>   0.0800 
 39 H       -0.4650    -7.8260    -0.6320 H     1 <1>   0.0800 
 40 H       -2.5830    -4.4640    -1.0250 H     1 <1>   0.0800 
 41 H       -3.8200    -4.4690     0.2110 H     1 <1>   0.0800 
 42 H       -2.8210    -7.9630    -1.5080 H     1 <1>   0.0800 
 43 H       -1.9970    -6.5070    -2.0260 H     1 <1>   0.0800 
 44 H        1.5380     4.8110    -0.8330 H     1 <1>   0.0800 
 45 H        0.4010     3.4930    -0.5700 H     1 <1>   0.0800 
 46 H        1.4080     3.5250    -2.0290 H     1 <1>   0.0800 
@<TRIPOS>BOND
  1   1   2  ar  
  2   2   3  ar  
  3   2   4  1   
  4   4   5  1   
  5   4   6  2   
  6   5   7  2   
  7   5   8  1   
  8   6   9  1   
  9   6  10  1   
 10   7   9  1   
 11   8  11  1   
 12   8  26  1   
 13  10  12  ar  
 14  10  13  ar  
 15  11  14  1   
 16  11  27  1   
 17  11  28  1   
 18  12  15  ar  
 19  12  29  1   
 20  13  16  ar  
 21  13  30  1   
 22  14  17  1   
 23  14  31  1   
 24  14  32  1   
 25  15  18  ar  
 26  15  33  1   
 27  16  18  ar  
 28  16  34  1   
 29  17  19  1   
 30  17  20  1   
 31  17  35  1   
 32  18  21  1   
 33  19  22  1   
 34  19  36  1   
 35  19  37  1   
 36  20  23  1   
 37  20  38  1   
 38  20  39  1   
 39  21  24  1   
 40  22  25  1   
 41  22  40  1   
 42  22  41  1   
 43  23  25  1   
 44  23  42  1   
 45  23  43  1   
 46  24  44  1   
 47  24  45  1   
 48  24  46  1   
@<TRIPOS>SUBSTRUCTURE
  1 ****   4 GROUP 4 **** **** 0

# MOE 2024.06 (io_trps.svl 2023.06)
