@<TRIPOS>MOLECULE
NONAME
48 50 1 0 0 
SMALL
USER_CHARGES


@<TRIPOS>ATOM
  1 O        0.4720    -1.2440     2.3220 O.co2 1 <1>  -0.9000 
  2 C        0.2810    -2.3810     1.8600 C.2   1 <1>   1.0330 
  3 O       -0.6860    -3.0350     2.2990 O.co2 1 <1>  -0.9000 
  4 C        1.1290    -2.9220     0.8380 C.2   1 <1>  -0.2330 
  5 C        1.2220    -4.2810     0.5400 C.2   1 <1>   0.3720 
  6 C        1.9980    -2.3510    -0.0410 C.2   1 <1>   0.0870 
  7 N        2.0620    -4.5050    -0.4070 N.2   1 <1>  -0.4100 
  8 N        0.4910    -5.2640     1.1910 N.pl3 1 <1>  -0.8520 
  9 O        2.5220    -3.3300    -0.7430 O.3   1 <1>  -0.0190 
 10 C        2.3990    -0.9960    -0.3380 C.ar  1 <1>   0.0530 
 11 C       -0.1330    -6.3240     0.3810 C.3   1 <1>   0.2890 
 12 C        3.6810    -0.7230    -0.8220 C.ar  1 <1>  -0.1500 
 13 C        1.5380     0.0910    -0.1820 C.ar  1 <1>  -0.1500 
 14 C       -1.6590    -6.0770     0.2510 C.3   1 <1>  -0.0800 
 15 C        0.2250    -7.6360     1.0780 C.3   1 <1>  -0.2400 
 16 C        4.0800     0.5640    -1.1340 C.ar  1 <1>  -0.1500 
 17 C        1.9280     1.3820    -0.4860 C.ar  1 <1>  -0.1500 
 18 C       -2.3900    -7.2580    -0.4290 C.3   1 <1>  -0.1600 
 19 C       -1.9480    -4.7740    -0.5280 C.3   1 <1>  -0.1600 
 20 C        3.2100     1.6290    -0.9680 C.ar  1 <1>   0.0830 
 21 C       -3.8920    -6.9920    -0.6010 C.3   1 <1>  -0.1600 
 22 C       -3.4500    -4.5150    -0.6990 C.3   1 <1>  -0.1600 
 23 O        3.6730     2.8600    -1.2900 O.3   1 <1>  -0.3630 
 24 C       -4.1430    -5.6980    -1.3810 C.3   1 <1>  -0.1600 
 25 C        2.8900     4.0130    -1.0770 C.3   1 <1>   0.0400 
 26 H       -0.2200    -4.7680     1.7700 H     1 <1>   0.4000 
 27 H        0.3030    -6.3330    -0.6040 H     1 <1>   0.0800 
 28 H        4.3720    -1.5360    -0.9530 H     1 <1>   0.1500 
 29 H        0.5440    -0.0820     0.1900 H     1 <1>   0.1500 
 30 H       -2.0590    -5.9690     1.2450 H     1 <1>   0.0800 
 31 H       -0.2720    -7.6990     2.0280 H     1 <1>   0.0800 
 32 H        1.2880    -7.6790     1.2330 H     1 <1>   0.0800 
 33 H       -0.0540    -8.4770     0.4730 H     1 <1>   0.0800 
 34 H        5.0700     0.7520    -1.5050 H     1 <1>   0.1500 
 35 H        1.2220     2.1740    -0.3360 H     1 <1>   0.1500 
 36 H       -1.9510    -7.4390    -1.3940 H     1 <1>   0.0800 
 37 H       -2.2810    -8.1500     0.1610 H     1 <1>   0.0800 
 38 H       -1.5250    -3.9340    -0.0070 H     1 <1>   0.0800 
 39 H       -1.4800    -4.8230    -1.4960 H     1 <1>   0.0800 
 40 H       -4.3490    -7.8180    -1.1170 H     1 <1>   0.0800 
 41 H       -4.3510    -6.9140     0.3710 H     1 <1>   0.0800 
 42 H       -3.8880    -4.3490     0.2700 H     1 <1>   0.0800 
 43 H       -3.5940    -3.6220    -1.2820 H     1 <1>   0.0800 
 44 H       -5.2010    -5.5100    -1.4420 H     1 <1>   0.0800 
 45 H       -3.7650    -5.8040    -2.3840 H     1 <1>   0.0800 
 46 H        3.4670     4.8700    -1.3730 H     1 <1>   0.0800 
 47 H        2.6450     4.0780    -0.0310 H     1 <1>   0.0800 
 48 H        2.0000     3.9450    -1.6770 H     1 <1>   0.0800 
@<TRIPOS>BOND
  1   1   2  ar  
  2   2   3  ar  
  3   2   4  1   
  4   4   5  1   
  5   4   6  2   
  6   5   7  2   
  7   5   8  1   
  8   6   9  1   
  9   6  10  1   
 10   7   9  1   
 11   8  11  1   
 12   8  26  1   
 13  10  12  ar  
 14  10  13  ar  
 15  11  14  1   
 16  11  15  1   
 17  11  27  1   
 18  12  16  ar  
 19  12  28  1   
 20  13  17  ar  
 21  13  29  1   
 22  14  18  1   
 23  14  19  1   
 24  14  30  1   
 25  15  31  1   
 26  15  32  1   
 27  15  33  1   
 28  16  20  ar  
 29  16  34  1   
 30  17  20  ar  
 31  17  35  1   
 32  18  21  1   
 33  18  36  1   
 34  18  37  1   
 35  19  22  1   
 36  19  38  1   
 37  19  39  1   
 38  20  23  1   
 39  21  24  1   
 40  21  40  1   
 41  21  41  1   
 42  22  24  1   
 43  22  42  1   
 44  22  43  1   
 45  23  25  1   
 46  24  44  1   
 47  24  45  1   
 48  25  46  1   
 49  25  47  1   
 50  25  48  1   
@<TRIPOS>SUBSTRUCTURE
  1 ****   4 GROUP 4 **** **** 0

# MOE 2024.06 (io_trps.svl 2023.06)
