@<TRIPOS>MOLECULE
NONAME
51 53 1 0 0 
SMALL
USER_CHARGES


@<TRIPOS>ATOM
  1 CL      -0.1110     0.2810    -0.1130 Cl    1 <1>  -0.1770 
  2 C       -0.1640     2.0280    -0.0840 C.ar  1 <1>   0.1770 
  3 C        0.7720     2.7670    -0.7920 C.ar  1 <1>  -0.1440 
  4 C       -1.1580     2.6400     0.6550 C.ar  1 <1>  -0.1500 
  5 C        0.6850     4.1470    -0.7420 C.ar  1 <1>  -0.1500 
  6 C        1.8630     2.0890    -1.6070 C.3   1 <1>  -0.0960 
  7 C       -1.2510     4.0260     0.7220 C.ar  1 <1>  -0.0090 
  8 C       -0.3110     4.7650     0.0050 C.ar  1 <1>   0.0830 
  9 S       -2.5720     4.7980     1.6990 S.o2  1 <1>   1.4470 
 10 O       -0.3650     6.1100    -0.0110 O.3   1 <1>  -0.3630 
 11 O       -3.0230     3.8190     2.6660 O.2   1 <1>  -0.6500 
 12 O       -2.2120     6.1100     2.1960 O.2   1 <1>  -0.6500 
 13 N       -3.8530     5.0100     0.6060 N.am  1 <1>  -0.8490 
 14 C        0.5650     6.7950     0.7960 C.3   1 <1>   0.1200 
 15 C       -5.1040     5.3050     1.3250 C.3   1 <1>   0.1960 
 16 C       -3.5750     6.0630    -0.3780 C.3   1 <1>   0.1960 
 17 C        0.2320     8.2810     0.7350 C.3   1 <1>  -0.2400 
 18 C       -6.3170     5.3160     0.3750 C.3   1 <1>   0.0000 
 19 C       -4.6980     6.1460    -1.4160 C.3   1 <1>  -0.1600 
 20 C       -7.6160     5.5700     1.1640 C.3   1 <1>   0.2000 
 21 C       -6.0710     6.3510    -0.7560 C.3   1 <1>  -0.1600 
 22 C       -6.6010     3.9200    -0.2120 C.3   1 <1>  -0.1600 
 23 O       -7.8550     6.9100     1.4020 O.3   1 <1>  -0.6800 
 24 C       -8.7500     4.9690     0.3330 C.3   1 <1>  -0.1600 
 25 C       -8.0930     3.9100    -0.5620 C.3   1 <1>  -0.1600 
 26 H       -1.8660     2.0270     1.1860 H     1 <1>   0.1500 
 27 H        1.3820     4.7570    -1.2870 H     1 <1>   0.1500 
 28 H        2.4970     2.8140    -2.0850 H     1 <1>   0.0800 
 29 H        1.4220     1.4680    -2.3670 H     1 <1>   0.0800 
 30 H        2.4710     1.4730    -0.9680 H     1 <1>   0.0800 
 31 H        0.4780     6.4280     1.8050 H     1 <1>   0.0800 
 32 H        1.5550     6.6040     0.4200 H     1 <1>   0.0800 
 33 H       -5.2710     4.5580     2.0830 H     1 <1>   0.0800 
 34 H       -5.0220     6.2590     1.8200 H     1 <1>   0.0800 
 35 H       -3.4620     7.0130     0.1200 H     1 <1>   0.0800 
 36 H       -2.6590     5.8450    -0.8970 H     1 <1>   0.0800 
 37 H       -0.7610     8.4480     1.1140 H     1 <1>   0.0800 
 38 H        0.2970     8.6370    -0.2780 H     1 <1>   0.0800 
 39 H        0.9260     8.8340     1.3410 H     1 <1>   0.0800 
 40 H       -4.4970     6.9640    -2.0840 H     1 <1>   0.0800 
 41 H       -4.6930     5.2470    -2.0050 H     1 <1>   0.0800 
 42 H       -7.5710     5.0690     2.1170 H     1 <1>   0.0800 
 43 H       -6.8440     6.3010    -1.5010 H     1 <1>   0.0800 
 44 H       -6.0760     7.3440    -0.3410 H     1 <1>   0.0800 
 45 H       -5.9870     3.6790    -1.0600 H     1 <1>   0.0800 
 46 H       -6.4220     3.1750     0.5440 H     1 <1>   0.0800 
 47 H       -7.9590     7.3780     0.5520 H     1 <1>   0.4000 
 48 H       -9.4850     4.5220     0.9800 H     1 <1>   0.0800 
 49 H       -9.2210     5.7170    -0.2800 H     1 <1>   0.0800 
 50 H       -8.5190     2.9340    -0.3990 H     1 <1>   0.0800 
 51 H       -8.2280     4.1760    -1.5970 H     1 <1>   0.0800 
@<TRIPOS>BOND
  1   1   2  1   
  2   2   3  ar  
  3   2   4  ar  
  4   3   5  ar  
  5   3   6  1   
  6   4   7  ar  
  7   4  26  1   
  8   5   8  ar  
  9   5  27  1   
 10   6  28  1   
 11   6  29  1   
 12   6  30  1   
 13   7   8  ar  
 14   7   9  1   
 15   8  10  1   
 16   9  11  2   
 17   9  12  2   
 18   9  13  am  
 19  10  14  1   
 20  13  15  1   
 21  13  16  1   
 22  14  17  1   
 23  14  31  1   
 24  14  32  1   
 25  15  18  1   
 26  15  33  1   
 27  15  34  1   
 28  16  19  1   
 29  16  35  1   
 30  16  36  1   
 31  17  37  1   
 32  17  38  1   
 33  17  39  1   
 34  18  20  1   
 35  18  21  1   
 36  18  22  1   
 37  19  21  1   
 38  19  40  1   
 39  19  41  1   
 40  20  23  1   
 41  20  24  1   
 42  20  42  1   
 43  21  43  1   
 44  21  44  1   
 45  22  25  1   
 46  22  45  1   
 47  22  46  1   
 48  23  47  1   
 49  24  25  1   
 50  24  48  1   
 51  24  49  1   
 52  25  50  1   
 53  25  51  1   
@<TRIPOS>SUBSTRUCTURE
  1 ****  13 GROUP 4 **** **** 0

# MOE 2024.06 (io_trps.svl 2023.06)
