@<TRIPOS>MOLECULE
NONAME
38 40 1 0 0 
SMALL
USER_CHARGES


@<TRIPOS>ATOM
  1 O       -3.1890     0.9430    -1.4150 O.2   1 <1>  -0.5700 
  2 C       -2.8840     0.7460    -0.2670 C.2   1 <1>   0.5690 
  3 N       -2.5530    -0.4820     0.1900 N.am  1 <1>  -0.7300 
  4 C       -2.8840     1.8930     0.7080 C.3   1 <1>  -0.1790 
  5 C       -2.4470    -1.7010    -0.6480 C.3   1 <1>   0.2200 
  6 C       -3.6550    -2.6120    -0.4680 C.3   1 <1>  -0.0800 
  7 C       -1.3490    -2.5860    -0.0770 C.3   1 <1>   0.1200 
  8 C       -3.3090    -3.3700     0.8210 C.3   1 <1>   0.1200 
  9 C       -5.0210    -1.8940    -0.4480 C.3   1 <1>  -0.0160 
 10 O       -1.9310    -3.2270     1.0180 O.3   1 <1>  -0.5600 
 11 C       -6.2680    -2.7850    -0.3900 C.ar  1 <1>  -0.1440 
 12 C       -7.5410    -2.1920    -0.1980 C.ar  1 <1>   0.0000 
 13 C       -6.2350    -4.1460    -0.5210 C.ar  1 <1>  -0.1500 
 14 C       -8.6690    -3.0450    -0.1200 C.ar  1 <1>   0.3100 
 15 C       -7.7610    -0.7980    -0.0850 C.ar  1 <1>  -0.1500 
 16 C       -7.4140    -4.8970    -0.4390 C.ar  1 <1>   0.1600 
 17 N       -8.5890    -4.3930    -0.2410 N.ar  1 <1>  -0.6200 
 18 C       -9.9380    -2.4810     0.0860 C.ar  1 <1>  -0.1500 
 19 C       -9.0130    -0.2800     0.1120 C.ar  1 <1>  -0.1500 
 20 C      -10.1170    -1.1290     0.2030 C.ar  1 <1>  -0.1500 
 21 H       -2.3360    -0.6360     1.1770 H     1 <1>   0.3700 
 22 H       -3.5670     1.6880     1.5110 H     1 <1>   0.0800 
 23 H       -3.1910     2.7930     0.2090 H     1 <1>   0.0800 
 24 H       -1.8960     2.0330     1.1030 H     1 <1>   0.0800 
 25 H       -2.2710    -1.4390    -1.6780 H     1 <1>   0.0800 
 26 H       -3.6460    -3.3120    -1.2850 H     1 <1>   0.0800 
 27 H       -0.4850    -2.0300     0.2410 H     1 <1>   0.0800 
 28 H       -1.0590    -3.3420    -0.7870 H     1 <1>   0.0800 
 29 H       -3.5410    -4.4180     0.7530 H     1 <1>   0.0800 
 30 H       -3.8060    -2.9440     1.6760 H     1 <1>   0.0800 
 31 H       -5.0910    -1.2780    -1.3280 H     1 <1>   0.0800 
 32 H       -5.0440    -1.2420     0.4060 H     1 <1>   0.0800 
 33 H       -5.3300    -4.6930    -0.6910 H     1 <1>   0.1500 
 34 H       -6.9310    -0.1210    -0.1610 H     1 <1>   0.1500 
 35 H       -7.3370    -5.9660    -0.5450 H     1 <1>   0.1500 
 36 H      -10.7730    -3.1540     0.1490 H     1 <1>   0.1500 
 37 H       -9.1620     0.7830     0.1970 H     1 <1>   0.1500 
 38 H      -11.0960    -0.7110     0.3600 H     1 <1>   0.1500 
@<TRIPOS>BOND
  1   1   2  2   
  2   2   3  am  
  3   2   4  1   
  4   3   5  1   
  5   3  21  1   
  6   4  22  1   
  7   4  23  1   
  8   4  24  1   
  9   5   6  1   
 10   5   7  1   
 11   5  25  1   
 12   6   8  1   
 13   6   9  1   
 14   6  26  1   
 15   7  10  1   
 16   7  27  1   
 17   7  28  1   
 18   8  10  1   
 19   8  29  1   
 20   8  30  1   
 21   9  11  1   
 22   9  31  1   
 23   9  32  1   
 24  11  12  ar  
 25  11  13  ar  
 26  12  14  ar  
 27  12  15  ar  
 28  13  16  ar  
 29  13  33  1   
 30  14  17  ar  
 31  14  18  ar  
 32  15  19  ar  
 33  15  34  1   
 34  16  17  ar  
 35  16  35  1   
 36  18  20  ar  
 37  18  36  1   
 38  19  20  ar  
 39  19  37  1   
 40  20  38  1   
@<TRIPOS>SUBSTRUCTURE
  1 ****   9 GROUP 4 **** **** 0

# MOE 2024.06 (io_trps.svl 2023.06)
