@<TRIPOS>MOLECULE
NONAME
41 42 1 0 0 
SMALL
USER_CHARGES


@<TRIPOS>ATOM
  1 F       -1.7240    -1.3730    -0.2640 F     1 <1>  -0.3400 
  2 C       -0.7390    -1.9660     0.4060 C.3   1 <1>   1.1640 
  3 F        0.3540    -1.2550     0.1300 F     1 <1>  -0.3400 
  4 F       -0.9840    -1.7480     1.6960 F     1 <1>  -0.3400 
  5 C       -0.5900    -3.4740     0.0560 C.ar  1 <1>   0.1660 
  6 N       -1.5940    -4.2990     0.3680 N.ar  1 <1>  -0.6200 
  7 C        0.5720    -3.9220    -0.5680 C.ar  1 <1>  -0.1500 
  8 C       -1.4560    -5.5840     0.0660 C.ar  1 <1>   0.4100 
  9 C        0.7210    -5.2570    -0.8830 C.ar  1 <1>  -0.1500 
 10 N       -2.4990    -6.4370     0.3710 N.pl3 1 <1>  -0.8380 
 11 C       -0.3190    -6.0900    -0.5530 C.ar  1 <1>  -0.1500 
 12 C       -3.1760    -7.1210    -0.7860 C.3   1 <1>   0.2090 
 13 C       -3.3810    -6.1560     1.5560 C.3   1 <1>   0.2090 
 14 C       -4.4970    -7.7790    -0.3620 C.3   1 <1>   0.2000 
 15 C       -4.7580    -5.6940     1.0720 C.3   1 <1>  -0.1600 
 16 O       -5.0790    -8.4790    -1.4080 O.3   1 <1>  -0.6800 
 17 C       -5.5210    -6.8000     0.2720 C.3   1 <1>  -0.1060 
 18 C       -6.3450    -7.7190     1.1930 C.2   1 <1>   0.9060 
 19 C       -6.5000    -6.1030    -0.7310 C.3   1 <1>  -0.1600 
 20 O       -6.3330    -7.5620     2.4190 O.co2 1 <1>  -0.9000 
 21 O       -6.9730    -8.6520     0.6670 O.co2 1 <1>  -0.9000 
 22 C       -5.8730    -5.3660    -1.9300 C.3   1 <1>  -0.1600 
 23 C       -6.9490    -4.6540    -2.7550 C.3   1 <1>  -0.2400 
 24 H        1.3700    -3.2450    -0.8150 H     1 <1>   0.1500 
 25 H        1.6110    -5.6280    -1.3620 H     1 <1>   0.1500 
 26 H       -0.2700    -7.1420    -0.7590 H     1 <1>   0.1500 
 27 H       -3.3610    -6.3980    -1.5580 H     1 <1>   0.0800 
 28 H       -2.5240    -7.8830    -1.1730 H     1 <1>   0.0800 
 29 H       -3.4870    -7.0490     2.1490 H     1 <1>   0.0800 
 30 H       -2.9420    -5.3990     2.1820 H     1 <1>   0.0800 
 31 H       -4.2350    -8.5230     0.3730 H     1 <1>   0.0800 
 32 H       -5.3430    -5.3800     1.9180 H     1 <1>   0.0800 
 33 H       -4.5970    -4.8160     0.4790 H     1 <1>   0.0800 
 34 H       -5.9350    -8.8220    -1.0360 H     1 <1>   0.4000 
 35 H       -7.1750    -6.8440    -1.1240 H     1 <1>   0.0800 
 36 H       -7.1050    -5.4120    -0.1700 H     1 <1>   0.0800 
 37 H       -5.1500    -4.6400    -1.6040 H     1 <1>   0.0800 
 38 H       -5.3710    -6.0760    -2.5640 H     1 <1>   0.0800 
 39 H       -7.4560    -3.9200    -2.1530 H     1 <1>   0.0800 
 40 H       -7.6700    -5.3650    -3.1170 H     1 <1>   0.0800 
 41 H       -6.5000    -4.1590    -3.5970 H     1 <1>   0.0800 
@<TRIPOS>BOND
  1   1   2  1   
  2   2   3  1   
  3   2   4  1   
  4   2   5  1   
  5   5   6  ar  
  6   5   7  ar  
  7   6   8  ar  
  8   7   9  ar  
  9   7  24  1   
 10   8  10  1   
 11   8  11  ar  
 12   9  11  ar  
 13   9  25  1   
 14  10  12  1   
 15  10  13  1   
 16  11  26  1   
 17  12  14  1   
 18  12  27  1   
 19  12  28  1   
 20  13  15  1   
 21  13  29  1   
 22  13  30  1   
 23  14  16  1   
 24  14  17  1   
 25  14  31  1   
 26  15  17  1   
 27  15  32  1   
 28  15  33  1   
 29  16  34  1   
 30  17  18  1   
 31  17  19  1   
 32  18  20  ar  
 33  18  21  ar  
 34  19  22  1   
 35  19  35  1   
 36  19  36  1   
 37  22  23  1   
 38  22  37  1   
 39  22  38  1   
 40  23  39  1   
 41  23  40  1   
 42  23  41  1   
@<TRIPOS>SUBSTRUCTURE
  1 ****  10 GROUP 4 **** **** 0

# MOE 2024.06 (io_trps.svl 2023.06)
