@<TRIPOS>MOLECULE
NONAME
39 41 1 0 0 
SMALL
USER_CHARGES


@<TRIPOS>ATOM
  1 CL       1.8190     1.0380     0.6390 Cl    1 <1>  -0.1770 
  2 C        0.6640     2.3070     0.3130 C.ar  1 <1>   0.1770 
  3 C        1.0820     3.4400    -0.3600 C.ar  1 <1>  -0.1500 
  4 C       -0.6450     2.1580     0.7330 C.ar  1 <1>  -0.1500 
  5 C        0.1780     4.4620    -0.6140 C.ar  1 <1>  -0.1440 
  6 C       -1.5490     3.1750     0.4850 C.ar  1 <1>  -0.1500 
  7 C       -1.1330     4.3250    -0.1710 C.ar  1 <1>   0.0830 
  8 C        0.6100     5.7000    -1.3830 C.3   1 <1>   0.3530 
  9 O       -2.0290     5.3140    -0.3610 O.3   1 <1>  -0.3630 
 10 N        0.5210     6.9270    -0.5380 N.pl3 1 <1>  -0.8380 
 11 C       -1.8040     6.5000     0.3760 C.3   1 <1>   0.1200 
 12 C        1.5710     7.3290     0.2180 C.ar  1 <1>   0.4100 
 13 C       -0.8650     7.4650    -0.3640 C.3   1 <1>   0.2090 
 14 N        2.1310     6.3970     0.9630 N.ar  1 <1>  -0.6200 
 15 C        2.0430     8.6700     0.2140 C.ar  1 <1>  -0.1430 
 16 C        3.1000     6.7480     1.7700 C.ar  1 <1>   0.7710 
 17 C        3.0510     8.9830     1.0720 C.ar  1 <1>   0.2110 
 18 C        1.4450     9.7030    -0.7510 C.3   1 <1>  -0.0170 
 19 N        3.5630     8.0040     1.8560 N.ar  1 <1>  -0.1790 
 20 N        3.6200     5.7820     2.5220 N.pl3 1 <1>  -0.9000 
 21 C        2.3730    10.8780    -1.0850 C.3   1 <1>  -0.2400 
 22 H        2.1060     3.5140    -0.6790 H     1 <1>   0.1500 
 23 H       -0.9460     1.2620     1.2450 H     1 <1>   0.1500 
 24 H       -2.5730     3.0890     0.8010 H     1 <1>   0.1500 
 25 H       -0.0140     5.8150    -2.2530 H     1 <1>   0.0800 
 26 H        1.6240     5.5790    -1.7230 H     1 <1>   0.0800 
 27 H       -1.4010     6.2420     1.3400 H     1 <1>   0.0800 
 28 H       -2.7620     6.9670     0.5170 H     1 <1>   0.0800 
 29 H       -1.2860     7.7030    -1.3260 H     1 <1>   0.0800 
 30 H       -0.8230     8.3730     0.2090 H     1 <1>   0.0800 
 31 H        3.4710     9.9710     1.1550 H     1 <1>   0.1500 
 32 H        0.5290    10.0910    -0.3420 H     1 <1>   0.0800 
 33 H        1.2020     9.2120    -1.6790 H     1 <1>   0.0800 
 34 H        4.3150     8.1750     2.5160 H     1 <1>   0.4570 
 35 H        4.3710     5.8280     3.2110 H     1 <1>   0.4000 
 36 H        3.2120     4.8460     2.4170 H     1 <1>   0.4000 
 37 H        2.5370    11.5040    -0.2260 H     1 <1>   0.0800 
 38 H        1.9190    11.4860    -1.8490 H     1 <1>   0.0800 
 39 H        3.3170    10.5240    -1.4610 H     1 <1>   0.0800 
@<TRIPOS>BOND
  1   1   2  1   
  2   2   3  ar  
  3   2   4  ar  
  4   3   5  ar  
  5   3  22  1   
  6   4   6  ar  
  7   4  23  1   
  8   5   7  ar  
  9   5   8  1   
 10   6   7  ar  
 11   6  24  1   
 12   7   9  1   
 13   8  10  1   
 14   8  25  1   
 15   8  26  1   
 16   9  11  1   
 17  10  12  1   
 18  10  13  1   
 19  11  13  1   
 20  11  27  1   
 21  11  28  1   
 22  12  14  ar  
 23  12  15  ar  
 24  13  29  1   
 25  13  30  1   
 26  14  16  ar  
 27  15  17  ar  
 28  15  18  1   
 29  16  19  ar  
 30  16  20  1   
 31  17  19  ar  
 32  17  31  1   
 33  18  21  1   
 34  18  32  1   
 35  18  33  1   
 36  19  34  1   
 37  20  35  1   
 38  20  36  1   
 39  21  37  1   
 40  21  38  1   
 41  21  39  1   
@<TRIPOS>SUBSTRUCTURE
  1 ****  10 GROUP 4 **** **** 0

# MOE 2024.06 (io_trps.svl 2023.06)
