@<TRIPOS>MOLECULE
NONAME
44 46 1 0 0 
SMALL
USER_CHARGES


@<TRIPOS>ATOM
  1 S       -0.3600    -0.2150     1.3730 S.3   1 <1>  -0.0800 
  2 C       -1.4910    -0.9750     0.2990 C.2   1 <1>   0.4420 
  3 C       -0.5160     1.2100     0.4070 C.2   1 <1>   0.1980 
  4 N       -1.8790    -0.1790    -0.6320 N.2   1 <1>  -0.3380 
  5 N       -1.8190    -2.2810     0.5660 N.am  1 <1>  -0.4940 
  6 N       -1.3190     1.0640    -0.5640 N.2   1 <1>  -0.3380 
  7 C        0.2790     2.4390     0.7880 C.3   1 <1>   0.0200 
  8 C       -2.6620    -3.1440    -0.0800 C.2   1 <1>   0.7160 
  9 C       -0.0050     3.5450    -0.2350 C.3   1 <1>   0.3430 
 10 O       -3.2770    -2.8010    -1.0720 O.2   1 <1>  -0.5700 
 11 C       -2.7790    -4.4800     0.4710 C.2   1 <1>   0.2030 
 12 N        0.7870     4.7960     0.0130 N.4   1 <1>  -0.9590 
 13 N       -2.1160    -4.9160     1.5290 N.2   1 <1>  -0.7070 
 14 C       -3.6040    -5.4880    -0.0340 C.2   1 <1>  -0.1500 
 15 C        0.3560     5.5120     1.2570 C.3   1 <1>   0.2630 
 16 C        0.6620     5.7070    -1.1670 C.3   1 <1>   0.2630 
 17 N       -2.5230    -6.1890     1.6820 N.pl3 1 <1>   0.3000 
 18 C       -3.4230    -6.5780     0.7500 C.2   1 <1>  -0.1520 
 19 C       -3.9980    -7.8990     0.7130 C.2   1 <1>  -0.1520 
 20 N       -4.3830    -8.5600    -0.4270 N.pl3 1 <1>   0.0480 
 21 C       -4.2550    -8.7220     1.7760 C.2   1 <1>  -0.1500 
 22 C       -4.8690    -9.7760    -0.0630 C.2   1 <1>  -0.3020 
 23 C       -4.2560    -8.0930    -1.8180 C.3   1 <1>   0.0160 
 24 C       -4.8040    -9.9050     1.2860 C.2   1 <1>  -0.1500 
 25 H       -1.3790    -2.7240     1.3730 H     1 <1>   0.3700 
 26 H        1.3240     2.1880     0.7850 H     1 <1>   0.0800 
 27 H       -0.0190     2.7440     1.7740 H     1 <1>   0.0800 
 28 H       -1.0600     3.7710    -0.2260 H     1 <1>   0.0800 
 29 H        0.2320     3.1610    -1.2160 H     1 <1>   0.0800 
 30 H        1.7840     4.5420     0.1050 H     1 <1>   0.4500 
 31 H       -4.2510    -5.3720    -0.8840 H     1 <1>   0.1500 
 32 H       -0.6880     5.7780     1.1950 H     1 <1>   0.0800 
 33 H        0.9320     6.4140     1.3880 H     1 <1>   0.0800 
 34 H        0.5010     4.8880     2.1240 H     1 <1>   0.0800 
 35 H       -0.3670     5.9990    -1.3100 H     1 <1>   0.0800 
 36 H        1.0050     5.2120    -2.0620 H     1 <1>   0.0800 
 37 H        1.2540     6.5960    -1.0200 H     1 <1>   0.0800 
 38 H       -2.1760    -6.8040     2.4270 H     1 <1>   0.2700 
 39 H       -4.0840    -8.5210     2.8190 H     1 <1>   0.1500 
 40 H       -5.2360   -10.4890    -0.7800 H     1 <1>   0.1500 
 41 H       -3.2950    -7.6300    -1.9530 H     1 <1>   0.0800 
 42 H       -5.0350    -7.3830    -2.0250 H     1 <1>   0.0800 
 43 H       -4.3440    -8.9280    -2.4880 H     1 <1>   0.0800 
 44 H       -5.1120   -10.7470     1.8830 H     1 <1>   0.1500 
@<TRIPOS>BOND
  1   1   2  1   
  2   1   3  1   
  3   2   4  2   
  4   2   5  1   
  5   3   6  2   
  6   3   7  1   
  7   4   6  1   
  8   5   8  am  
  9   5  25  1   
 10   7   9  1   
 11   7  26  1   
 12   7  27  1   
 13   8  10  2   
 14   8  11  1   
 15   9  12  1   
 16   9  28  1   
 17   9  29  1   
 18  11  13  2   
 19  11  14  1   
 20  12  15  1   
 21  12  16  1   
 22  12  30  1   
 23  13  17  1   
 24  14  18  2   
 25  14  31  1   
 26  15  32  1   
 27  15  33  1   
 28  15  34  1   
 29  16  35  1   
 30  16  36  1   
 31  16  37  1   
 32  17  18  1   
 33  17  38  1   
 34  18  19  1   
 35  19  20  1   
 36  19  21  2   
 37  20  22  1   
 38  20  23  1   
 39  21  24  1   
 40  21  39  1   
 41  22  24  2   
 42  22  40  1   
 43  23  41  1   
 44  23  42  1   
 45  23  43  1   
 46  24  44  1   
@<TRIPOS>SUBSTRUCTURE
  1 ****   5 GROUP 4 **** **** 0

# MOE 2024.06 (io_trps.svl 2023.06)
