@<TRIPOS>MOLECULE
NONAME
24 23 1 0 0 
SMALL
USER_CHARGES


@<TRIPOS>ATOM
  1 O        6.6390     1.5160     0.0020 O.2   1 <1>  -0.5700 
  2 C        6.6790     0.3120     0.0050 C.2   1 <1>   0.6590 
  3 O        5.5820    -0.4330     0.0110 O.3   1 <1>  -0.4300 
  4 C        7.9850    -0.4510     0.0020 C.3   1 <1>  -0.0990 
  5 C        4.2930     0.1440     0.0150 C.3   1 <1>   0.0400 
  6 C        9.1870     0.4930    -0.0050 C.3   1 <1>   0.1200 
  7 O       10.3500    -0.2770    -0.0070 O.3   1 <1>  -0.5600 
  8 C       11.5220     0.4630    -0.0140 C.3   1 <1>   0.1200 
  9 C       12.6830    -0.5360    -0.0150 C.3   1 <1>   0.3430 
 10 N       14.0080     0.1500    -0.0220 N.4   1 <1>  -0.8530 
 11 H        8.0090    -1.0750    -0.8720 H     1 <1>   0.0800 
 12 H        8.0160    -1.0700     0.8790 H     1 <1>   0.0800 
 13 H        3.5640    -0.6470     0.0200 H     1 <1>   0.0800 
 14 H        4.1790     0.7480    -0.8690 H     1 <1>   0.0800 
 15 H        4.1860     0.7530     0.8960 H     1 <1>   0.0800 
 16 H        9.1770     1.1160     0.8750 H     1 <1>   0.0800 
 17 H        9.1700     1.1110    -0.8880 H     1 <1>   0.0800 
 18 H       11.5380     1.0780     0.8710 H     1 <1>   0.0800 
 19 H       11.5320     1.0730    -0.9020 H     1 <1>   0.0800 
 20 H       12.5940    -1.1640    -0.8880 H     1 <1>   0.0800 
 21 H       12.6000    -1.1590     0.8610 H     1 <1>   0.0800 
 22 H       14.1180     0.7360    -0.8570 H     1 <1>   0.4500 
 23 H       14.7690    -0.5410    -0.0220 H     1 <1>   0.4500 
 24 H       14.1240     0.7410     0.8100 H     1 <1>   0.4500 
@<TRIPOS>BOND
  1   1   2  2   
  2   2   3  1   
  3   2   4  1   
  4   3   5  1   
  5   4   6  1   
  6   4  11  1   
  7   4  12  1   
  8   5  13  1   
  9   5  14  1   
 10   5  15  1   
 11   6   7  1   
 12   6  16  1   
 13   6  17  1   
 14   7   8  1   
 15   8   9  1   
 16   8  18  1   
 17   8  19  1   
 18   9  10  1   
 19   9  20  1   
 20   9  21  1   
 21  10  22  1   
 22  10  23  1   
 23  10  24  1   
@<TRIPOS>SUBSTRUCTURE
  1 ****   6 GROUP 4 **** **** 0

# MOE 2024.06 (io_trps.svl 2023.06)
