@<TRIPOS>MOLECULE
NONAME
48 50 1 0 0 
SMALL
USER_CHARGES


@<TRIPOS>ATOM
  1 F        1.7590     0.7630     3.0390 F     1 <1>  -0.1900 
  2 C        2.0860     1.0200     1.8030 C.ar  1 <1>   0.1900 
  3 C        2.0610    -0.0120     0.8690 C.ar  1 <1>   0.0860 
  4 C        2.4400     2.3180     1.4880 C.ar  1 <1>  -0.1500 
  5 C        2.4170     0.3530    -0.4260 C.ar  1 <1>   0.1900 
  6 C        1.6910    -1.3580     1.2110 C.2   1 <1>   0.5440 
  7 C        2.7910     2.6350     0.1850 C.ar  1 <1>   0.0820 
  8 F        2.3990    -0.5550    -1.3640 F     1 <1>  -0.1900 
  9 C        2.7790     1.6370    -0.7870 C.ar  1 <1>  -0.1500 
 10 O        2.5600    -2.1910     1.3940 O.2   1 <1>  -0.5700 
 11 N        0.3730    -1.7510     1.2960 N.am  1 <1>  -0.6600 
 12 O        3.1270     3.9190    -0.0640 O.3   1 <1>  -0.3630 
 13 C        0.0200    -3.1500     1.6710 C.3   1 <1>   0.1400 
 14 C       -0.7360    -1.0490     0.5920 C.3   1 <1>   0.1400 
 15 C        3.5400     4.3490    -1.3430 C.3   1 <1>   0.0400 
 16 C       -0.2150    -3.9460     0.3670 C.3   1 <1>   0.4230 
 17 C       -1.0500    -1.8210    -0.6990 C.3   1 <1>  -0.1600 
 18 N       -0.4420    -5.4170     0.5640 N.4   1 <1>  -0.9590 
 19 C       -1.3860    -3.3180    -0.4250 C.3   1 <1>  -0.1060 
 20 C       -0.5290    -6.1400    -0.7290 C.3   1 <1>   0.3430 
 21 C        0.4860    -6.0730     1.5220 C.3   1 <1>   0.2630 
 22 C       -2.6710    -3.4420     0.4190 C.2   1 <1>   0.9060 
 23 C       -1.5440    -4.0500    -1.7790 C.3   1 <1>  -0.1600 
 24 C       -1.6610    -5.5700    -1.5880 C.3   1 <1>  -0.1600 
 25 O       -2.8120    -4.4310     1.1570 O.co2 1 <1>  -0.9000 
 26 O       -3.5220    -2.5570     0.3600 O.co2 1 <1>  -0.9000 
 27 H        2.4450     3.0800     2.2460 H     1 <1>   0.1500 
 28 H        3.0410     1.8340    -1.8080 H     1 <1>   0.1500 
 29 H        0.8210    -3.5780     2.2430 H     1 <1>   0.0800 
 30 H       -0.8640    -3.1410     2.2860 H     1 <1>   0.0800 
 31 H       -1.6060    -1.0210     1.2300 H     1 <1>   0.0800 
 32 H       -0.4700    -0.0330     0.3580 H     1 <1>   0.0800 
 33 H        3.7680     5.3980    -1.2840 H     1 <1>   0.0800 
 34 H        2.7400     4.1880    -2.0430 H     1 <1>   0.0800 
 35 H        4.4200     3.8000    -1.6290 H     1 <1>   0.0800 
 36 H        0.6800    -3.8300    -0.2200 H     1 <1>   0.0800 
 37 H       -1.8860    -1.3480    -1.1870 H     1 <1>   0.0800 
 38 H       -0.2060    -1.7410    -1.3610 H     1 <1>   0.0800 
 39 H       -1.4190    -5.4120     0.9660 H     1 <1>   0.4500 
 40 H        0.4060    -6.0450    -1.2570 H     1 <1>   0.0800 
 41 H       -0.7160    -7.1860    -0.5500 H     1 <1>   0.0800 
 42 H        1.5040    -5.9730     1.1840 H     1 <1>   0.0800 
 43 H        0.2460    -7.1200     1.6130 H     1 <1>   0.0800 
 44 H        0.3960    -5.6210     2.4960 H     1 <1>   0.0800 
 45 H       -2.4250    -3.6830    -2.2810 H     1 <1>   0.0800 
 46 H       -0.6950    -3.8410    -2.4070 H     1 <1>   0.0800 
 47 H       -1.6520    -6.0520    -2.5490 H     1 <1>   0.0800 
 48 H       -2.6040    -5.8070    -1.1240 H     1 <1>   0.0800 
@<TRIPOS>BOND
  1   1   2  1   
  2   2   3  ar  
  3   2   4  ar  
  4   3   5  ar  
  5   3   6  1   
  6   4   7  ar  
  7   4  27  1   
  8   5   8  1   
  9   5   9  ar  
 10   6  10  2   
 11   6  11  am  
 12   7   9  ar  
 13   7  12  1   
 14   9  28  1   
 15  11  13  1   
 16  11  14  1   
 17  12  15  1   
 18  13  16  1   
 19  13  29  1   
 20  13  30  1   
 21  14  17  1   
 22  14  31  1   
 23  14  32  1   
 24  15  33  1   
 25  15  34  1   
 26  15  35  1   
 27  16  18  1   
 28  16  19  1   
 29  16  36  1   
 30  17  19  1   
 31  17  37  1   
 32  17  38  1   
 33  18  20  1   
 34  18  21  1   
 35  18  39  1   
 36  19  22  1   
 37  19  23  1   
 38  20  24  1   
 39  20  40  1   
 40  20  41  1   
 41  21  42  1   
 42  21  43  1   
 43  21  44  1   
 44  22  25  ar  
 45  22  26  ar  
 46  23  24  1   
 47  23  45  1   
 48  23  46  1   
 49  24  47  1   
 50  24  48  1   
@<TRIPOS>SUBSTRUCTURE
  1 ****  11 GROUP 4 **** **** 0

# MOE 2024.06 (io_trps.svl 2023.06)
