@<TRIPOS>MOLECULE
NONAME
39 41 1 0 0 
SMALL
USER_CHARGES


@<TRIPOS>ATOM
  1 F       -1.8840    -0.2200    -1.5000 F     1 <1>  -0.1900 
  2 C       -2.2460     0.6410    -0.5900 C.ar  1 <1>   0.1900 
  3 C       -2.7640     0.1810     0.6240 C.ar  1 <1>   0.0860 
  4 C       -2.0860     1.9800    -0.8880 C.ar  1 <1>  -0.1500 
  5 C       -2.9330    -1.2240     0.9230 C.2   1 <1>   0.5440 
  6 C       -3.1110     1.1510     1.5700 C.ar  1 <1>  -0.1500 
  7 C       -2.4560     2.8940     0.0780 C.ar  1 <1>   0.1900 
  8 O       -2.4010    -1.6910     1.9110 O.2   1 <1>  -0.5700 
  9 N       -3.7170    -2.0520     0.1550 N.am  1 <1>  -0.6600 
 10 C       -2.9640     2.5030     1.3040 C.ar  1 <1>  -0.1500 
 11 F       -2.3210     4.1650    -0.1720 F     1 <1>  -0.1900 
 12 C       -4.6500    -1.6320    -0.9220 C.3   1 <1>   0.1400 
 13 C       -3.8820    -3.4990     0.4430 C.3   1 <1>   0.1400 
 14 C       -5.7080    -2.7330    -0.9490 C.3   1 <1>   0.2000 
 15 C       -4.9240    -3.9940    -0.5700 C.3   1 <1>  -0.0800 
 16 O       -6.6430    -2.4530     0.0360 O.3   1 <1>  -0.6800 
 17 C       -5.7850    -5.1650    -0.0590 C.3   1 <1>   0.0200 
 18 C       -4.9900    -6.4410     0.1610 C.2   1 <1>  -0.0400 
 19 O       -5.5900    -7.4670     0.7040 O.3   1 <1>  -0.0190 
 20 C       -3.7200    -6.8000    -0.0910 C.2   1 <1>  -0.1500 
 21 N       -4.7930    -8.4880     0.8320 N.2   1 <1>  -0.4100 
 22 C       -3.6580    -8.1140     0.3620 C.2   1 <1>   0.1080 
 23 C       -2.4280    -8.9920     0.3130 C.3   1 <1>  -0.0590 
 24 H       -1.6870     2.3010    -1.8320 H     1 <1>   0.1500 
 25 H       -3.4960     0.8300     2.5240 H     1 <1>   0.1500 
 26 H       -3.2340     3.2470     2.0340 H     1 <1>   0.1500 
 27 H       -5.0840    -0.6650    -0.7310 H     1 <1>   0.0800 
 28 H       -4.1190    -1.6140    -1.8580 H     1 <1>   0.0800 
 29 H       -2.9410    -4.0110     0.3350 H     1 <1>   0.0800 
 30 H       -4.2350    -3.6190     1.4540 H     1 <1>   0.0800 
 31 H       -6.2170    -2.8090    -1.8950 H     1 <1>   0.0800 
 32 H       -4.3950    -4.3200    -1.4490 H     1 <1>   0.0800 
 33 H       -6.1710    -2.2620     0.8720 H     1 <1>   0.4000 
 34 H       -6.5650    -5.3700    -0.7710 H     1 <1>   0.0800 
 35 H       -6.2580    -4.8970     0.8690 H     1 <1>   0.0800 
 36 H       -2.9120    -6.2480    -0.5320 H     1 <1>   0.1500 
 37 H       -1.6290    -8.5310     0.8640 H     1 <1>   0.0800 
 38 H       -2.1210    -9.1330    -0.7070 H     1 <1>   0.0800 
 39 H       -2.6440    -9.9510     0.7480 H     1 <1>   0.0800 
@<TRIPOS>BOND
  1   1   2  1   
  2   2   3  ar  
  3   2   4  ar  
  4   3   5  1   
  5   3   6  ar  
  6   4   7  ar  
  7   4  24  1   
  8   5   8  2   
  9   5   9  am  
 10   6  10  ar  
 11   6  25  1   
 12   7  10  ar  
 13   7  11  1   
 14   9  12  1   
 15   9  13  1   
 16  10  26  1   
 17  12  14  1   
 18  12  27  1   
 19  12  28  1   
 20  13  15  1   
 21  13  29  1   
 22  13  30  1   
 23  14  15  1   
 24  14  16  1   
 25  14  31  1   
 26  15  17  1   
 27  15  32  1   
 28  16  33  1   
 29  17  18  1   
 30  17  34  1   
 31  17  35  1   
 32  18  19  1   
 33  18  20  2   
 34  19  21  1   
 35  20  22  1   
 36  20  36  1   
 37  21  22  2   
 38  22  23  1   
 39  23  37  1   
 40  23  38  1   
 41  23  39  1   
@<TRIPOS>SUBSTRUCTURE
  1 ****   9 GROUP 4 **** **** 0

# MOE 2024.06 (io_trps.svl 2023.06)
