@<TRIPOS>MOLECULE
NONAME
50 53 1 0 0 
SMALL
USER_CHARGES


@<TRIPOS>ATOM
  1 O       -0.8670     0.1250    -2.5740 O.2   1 <1>  -0.5700 
  2 C       -1.4900     0.8620    -1.8460 C.2   1 <1>   0.5690 
  3 N       -2.4640     0.3840    -1.0090 N.am  1 <1>  -0.6600 
  4 C       -1.1660     2.3500    -1.8840 C.3   1 <1>   0.0820 
  5 C       -3.2450     1.1730    -0.0200 C.3   1 <1>   0.1400 
  6 C       -2.7640    -1.0610    -0.8730 C.3   1 <1>   0.1400 
  7 C       -0.4370     2.8340    -0.6360 C.2   1 <1>  -0.1810 
  8 C       -4.0350     0.1370     0.7840 C.3   1 <1>   0.2000 
  9 C       -3.3480    -1.2040     0.5330 C.3   1 <1>  -0.0800 
 10 C       -0.2840     4.1830    -0.2250 C.ar  1 <1>   0.0000 
 11 C        0.1810     2.0810     0.2960 C.2   1 <1>  -0.0100 
 12 O       -4.0220     0.4260     2.1390 O.3   1 <1>  -0.6800 
 13 C       -4.3040    -2.3970     0.7050 C.3   1 <1>  -0.0170 
 14 C       -0.6440     5.4520    -0.7020 C.ar  1 <1>  -0.1430 
 15 C        0.4210     4.0960     0.9660 C.ar  1 <1>   0.1400 
 16 O        0.6920     2.8260     1.2650 O.3   1 <1>  -0.2800 
 17 C       -3.6040    -3.7250     0.4640 C.ar  1 <1>   0.1670 
 18 C       -0.2930     6.5650     0.0410 C.ar  1 <1>  -0.1500 
 19 C       -1.3990     5.6260    -2.0090 C.3   1 <1>  -0.0970 
 20 C        0.7740     5.2110     1.7100 C.ar  1 <1>  -0.1500 
 21 N       -3.5040    -4.1200    -0.7950 N.ar  1 <1>  -0.6200 
 22 C       -3.1060    -4.4550     1.5420 C.ar  1 <1>   0.1600 
 23 C        0.4110     6.4570     1.2430 C.ar  1 <1>  -0.1430 
 24 C       -2.8770    -5.2790    -0.9030 C.ar  1 <1>   0.1600 
 25 N       -2.4780    -5.6150     1.4360 N.ar  1 <1>  -0.6200 
 26 C        0.7680     7.7150     2.0140 C.3   1 <1>  -0.0970 
 27 C       -2.3810    -6.0020     0.1750 C.ar  1 <1>   0.1600 
 28 H       -0.5580     2.5520    -2.7460 H     1 <1>   0.0800 
 29 H       -2.0890     2.8830    -1.9970 H     1 <1>   0.0800 
 30 H       -2.5770     1.7240     0.6190 H     1 <1>   0.0800 
 31 H       -3.9140     1.8460    -0.5260 H     1 <1>   0.0800 
 32 H       -3.4860    -1.3430    -1.6210 H     1 <1>   0.0800 
 33 H       -1.8760    -1.6600    -0.9960 H     1 <1>   0.0800 
 34 H       -5.0590     0.1220     0.4500 H     1 <1>   0.0800 
 35 H       -2.5170    -1.3130     1.2090 H     1 <1>   0.0800 
 36 H        0.3060     1.0130     0.3580 H     1 <1>   0.1500 
 37 H       -3.1040     0.5100     2.4620 H     1 <1>   0.4000 
 38 H       -5.1290    -2.3090     0.0190 H     1 <1>   0.0800 
 39 H       -4.7120    -2.3820     1.7000 H     1 <1>   0.0800 
 40 H       -0.5630     7.5470    -0.3060 H     1 <1>   0.1500 
 41 H       -1.4650     6.6650    -2.2770 H     1 <1>   0.0800 
 42 H       -2.3960     5.2380    -1.9120 H     1 <1>   0.0800 
 43 H       -0.8880     5.1100    -2.8010 H     1 <1>   0.0800 
 44 H        1.3190     5.0780     2.6260 H     1 <1>   0.1500 
 45 H       -3.2310    -4.0630     2.5360 H     1 <1>   0.1500 
 46 H       -2.7480    -5.6780    -1.8940 H     1 <1>   0.1500 
 47 H        1.3840     8.3540     1.4070 H     1 <1>   0.0800 
 48 H        1.3070     7.4740     2.9130 H     1 <1>   0.0800 
 49 H       -0.1270     8.2460     2.2830 H     1 <1>   0.0800 
 50 H       -1.8840    -6.9370    -0.0140 H     1 <1>   0.1500 
@<TRIPOS>BOND
  1   1   2  2   
  2   2   3  am  
  3   2   4  1   
  4   3   5  1   
  5   3   6  1   
  6   4   7  1   
  7   4  28  1   
  8   4  29  1   
  9   5   8  1   
 10   5  30  1   
 11   5  31  1   
 12   6   9  1   
 13   6  32  1   
 14   6  33  1   
 15   7  10  1   
 16   7  11  2   
 17   8   9  1   
 18   8  12  1   
 19   8  34  1   
 20   9  13  1   
 21   9  35  1   
 22  10  14  ar  
 23  10  15  ar  
 24  11  16  1   
 25  11  36  1   
 26  12  37  1   
 27  13  17  1   
 28  13  38  1   
 29  13  39  1   
 30  14  18  ar  
 31  14  19  1   
 32  15  16  1   
 33  15  20  ar  
 34  17  21  ar  
 35  17  22  ar  
 36  18  23  ar  
 37  18  40  1   
 38  19  41  1   
 39  19  42  1   
 40  19  43  1   
 41  20  23  ar  
 42  20  44  1   
 43  21  24  ar  
 44  22  25  ar  
 45  22  45  1   
 46  23  26  1   
 47  24  27  ar  
 48  24  46  1   
 49  25  27  ar  
 50  26  47  1   
 51  26  48  1   
 52  26  49  1   
 53  27  50  1   
@<TRIPOS>SUBSTRUCTURE
  1 ****   3 GROUP 4 **** **** 0

# MOE 2024.06 (io_trps.svl 2023.06)
