@<TRIPOS>MOLECULE
NONAME
54 57 1 0 0 
SMALL
USER_CHARGES


@<TRIPOS>ATOM
  1 O       -2.3870    -0.3010    -1.2400 O.2   1 <1>  -0.5700 
  2 C       -2.6790     0.4000    -0.2910 C.2   1 <1>   0.5440 
  3 N       -2.8470    -0.2140     0.9330 N.am  1 <1>  -0.6600 
  4 C       -2.9010     1.8210    -0.4700 C.ar  1 <1>   0.0860 
  5 C       -4.0640     0.0140     1.7430 C.3   1 <1>   0.1400 
  6 C       -2.1350    -1.4790     1.2380 C.3   1 <1>   0.1400 
  7 C       -2.6190     2.7290     0.5490 C.ar  1 <1>   0.1600 
  8 C       -3.4050     2.3430    -1.6540 C.ar  1 <1>  -0.1500 
  9 C       -5.0550    -1.1050     1.4090 C.3   1 <1>  -0.1600 
 10 C       -3.0660    -2.6410     0.8970 C.3   1 <1>  -0.1600 
 11 N       -2.8210     4.0360     0.5040 N.ar  1 <1>  -0.6200 
 12 C       -3.6130     3.7030    -1.7290 C.ar  1 <1>  -0.1500 
 13 C       -4.4180    -2.4890     1.6080 C.3   1 <1>   0.4230 
 14 C       -3.3130     4.4950    -0.6350 C.ar  1 <1>   0.1600 
 15 N       -5.3770    -3.5400     1.1800 N.4   1 <1>  -0.9060 
 16 C       -5.6680    -3.6530    -0.2830 C.3   1 <1>   0.4230 
 17 C       -7.0940    -4.1590    -0.5070 C.3   1 <1>  -0.0800 
 18 C       -4.8970    -4.8520    -0.8240 C.3   1 <1>   0.1200 
 19 C       -6.9520    -5.6840    -0.3600 C.3   1 <1>   0.1200 
 20 C       -8.2110    -3.5400     0.3570 C.3   1 <1>  -0.0170 
 21 O       -5.5790    -5.9260    -0.2670 O.3   1 <1>  -0.5600 
 22 C       -9.5680    -4.0640    -0.0790 C.ar  1 <1>  -0.1430 
 23 C      -10.2250    -3.5500    -1.1800 C.ar  1 <1>  -0.1500 
 24 C      -10.2160    -5.0800     0.5970 C.ar  1 <1>  -0.1500 
 25 C      -11.4570    -4.0660    -1.5450 C.ar  1 <1>   0.1600 
 26 C      -11.4490    -5.5240     0.1470 C.ar  1 <1>   0.1600 
 27 N      -12.0810    -5.0430    -0.9090 N.ar  1 <1>  -0.6200 
 28 H       -3.8070     0.0040     2.7900 H     1 <1>   0.0800 
 29 H       -4.5030     0.9710     1.5140 H     1 <1>   0.0800 
 30 H       -1.2320    -1.5430     0.6520 H     1 <1>   0.0800 
 31 H       -1.8600    -1.4950     2.2800 H     1 <1>   0.0800 
 32 H       -2.1980     2.3460     1.4630 H     1 <1>   0.1500 
 33 H       -3.6220     1.6970    -2.4880 H     1 <1>   0.1500 
 34 H       -5.3660    -0.9680     0.3890 H     1 <1>   0.0800 
 35 H       -5.9150    -1.0000     2.0460 H     1 <1>   0.0800 
 36 H       -2.5920    -3.5600     1.1930 H     1 <1>   0.0800 
 37 H       -3.1810    -2.6410    -0.1710 H     1 <1>   0.0800 
 38 H       -4.0030     4.1490    -2.6270 H     1 <1>   0.1500 
 39 H       -4.2350    -2.6050     2.6650 H     1 <1>   0.0800 
 40 H       -3.4810     5.5580    -0.7010 H     1 <1>   0.1500 
 41 H       -6.2550    -3.4140     1.6850 H     1 <1>   0.4500 
 42 H       -5.0320    -4.4750     1.4500 H     1 <1>   0.4500 
 43 H       -5.4570    -2.7390    -0.8140 H     1 <1>   0.0800 
 44 H       -7.3420    -3.9690    -1.5380 H     1 <1>   0.0800 
 45 H       -3.8640    -4.8850    -0.5290 H     1 <1>   0.0800 
 46 H       -4.9700    -4.9210    -1.8980 H     1 <1>   0.0800 
 47 H       -7.3400    -6.2040    -1.2210 H     1 <1>   0.0800 
 48 H       -7.4200    -6.0650     0.5320 H     1 <1>   0.0800 
 49 H       -8.2060    -2.4680     0.2500 H     1 <1>   0.0800 
 50 H       -8.0740    -3.7720     1.3980 H     1 <1>   0.0800 
 51 H       -9.8000    -2.7530    -1.7610 H     1 <1>   0.1500 
 52 H       -9.7860    -5.5370     1.4690 H     1 <1>   0.1500 
 53 H      -11.9570    -3.6540    -2.4060 H     1 <1>   0.1500 
 54 H      -11.9420    -6.3170     0.6840 H     1 <1>   0.1500 
@<TRIPOS>BOND
  1   1   2  2   
  2   2   3  am  
  3   2   4  1   
  4   3   5  1   
  5   3   6  1   
  6   4   7  ar  
  7   4   8  ar  
  8   5   9  1   
  9   5  28  1   
 10   5  29  1   
 11   6  10  1   
 12   6  30  1   
 13   6  31  1   
 14   7  11  ar  
 15   7  32  1   
 16   8  12  ar  
 17   8  33  1   
 18   9  13  1   
 19   9  34  1   
 20   9  35  1   
 21  10  13  1   
 22  10  36  1   
 23  10  37  1   
 24  11  14  ar  
 25  12  14  ar  
 26  12  38  1   
 27  13  15  1   
 28  13  39  1   
 29  14  40  1   
 30  15  16  1   
 31  15  41  1   
 32  15  42  1   
 33  16  17  1   
 34  16  18  1   
 35  16  43  1   
 36  17  19  1   
 37  17  20  1   
 38  17  44  1   
 39  18  21  1   
 40  18  45  1   
 41  18  46  1   
 42  19  21  1   
 43  19  47  1   
 44  19  48  1   
 45  20  22  1   
 46  20  49  1   
 47  20  50  1   
 48  22  23  ar  
 49  22  24  ar  
 50  23  25  ar  
 51  23  51  1   
 52  24  26  ar  
 53  24  52  1   
 54  25  27  ar  
 55  25  53  1   
 56  26  27  ar  
 57  26  54  1   
@<TRIPOS>SUBSTRUCTURE
  1 ****   9 GROUP 4 **** **** 0

# MOE 2024.06 (io_trps.svl 2023.06)
