@<TRIPOS>MOLECULE
NONAME
41 42 1 0 0 
SMALL
USER_CHARGES


@<TRIPOS>ATOM
  1 O        2.3770    -1.1000     2.9910 O.2   1 <1>  -0.5700 
  2 C        2.0810    -1.2220     1.8180 C.2   1 <1>   0.5440 
  3 N        2.2800    -0.1640     0.9670 N.am  1 <1>  -0.4940 
  4 C        1.5450    -2.4860     1.3300 C.ar  1 <1>   0.0860 
  5 C        2.8760     1.0860     1.1710 C.2   1 <1>   0.2040 
  6 C        0.8300    -2.6380     0.1240 C.ar  1 <1>   0.0830 
  7 C        1.7440    -3.6390     2.0980 C.ar  1 <1>  -0.1500 
  8 O        3.3910     1.4480     2.3230 O.3   1 <1>  -0.0190 
  9 C        3.0460     2.1110     0.3120 C.2   1 <1>  -0.1810 
 10 O        0.5950    -1.5450    -0.6480 O.3   1 <1>  -0.3630 
 11 C        0.3660    -3.8950    -0.2660 C.ar  1 <1>  -0.1500 
 12 C        1.2780    -4.8780     1.7080 C.ar  1 <1>  -0.1500 
 13 N        3.8920     2.6570     2.2760 N.2   1 <1>  -0.4100 
 14 C        3.6970     3.0760     1.0790 C.2   1 <1>   0.1080 
 15 C        2.6390     2.2100    -1.1490 C.3   1 <1>   0.0210 
 16 C       -0.3330    -1.5480    -1.7120 C.3   1 <1>   0.1200 
 17 C        0.5870    -5.0080     0.5200 C.ar  1 <1>  -0.1500 
 18 C        4.1350     4.4440     0.6030 C.3   1 <1>  -0.0590 
 19 C        1.3380     3.0010    -1.2940 C.3   1 <1>  -0.2400 
 20 C       -0.4740    -0.1160    -2.2280 C.3   1 <1>  -0.1600 
 21 C       -1.4920    -0.0320    -3.3700 C.3   1 <1>  -0.2400 
 22 H        1.8790    -0.3170     0.0410 H     1 <1>   0.3700 
 23 H        2.2820    -3.5590     3.0280 H     1 <1>   0.1500 
 24 H       -0.1720    -4.0350    -1.1840 H     1 <1>   0.1500 
 25 H        1.4530    -5.7410     2.3280 H     1 <1>   0.1500 
 26 H        2.5040     1.2210    -1.5490 H     1 <1>   0.0800 
 27 H        3.4230     2.6840    -1.7120 H     1 <1>   0.0800 
 28 H       -1.2760    -1.9100    -1.3410 H     1 <1>   0.0800 
 29 H        0.0370    -2.1950    -2.4890 H     1 <1>   0.0800 
 30 H        0.2240    -5.9740     0.2110 H     1 <1>   0.1500 
 31 H        4.7050     4.3560    -0.3030 H     1 <1>   0.0800 
 32 H        4.7470     4.9120     1.3520 H     1 <1>   0.0800 
 33 H        3.2740     5.0610     0.4260 H     1 <1>   0.0800 
 34 H        0.5580     2.5410    -0.7130 H     1 <1>   0.0800 
 35 H        1.0330     3.0280    -2.3250 H     1 <1>   0.0800 
 36 H        1.4710     4.0100    -0.9470 H     1 <1>   0.0800 
 37 H        0.4800     0.2300    -2.5840 H     1 <1>   0.0800 
 38 H       -0.7980     0.5200    -1.4210 H     1 <1>   0.0800 
 39 H       -1.1850    -0.6480    -4.1970 H     1 <1>   0.0800 
 40 H       -1.5750     0.9840    -3.7150 H     1 <1>   0.0800 
 41 H       -2.4620    -0.3570    -3.0360 H     1 <1>   0.0800 
@<TRIPOS>BOND
  1   1   2  2   
  2   2   3  am  
  3   2   4  1   
  4   3   5  1   
  5   3  22  1   
  6   4   6  ar  
  7   4   7  ar  
  8   5   8  1   
  9   5   9  2   
 10   6  10  1   
 11   6  11  ar  
 12   7  12  ar  
 13   7  23  1   
 14   8  13  1   
 15   9  14  1   
 16   9  15  1   
 17  10  16  1   
 18  11  17  ar  
 19  11  24  1   
 20  12  17  ar  
 21  12  25  1   
 22  13  14  2   
 23  14  18  1   
 24  15  19  1   
 25  15  26  1   
 26  15  27  1   
 27  16  20  1   
 28  16  28  1   
 29  16  29  1   
 30  17  30  1   
 31  18  31  1   
 32  18  32  1   
 33  18  33  1   
 34  19  34  1   
 35  19  35  1   
 36  19  36  1   
 37  20  21  1   
 38  20  37  1   
 39  20  38  1   
 40  21  39  1   
 41  21  40  1   
 42  21  41  1   
@<TRIPOS>SUBSTRUCTURE
  1 ****   3 GROUP 4 **** **** 0

# MOE 2024.06 (io_trps.svl 2023.06)
