@<TRIPOS>MOLECULE
NONAME
52 55 1 0 0 
SMALL
USER_CHARGES


@<TRIPOS>ATOM
  1 O       -4.4920     2.3130    -0.0820 O.2   1 <1>  -0.5700 
  2 C       -3.3150     2.2410     0.2300 C.2   1 <1>   0.5440 
  3 N       -2.7200     0.9910     0.2000 N.am  1 <1>  -0.6600 
  4 C       -2.6170     3.4620     0.6270 C.ar  1 <1>   0.3960 
  5 C       -1.3940     0.6560     0.7960 C.3   1 <1>   0.1400 
  6 C       -3.2410    -0.1110    -0.6610 C.3   1 <1>   0.1400 
  7 N       -1.3540     3.6860     0.2320 N.ar  1 <1>  -0.6200 
  8 C       -3.3090     4.3820     1.4170 C.ar  1 <1>   0.1600 
  9 C       -0.4180     0.2430    -0.3160 C.3   1 <1>   0.1200 
 10 C       -2.1710    -0.5210    -1.6900 C.3   1 <1>   0.1200 
 11 C       -0.8430     4.8290     0.6600 C.ar  1 <1>   0.4100 
 12 N       -2.8200     5.5250     1.8750 N.ar  1 <1>  -0.6200 
 13 O       -0.9520    -0.8170    -1.0610 O.3   1 <1>  -0.5600 
 14 N        0.4660     5.1190     0.2760 N.pl3 1 <1>  -0.8380 
 15 C       -1.5790     5.7110     1.4730 C.ar  1 <1>   0.1600 
 16 C        0.7890     6.4970    -0.2030 C.3   1 <1>   0.2090 
 17 C        1.3700     4.0560    -0.2530 C.3   1 <1>   0.2090 
 18 C        1.8100     7.1490     0.7330 C.3   1 <1>   0.0200 
 19 C        1.9610     3.2860     0.9220 C.3   1 <1>  -0.2400 
 20 C        2.1340     8.5720     0.3110 C.2   1 <1>   0.0060 
 21 N        1.6140     9.1700    -0.7040 N.2   1 <1>  -0.5650 
 22 N        3.0230     9.3360     0.9980 N.pl3 1 <1>   0.0330 
 23 C        2.1840    10.4080    -0.7000 C.ar  1 <1>   0.2270 
 24 C        3.0670    10.5290     0.3550 C.ar  1 <1>  -0.1520 
 25 C        1.9910    11.4770    -1.5720 C.ar  1 <1>  -0.1500 
 26 C        3.7810    11.7100     0.5730 C.ar  1 <1>  -0.1500 
 27 C        2.6890    12.6470    -1.3660 C.ar  1 <1>  -0.1500 
 28 C        3.5840    12.7620    -0.2940 C.ar  1 <1>  -0.1500 
 29 H       -1.5130    -0.1670     1.4790 H     1 <1>   0.0800 
 30 H       -0.9920     1.4820     1.3520 H     1 <1>   0.0800 
 31 H       -4.1310     0.1990    -1.1800 H     1 <1>   0.0800 
 32 H       -3.4920    -0.9560    -0.0460 H     1 <1>   0.0800 
 33 H       -4.3260     4.1490     1.6840 H     1 <1>   0.1500 
 34 H        0.5120    -0.0890     0.1080 H     1 <1>   0.0800 
 35 H       -0.2260     1.0720    -0.9760 H     1 <1>   0.0800 
 36 H       -2.0090     0.2740    -2.3960 H     1 <1>   0.0800 
 37 H       -2.4880    -1.3990    -2.2240 H     1 <1>   0.0800 
 38 H       -1.0920     6.6090     1.7990 H     1 <1>   0.1500 
 39 H       -0.1030     7.1010    -0.2400 H     1 <1>   0.0800 
 40 H        1.1850     6.4580    -1.2040 H     1 <1>   0.0800 
 41 H        2.1680     4.4950    -0.8270 H     1 <1>   0.0800 
 42 H        0.8290     3.3900    -0.9050 H     1 <1>   0.0800 
 43 H        2.7130     6.5680     0.7260 H     1 <1>   0.0800 
 44 H        1.4120     7.1620     1.7310 H     1 <1>   0.0800 
 45 H        2.5170     3.9500     1.5570 H     1 <1>   0.0800 
 46 H        2.6220     2.5200     0.5580 H     1 <1>   0.0800 
 47 H        1.1770     2.8210     1.4910 H     1 <1>   0.0800 
 48 H        3.5550     9.0770     1.8310 H     1 <1>   0.2700 
 49 H        1.2990    11.3600    -2.3850 H     1 <1>   0.1500 
 50 H        4.4660    11.7900     1.3980 H     1 <1>   0.1500 
 51 H        2.5530    13.4840    -2.0290 H     1 <1>   0.1500 
 52 H        4.1170    13.6870    -0.1550 H     1 <1>   0.1500 
@<TRIPOS>BOND
  1   1   2  2   
  2   2   3  am  
  3   2   4  1   
  4   3   5  1   
  5   3   6  1   
  6   4   7  ar  
  7   4   8  ar  
  8   5   9  1   
  9   5  29  1   
 10   5  30  1   
 11   6  10  1   
 12   6  31  1   
 13   6  32  1   
 14   7  11  ar  
 15   8  12  ar  
 16   8  33  1   
 17   9  13  1   
 18   9  34  1   
 19   9  35  1   
 20  10  13  1   
 21  10  36  1   
 22  10  37  1   
 23  11  14  1   
 24  11  15  ar  
 25  12  15  ar  
 26  14  16  1   
 27  14  17  1   
 28  15  38  1   
 29  16  18  1   
 30  16  39  1   
 31  16  40  1   
 32  17  19  1   
 33  17  41  1   
 34  17  42  1   
 35  18  20  1   
 36  18  43  1   
 37  18  44  1   
 38  19  45  1   
 39  19  46  1   
 40  19  47  1   
 41  20  21  2   
 42  20  22  1   
 43  21  23  1   
 44  22  24  1   
 45  22  48  1   
 46  23  24  ar  
 47  23  25  ar  
 48  24  26  ar  
 49  25  27  ar  
 50  25  49  1   
 51  26  28  ar  
 52  26  50  1   
 53  27  28  ar  
 54  27  51  1   
 55  28  52  1   
@<TRIPOS>SUBSTRUCTURE
  1 ****  14 GROUP 4 **** **** 0

# MOE 2024.06 (io_trps.svl 2023.06)
