@<TRIPOS>MOLECULE
NONAME
54 58 1 0 0 
SMALL
USER_CHARGES


@<TRIPOS>ATOM
  1 O       -1.3650     3.6490     2.5480 O.2   1 <1>  -0.5700 
  2 C       -0.9890     3.4440     1.4080 C.2   1 <1>   0.7150 
  3 N       -1.9330     3.3560     0.4090 N.am  1 <1>  -0.6600 
  4 C        0.4130     3.2950     1.1360 C.2   1 <1>  -0.2370 
  5 C       -3.3600     3.7350     0.6820 C.3   1 <1>   0.1400 
  6 C       -1.6350     2.7560    -0.9260 C.3   1 <1>   0.1400 
  7 N        1.2800     2.6460     1.9560 N.pl3 1 <1>   0.3140 
  8 C        1.1740     3.7320     0.0930 C.2   1 <1>  -0.1500 
  9 C       -4.0940     4.1810    -0.5970 C.3   1 <1>   0.1440 
 10 C       -2.8800     2.0830    -1.5150 C.3   1 <1>  -0.1600 
 11 N        2.5290     2.6350     1.4690 N.2   1 <1>  -0.7070 
 12 C        0.9780     1.9910     3.2390 C.3   1 <1>   0.0160 
 13 C        2.4570     3.2930     0.3560 C.2   1 <1>   0.1080 
 14 C       -5.5020     4.6090    -0.2160 C.ar  1 <1>   0.1660 
 15 C       -4.0830     3.0390    -1.6500 C.3   1 <1>  -0.1600 
 16 C       -3.4890     5.5060    -1.1500 C.3   1 <1>  -0.1600 
 17 C        3.6690     3.5270    -0.5160 C.3   1 <1>  -0.0590 
 18 N       -6.4800     3.8020     0.1190 N.ar  1 <1>  -0.6200 
 19 C       -5.6420     5.9630    -0.2380 C.ar  1 <1>  -0.1440 
 20 C       -4.3630     6.6580    -0.6250 C.3   1 <1>  -0.0170 
 21 C       -7.6470     4.3850     0.4240 C.ar  1 <1>   0.6200 
 22 C       -6.8660     6.4850     0.0890 C.ar  1 <1>   0.1600 
 23 N       -7.8720     5.7070     0.4160 N.ar  1 <1>  -0.6200 
 24 C       -8.7560     3.5150     0.7920 C.ar  1 <1>   0.0000 
 25 C      -10.0860     3.8840     0.5650 C.ar  1 <1>  -0.1500 
 26 C       -8.5440     2.2690     1.3910 C.ar  1 <1>  -0.1500 
 27 C      -11.1410     3.0610     0.9130 C.ar  1 <1>  -0.1500 
 28 C       -9.5940     1.4400     1.7410 C.ar  1 <1>  -0.1500 
 29 C      -10.8970     1.8350     1.5030 C.ar  1 <1>  -0.1500 
 30 H       -3.3920     4.5310     1.4080 H     1 <1>   0.0800 
 31 H       -3.8700     2.8870     1.1060 H     1 <1>   0.0800 
 32 H       -0.8510     2.0230    -0.8310 H     1 <1>   0.0800 
 33 H       -1.2970     3.5300    -1.5930 H     1 <1>   0.0800 
 34 H        0.8660     4.3060    -0.7610 H     1 <1>   0.1500 
 35 H       -3.1490     1.2640    -0.8700 H     1 <1>   0.0800 
 36 H       -2.6430     1.6640    -2.4770 H     1 <1>   0.0800 
 37 H        0.1570     1.3120     3.1080 H     1 <1>   0.0800 
 38 H        0.7170     2.7410     3.9620 H     1 <1>   0.0800 
 39 H        1.8450     1.4530     3.5750 H     1 <1>   0.0800 
 40 H       -4.1130     3.4480    -2.6430 H     1 <1>   0.0800 
 41 H       -4.9740     2.4440    -1.5430 H     1 <1>   0.0800 
 42 H       -3.5440     5.5180    -2.2240 H     1 <1>   0.0800 
 43 H       -2.4610     5.6440    -0.8670 H     1 <1>   0.0800 
 44 H        3.4030     4.0930    -1.3890 H     1 <1>   0.0800 
 45 H        4.0800     2.5820    -0.8170 H     1 <1>   0.0800 
 46 H        4.4110     4.0670     0.0430 H     1 <1>   0.0800 
 47 H       -4.5280     7.4070    -1.3800 H     1 <1>   0.0800 
 48 H       -3.9180     7.1060     0.2460 H     1 <1>   0.0800 
 49 H       -7.0240     7.5500     0.0840 H     1 <1>   0.1500 
 50 H      -10.2950     4.8350     0.1060 H     1 <1>   0.1500 
 51 H       -7.5370     1.9450     1.5860 H     1 <1>   0.1500 
 52 H      -12.1530     3.3750     0.7240 H     1 <1>   0.1500 
 53 H       -9.3960     0.4870     2.2000 H     1 <1>   0.1500 
 54 H      -11.7170     1.1920     1.7750 H     1 <1>   0.1500 
@<TRIPOS>BOND
  1   1   2  2   
  2   2   3  am  
  3   2   4  1   
  4   3   5  1   
  5   3   6  1   
  6   4   7  1   
  7   4   8  2   
  8   5   9  1   
  9   5  30  1   
 10   5  31  1   
 11   6  10  1   
 12   6  32  1   
 13   6  33  1   
 14   7  11  1   
 15   7  12  1   
 16   8  13  1   
 17   8  34  1   
 18   9  14  1   
 19   9  15  1   
 20   9  16  1   
 21  10  15  1   
 22  10  35  1   
 23  10  36  1   
 24  11  13  2   
 25  12  37  1   
 26  12  38  1   
 27  12  39  1   
 28  13  17  1   
 29  14  18  ar  
 30  14  19  ar  
 31  15  40  1   
 32  15  41  1   
 33  16  20  1   
 34  16  42  1   
 35  16  43  1   
 36  17  44  1   
 37  17  45  1   
 38  17  46  1   
 39  18  21  ar  
 40  19  20  1   
 41  19  22  ar  
 42  20  47  1   
 43  20  48  1   
 44  21  23  ar  
 45  21  24  1   
 46  22  23  ar  
 47  22  49  1   
 48  24  25  ar  
 49  24  26  ar  
 50  25  27  ar  
 51  25  50  1   
 52  26  28  ar  
 53  26  51  1   
 54  27  29  ar  
 55  27  52  1   
 56  28  29  ar  
 57  28  53  1   
 58  29  54  1   
@<TRIPOS>SUBSTRUCTURE
  1 ****   5 GROUP 4 **** **** 0

# MOE 2024.06 (io_trps.svl 2023.06)
