@<TRIPOS>MOLECULE
NONAME
59 61 1 0 0 
SMALL
USER_CHARGES


@<TRIPOS>ATOM
  1 CL       0.7270     0.6830    -2.7940 Cl    1 <1>  -0.1770 
  2 C        1.7520    -0.3860    -1.8620 C.ar  1 <1>   0.1770 
  3 C        2.6860     0.1310    -0.9750 C.ar  1 <1>   0.0820 
  4 C        1.5890    -1.7500    -2.0300 C.ar  1 <1>  -0.1500 
  5 O        2.7950     1.4750    -0.8310 O.3   1 <1>  -0.3630 
  6 C        3.4870    -0.7610    -0.2520 C.ar  1 <1>   0.0830 
  7 C        2.3690    -2.6320    -1.2960 C.ar  1 <1>  -0.1440 
  8 C        2.0580     2.0400     0.2270 C.3   1 <1>   0.1200 
  9 O        4.4470    -0.3860     0.6320 O.3   1 <1>  -0.3630 
 10 C        3.3150    -2.1260    -0.4150 C.ar  1 <1>  -0.1500 
 11 C        2.1930    -4.1320    -1.4450 C.3   1 <1>   0.4860 
 12 C        2.3240     3.5410     0.2390 C.3   1 <1>  -0.2400 
 13 C        5.3450     0.6450     0.2820 C.3   1 <1>   0.1200 
 14 N        1.4290    -4.6260    -0.2730 N.4   1 <1>  -0.9590 
 15 C        6.6200     0.4570     1.0970 C.3   1 <1>  -0.2400 
 16 C        0.0350    -4.1150    -0.2440 C.3   1 <1>   0.3430 
 17 C        1.3340    -6.1070    -0.1980 C.3   1 <1>   0.3430 
 18 C       -0.7040    -5.0630     0.6910 C.3   1 <1>  -0.0800 
 19 C       -0.0040    -6.4230     0.4800 C.3   1 <1>  -0.0800 
 20 C       -2.2410    -5.0600     0.4910 C.3   1 <1>   0.2800 
 21 C       -0.8270    -7.3950    -0.3820 C.3   1 <1>  -0.1600 
 22 O       -2.5110    -4.8990    -0.8540 O.3   1 <1>  -0.6800 
 23 C       -2.8250    -6.4160     0.9260 C.3   1 <1>  -0.1600 
 24 C       -2.9570    -3.9160     1.2440 C.3   1 <1>  -0.1600 
 25 C       -2.2320    -7.6370     0.1920 C.3   1 <1>  -0.1600 
 26 C       -2.5410    -2.4820     0.8710 C.3   1 <1>  -0.2400 
 27 H        0.8500    -2.0960    -2.7320 H     1 <1>   0.1500 
 28 H        1.0140     1.8380     0.0610 H     1 <1>   0.0800 
 29 H        2.3780     1.5850     1.1490 H     1 <1>   0.0800 
 30 H        3.9460    -2.7810     0.1610 H     1 <1>   0.1500 
 31 H        3.1610    -4.6030    -1.4840 H     1 <1>   0.0800 
 32 H        1.6640    -4.3560    -2.3580 H     1 <1>   0.0800 
 33 H        2.0130     3.9780    -0.6930 H     1 <1>   0.0800 
 34 H        3.3710     3.7320     0.3930 H     1 <1>   0.0800 
 35 H        1.7700     4.0030     1.0360 H     1 <1>   0.0800 
 36 H        5.5520     0.5840    -0.7740 H     1 <1>   0.0800 
 37 H        4.8890     1.5920     0.5100 H     1 <1>   0.0800 
 38 H        1.8950    -4.2780     0.5750 H     1 <1>   0.4500 
 39 H        7.0670    -0.4950     0.8720 H     1 <1>   0.0800 
 40 H        6.4000     0.5130     2.1480 H     1 <1>   0.0800 
 41 H        7.3240     1.2320     0.8520 H     1 <1>   0.0800 
 42 H       -0.0080    -3.0940     0.0960 H     1 <1>   0.0800 
 43 H       -0.3930    -4.1770    -1.2320 H     1 <1>   0.0800 
 44 H        1.3340    -6.5260    -1.1920 H     1 <1>   0.0800 
 45 H        2.1590    -6.5230     0.3580 H     1 <1>   0.0800 
 46 H       -0.5010    -4.7540     1.7010 H     1 <1>   0.0800 
 47 H        0.1790    -6.8880     1.4340 H     1 <1>   0.0800 
 48 H       -0.9340    -6.9860    -1.3730 H     1 <1>   0.0800 
 49 H       -0.3180    -8.3390    -0.4780 H     1 <1>   0.0800 
 50 H       -3.4730    -4.9910    -1.0020 H     1 <1>   0.4000 
 51 H       -2.6250    -6.5350     1.9770 H     1 <1>   0.0800 
 52 H       -3.8950    -6.4180     0.8170 H     1 <1>   0.0800 
 53 H       -4.0170    -4.0110     1.0810 H     1 <1>   0.0800 
 54 H       -2.8010    -4.0460     2.3010 H     1 <1>   0.0800 
 55 H       -2.2050    -8.4680     0.8760 H     1 <1>   0.0800 
 56 H       -2.8850    -7.9150    -0.6180 H     1 <1>   0.0800 
 57 H       -2.6050    -2.3240    -0.1920 H     1 <1>   0.0800 
 58 H       -1.5450    -2.2650     1.2070 H     1 <1>   0.0800 
 59 H       -3.2040    -1.7820     1.3500 H     1 <1>   0.0800 
@<TRIPOS>BOND
  1   1   2  1   
  2   2   3  ar  
  3   2   4  ar  
  4   3   5  1   
  5   3   6  ar  
  6   4   7  ar  
  7   4  27  1   
  8   5   8  1   
  9   6   9  1   
 10   6  10  ar  
 11   7  10  ar  
 12   7  11  1   
 13   8  12  1   
 14   8  28  1   
 15   8  29  1   
 16   9  13  1   
 17  10  30  1   
 18  11  14  1   
 19  11  31  1   
 20  11  32  1   
 21  12  33  1   
 22  12  34  1   
 23  12  35  1   
 24  13  15  1   
 25  13  36  1   
 26  13  37  1   
 27  14  16  1   
 28  14  17  1   
 29  14  38  1   
 30  15  39  1   
 31  15  40  1   
 32  15  41  1   
 33  16  18  1   
 34  16  42  1   
 35  16  43  1   
 36  17  19  1   
 37  17  44  1   
 38  17  45  1   
 39  18  19  1   
 40  18  20  1   
 41  18  46  1   
 42  19  21  1   
 43  19  47  1   
 44  20  22  1   
 45  20  23  1   
 46  20  24  1   
 47  21  25  1   
 48  21  48  1   
 49  21  49  1   
 50  22  50  1   
 51  23  25  1   
 52  23  51  1   
 53  23  52  1   
 54  24  26  1   
 55  24  53  1   
 56  24  54  1   
 57  25  55  1   
 58  25  56  1   
 59  26  57  1   
 60  26  58  1   
 61  26  59  1   
@<TRIPOS>SUBSTRUCTURE
  1 ****   7 GROUP 4 **** **** 0

# MOE 2024.06 (io_trps.svl 2023.06)
