@<TRIPOS>MOLECULE
NONAME
39 41 1 0 0 
SMALL
USER_CHARGES


@<TRIPOS>ATOM
  1 CL      -0.9640     0.4550    -1.0490 Cl    1 <1>  -0.1770 
  2 C       -0.4180     1.9910    -0.4310 C.ar  1 <1>   0.1770 
  3 C       -0.6340     3.1500    -1.1560 C.ar  1 <1>   0.1600 
  4 C        0.2290     2.0500     0.7800 C.ar  1 <1>  -0.1500 
  5 N       -0.2500     4.3560    -0.7650 N.ar  1 <1>  -0.6200 
  6 C        0.6260     3.3030     1.1980 C.ar  1 <1>  -0.1500 
  7 C        0.3830     4.4440     0.4240 C.ar  1 <1>   0.3960 
  8 C        0.8200     5.7500     0.9350 C.2   1 <1>   0.5440 
  9 O        0.8000     5.9500     2.1400 O.2   1 <1>  -0.5700 
 10 N        1.2780     6.7900     0.1310 N.am  1 <1>  -0.6600 
 11 C        1.4170     8.1620     0.7190 C.3   1 <1>   0.1400 
 12 C        1.8660     6.5270    -1.2220 C.3   1 <1>   0.1400 
 13 C        2.8780     8.5710     1.0370 C.3   1 <1>   0.4230 
 14 C        3.2730     7.1180    -1.4530 C.3   1 <1>  -0.0800 
 15 N        3.5680     9.2490    -0.1220 N.4   1 <1>  -0.9590 
 16 C        3.7670     7.4270     1.5980 C.3   1 <1>   0.1200 
 17 C        4.3910     6.5140    -0.5750 C.3   1 <1>   0.1200 
 18 C        3.2550     8.6480    -1.4530 C.3   1 <1>   0.3430 
 19 C        3.3010    10.7200    -0.1360 C.3   1 <1>   0.2630 
 20 O        3.9880     6.3310     0.7440 O.3   1 <1>  -0.5600 
 21 H       -1.1460     3.0690    -2.0990 H     1 <1>   0.1500 
 22 H        0.4080     1.1640     1.3630 H     1 <1>   0.1500 
 23 H        1.1320     3.4150     2.1420 H     1 <1>   0.1500 
 24 H        0.9590     8.8790     0.0630 H     1 <1>   0.0800 
 25 H        0.8600     8.2100     1.6390 H     1 <1>   0.0800 
 26 H        1.9430     5.4650    -1.3790 H     1 <1>   0.0800 
 27 H        1.1830     6.9040    -1.9650 H     1 <1>   0.0800 
 28 H        2.8120     9.2980     1.8290 H     1 <1>   0.0800 
 29 H        3.5230     6.8490    -2.4640 H     1 <1>   0.0800 
 30 H        4.5740     9.1030     0.0400 H     1 <1>   0.4500 
 31 H        3.2940     7.0290     2.4800 H     1 <1>   0.0800 
 32 H        4.7260     7.8130     1.8930 H     1 <1>   0.0800 
 33 H        5.2920     7.1020    -0.5910 H     1 <1>   0.0800 
 34 H        4.6330     5.5320    -0.9480 H     1 <1>   0.0800 
 35 H        2.2840     8.9790    -1.7850 H     1 <1>   0.0800 
 36 H        3.9790     9.0010    -2.1700 H     1 <1>   0.0800 
 37 H        2.2510    10.9100    -0.2960 H     1 <1>   0.0800 
 38 H        3.8600    11.1950    -0.9260 H     1 <1>   0.0800 
 39 H        3.5920    11.1640     0.8030 H     1 <1>   0.0800 
@<TRIPOS>BOND
  1   1   2  1   
  2   2   3  ar  
  3   2   4  ar  
  4   3   5  ar  
  5   3  21  1   
  6   4   6  ar  
  7   4  22  1   
  8   5   7  ar  
  9   6   7  ar  
 10   6  23  1   
 11   7   8  1   
 12   8   9  2   
 13   8  10  am  
 14  10  11  1   
 15  10  12  1   
 16  11  13  1   
 17  11  24  1   
 18  11  25  1   
 19  12  14  1   
 20  12  26  1   
 21  12  27  1   
 22  13  15  1   
 23  13  16  1   
 24  13  28  1   
 25  14  17  1   
 26  14  18  1   
 27  14  29  1   
 28  15  18  1   
 29  15  19  1   
 30  15  30  1   
 31  16  20  1   
 32  16  31  1   
 33  16  32  1   
 34  17  20  1   
 35  17  33  1   
 36  17  34  1   
 37  18  35  1   
 38  18  36  1   
 39  19  37  1   
 40  19  38  1   
 41  19  39  1   
@<TRIPOS>SUBSTRUCTURE
  1 ****  10 GROUP 4 **** **** 0

# MOE 2024.06 (io_trps.svl 2023.06)
