@<TRIPOS>MOLECULE
NONAME
52 54 1 0 0 
SMALL
USER_CHARGES


@<TRIPOS>ATOM
  1 O        0.3770    -0.5280    -0.5790 O.3   1 <1>  -0.5600 
  2 C        1.6110    -1.1040    -0.9050 C.3   1 <1>   0.2000 
  3 C        0.1790    -0.1520     0.7510 C.3   1 <1>   0.1200 
  4 C        2.5190    -0.0150    -1.5270 C.3   1 <1>   0.3430 
  5 C        1.3260    -2.2530    -1.9020 C.3   1 <1>   0.3430 
  6 C        1.1630     0.9420     1.1800 C.3   1 <1>  -0.1600 
  7 N        2.8630     1.1380    -0.6190 N.4   1 <1>  -0.9590 
  8 N        0.0940    -3.0120    -1.5150 N.4   1 <1>  -0.9590 
  9 C        1.6840     1.8000     0.0280 C.3   1 <1>   0.3430 
 10 C        3.6840     2.1530    -1.3440 C.3   1 <1>   0.4860 
 11 C        0.2880    -4.0410    -0.4410 C.3   1 <1>   0.4860 
 12 C       -0.6710    -3.5550    -2.6800 C.3   1 <1>   0.2630 
 13 C        4.3290     3.0620    -0.3180 C.ar  1 <1>  -0.1440 
 14 C       -0.9870    -4.1570     0.3850 C.ar  1 <1>   0.1670 
 15 C        3.8650     4.3590    -0.1460 C.ar  1 <1>  -0.1500 
 16 C        5.3830     2.6030     0.4610 C.ar  1 <1>  -0.1500 
 17 N       -1.5990    -3.0180     0.6950 N.ar  1 <1>  -0.6200 
 18 C       -1.4510    -5.4140     0.7630 C.ar  1 <1>   0.1600 
 19 C        4.4390     5.1820     0.8070 C.ar  1 <1>  -0.1500 
 20 C        5.9540     3.4290     1.4130 C.ar  1 <1>  -0.1500 
 21 C       -2.7000    -3.2280     1.4040 C.ar  1 <1>   0.1600 
 22 N       -2.5490    -5.6160     1.4650 N.ar  1 <1>  -0.6200 
 23 C        5.4810     4.7160     1.5880 C.ar  1 <1>  -0.1500 
 24 C       -3.1600    -4.4850     1.7770 C.ar  1 <1>   0.1600 
 25 H        2.0660    -1.5130    -0.0190 H     1 <1>   0.0800 
 26 H        0.2520    -1.0200     1.3860 H     1 <1>   0.0800 
 27 H       -0.8300     0.2230     0.8180 H     1 <1>   0.0800 
 28 H        2.0220     0.3670    -2.4040 H     1 <1>   0.0800 
 29 H        3.4350    -0.4810    -1.8540 H     1 <1>   0.0800 
 30 H        2.1740    -2.9160    -1.9720 H     1 <1>   0.0800 
 31 H        1.1710    -1.8170    -2.8750 H     1 <1>   0.0800 
 32 H        1.9790     0.5180     1.7370 H     1 <1>   0.0800 
 33 H        0.6390     1.5850     1.8660 H     1 <1>   0.0800 
 34 H        3.4660     0.8230     0.1530 H     1 <1>   0.4500 
 35 H       -0.5260    -2.3110    -1.0460 H     1 <1>   0.4500 
 36 H        1.9850     2.7520     0.4370 H     1 <1>   0.0800 
 37 H        0.9000     1.9780    -0.6910 H     1 <1>   0.0800 
 38 H        3.0680     2.7280    -2.0160 H     1 <1>   0.0800 
 39 H        4.4590     1.6710    -1.9170 H     1 <1>   0.0800 
 40 H        1.0800    -3.7320     0.2200 H     1 <1>   0.0800 
 41 H        0.5490    -4.9940    -0.8700 H     1 <1>   0.0800 
 42 H       -0.0980    -4.3090    -3.1950 H     1 <1>   0.0800 
 43 H       -0.9060    -2.7640    -3.3750 H     1 <1>   0.0800 
 44 H       -1.5980    -3.9930    -2.3450 H     1 <1>   0.0800 
 45 H        3.0600     4.7480    -0.7450 H     1 <1>   0.1500 
 46 H        5.7800     1.6100     0.3390 H     1 <1>   0.1500 
 47 H       -0.9020    -6.2950     0.4780 H     1 <1>   0.1500 
 48 H        4.0790     6.1880     0.9420 H     1 <1>   0.1500 
 49 H        6.7730     3.0770     2.0180 H     1 <1>   0.1500 
 50 H       -3.2720    -2.3670     1.7080 H     1 <1>   0.1500 
 51 H        5.9270     5.3590     2.3290 H     1 <1>   0.1500 
 52 H       -4.0660    -4.5590     2.3540 H     1 <1>   0.1500 
@<TRIPOS>BOND
  1   1   2  1   
  2   1   3  1   
  3   2   4  1   
  4   2   5  1   
  5   2  25  1   
  6   3   6  1   
  7   3  26  1   
  8   3  27  1   
  9   4   7  1   
 10   4  28  1   
 11   4  29  1   
 12   5   8  1   
 13   5  30  1   
 14   5  31  1   
 15   6   9  1   
 16   6  32  1   
 17   6  33  1   
 18   7   9  1   
 19   7  10  1   
 20   7  34  1   
 21   8  11  1   
 22   8  12  1   
 23   8  35  1   
 24   9  36  1   
 25   9  37  1   
 26  10  13  1   
 27  10  38  1   
 28  10  39  1   
 29  11  14  1   
 30  11  40  1   
 31  11  41  1   
 32  12  42  1   
 33  12  43  1   
 34  12  44  1   
 35  13  15  ar  
 36  13  16  ar  
 37  14  17  ar  
 38  14  18  ar  
 39  15  19  ar  
 40  15  45  1   
 41  16  20  ar  
 42  16  46  1   
 43  17  21  ar  
 44  18  22  ar  
 45  18  47  1   
 46  19  23  ar  
 47  19  48  1   
 48  20  23  ar  
 49  20  49  1   
 50  21  24  ar  
 51  21  50  1   
 52  22  24  ar  
 53  23  51  1   
 54  24  52  1   
@<TRIPOS>SUBSTRUCTURE
  1 ****   1 GROUP 4 **** **** 0

# MOE 2024.06 (io_trps.svl 2023.06)
