@<TRIPOS>MOLECULE
NONAME
48 50 1 0 0 
SMALL
USER_CHARGES


@<TRIPOS>ATOM
  1 F       -0.3310     0.5860     0.5340 F     1 <1>  -0.1900 
  2 C       -1.6140     0.8190     0.4260 C.ar  1 <1>   0.1900 
  3 C       -2.1330     1.6910    -0.5380 C.ar  1 <1>   0.0830 
  4 C       -2.4350     0.1580     1.3200 C.ar  1 <1>  -0.1500 
  5 O       -1.4300     2.3980    -1.4690 O.3   1 <1>  -0.3630 
  6 C       -3.5060     1.8720    -0.5680 C.ar  1 <1>  -0.1500 
  7 C       -3.8010     0.3630     1.2620 C.ar  1 <1>  -0.1500 
  8 C       -0.0300     2.3010    -1.6130 C.3   1 <1>   0.0400 
  9 C       -4.3670     1.2190     0.3160 C.ar  1 <1>   0.0530 
 10 C       -5.7890     1.4460     0.2500 C.2   1 <1>   0.0870 
 11 O       -6.2310     2.6620     0.0460 O.3   1 <1>  -0.0190 
 12 C       -6.8820     0.6400     0.3640 C.2   1 <1>  -0.0860 
 13 N       -7.5340     2.7370     0.0250 N.2   1 <1>  -0.4100 
 14 C       -7.9510     1.5360     0.2160 C.2   1 <1>   0.3720 
 15 C       -6.9920    -0.7760     0.5570 C.2   1 <1>   0.7160 
 16 N       -9.3160     1.2100     0.2570 N.pl3 1 <1>  -0.8210 
 17 O       -6.0260    -1.5110     0.4770 O.2   1 <1>  -0.5700 
 18 N       -8.2040    -1.3320     0.8230 N.am  1 <1>  -0.7300 
 19 C      -10.0140     1.4790    -1.0300 C.3   1 <1>   0.1290 
 20 C      -10.0300     1.8490     1.3970 C.3   1 <1>   0.1290 
 21 C       -8.5310    -2.7710     0.8960 C.3   1 <1>   0.1400 
 22 C       -8.9880    -3.2800    -0.4780 C.3   1 <1>  -0.0800 
 23 C      -10.2840    -2.6190    -0.9280 C.3   1 <1>   0.1200 
 24 C       -9.4110    -4.7410    -0.4120 C.3   1 <1>  -0.1600 
 25 O      -11.2900    -3.3420    -0.2990 O.3   1 <1>  -0.5600 
 26 C      -10.9200    -4.6800    -0.1720 C.3   1 <1>   0.1200 
 27 H       -2.0090    -0.5070     2.0490 H     1 <1>   0.1500 
 28 H       -3.9170     2.5410    -1.3030 H     1 <1>   0.1500 
 29 H       -4.4400    -0.1500     1.9600 H     1 <1>   0.1500 
 30 H        0.2670     2.9350    -2.4290 H     1 <1>   0.0800 
 31 H        0.2300     1.2800    -1.8330 H     1 <1>   0.0800 
 32 H        0.4400     2.6330    -0.7050 H     1 <1>   0.0800 
 33 H       -8.9960    -0.6750     0.7650 H     1 <1>   0.3700 
 34 H       -9.4640     1.0360    -1.8430 H     1 <1>   0.0800 
 35 H      -10.0850     2.5400    -1.2000 H     1 <1>   0.0800 
 36 H      -11.0030     1.0550    -1.0100 H     1 <1>   0.0800 
 37 H       -9.4870     1.6780     2.3110 H     1 <1>   0.0800 
 38 H      -11.0160     1.4300     1.4970 H     1 <1>   0.0800 
 39 H      -10.1090     2.9120     1.2370 H     1 <1>   0.0800 
 40 H       -9.3090    -2.9190     1.6260 H     1 <1>   0.0800 
 41 H       -7.6590    -3.3190     1.2150 H     1 <1>   0.0800 
 42 H       -8.1980    -3.1330    -1.1940 H     1 <1>   0.0800 
 43 H      -10.4190    -2.7220    -1.9910 H     1 <1>   0.0800 
 44 H      -10.3630    -1.5830    -0.6480 H     1 <1>   0.0800 
 45 H       -8.9050    -5.2940     0.3590 H     1 <1>   0.0800 
 46 H       -9.2270    -5.2230    -1.3560 H     1 <1>   0.0800 
 47 H      -11.1800    -5.0040     0.8210 H     1 <1>   0.0800 
 48 H      -11.4620    -5.2570    -0.9020 H     1 <1>   0.0800 
@<TRIPOS>BOND
  1   1   2  1   
  2   2   3  ar  
  3   2   4  ar  
  4   3   5  1   
  5   3   6  ar  
  6   4   7  ar  
  7   4  27  1   
  8   5   8  1   
  9   6   9  ar  
 10   6  28  1   
 11   7   9  ar  
 12   7  29  1   
 13   8  30  1   
 14   8  31  1   
 15   8  32  1   
 16   9  10  1   
 17  10  11  1   
 18  10  12  2   
 19  11  13  1   
 20  12  14  1   
 21  12  15  1   
 22  13  14  2   
 23  14  16  1   
 24  15  17  2   
 25  15  18  am  
 26  16  19  1   
 27  16  20  1   
 28  18  21  1   
 29  18  33  1   
 30  19  34  1   
 31  19  35  1   
 32  19  36  1   
 33  20  37  1   
 34  20  38  1   
 35  20  39  1   
 36  21  22  1   
 37  21  40  1   
 38  21  41  1   
 39  22  23  1   
 40  22  24  1   
 41  22  42  1   
 42  23  25  1   
 43  23  43  1   
 44  23  44  1   
 45  24  26  1   
 46  24  45  1   
 47  24  46  1   
 48  25  26  1   
 49  26  47  1   
 50  26  48  1   
@<TRIPOS>SUBSTRUCTURE
  1 ****  12 GROUP 4 **** **** 0

# MOE 2024.06 (io_trps.svl 2023.06)
