@<TRIPOS>MOLECULE
NONAME
50 52 1 0 0 
SMALL
USER_CHARGES


@<TRIPOS>ATOM
  1 O       -0.5130     1.4530    -1.6240 O.co2 1 <1>  -0.9000 
  2 C       -0.2490     1.6470    -0.4260 C.2   1 <1>   0.9060 
  3 O        0.7970     1.2620     0.1020 O.co2 1 <1>  -0.9000 
  4 C       -1.3980     2.1760     0.4660 C.3   1 <1>   0.4600 
  5 N       -2.7270     1.5430     0.0850 N.4   1 <1>  -0.9590 
  6 C       -1.5570     3.6960     0.4080 C.ar  1 <1>  -0.1430 
  7 C       -3.9100     2.1470     0.7480 C.3   1 <1>   0.3430 
  8 C       -2.6310     0.0630     0.1990 C.3   1 <1>   0.3430 
  9 C       -1.6250     4.4260     1.5870 C.ar  1 <1>  -0.1500 
 10 C       -1.6640     4.3610    -0.8060 C.ar  1 <1>  -0.1500 
 11 C       -5.1830     1.5140     0.1950 C.3   1 <1>  -0.1600 
 12 C       -3.9060    -0.5810    -0.3410 C.3   1 <1>  -0.1600 
 13 C       -1.8200     5.7950     1.5480 C.ar  1 <1>  -0.1500 
 14 C       -1.8570     5.7300    -0.8450 C.ar  1 <1>  -0.1500 
 15 C       -5.1610    -0.0140     0.3340 C.3   1 <1>   0.1000 
 16 C       -1.9440     6.4570     0.3390 C.ar  1 <1>   0.0830 
 17 C       -6.4050    -0.6410    -0.2760 C.2   1 <1>  -0.3320 
 18 O       -2.1410     7.7980     0.4030 O.3   1 <1>  -0.3630 
 19 N       -6.7530    -1.9330    -0.0770 N.pl3 1 <1>   0.3000 
 20 C       -7.3590    -0.1140    -1.0770 C.2   1 <1>  -0.1500 
 21 C       -2.2410     8.6230    -0.7370 C.3   1 <1>   0.2000 
 22 N       -7.8880    -2.2510    -0.7220 N.2   1 <1>  -0.7070 
 23 C       -8.2460    -1.1570    -1.3180 C.2   1 <1>   0.1390 
 24 C       -1.8820    10.0400    -0.2970 C.3   1 <1>  -0.2400 
 25 C       -3.6750     8.5590    -1.2690 C.3   1 <1>  -0.2400 
 26 H       -1.1480     1.8980     1.4730 H     1 <1>   0.0800 
 27 H       -2.7480     1.7350    -0.9310 H     1 <1>   0.4500 
 28 H       -3.9340     3.2110     0.5690 H     1 <1>   0.0800 
 29 H       -3.8520     1.9840     1.8120 H     1 <1>   0.0800 
 30 H       -2.4880    -0.2140     1.2300 H     1 <1>   0.0800 
 31 H       -1.7850    -0.2960    -0.3690 H     1 <1>   0.0800 
 32 H       -1.5250     3.9390     2.5420 H     1 <1>   0.1500 
 33 H       -1.5900     3.8160    -1.7350 H     1 <1>   0.1500 
 34 H       -5.2840     1.7910    -0.8390 H     1 <1>   0.0800 
 35 H       -6.0310     1.9100     0.7250 H     1 <1>   0.0800 
 36 H       -3.8500    -1.6420    -0.1810 H     1 <1>   0.0800 
 37 H       -3.9570    -0.4190    -1.4040 H     1 <1>   0.0800 
 38 H       -1.8740     6.3640     2.4590 H     1 <1>   0.1500 
 39 H       -1.9350     6.2070    -1.8030 H     1 <1>   0.1500 
 40 H       -5.1370    -0.2580     1.3840 H     1 <1>   0.0800 
 41 H       -6.2470    -2.6260     0.4880 H     1 <1>   0.2700 
 42 H       -7.4590     0.8810    -1.4720 H     1 <1>   0.1500 
 43 H       -1.5290     8.2920    -1.4720 H     1 <1>   0.0800 
 44 H       -9.1310    -1.0780    -1.9270 H     1 <1>   0.1500 
 45 H       -2.5600    10.3800     0.4650 H     1 <1>   0.0800 
 46 H       -1.9380    10.7120    -1.1340 H     1 <1>   0.0800 
 47 H       -0.8780    10.0590     0.0880 H     1 <1>   0.0800 
 48 H       -4.3660     8.8890    -0.5130 H     1 <1>   0.0800 
 49 H       -3.9280     7.5580    -1.5640 H     1 <1>   0.0800 
 50 H       -3.7760     9.1990    -2.1260 H     1 <1>   0.0800 
@<TRIPOS>BOND
  1   1   2  ar  
  2   2   3  ar  
  3   2   4  1   
  4   4   5  1   
  5   4   6  1   
  6   4  26  1   
  7   5   7  1   
  8   5   8  1   
  9   5  27  1   
 10   6   9  ar  
 11   6  10  ar  
 12   7  11  1   
 13   7  28  1   
 14   7  29  1   
 15   8  12  1   
 16   8  30  1   
 17   8  31  1   
 18   9  13  ar  
 19   9  32  1   
 20  10  14  ar  
 21  10  33  1   
 22  11  15  1   
 23  11  34  1   
 24  11  35  1   
 25  12  15  1   
 26  12  36  1   
 27  12  37  1   
 28  13  16  ar  
 29  13  38  1   
 30  14  16  ar  
 31  14  39  1   
 32  15  17  1   
 33  15  40  1   
 34  16  18  1   
 35  17  19  1   
 36  17  20  2   
 37  18  21  1   
 38  19  22  1   
 39  19  41  1   
 40  20  23  1   
 41  20  42  1   
 42  21  24  1   
 43  21  25  1   
 44  21  43  1   
 45  22  23  2   
 46  23  44  1   
 47  24  45  1   
 48  24  46  1   
 49  24  47  1   
 50  25  48  1   
 51  25  49  1   
 52  25  50  1   
@<TRIPOS>SUBSTRUCTURE
  1 ****   7 GROUP 4 **** **** 0

# MOE 2024.06 (io_trps.svl 2023.06)
