@<TRIPOS>MOLECULE
NONAME
41 43 1 0 0 
SMALL
USER_CHARGES


@<TRIPOS>ATOM
  1 S       -1.0840     0.2480    -0.6060 S.3   1 <1>  -0.0800 
  2 C       -0.8890    -0.9130     0.6640 C.2   1 <1>   0.4420 
  3 C       -0.3130     1.4040     0.4290 C.2   1 <1>   0.1980 
  4 N       -0.3050    -0.4130     1.6930 N.2   1 <1>  -0.3380 
  5 N       -1.3660    -2.1790     0.4040 N.am  1 <1>  -0.4940 
  6 N        0.0190     0.9080     1.5530 N.2   1 <1>  -0.3380 
  7 C       -0.1240     2.8340    -0.0720 C.3   1 <1>   0.3800 
  8 C       -1.4530    -3.2950     1.1990 C.2   1 <1>   0.5440 
  9 O       -1.3430     3.3870    -0.4780 O.3   1 <1>  -0.5600 
 10 C        0.8200     2.9070    -1.2700 C.3   1 <1>  -0.2400 
 11 O       -1.1440    -3.2030     2.3690 O.2   1 <1>  -0.5700 
 12 C       -1.8920    -4.5750     0.6670 C.ar  1 <1>   0.0860 
 13 C       -2.2380     3.6620     0.5570 C.3   1 <1>   0.0400 
 14 C       -2.5870    -4.7330    -0.5530 C.ar  1 <1>   0.3930 
 15 C       -1.6200    -5.7360     1.3890 C.ar  1 <1>  -0.1500 
 16 O       -2.8860    -3.6330    -1.2820 O.3   1 <1>  -0.3620 
 17 N       -2.9890    -5.8990    -1.0640 N.ar  1 <1>  -0.6200 
 18 C       -2.0370    -6.9340     0.8630 C.ar  1 <1>  -0.1430 
 19 C       -3.6190    -3.7040    -2.4930 C.3   1 <1>   0.0400 
 20 C       -2.7000    -6.9540    -0.3350 C.ar  1 <1>   0.1670 
 21 C       -1.8670    -8.3210     1.4320 C.3   1 <1>  -0.0170 
 22 C       -3.0680    -8.3600    -0.7310 C.3   1 <1>  -0.0170 
 23 C       -2.7610    -9.1920     0.5300 C.3   1 <1>  -0.1600 
 24 H       -1.7670    -2.3040    -0.5260 H     1 <1>   0.3700 
 25 H        0.2730     3.4400     0.7250 H     1 <1>   0.0800 
 26 H        0.4180     2.3560    -2.1010 H     1 <1>   0.0800 
 27 H        1.7750     2.4900    -1.0070 H     1 <1>   0.0800 
 28 H        0.9620     3.9330    -1.5600 H     1 <1>   0.0800 
 29 H       -3.1150     4.1130     0.1280 H     1 <1>   0.0800 
 30 H       -1.7830     4.3470     1.2520 H     1 <1>   0.0800 
 31 H       -2.5120     2.7470     1.0530 H     1 <1>   0.0800 
 32 H       -1.0970    -5.6960     2.3300 H     1 <1>   0.1500 
 33 H       -3.7420    -2.7080    -2.8780 H     1 <1>   0.0800 
 34 H       -4.5810    -4.1430    -2.2930 H     1 <1>   0.0800 
 35 H       -3.0730    -4.3080    -3.1970 H     1 <1>   0.0800 
 36 H       -2.1790    -8.3670     2.4600 H     1 <1>   0.0800 
 37 H       -0.8360    -8.6210     1.3490 H     1 <1>   0.0800 
 38 H       -2.4540    -8.6680    -1.5570 H     1 <1>   0.0800 
 39 H       -4.1070    -8.4230    -1.0040 H     1 <1>   0.0800 
 40 H       -3.6840    -9.3940     1.0460 H     1 <1>   0.0800 
 41 H       -2.2880   -10.1260     0.2840 H     1 <1>   0.0800 
@<TRIPOS>BOND
  1   1   2  1   
  2   1   3  1   
  3   2   4  2   
  4   2   5  1   
  5   3   6  2   
  6   3   7  1   
  7   4   6  1   
  8   5   8  am  
  9   5  24  1   
 10   7   9  1   
 11   7  10  1   
 12   7  25  1   
 13   8  11  2   
 14   8  12  1   
 15   9  13  1   
 16  10  26  1   
 17  10  27  1   
 18  10  28  1   
 19  12  14  ar  
 20  12  15  ar  
 21  13  29  1   
 22  13  30  1   
 23  13  31  1   
 24  14  16  1   
 25  14  17  ar  
 26  15  18  ar  
 27  15  32  1   
 28  16  19  1   
 29  17  20  ar  
 30  18  20  ar  
 31  18  21  1   
 32  19  33  1   
 33  19  34  1   
 34  19  35  1   
 35  20  22  1   
 36  21  23  1   
 37  21  36  1   
 38  21  37  1   
 39  22  23  1   
 40  22  38  1   
 41  22  39  1   
 42  23  40  1   
 43  23  41  1   
@<TRIPOS>SUBSTRUCTURE
  1 ****   5 GROUP 4 **** **** 0

# MOE 2024.06 (io_trps.svl 2023.06)
