@<TRIPOS>MOLECULE
NONAME
51 53 1 0 0 
SMALL
USER_CHARGES


@<TRIPOS>ATOM
  1 O       -0.1640     0.9870    -0.8890 O.2   1 <1>  -0.5700 
  2 C       -0.9730     1.8800    -0.8710 C.2   1 <1>   0.5690 
  3 N       -2.2880     1.7620    -1.1400 N.am  1 <1>  -0.6600 
  4 C       -0.6280     3.2960    -0.5100 C.3   1 <1>  -0.0990 
  5 C       -3.0160     3.0340    -0.9750 C.3   1 <1>   0.1400 
  6 C       -2.9860     0.4990    -1.4650 C.3   1 <1>   0.2840 
  7 C       -2.0070     3.9280    -0.2310 C.3   1 <1>  -0.0190 
  8 C       -3.9380     0.1480    -0.3370 C.ar  1 <1>  -0.1440 
  9 C       -2.0950     5.4050    -0.5900 C.2   1 <1>   0.5690 
 10 C       -3.4310    -0.2230     0.9000 C.ar  1 <1>   0.1600 
 11 C       -5.3070     0.1970    -0.5090 C.ar  1 <1>  -0.1500 
 12 O       -2.9590     5.7770    -1.3460 O.2   1 <1>  -0.5700 
 13 N       -1.1760     6.2490    -0.0270 N.am  1 <1>  -0.4940 
 14 N       -4.1650    -0.5390     1.9560 N.ar  1 <1>  -0.6200 
 15 C       -6.0860    -0.1320     0.5800 C.ar  1 <1>  -0.1500 
 16 C       -1.0700     7.6580    -0.1440 C.2   1 <1>  -0.0880 
 17 C       -5.4740    -0.4870     1.7700 C.ar  1 <1>   0.1600 
 18 N        0.1000     8.3290    -0.3250 N.pl3 1 <1>   0.3140 
 19 C       -2.0400     8.6030    -0.0920 C.2   1 <1>  -0.1810 
 20 N       -0.0930     9.6640    -0.3830 N.2   1 <1>  -0.7070 
 21 C        1.4440     7.7470    -0.5080 C.3   1 <1>   0.0960 
 22 C       -1.3730     9.8130    -0.2490 C.2   1 <1>   0.1390 
 23 C       -3.5370     8.4460     0.0970 C.3   1 <1>  -0.0590 
 24 C        2.1010     7.4390     0.8460 C.3   1 <1>  -0.1600 
 25 C        3.4840     6.8020     0.6590 C.3   1 <1>  -0.1600 
 26 C        4.1360     6.5020     2.0110 C.3   1 <1>  -0.2400 
 27 H       -0.1470     3.7530    -1.3560 H     1 <1>   0.0800 
 28 H        0.0160     3.3230     0.3490 H     1 <1>   0.0800 
 29 H       -3.9160     2.9020    -0.3980 H     1 <1>   0.0800 
 30 H       -3.2600     3.4250    -1.9480 H     1 <1>   0.0800 
 31 H       -2.2660    -0.2930    -1.5910 H     1 <1>   0.0800 
 32 H       -3.5210     0.6160    -2.3910 H     1 <1>   0.0800 
 33 H       -2.2200     3.8330     0.8190 H     1 <1>   0.0800 
 34 H       -2.3610    -0.2590     1.0260 H     1 <1>   0.1500 
 35 H       -5.7540     0.4800    -1.4470 H     1 <1>   0.1500 
 36 H       -0.4670     5.8070     0.5570 H     1 <1>   0.3700 
 37 H       -7.1580    -0.1140     0.5110 H     1 <1>   0.1500 
 38 H       -6.0930    -0.7420     2.6130 H     1 <1>   0.1500 
 39 H        2.0420     8.4560    -1.0530 H     1 <1>   0.0800 
 40 H        1.3520     6.8550    -1.0990 H     1 <1>   0.0800 
 41 H       -1.8570    10.7760    -0.2570 H     1 <1>   0.1500 
 42 H       -3.7530     7.5350     0.6230 H     1 <1>   0.0800 
 43 H       -4.0210     8.4130    -0.8630 H     1 <1>   0.0800 
 44 H       -3.9310     9.2710     0.6620 H     1 <1>   0.0800 
 45 H        1.4740     6.7720     1.4110 H     1 <1>   0.0800 
 46 H        2.2030     8.3590     1.3980 H     1 <1>   0.0800 
 47 H        4.1190     7.4730     0.1040 H     1 <1>   0.0800 
 48 H        3.3940     5.8870     0.0990 H     1 <1>   0.0800 
 49 H        4.2590     7.4070     2.5800 H     1 <1>   0.0800 
 50 H        5.1060     6.0600     1.8610 H     1 <1>   0.0800 
 51 H        3.5340     5.8150     2.5800 H     1 <1>   0.0800 
@<TRIPOS>BOND
  1   1   2  2   
  2   2   3  am  
  3   2   4  1   
  4   3   5  1   
  5   3   6  1   
  6   4   7  1   
  7   4  27  1   
  8   4  28  1   
  9   5   7  1   
 10   5  29  1   
 11   5  30  1   
 12   6   8  1   
 13   6  31  1   
 14   6  32  1   
 15   7   9  1   
 16   7  33  1   
 17   8  10  ar  
 18   8  11  ar  
 19   9  12  2   
 20   9  13  am  
 21  10  14  ar  
 22  10  34  1   
 23  11  15  ar  
 24  11  35  1   
 25  13  16  1   
 26  13  36  1   
 27  14  17  ar  
 28  15  17  ar  
 29  15  37  1   
 30  16  18  1   
 31  16  19  2   
 32  17  38  1   
 33  18  20  1   
 34  18  21  1   
 35  19  22  1   
 36  19  23  1   
 37  20  22  2   
 38  21  24  1   
 39  21  39  1   
 40  21  40  1   
 41  22  41  1   
 42  23  42  1   
 43  23  43  1   
 44  23  44  1   
 45  24  25  1   
 46  24  45  1   
 47  24  46  1   
 48  25  26  1   
 49  25  47  1   
 50  25  48  1   
 51  26  49  1   
 52  26  50  1   
 53  26  51  1   
@<TRIPOS>SUBSTRUCTURE
  1 ****   7 GROUP 4 **** **** 0

# MOE 2024.06 (io_trps.svl 2023.06)
