@<TRIPOS>MOLECULE
NONAME
51 53 1 0 0 
SMALL
USER_CHARGES


@<TRIPOS>ATOM
  1 O       -0.5780     0.3540     0.4410 O.2   1 <1>  -0.5700 
  2 C       -1.6450     0.8760     0.2240 C.2   1 <1>   0.5690 
  3 N       -2.7360     0.1410    -0.1460 N.am  1 <1>  -0.6600 
  4 C       -1.7790     2.3880     0.3730 C.3   1 <1>  -0.0990 
  5 C       -4.1120     0.6480    -0.3720 C.3   1 <1>   0.1400 
  6 C       -2.6940    -1.3350    -0.2920 C.3   1 <1>   0.1400 
  7 C       -0.4480     3.1190     0.6370 C.3   1 <1>  -0.1600 
  8 C       -4.9580    -0.5950    -0.6570 C.3   1 <1>   0.2000 
  9 C       -4.1490    -1.7830    -0.1410 C.3   1 <1>  -0.0800 
 10 C       -0.6560     4.6260     0.7850 C.3   1 <1>   0.1400 
 11 O       -6.1790    -0.5360    -0.0030 O.3   1 <1>  -0.6800 
 12 C       -4.4780    -3.0910    -0.8800 C.3   1 <1>  -0.0170 
 13 N        0.6500     5.2710     1.0280 N.am  1 <1>  -0.7300 
 14 C       -3.6420    -4.2470    -0.3600 C.ar  1 <1>   0.1670 
 15 C        1.2130     6.3320     0.4080 C.2   1 <1>   0.5690 
 16 N       -2.4930    -4.4560    -0.9270 N.ar  1 <1>  -0.6200 
 17 C       -4.1370    -5.0190     0.7030 C.ar  1 <1>  -0.1500 
 18 O        2.2940     6.7290     0.7550 O.2   1 <1>  -0.5700 
 19 C        0.5010     7.0370    -0.7200 C.3   1 <1>  -0.1790 
 20 C       -1.7320    -5.4770    -0.4570 C.ar  1 <1>   0.3100 
 21 C       -3.3960    -6.0520     1.1920 C.ar  1 <1>  -0.1500 
 22 C       -2.1450    -6.3080     0.6080 C.ar  1 <1>   0.0000 
 23 C       -0.4820    -5.7190    -1.0470 C.ar  1 <1>  -0.1500 
 24 C       -1.2930    -7.3460     1.0360 C.ar  1 <1>  -0.1500 
 25 C        0.3320    -6.7340    -0.6160 C.ar  1 <1>  -0.1500 
 26 C       -0.0800    -7.5560     0.4380 C.ar  1 <1>  -0.1500 
 27 H       -2.2150     2.7760    -0.5290 H     1 <1>   0.0800 
 28 H       -2.4540     2.5800     1.1870 H     1 <1>   0.0800 
 29 H       -4.4580     1.1560     0.5120 H     1 <1>   0.0800 
 30 H       -4.1290     1.3140    -1.2170 H     1 <1>   0.0800 
 31 H       -2.3140    -1.5810    -1.2700 H     1 <1>   0.0800 
 32 H       -2.0610    -1.7850     0.4540 H     1 <1>   0.0800 
 33 H        0.2250     2.9300    -0.1820 H     1 <1>   0.0800 
 34 H       -0.0050     2.7290     1.5370 H     1 <1>   0.0800 
 35 H       -5.1430    -0.6740    -1.7150 H     1 <1>   0.0800 
 36 H       -4.3280    -1.9140     0.9110 H     1 <1>   0.0800 
 37 H       -1.3060     4.8280     1.6200 H     1 <1>   0.0800 
 38 H       -1.1100     5.0230    -0.1060 H     1 <1>   0.0800 
 39 H       -6.0450    -0.5170     0.9640 H     1 <1>   0.4000 
 40 H       -4.2920    -2.9730    -1.9340 H     1 <1>   0.0800 
 41 H       -5.5220    -3.3190    -0.7600 H     1 <1>   0.0800 
 42 H        1.2200     4.8580     1.7700 H     1 <1>   0.3700 
 43 H       -5.0990    -4.7850     1.1200 H     1 <1>   0.1500 
 44 H       -0.4490     7.4030    -0.3800 H     1 <1>   0.0800 
 45 H        0.3610     6.3590    -1.5400 H     1 <1>   0.0800 
 46 H        1.0940     7.8690    -1.0550 H     1 <1>   0.0800 
 47 H       -3.7420    -6.6660     2.0040 H     1 <1>   0.1500 
 48 H       -0.1830    -5.0760    -1.8540 H     1 <1>   0.1500 
 49 H       -1.6150    -7.9740     1.8480 H     1 <1>   0.1500 
 50 H        1.2890    -6.9080    -1.0770 H     1 <1>   0.1500 
 51 H        0.5690    -8.3490     0.7680 H     1 <1>   0.1500 
@<TRIPOS>BOND
  1   1   2  2   
  2   2   3  am  
  3   2   4  1   
  4   3   5  1   
  5   3   6  1   
  6   4   7  1   
  7   4  27  1   
  8   4  28  1   
  9   5   8  1   
 10   5  29  1   
 11   5  30  1   
 12   6   9  1   
 13   6  31  1   
 14   6  32  1   
 15   7  10  1   
 16   7  33  1   
 17   7  34  1   
 18   8   9  1   
 19   8  11  1   
 20   8  35  1   
 21   9  12  1   
 22   9  36  1   
 23  10  13  1   
 24  10  37  1   
 25  10  38  1   
 26  11  39  1   
 27  12  14  1   
 28  12  40  1   
 29  12  41  1   
 30  13  15  am  
 31  13  42  1   
 32  14  16  ar  
 33  14  17  ar  
 34  15  18  2   
 35  15  19  1   
 36  16  20  ar  
 37  17  21  ar  
 38  17  43  1   
 39  19  44  1   
 40  19  45  1   
 41  19  46  1   
 42  20  22  ar  
 43  20  23  ar  
 44  21  22  ar  
 45  21  47  1   
 46  22  24  ar  
 47  23  25  ar  
 48  23  48  1   
 49  24  26  ar  
 50  24  49  1   
 51  25  26  ar  
 52  25  50  1   
 53  26  51  1   
@<TRIPOS>SUBSTRUCTURE
  1 ****   6 GROUP 4 **** **** 0

# MOE 2024.06 (io_trps.svl 2023.06)
