@<TRIPOS>MOLECULE
NONAME
37 38 1 0 0 
SMALL
USER_CHARGES


@<TRIPOS>ATOM
  1 O        0.3730    -0.2340     1.1850 O.2   1 <1>  -0.5700 
  2 C        1.3110    -0.6700     0.5470 C.2   1 <1>   0.5440 
  3 N        2.2610     0.1900     0.0460 N.am  1 <1>  -0.4940 
  4 C        1.4270    -2.0960     0.3080 C.ar  1 <1>   0.0860 
  5 C        2.3090     1.6030     0.1120 C.2   1 <1>  -0.0880 
  6 C        2.6360    -2.7470     0.0980 C.ar  1 <1>  -0.1500 
  7 C        0.3120    -2.9210     0.2740 C.ar  1 <1>  -0.1500 
  8 N        3.4080     2.3220     0.4680 N.pl3 1 <1>   0.3140 
  9 C        1.3400     2.5100    -0.1600 C.2   1 <1>  -0.1810 
 10 C        2.6680    -4.1090    -0.1410 C.ar  1 <1>   0.1670 
 11 C        0.4420    -4.2740     0.0290 C.ar  1 <1>   0.1670 
 12 N        3.1730     3.6520     0.4210 N.2   1 <1>  -0.7070 
 13 C        4.7060     1.7950     0.9360 C.3   1 <1>   0.0960 
 14 C        1.9340     3.7490     0.0510 C.2   1 <1>   0.1390 
 15 C       -0.0930     2.2820    -0.6020 C.3   1 <1>  -0.0590 
 16 N        1.5970    -4.8770    -0.1840 N.ar  1 <1>  -0.6200 
 17 C        3.9870    -4.8180    -0.3720 C.3   1 <1>  -0.0970 
 18 C       -0.7820    -5.1650    -0.0080 C.3   1 <1>  -0.0970 
 19 C        5.6340     1.4680    -0.2410 C.3   1 <1>  -0.2400 
 20 H        2.9930    -0.2450    -0.5120 H     1 <1>   0.3700 
 21 H        3.5570    -2.1970     0.1290 H     1 <1>   0.1500 
 22 H       -0.6600    -2.4910     0.4420 H     1 <1>   0.1500 
 23 H        4.5250     0.9200     1.5320 H     1 <1>   0.0800 
 24 H        5.1600     2.5420     1.5630 H     1 <1>   0.0800 
 25 H        1.4310     4.6930    -0.0770 H     1 <1>   0.1500 
 26 H       -0.1940     1.3130    -1.0540 H     1 <1>   0.0800 
 27 H       -0.3880     3.0290    -1.3160 H     1 <1>   0.0800 
 28 H       -0.7450     2.3310     0.2520 H     1 <1>   0.0800 
 29 H        4.8150    -4.1360    -0.3180 H     1 <1>   0.0800 
 30 H        3.9780    -5.2820    -1.3410 H     1 <1>   0.0800 
 31 H        4.1160    -5.5820     0.3730 H     1 <1>   0.0800 
 32 H       -1.6790    -4.6040     0.1760 H     1 <1>   0.0800 
 33 H       -0.6900    -5.9300     0.7410 H     1 <1>   0.0800 
 34 H       -0.8550    -5.6330    -0.9730 H     1 <1>   0.0800 
 35 H        5.1970     0.7180    -0.8740 H     1 <1>   0.0800 
 36 H        6.5760     1.1040     0.1270 H     1 <1>   0.0800 
 37 H        5.8160     2.3580    -0.8190 H     1 <1>   0.0800 
@<TRIPOS>BOND
  1   1   2  2   
  2   2   3  am  
  3   2   4  1   
  4   3   5  1   
  5   3  20  1   
  6   4   6  ar  
  7   4   7  ar  
  8   5   8  1   
  9   5   9  2   
 10   6  10  ar  
 11   6  21  1   
 12   7  11  ar  
 13   7  22  1   
 14   8  12  1   
 15   8  13  1   
 16   9  14  1   
 17   9  15  1   
 18  10  16  ar  
 19  10  17  1   
 20  11  16  ar  
 21  11  18  1   
 22  12  14  2   
 23  13  19  1   
 24  13  23  1   
 25  13  24  1   
 26  14  25  1   
 27  15  26  1   
 28  15  27  1   
 29  15  28  1   
 30  17  29  1   
 31  17  30  1   
 32  17  31  1   
 33  18  32  1   
 34  18  33  1   
 35  18  34  1   
 36  19  35  1   
 37  19  36  1   
 38  19  37  1   
@<TRIPOS>SUBSTRUCTURE
  1 ****   2 GROUP 4 **** **** 0

# MOE 2024.06 (io_trps.svl 2023.06)
