@<TRIPOS>MOLECULE
NONAME
41 42 1 0 0 
SMALL
USER_CHARGES


@<TRIPOS>ATOM
  1 S       -0.9310    -2.5720     1.7520 S.3   1 <1>  -0.0800 
  2 C       -2.1740    -2.4180     0.5230 C.2   1 <1>  -0.1100 
  3 C       -1.0440    -0.8640     2.1360 C.2   1 <1>  -0.1100 
  4 C       -2.6180    -1.1480     0.4420 C.2   1 <1>  -0.1810 
  5 C       -1.9690    -0.2640     1.3650 C.2   1 <1>  -0.1500 
  6 C       -3.6910    -0.6140    -0.5050 C.3   1 <1>   0.0820 
  7 C       -4.3470    -1.6680    -1.3930 C.2   1 <1>   0.5690 
  8 O       -4.1100    -1.6080    -2.5780 O.2   1 <1>  -0.5700 
  9 N       -5.1890    -2.6250    -0.8810 N.am  1 <1>  -0.6600 
 10 C       -5.8300    -3.6220    -1.8100 C.3   1 <1>   0.1400 
 11 C       -5.5450    -2.7650     0.5710 C.3   1 <1>   0.1400 
 12 C       -6.3890    -4.8260    -1.0410 C.3   1 <1>   0.2000 
 13 C       -7.0380    -3.0750     0.6930 C.3   1 <1>  -0.1600 
 14 O       -6.9260    -5.7710    -1.9000 O.3   1 <1>  -0.6800 
 15 C       -7.4140    -4.4560     0.0640 C.3   1 <1>  -0.1060 
 16 C       -7.2550    -5.6100     1.0710 C.2   1 <1>   0.9060 
 17 C       -8.9110    -4.4030    -0.3910 C.3   1 <1>  -0.1600 
 18 O       -6.8120    -5.3960     2.2060 O.co2 1 <1>  -0.9000 
 19 O       -7.5220    -6.7580     0.6850 O.co2 1 <1>  -0.9000 
 20 C       -9.2460    -3.5180    -1.6080 C.3   1 <1>  -0.1600 
 21 C      -10.7550    -3.4980    -1.8660 C.3   1 <1>  -0.2400 
 22 H       -2.4450    -3.3090    -0.0160 H     1 <1>   0.1500 
 23 H       -0.3960    -0.4870     2.9070 H     1 <1>   0.1500 
 24 H       -2.2230     0.7810     1.4070 H     1 <1>   0.1500 
 25 H       -3.2390     0.1230    -1.1420 H     1 <1>   0.0800 
 26 H       -4.4570    -0.1170     0.0590 H     1 <1>   0.0800 
 27 H       -6.6180    -3.1320    -2.3490 H     1 <1>   0.0800 
 28 H       -5.0970    -3.9700    -2.5160 H     1 <1>   0.0800 
 29 H       -4.9730    -3.5650     1.0130 H     1 <1>   0.0800 
 30 H       -5.3280    -1.8640     1.1140 H     1 <1>   0.0800 
 31 H       -5.5410    -5.3060    -0.5790 H     1 <1>   0.0800 
 32 H       -7.3230    -3.0550     1.7310 H     1 <1>   0.0800 
 33 H       -7.5690    -2.2710     0.2230 H     1 <1>   0.0800 
 34 H       -7.2890    -6.4780    -1.3050 H     1 <1>   0.4000 
 35 H       -9.2360    -5.4030    -0.6220 H     1 <1>   0.0800 
 36 H       -9.5000    -4.0830     0.4510 H     1 <1>   0.0800 
 37 H       -8.9080    -2.5090    -1.4590 H     1 <1>   0.0800 
 38 H       -8.7560    -3.9100    -2.4820 H     1 <1>   0.0800 
 39 H      -11.2760    -3.0930    -1.0170 H     1 <1>   0.0800 
 40 H      -11.1130    -4.4970    -2.0490 H     1 <1>   0.0800 
 41 H      -10.9740    -2.8920    -2.7270 H     1 <1>   0.0800 
@<TRIPOS>BOND
  1   1   2  1   
  2   1   3  1   
  3   2   4  2   
  4   2  22  1   
  5   3   5  2   
  6   3  23  1   
  7   4   5  1   
  8   4   6  1   
  9   5  24  1   
 10   6   7  1   
 11   6  25  1   
 12   6  26  1   
 13   7   8  2   
 14   7   9  am  
 15   9  10  1   
 16   9  11  1   
 17  10  12  1   
 18  10  27  1   
 19  10  28  1   
 20  11  13  1   
 21  11  29  1   
 22  11  30  1   
 23  12  14  1   
 24  12  15  1   
 25  12  31  1   
 26  13  15  1   
 27  13  32  1   
 28  13  33  1   
 29  14  34  1   
 30  15  16  1   
 31  15  17  1   
 32  16  18  ar  
 33  16  19  ar  
 34  17  20  1   
 35  17  35  1   
 36  17  36  1   
 37  20  21  1   
 38  20  37  1   
 39  20  38  1   
 40  21  39  1   
 41  21  40  1   
 42  21  41  1   
@<TRIPOS>SUBSTRUCTURE
  1 ****  11 GROUP 4 **** **** 0

# MOE 2024.06 (io_trps.svl 2023.06)
