@<TRIPOS>MOLECULE
NONAME
42 43 1 0 0 
SMALL
USER_CHARGES


@<TRIPOS>ATOM
  1 O       -0.7440     0.1900     1.5150 O.2   1 <1>  -0.5700 
  2 C       -1.6860     0.9280     1.3080 C.2   1 <1>   0.7150 
  3 N       -2.9640     0.4840     1.5730 N.am  1 <1>  -0.6600 
  4 C       -1.4490     2.2450     0.7990 C.2   1 <1>  -0.2370 
  5 C       -3.1720    -0.9160     2.0310 C.3   1 <1>   0.3200 
  6 C       -4.1530     1.3970     1.6320 C.3   1 <1>   0.1400 
  7 N       -1.0240     2.5350    -0.4650 N.pl3 1 <1>   0.3140 
  8 C       -1.5880     3.4470     1.4240 C.2   1 <1>  -0.1500 
  9 C       -3.2580    -1.8270     0.8250 C.2   1 <1>  -0.3320 
 10 C       -4.6590     1.8180     0.2440 C.3   1 <1>   0.1200 
 11 N       -0.9320     3.8660    -0.6550 N.2   1 <1>  -0.7070 
 12 C       -0.6550     1.6240    -1.5980 C.3   1 <1>   0.1760 
 13 C       -1.2600     4.3990     0.4810 C.2   1 <1>   0.1390 
 14 N       -4.3690    -2.0470     0.0980 N.pl3 1 <1>   0.0330 
 15 C       -2.2830    -2.5680     0.2550 C.2   1 <1>   0.0770 
 16 O       -4.8770     0.6940    -0.5330 O.3   1 <1>  -0.6800 
 17 C       -1.7580     0.6120    -1.9420 C.3   1 <1>  -0.2400 
 18 C        0.6920     0.9290    -1.3570 C.3   1 <1>  -0.2400 
 19 C       -3.9930    -2.9000    -0.8780 C.2   1 <1>   0.0060 
 20 N       -2.7490    -3.2390    -0.8160 N.2   1 <1>  -0.5650 
 21 C       -4.9480    -3.3920    -1.9430 C.3   1 <1>  -0.0600 
 22 H       -4.0640    -0.9980     2.6260 H     1 <1>   0.0800 
 23 H       -2.3440    -1.2220     2.6490 H     1 <1>   0.0800 
 24 H       -3.8970     2.2790     2.1920 H     1 <1>   0.0800 
 25 H       -4.9600     0.9190     2.1580 H     1 <1>   0.0800 
 26 H       -1.8830     3.6400     2.4400 H     1 <1>   0.1500 
 27 H       -3.9420     2.4450    -0.2580 H     1 <1>   0.0800 
 28 H       -5.5880     2.3540     0.3250 H     1 <1>   0.0800 
 29 H       -0.5320     2.2590    -2.4580 H     1 <1>   0.0800 
 30 H       -1.2690     5.4630     0.6500 H     1 <1>   0.1500 
 31 H       -5.2910    -1.6120     0.2100 H     1 <1>   0.2700 
 32 H       -1.2510    -2.6440     0.5600 H     1 <1>   0.1500 
 33 H       -4.0440     0.1690    -0.5580 H     1 <1>   0.4000 
 34 H       -1.8830    -0.1130    -1.1600 H     1 <1>   0.0800 
 35 H       -1.4910     0.0800    -2.8370 H     1 <1>   0.0800 
 36 H       -2.6850     1.1240    -2.1240 H     1 <1>   0.0800 
 37 H        0.6230     0.2030    -0.5690 H     1 <1>   0.0800 
 38 H        1.4410     1.6580    -1.1030 H     1 <1>   0.0800 
 39 H        1.0040     0.4200    -2.2510 H     1 <1>   0.0800 
 40 H       -5.3530    -2.5600    -2.4890 H     1 <1>   0.0800 
 41 H       -5.7490    -3.9490    -1.4930 H     1 <1>   0.0800 
 42 H       -4.4250    -4.0340    -2.6300 H     1 <1>   0.0800 
@<TRIPOS>BOND
  1   1   2  2   
  2   2   3  am  
  3   2   4  1   
  4   3   5  1   
  5   3   6  1   
  6   4   7  1   
  7   4   8  2   
  8   5   9  1   
  9   5  22  1   
 10   5  23  1   
 11   6  10  1   
 12   6  24  1   
 13   6  25  1   
 14   7  11  1   
 15   7  12  1   
 16   8  13  1   
 17   8  26  1   
 18   9  14  1   
 19   9  15  2   
 20  10  16  1   
 21  10  27  1   
 22  10  28  1   
 23  11  13  2   
 24  12  17  1   
 25  12  18  1   
 26  12  29  1   
 27  13  30  1   
 28  14  19  1   
 29  14  31  1   
 30  15  20  1   
 31  15  32  1   
 32  16  33  1   
 33  17  34  1   
 34  17  35  1   
 35  17  36  1   
 36  18  37  1   
 37  18  38  1   
 38  18  39  1   
 39  19  20  2   
 40  19  21  1   
 41  21  40  1   
 42  21  41  1   
 43  21  42  1   
@<TRIPOS>SUBSTRUCTURE
  1 ****   2 GROUP 4 **** **** 0

# MOE 2024.06 (io_trps.svl 2023.06)
