@<TRIPOS>MOLECULE
NONAME
42 44 1 0 0 
SMALL
USER_CHARGES


@<TRIPOS>ATOM
  1 O        0.7340     1.4000     1.0600 O.3   1 <1>  -0.0190 
  2 N        1.4990     0.3480     1.0450 N.2   1 <1>  -0.4100 
  3 C        0.8260     2.0830    -0.0500 C.2   1 <1>  -0.0400 
  4 C        2.0890     0.3510    -0.0960 C.2   1 <1>   0.1080 
  5 C        1.6950     1.4520    -0.8520 C.2   1 <1>  -0.1500 
  6 C        0.0200     3.3560    -0.2320 C.3   1 <1>   0.0200 
  7 C        3.0750    -0.7040    -0.5460 C.3   1 <1>  -0.0590 
  8 C        0.3170     4.3870     0.8740 C.3   1 <1>  -0.0800 
  9 C       -0.4390     5.6890     0.6240 C.3   1 <1>   0.2000 
 10 C        1.7970     4.8110     0.8910 C.3   1 <1>   0.1100 
 11 O       -0.5820     6.3370     1.8360 O.3   1 <1>  -0.6800 
 12 C        0.5450     6.4920    -0.2170 C.3   1 <1>   0.1100 
 13 N        1.8680     6.1850     0.3580 N.3   1 <1>  -0.8100 
 14 C        2.9560     6.3550    -0.6250 C.3   1 <1>   0.2900 
 15 C        2.9890     7.7650    -1.1950 C.2   1 <1>   0.0060 
 16 N        2.8560     8.0440    -2.4450 N.2   1 <1>  -0.5650 
 17 N        3.1600     8.8750    -0.4620 N.pl3 1 <1>   0.3140 
 18 C        2.9580     9.3780    -2.4320 C.2   1 <1>   0.3660 
 19 N        3.1400     9.9230    -1.2760 N.2   1 <1>  -0.7070 
 20 C        3.3420     9.0270     0.9980 C.3   1 <1>   0.0960 
 21 C        4.8070     8.8230     1.4030 C.3   1 <1>  -0.2400 
 22 H        2.0310     1.7010    -1.8420 H     1 <1>   0.1500 
 23 H        0.2410     3.7710    -1.1990 H     1 <1>   0.0800 
 24 H       -1.0250     3.1030    -0.2100 H     1 <1>   0.0800 
 25 H        4.0060    -0.2420    -0.8200 H     1 <1>   0.0800 
 26 H        2.6790    -1.2350    -1.3920 H     1 <1>   0.0800 
 27 H        3.2540    -1.4020     0.2510 H     1 <1>   0.0800 
 28 H        0.0350     3.9570     1.8200 H     1 <1>   0.0800 
 29 H       -1.4090     5.5680     0.1750 H     1 <1>   0.0800 
 30 H        2.4060     4.1330     0.3160 H     1 <1>   0.0800 
 31 H        2.1630     4.8130     1.9040 H     1 <1>   0.0800 
 32 H        0.3170     6.5950     2.1250 H     1 <1>   0.4000 
 33 H        0.3320     7.5470    -0.1830 H     1 <1>   0.0800 
 34 H        0.4970     6.1600    -1.2400 H     1 <1>   0.0800 
 35 H        3.8990     6.1440    -0.1540 H     1 <1>   0.0800 
 36 H        2.8260     5.6580    -1.4360 H     1 <1>   0.0800 
 37 H        2.8900     9.9440    -3.3470 H     1 <1>   0.1500 
 38 H        3.0250    10.0180     1.2700 H     1 <1>   0.0800 
 39 H        2.7110     8.3230     1.5070 H     1 <1>   0.0800 
 40 H        5.4330     9.5350     0.8930 H     1 <1>   0.0800 
 41 H        5.1310     7.8260     1.1630 H     1 <1>   0.0800 
 42 H        4.9150     8.9710     2.4620 H     1 <1>   0.0800 
@<TRIPOS>BOND
  1   1   2  1   
  2   1   3  1   
  3   2   4  2   
  4   3   5  2   
  5   3   6  1   
  6   4   5  1   
  7   4   7  1   
  8   5  22  1   
  9   6   8  1   
 10   6  23  1   
 11   6  24  1   
 12   7  25  1   
 13   7  26  1   
 14   7  27  1   
 15   8   9  1   
 16   8  10  1   
 17   8  28  1   
 18   9  11  1   
 19   9  12  1   
 20   9  29  1   
 21  10  13  1   
 22  10  30  1   
 23  10  31  1   
 24  11  32  1   
 25  12  13  1   
 26  12  33  1   
 27  12  34  1   
 28  13  14  1   
 29  14  15  1   
 30  14  35  1   
 31  14  36  1   
 32  15  16  2   
 33  15  17  1   
 34  16  18  1   
 35  17  19  1   
 36  17  20  1   
 37  18  19  2   
 38  18  37  1   
 39  20  21  1   
 40  20  38  1   
 41  20  39  1   
 42  21  40  1   
 43  21  41  1   
 44  21  42  1   
@<TRIPOS>SUBSTRUCTURE
  1 ****  13 GROUP 4 **** **** 0

# MOE 2024.06 (io_trps.svl 2023.06)
