@<TRIPOS>MOLECULE
NONAME
53 57 1 0 0 
SMALL
USER_CHARGES


@<TRIPOS>ATOM
  1 O        0.2030    -0.9370    -3.0390 O.2   1 <1>  -0.5700 
  2 C        0.2110    -1.6840    -2.0880 C.2   1 <1>   0.5690 
  3 N        1.1170    -1.5680    -1.0490 N.am  1 <1>  -0.4770 
  4 C       -0.8440    -2.8030    -2.0780 C.3   1 <1>   0.1710 
  5 C        2.1120    -0.6020    -0.8470 C.ar  1 <1>   0.1170 
  6 C        1.1340    -2.5130     0.1030 C.3   1 <1>   0.1400 
  7 N       -1.8120    -2.7560    -0.9450 N.3   1 <1>  -0.8100 
  8 C        2.8110    -0.8320     0.3200 C.ar  1 <1>  -0.1430 
  9 C        2.4500     0.4930    -1.6330 C.ar  1 <1>  -0.1500 
 10 C        2.2860    -2.0620     1.0130 C.3   1 <1>  -0.0170 
 11 C       -2.6080    -1.5030    -0.9980 C.3   1 <1>   0.1100 
 12 C       -2.6940    -3.9310    -0.9570 C.3   1 <1>   0.1100 
 13 C        3.8370    -0.0030     0.7280 C.ar  1 <1>  -0.1500 
 14 C        3.4780     1.3330    -1.2370 C.ar  1 <1>  -0.1500 
 15 C       -3.5470    -1.3700     0.2170 C.3   1 <1>   0.1430 
 16 C       -3.6180    -3.9080     0.2660 C.3   1 <1>  -0.1600 
 17 C        4.1700     1.0880    -0.0600 C.ar  1 <1>  -0.1500 
 18 C       -4.3390    -0.0810     0.0810 C.ar  1 <1>   0.1670 
 19 C       -4.4510    -2.6170     0.3130 C.3   1 <1>  -0.1600 
 20 C       -2.7440    -1.1250     1.5220 C.3   1 <1>  -0.1600 
 21 N       -5.3500     0.1180    -0.7360 N.ar  1 <1>  -0.6200 
 22 C       -3.8620     0.8870     0.9150 C.ar  1 <1>  -0.1430 
 23 C       -2.6910     0.3980     1.7310 C.3   1 <1>  -0.0170 
 24 C       -5.8720     1.3350    -0.6760 C.ar  1 <1>   0.4770 
 25 C       -4.4780     2.1130     0.8930 C.ar  1 <1>   0.1600 
 26 N       -5.4980     2.3490     0.0930 N.ar  1 <1>  -0.6200 
 27 C       -7.0380     1.6080    -1.5950 C.3   1 <1>  -0.0970 
 28 H       -0.3210    -3.7420    -2.0560 H     1 <1>   0.0800 
 29 H       -1.3860    -2.7580    -3.0060 H     1 <1>   0.0800 
 30 H        1.2940    -3.5180    -0.2450 H     1 <1>   0.0800 
 31 H        0.2010    -2.4570     0.6350 H     1 <1>   0.0800 
 32 H        1.9190     0.6910    -2.5450 H     1 <1>   0.1500 
 33 H        3.0460    -2.8210     1.0710 H     1 <1>   0.0800 
 34 H        1.9280    -1.8280     1.9990 H     1 <1>   0.0800 
 35 H       -3.1960    -1.4850    -1.9000 H     1 <1>   0.0800 
 36 H       -1.9510    -0.6500    -1.0180 H     1 <1>   0.0800 
 37 H       -2.0990    -4.8280    -0.9330 H     1 <1>   0.0800 
 38 H       -3.2840    -3.9360    -1.8600 H     1 <1>   0.0800 
 39 H        4.3720    -0.1980     1.6410 H     1 <1>   0.1500 
 40 H        3.7400     2.1800    -1.8470 H     1 <1>   0.1500 
 41 H       -3.0200    -3.9960     1.1560 H     1 <1>   0.0800 
 42 H       -4.2760    -4.7570     0.2290 H     1 <1>   0.0800 
 43 H        4.9670     1.7450     0.2410 H     1 <1>   0.1500 
 44 H       -5.1290    -2.6160    -0.5230 H     1 <1>   0.0800 
 45 H       -5.0440    -2.5820     1.2090 H     1 <1>   0.0800 
 46 H       -1.7600    -1.5550     1.4850 H     1 <1>   0.0800 
 47 H       -3.2720    -1.5580     2.3530 H     1 <1>   0.0800 
 48 H       -1.7780     0.8040     1.3310 H     1 <1>   0.0800 
 49 H       -2.7880     0.6600     2.7700 H     1 <1>   0.0800 
 50 H       -4.1360     2.9070     1.5330 H     1 <1>   0.1500 
 51 H       -7.2800     0.7330    -2.1690 H     1 <1>   0.0800 
 52 H       -6.7830     2.4080    -2.2630 H     1 <1>   0.0800 
 53 H       -7.8920     1.8930    -1.0110 H     1 <1>   0.0800 
@<TRIPOS>BOND
  1   1   2  2   
  2   2   3  am  
  3   2   4  1   
  4   3   5  1   
  5   3   6  1   
  6   4   7  1   
  7   4  28  1   
  8   4  29  1   
  9   5   8  ar  
 10   5   9  ar  
 11   6  10  1   
 12   6  30  1   
 13   6  31  1   
 14   7  11  1   
 15   7  12  1   
 16   8  10  1   
 17   8  13  ar  
 18   9  14  ar  
 19   9  32  1   
 20  10  33  1   
 21  10  34  1   
 22  11  15  1   
 23  11  35  1   
 24  11  36  1   
 25  12  16  1   
 26  12  37  1   
 27  12  38  1   
 28  13  17  ar  
 29  13  39  1   
 30  14  17  ar  
 31  14  40  1   
 32  15  18  1   
 33  15  19  1   
 34  15  20  1   
 35  16  19  1   
 36  16  41  1   
 37  16  42  1   
 38  17  43  1   
 39  18  21  ar  
 40  18  22  ar  
 41  19  44  1   
 42  19  45  1   
 43  20  23  1   
 44  20  46  1   
 45  20  47  1   
 46  21  24  ar  
 47  22  23  1   
 48  22  25  ar  
 49  23  48  1   
 50  23  49  1   
 51  24  26  ar  
 52  24  27  1   
 53  25  26  ar  
 54  25  50  1   
 55  27  51  1   
 56  27  52  1   
 57  27  53  1   
@<TRIPOS>SUBSTRUCTURE
  1 ****  11 GROUP 4 **** **** 0

# MOE 2024.06 (io_trps.svl 2023.06)
