@<TRIPOS>MOLECULE
NONAME
58 62 1 0 0 
SMALL
USER_CHARGES


@<TRIPOS>ATOM
  1 S       -1.0290     0.7330    -2.9040 S.3   1 <1>  -0.0800 
  2 C       -2.7370     1.0310    -3.1240 C.2   1 <1>   0.2280 
  3 C       -1.4230    -0.7460    -2.0760 C.2   1 <1>  -0.1100 
  4 N       -3.4940     0.1410    -2.6130 N.2   1 <1>  -0.5650 
  5 C       -2.7580    -0.8770    -2.0260 C.2   1 <1>   0.0460 
  6 C       -3.5170    -2.0370    -1.3940 C.3   1 <1>   0.0210 
  7 C       -4.4020    -1.7170    -0.1530 C.3   1 <1>   0.0610 
  8 C       -4.6770    -3.0670     0.5120 C.2   1 <1>   0.5690 
  9 C       -3.6990    -0.7520     0.8360 C.3   1 <1>   0.4230 
 10 C       -5.6740    -0.8830    -0.5020 C.3   1 <1>  -0.1600 
 11 O       -3.8420    -3.4970     1.2690 O.2   1 <1>  -0.5700 
 12 N       -5.7950    -3.7790     0.2110 N.am  1 <1>  -0.7300 
 13 N       -4.0120     0.5450     0.2180 N.4   1 <1>  -0.9590 
 14 C       -4.4680    -0.6190     2.1700 C.3   1 <1>  -0.1600 
 15 C       -5.4700     0.4310     0.2690 C.3   1 <1>   0.4230 
 16 C       -6.1330    -5.0980     0.8060 C.3   1 <1>   0.1400 
 17 C       -3.4200     1.7820     0.8070 C.3   1 <1>   0.5240 
 18 C       -5.7220     0.1690     1.7590 C.3   1 <1>  -0.1600 
 19 C       -5.7030    -6.2250    -0.1320 C.3   1 <1>  -0.0170 
 20 C       -3.6750     2.9730    -0.1120 C.2   1 <1>   0.0460 
 21 C       -6.0660    -7.5710     0.4730 C.ar  1 <1>  -0.1440 
 22 N       -4.9280     3.3910    -0.3880 N.2   1 <1>  -0.5650 
 23 C       -2.7640     3.7460    -0.7470 C.2   1 <1>  -0.3020 
 24 C       -5.2270    -8.1590     1.4070 C.ar  1 <1>  -0.1500 
 25 C       -7.2340    -8.2190     0.1040 C.ar  1 <1>  -0.1500 
 26 C       -4.7540     4.4070    -1.1710 C.2   1 <1>   0.0360 
 27 N       -3.4580     4.6770    -1.4290 N.pl3 1 <1>   0.0330 
 28 C       -5.5530    -9.3810     1.9680 C.ar  1 <1>  -0.1500 
 29 C       -7.5610    -9.4420     0.6650 C.ar  1 <1>  -0.1500 
 30 C       -6.7210   -10.0240     1.5970 C.ar  1 <1>  -0.1500 
 31 H       -3.0160     1.9240    -3.6560 H     1 <1>   0.1500 
 32 H       -0.6080    -1.3560    -1.7260 H     1 <1>   0.1500 
 33 H       -4.1270    -2.4960    -2.1540 H     1 <1>   0.0800 
 34 H       -2.7830    -2.7730    -1.1110 H     1 <1>   0.0800 
 35 H       -2.6450    -0.9510     0.9530 H     1 <1>   0.0800 
 36 H       -6.5940    -1.3480    -0.1970 H     1 <1>   0.0800 
 37 H       -5.7480    -0.6790    -1.5550 H     1 <1>   0.0800 
 38 H       -6.4490    -3.4530    -0.5040 H     1 <1>   0.3700 
 39 H       -3.7590     0.5400    -0.7870 H     1 <1>   0.4500 
 40 H       -4.7160    -1.5600     2.6270 H     1 <1>   0.0800 
 41 H       -3.8820    -0.0630     2.8810 H     1 <1>   0.0800 
 42 H       -6.0060     1.2730    -0.1410 H     1 <1>   0.0800 
 43 H       -5.6310    -5.2120     1.7530 H     1 <1>   0.0800 
 44 H       -7.1940    -5.1530     0.9830 H     1 <1>   0.0800 
 45 H       -3.8460     1.9840     1.7750 H     1 <1>   0.0800 
 46 H       -2.3570     1.6560     0.9200 H     1 <1>   0.0800 
 47 H       -5.7990     1.0980     2.2970 H     1 <1>   0.0800 
 48 H       -6.6270    -0.3910     1.9180 H     1 <1>   0.0800 
 49 H       -6.1880    -6.1150    -1.0850 H     1 <1>   0.0800 
 50 H       -4.6390    -6.1800    -0.2840 H     1 <1>   0.0800 
 51 H       -1.6890     3.6980    -0.7510 H     1 <1>   0.1500 
 52 H       -4.3160    -7.6670     1.7040 H     1 <1>   0.1500 
 53 H       -7.8970    -7.7800    -0.6200 H     1 <1>   0.1500 
 54 H       -5.5530     4.9980    -1.5870 H     1 <1>   0.1500 
 55 H       -3.0920     5.4390    -2.0100 H     1 <1>   0.2700 
 56 H       -4.8980    -9.8320     2.6930 H     1 <1>   0.1500 
 57 H       -8.4690    -9.9410     0.3750 H     1 <1>   0.1500 
 58 H       -6.9750   -10.9740     2.0330 H     1 <1>   0.1500 
@<TRIPOS>BOND
  1   1   2  1   
  2   1   3  1   
  3   2   4  2   
  4   2  31  1   
  5   3   5  2   
  6   3  32  1   
  7   4   5  1   
  8   5   6  1   
  9   6   7  1   
 10   6  33  1   
 11   6  34  1   
 12   7   8  1   
 13   7   9  1   
 14   7  10  1   
 15   8  11  2   
 16   8  12  am  
 17   9  13  1   
 18   9  14  1   
 19   9  35  1   
 20  10  15  1   
 21  10  36  1   
 22  10  37  1   
 23  12  16  1   
 24  12  38  1   
 25  13  15  1   
 26  13  17  1   
 27  13  39  1   
 28  14  18  1   
 29  14  40  1   
 30  14  41  1   
 31  15  18  1   
 32  15  42  1   
 33  16  19  1   
 34  16  43  1   
 35  16  44  1   
 36  17  20  1   
 37  17  45  1   
 38  17  46  1   
 39  18  47  1   
 40  18  48  1   
 41  19  21  1   
 42  19  49  1   
 43  19  50  1   
 44  20  22  1   
 45  20  23  2   
 46  21  24  ar  
 47  21  25  ar  
 48  22  26  2   
 49  23  27  1   
 50  23  51  1   
 51  24  28  ar  
 52  24  52  1   
 53  25  29  ar  
 54  25  53  1   
 55  26  27  1   
 56  26  54  1   
 57  27  55  1   
 58  28  30  ar  
 59  28  56  1   
 60  29  30  ar  
 61  29  57  1   
 62  30  58  1   
@<TRIPOS>SUBSTRUCTURE
  1 ****   7 GROUP 4 **** **** 0

# MOE 2024.06 (io_trps.svl 2023.06)
