@<TRIPOS>MOLECULE
NONAME
45 47 1 0 0 
SMALL
USER_CHARGES


@<TRIPOS>ATOM
  1 CL       0.2570     1.6370    -1.8830 Cl    1 <1>  -0.1770 
  2 C        1.9070     1.7970    -1.3260 C.ar  1 <1>   0.1770 
  3 C        2.2670     2.8320    -0.4730 C.ar  1 <1>  -0.1440 
  4 C        2.8230     0.8650    -1.7750 C.ar  1 <1>  -0.1500 
  5 C        3.6050     2.9440    -0.0700 C.ar  1 <1>   0.0860 
  6 C        1.2070     3.8250     0.0060 C.3   1 <1>  -0.0970 
  7 C        4.1390     0.9630    -1.3680 C.ar  1 <1>  -0.1500 
  8 C        4.0810     4.0200     0.7790 C.2   1 <1>   0.5440 
  9 C        4.5170     1.9910    -0.5250 C.ar  1 <1>  -0.1500 
 10 O        4.2500     3.8260     1.9670 O.2   1 <1>  -0.5700 
 11 N        4.3670     5.2720     0.2690 N.am  1 <1>  -0.6600 
 12 C        4.8050     6.3620     1.2230 C.3   1 <1>   0.2200 
 13 C        4.5660     5.4560    -1.2090 C.3   1 <1>   0.1400 
 14 C        4.2860     7.7550     0.8340 C.3   1 <1>   0.1200 
 15 C        6.3410     6.3420     1.4110 C.3   1 <1>   0.3430 
 16 C        5.5540     6.5690    -1.6140 C.3   1 <1>  -0.0800 
 17 O        5.1310     8.3830    -0.0820 O.3   1 <1>  -0.5600 
 18 N        7.0230     5.6980     0.2510 N.4   1 <1>  -0.9590 
 19 C        4.9870     7.9780    -1.4010 C.3   1 <1>   0.1200 
 20 C        6.9800     6.4230    -1.0460 C.3   1 <1>   0.3430 
 21 C        8.3750     5.0700     0.5100 C.3   1 <1>   0.2370 
 22 C        8.5810     3.8490    -0.3970 C.2   1 <1>   0.9060 
 23 O        9.7140     3.4170    -0.5960 O.co2 1 <1>  -0.9000 
 24 O        7.5600     3.3900    -0.9370 O.co2 1 <1>  -0.9000 
 25 H        2.5080     0.0760    -2.4330 H     1 <1>   0.1500 
 26 H        1.5230     4.3610     0.8820 H     1 <1>   0.0800 
 27 H        0.2990     3.3080     0.2630 H     1 <1>   0.0800 
 28 H        0.9900     4.5330    -0.7730 H     1 <1>   0.0800 
 29 H        4.8730     0.2490    -1.7040 H     1 <1>   0.1500 
 30 H        5.5480     2.0610    -0.2170 H     1 <1>   0.1500 
 31 H        4.3660     6.1650     2.1850 H     1 <1>   0.0800 
 32 H        4.9330     4.5320    -1.6280 H     1 <1>   0.0800 
 33 H        3.6070     5.6490    -1.6590 H     1 <1>   0.0800 
 34 H        4.2750     8.3790     1.7100 H     1 <1>   0.0800 
 35 H        3.2830     7.7080     0.4450 H     1 <1>   0.0800 
 36 H        6.5530     5.7730     2.3000 H     1 <1>   0.0800 
 37 H        6.7090     7.3440     1.5580 H     1 <1>   0.0800 
 38 H        5.6600     6.4780    -2.6800 H     1 <1>   0.0800 
 39 H        6.4600     4.8420     0.0470 H     1 <1>   0.4500 
 40 H        3.9480     8.0390    -1.6810 H     1 <1>   0.0800 
 41 H        5.5360     8.6830    -2.0010 H     1 <1>   0.0800 
 42 H        7.4340     7.3940    -0.9410 H     1 <1>   0.0800 
 43 H        7.5600     5.8610    -1.7610 H     1 <1>   0.0800 
 44 H        9.1680     5.7720     0.3300 H     1 <1>   0.0800 
 45 H        8.4370     4.7240     1.5250 H     1 <1>   0.0800 
@<TRIPOS>BOND
  1   1   2  1   
  2   2   3  ar  
  3   2   4  ar  
  4   3   5  ar  
  5   3   6  1   
  6   4   7  ar  
  7   4  25  1   
  8   5   8  1   
  9   5   9  ar  
 10   6  26  1   
 11   6  27  1   
 12   6  28  1   
 13   7   9  ar  
 14   7  29  1   
 15   8  10  2   
 16   8  11  am  
 17   9  30  1   
 18  11  12  1   
 19  11  13  1   
 20  12  14  1   
 21  12  15  1   
 22  12  31  1   
 23  13  16  1   
 24  13  32  1   
 25  13  33  1   
 26  14  17  1   
 27  14  34  1   
 28  14  35  1   
 29  15  18  1   
 30  15  36  1   
 31  15  37  1   
 32  16  19  1   
 33  16  20  1   
 34  16  38  1   
 35  17  19  1   
 36  18  20  1   
 37  18  21  1   
 38  18  39  1   
 39  19  40  1   
 40  19  41  1   
 41  20  42  1   
 42  20  43  1   
 43  21  22  1   
 44  21  44  1   
 45  21  45  1   
 46  22  23  ar  
 47  22  24  ar  
@<TRIPOS>SUBSTRUCTURE
  1 ****  11 GROUP 4 **** **** 0

# MOE 2024.06 (io_trps.svl 2023.06)
