@<TRIPOS>MOLECULE
NONAME
47 48 1 0 0 
SMALL
USER_CHARGES


@<TRIPOS>ATOM
  1 S        0.4610    -0.0010    -0.9510 S.o2  1 <1>   1.3330 
  2 O        0.8480    -1.3030    -1.4450 O.2   1 <1>  -0.6500 
  3 O       -0.6540     0.6930    -1.5540 O.2   1 <1>  -0.6500 
  4 N        0.1160    -0.1550     0.7070 N.am  1 <1>  -0.8490 
  5 C        1.9070     1.0610    -0.9880 C.3   1 <1>  -0.0550 
  6 C       -0.6530     0.9710     1.2480 C.3   1 <1>   0.1160 
  7 C       -0.5700    -1.4140     1.0130 C.3   1 <1>   0.1160 
  8 C        3.1860     0.4110    -0.4160 C.3   1 <1>  -0.0800 
  9 C        4.4580     1.2220    -0.6120 C.3   1 <1>   0.2200 
 10 C        3.1740     0.1580     1.0970 C.3   1 <1>   0.1200 
 11 N        4.2240     2.6570    -0.3230 N.am  1 <1>  -0.7300 
 12 C        5.3310     0.6380     0.4900 C.3   1 <1>   0.1200 
 13 O        4.4640     0.4380     1.5630 O.3   1 <1>  -0.5600 
 14 C        4.0880     3.6230    -1.2620 C.2   1 <1>   0.5690 
 15 O        4.0360     3.3620    -2.4380 O.2   1 <1>  -0.5700 
 16 C        3.9860     5.0660    -0.8150 C.3   1 <1>  -0.0990 
 17 C        5.3430     5.6180    -0.3490 C.3   1 <1>  -0.1600 
 18 C        5.2510     7.0950     0.0570 C.3   1 <1>   0.0200 
 19 C        6.6010     7.6170     0.5080 C.2   1 <1>  -0.1400 
 20 S        7.2340     7.0300     2.0400 S.3   1 <1>  -0.0800 
 21 C        7.4590     8.4890    -0.0520 C.2   1 <1>  -0.1500 
 22 C        8.6800     8.0080     1.8670 C.2   1 <1>  -0.1100 
 23 C        8.6440     8.7110     0.7210 C.2   1 <1>  -0.1500 
 24 H        2.1010     1.3260    -2.0100 H     1 <1>   0.0800 
 25 H        1.6940     1.9690    -0.4600 H     1 <1>   0.0800 
 26 H       -0.7630     0.8660     2.3140 H     1 <1>   0.0800 
 27 H       -1.6320     1.0100     0.7970 H     1 <1>   0.0800 
 28 H       -0.1450     1.8990     1.0490 H     1 <1>   0.0800 
 29 H       -0.7650    -1.4870     2.0690 H     1 <1>   0.0800 
 30 H        0.0460    -2.2500     0.7280 H     1 <1>   0.0800 
 31 H       -1.5020    -1.4730     0.4750 H     1 <1>   0.0800 
 32 H        3.3280    -0.5400    -0.9020 H     1 <1>   0.0800 
 33 H        4.8890     1.0950    -1.5910 H     1 <1>   0.0800 
 34 H        2.9300    -0.8640     1.3290 H     1 <1>   0.0800 
 35 H        2.4960     0.8180     1.6080 H     1 <1>   0.0800 
 36 H        4.2550     2.8900     0.6720 H     1 <1>   0.3700 
 37 H        6.1320     1.2940     0.7830 H     1 <1>   0.0800 
 38 H        5.7260    -0.3200     0.1990 H     1 <1>   0.0800 
 39 H        3.6220     5.6510    -1.6410 H     1 <1>   0.0800 
 40 H        3.2660     5.1330    -0.0190 H     1 <1>   0.0800 
 41 H        6.0590     5.5180    -1.1480 H     1 <1>   0.0800 
 42 H        5.6990     5.0390     0.4850 H     1 <1>   0.0800 
 43 H        4.5410     7.2190     0.8560 H     1 <1>   0.0800 
 44 H        4.9150     7.6780    -0.7830 H     1 <1>   0.0800 
 45 H        7.3130     8.9960    -0.9890 H     1 <1>   0.1500 
 46 H        9.4130     7.9500     2.6520 H     1 <1>   0.1500 
 47 H        9.4070     9.3860     0.3770 H     1 <1>   0.1500 
@<TRIPOS>BOND
  1   1   2  2   
  2   1   3  2   
  3   1   4  am  
  4   1   5  1   
  5   4   6  1   
  6   4   7  1   
  7   5   8  1   
  8   5  24  1   
  9   5  25  1   
 10   6  26  1   
 11   6  27  1   
 12   6  28  1   
 13   7  29  1   
 14   7  30  1   
 15   7  31  1   
 16   8   9  1   
 17   8  10  1   
 18   8  32  1   
 19   9  11  1   
 20   9  12  1   
 21   9  33  1   
 22  10  13  1   
 23  10  34  1   
 24  10  35  1   
 25  11  14  am  
 26  11  36  1   
 27  12  13  1   
 28  12  37  1   
 29  12  38  1   
 30  14  15  2   
 31  14  16  1   
 32  16  17  1   
 33  16  39  1   
 34  16  40  1   
 35  17  18  1   
 36  17  41  1   
 37  17  42  1   
 38  18  19  1   
 39  18  43  1   
 40  18  44  1   
 41  19  20  1   
 42  19  21  2   
 43  20  22  1   
 44  21  23  1   
 45  21  45  1   
 46  22  23  2   
 47  22  46  1   
 48  23  47  1   
@<TRIPOS>SUBSTRUCTURE
  1 ****  11 GROUP 4 **** **** 0

# MOE 2024.06 (io_trps.svl 2023.06)
