@<TRIPOS>MOLECULE
NONAME
52 54 1 0 0 
SMALL
USER_CHARGES


@<TRIPOS>ATOM
  1 S       -0.5410    -0.1600    -1.2690 S.o2  1 <1>   1.5010 
  2 O       -0.0090     0.0830    -2.5930 O.2   1 <1>  -0.6500 
  3 O       -1.6800    -1.0420    -1.1300 O.2   1 <1>  -0.6500 
  4 N       -0.9440     1.3530    -0.6050 N.am  1 <1>  -0.8490 
  5 C        0.8040    -0.7120    -0.2030 C.2   1 <1>  -0.0630 
  6 C       -1.5570     1.3480     0.7270 C.3   1 <1>   0.1960 
  7 C       -1.6180     2.2770    -1.5150 C.3   1 <1>   0.1960 
  8 C        1.1220    -2.0340     0.1000 C.2   1 <1>   0.1080 
  9 C        1.7500     0.0010     0.4610 C.2   1 <1>  -0.3020 
 10 C       -3.0660     1.0730     0.6930 C.3   1 <1>  -0.1600 
 11 C       -3.1100     1.9590    -1.6370 C.3   1 <1>  -0.1600 
 12 N        2.1510    -2.1350     0.8830 N.2   1 <1>  -0.7070 
 13 C        0.3850    -3.2580    -0.4010 C.3   1 <1>  -0.0590 
 14 N        2.5440    -0.8710     1.1040 N.pl3 1 <1>   0.3140 
 15 C       -3.8300     2.0000    -0.2710 C.3   1 <1>   0.2800 
 16 C        3.7100    -0.5500     1.9510 C.3   1 <1>   0.0960 
 17 O       -3.6700     3.3030     0.2490 O.3   1 <1>  -0.5600 
 18 C       -5.3440     1.5810    -0.3510 C.3   1 <1>   0.2000 
 19 C        4.9310    -0.1870     1.0960 C.3   1 <1>  -0.2400 
 20 C       -4.6620     4.2400    -0.0190 C.3   1 <1>   0.1200 
 21 O       -5.8780     1.8350    -1.6280 O.3   1 <1>  -0.6800 
 22 C       -6.2110     2.3100     0.7150 C.3   1 <1>   0.2800 
 23 C       -5.9850     3.8350     0.6530 C.3   1 <1>  -0.1600 
 24 O       -5.8340     1.8810     1.9730 O.3   1 <1>  -0.6800 
 25 C       -7.7030     1.9630     0.6230 C.3   1 <1>  -0.2400 
 26 H       -1.0700     0.6210     1.3550 H     1 <1>   0.0800 
 27 H       -1.4010     2.3160     1.1740 H     1 <1>   0.0800 
 28 H       -1.5020     3.2780    -1.1350 H     1 <1>   0.0800 
 29 H       -1.1540     2.2490    -2.4870 H     1 <1>   0.0800 
 30 H        1.8870     1.0660     0.4950 H     1 <1>   0.1500 
 31 H       -3.4460     1.1930     1.6880 H     1 <1>   0.0800 
 32 H       -3.2390     0.0500     0.4230 H     1 <1>   0.0800 
 33 H       -3.2320     0.9860    -2.0790 H     1 <1>   0.0800 
 34 H       -3.5510     2.6680    -2.3100 H     1 <1>   0.0800 
 35 H        0.2510    -3.2010    -1.4660 H     1 <1>   0.0800 
 36 H       -0.5760    -3.3240     0.0740 H     1 <1>   0.0800 
 37 H        0.9480    -4.1440    -0.1700 H     1 <1>   0.0800 
 38 H        3.4480     0.2670     2.5970 H     1 <1>   0.0800 
 39 H        3.9300    -1.4110     2.5570 H     1 <1>   0.0800 
 40 H       -5.4320     0.5180    -0.2100 H     1 <1>   0.0800 
 41 H        4.7260     0.6820     0.4970 H     1 <1>   0.0800 
 42 H        5.1870    -1.0110     0.4530 H     1 <1>   0.0800 
 43 H        5.7720     0.0240     1.7320 H     1 <1>   0.0800 
 44 H       -4.3270     5.1900     0.3600 H     1 <1>   0.0800 
 45 H       -4.7720     4.3200    -1.0860 H     1 <1>   0.0800 
 46 H       -5.7960     2.7820    -1.8380 H     1 <1>   0.4000 
 47 H       -6.7740     4.2930     0.0850 H     1 <1>   0.0800 
 48 H       -6.0280     4.2620     1.6390 H     1 <1>   0.0800 
 49 H       -6.3630     2.3410     2.6490 H     1 <1>   0.4000 
 50 H       -8.1040     2.2750    -0.3240 H     1 <1>   0.0800 
 51 H       -8.2610     2.4520     1.4000 H     1 <1>   0.0800 
 52 H       -7.8380     0.8990     0.7020 H     1 <1>   0.0800 
@<TRIPOS>BOND
  1   1   2  2   
  2   1   3  2   
  3   1   4  am  
  4   1   5  1   
  5   4   6  1   
  6   4   7  1   
  7   5   8  1   
  8   5   9  2   
  9   6  10  1   
 10   6  26  1   
 11   6  27  1   
 12   7  11  1   
 13   7  28  1   
 14   7  29  1   
 15   8  12  2   
 16   8  13  1   
 17   9  14  1   
 18   9  30  1   
 19  10  15  1   
 20  10  31  1   
 21  10  32  1   
 22  11  15  1   
 23  11  33  1   
 24  11  34  1   
 25  12  14  1   
 26  13  35  1   
 27  13  36  1   
 28  13  37  1   
 29  14  16  1   
 30  15  17  1   
 31  15  18  1   
 32  16  19  1   
 33  16  38  1   
 34  16  39  1   
 35  17  20  1   
 36  18  21  1   
 37  18  22  1   
 38  18  40  1   
 39  19  41  1   
 40  19  42  1   
 41  19  43  1   
 42  20  23  1   
 43  20  44  1   
 44  20  45  1   
 45  21  46  1   
 46  22  23  1   
 47  22  24  1   
 48  22  25  1   
 49  23  47  1   
 50  23  48  1   
 51  24  49  1   
 52  25  50  1   
 53  25  51  1   
 54  25  52  1   
@<TRIPOS>SUBSTRUCTURE
  1 ****   6 GROUP 4 **** **** 0

# MOE 2024.06 (io_trps.svl 2023.06)
