@<TRIPOS>MOLECULE
NONAME
45 48 1 0 0 
SMALL
USER_CHARGES


@<TRIPOS>ATOM
  1 O        0.0370    -0.2430     2.5280 O.2   1 <1>  -0.5700 
  2 C       -0.5450     0.5700     1.8500 C.2   1 <1>   0.5690 
  3 N       -1.3890     0.1850     0.8420 N.am  1 <1>  -0.6600 
  4 C       -0.3190     2.0440     2.1630 C.3   1 <1>   0.0440 
  5 C       -2.1320     1.0770    -0.0830 C.3   1 <1>   0.1400 
  6 C       -1.6360    -1.2350     0.5020 C.3   1 <1>   0.1400 
  7 C        0.2950     2.8210     1.0020 C.ar  1 <1>  -0.1440 
  8 C       -2.9660     0.1440    -0.9650 C.3   1 <1>   0.2000 
  9 C       -2.9490    -1.2230    -0.2810 C.3   1 <1>  -0.0800 
 10 C       -0.2970     4.0000     0.5580 C.ar  1 <1>  -0.1500 
 11 C        1.4480     2.3420     0.3780 C.ar  1 <1>  -0.1500 
 12 O       -4.2740     0.5920    -1.0800 O.3   1 <1>  -0.6800 
 13 C       -3.0960    -2.3840    -1.2790 C.3   1 <1>  -0.0170 
 14 C        0.2810     4.6580    -0.5090 C.ar  1 <1>   0.0820 
 15 C        2.0160     3.0200    -0.6930 C.ar  1 <1>  -0.1500 
 16 C       -3.0790    -3.7320    -0.5800 C.ar  1 <1>   0.1670 
 17 O       -0.1190     5.7890    -1.0980 O.3   1 <1>  -0.3630 
 18 C        1.4050     4.1820    -1.1180 C.ar  1 <1>   0.0820 
 19 N       -1.8860    -4.2540    -0.3410 N.ar  1 <1>  -0.6200 
 20 C       -4.2760    -4.3400    -0.2300 C.ar  1 <1>  -0.1500 
 21 C        0.8130     6.0540    -2.1460 C.3   1 <1>   0.4000 
 22 O        1.7640     4.9920    -2.1190 O.3   1 <1>  -0.3630 
 23 C       -1.8850    -5.4250     0.2760 C.ar  1 <1>   0.1600 
 24 C       -4.2600    -5.5600     0.4110 C.ar  1 <1>  -0.1500 
 25 C       -3.0230    -6.1090     0.6680 C.ar  1 <1>  -0.1500 
 26 H       -1.2600     2.4750     2.4480 H     1 <1>   0.0800 
 27 H        0.3380     2.1180     3.0100 H     1 <1>   0.0800 
 28 H       -2.7580     1.7480     0.4790 H     1 <1>   0.0800 
 29 H       -1.4410     1.6340    -0.6910 H     1 <1>   0.0800 
 30 H       -0.8260    -1.5960    -0.1090 H     1 <1>   0.0800 
 31 H       -1.7070    -1.8430     1.3890 H     1 <1>   0.0800 
 32 H       -2.5360     0.0980    -1.9510 H     1 <1>   0.0800 
 33 H       -3.7440    -1.2750     0.4420 H     1 <1>   0.0800 
 34 H       -1.1800     4.4060     1.0160 H     1 <1>   0.1500 
 35 H        1.9070     1.4310     0.7250 H     1 <1>   0.1500 
 36 H       -4.6990     0.6160    -0.2010 H     1 <1>   0.4000 
 37 H       -2.2970    -2.3540    -1.9990 H     1 <1>   0.0800 
 38 H       -4.0200    -2.2720    -1.8180 H     1 <1>   0.0800 
 39 H        2.9020     2.6600    -1.1830 H     1 <1>   0.1500 
 40 H       -5.2130    -3.8640    -0.4540 H     1 <1>   0.1500 
 41 H        0.3010     6.0580    -3.0920 H     1 <1>   0.0800 
 42 H        1.3100     6.9890    -1.9580 H     1 <1>   0.0800 
 43 H       -0.9230    -5.8630     0.4820 H     1 <1>   0.1500 
 44 H       -5.1690    -6.0590     0.6980 H     1 <1>   0.1500 
 45 H       -2.9370    -7.0580     1.1650 H     1 <1>   0.1500 
@<TRIPOS>BOND
  1   1   2  2   
  2   2   3  am  
  3   2   4  1   
  4   3   5  1   
  5   3   6  1   
  6   4   7  1   
  7   4  26  1   
  8   4  27  1   
  9   5   8  1   
 10   5  28  1   
 11   5  29  1   
 12   6   9  1   
 13   6  30  1   
 14   6  31  1   
 15   7  10  ar  
 16   7  11  ar  
 17   8   9  1   
 18   8  12  1   
 19   8  32  1   
 20   9  13  1   
 21   9  33  1   
 22  10  14  ar  
 23  10  34  1   
 24  11  15  ar  
 25  11  35  1   
 26  12  36  1   
 27  13  16  1   
 28  13  37  1   
 29  13  38  1   
 30  14  17  1   
 31  14  18  ar  
 32  15  18  ar  
 33  15  39  1   
 34  16  19  ar  
 35  16  20  ar  
 36  17  21  1   
 37  18  22  1   
 38  19  23  ar  
 39  20  24  ar  
 40  20  40  1   
 41  21  22  1   
 42  21  41  1   
 43  21  42  1   
 44  23  25  ar  
 45  23  43  1   
 46  24  25  ar  
 47  24  44  1   
 48  25  45  1   
@<TRIPOS>SUBSTRUCTURE
  1 ****   3 GROUP 4 **** **** 0

# MOE 2024.06 (io_trps.svl 2023.06)
