@<TRIPOS>MOLECULE
NONAME
53 56 1 0 0 
SMALL
USER_CHARGES


@<TRIPOS>ATOM
  1 O        1.6380     3.4340     1.8030 O.2   1 <1>  -0.5700 
  2 C        1.0990     3.3140     0.7180 C.2   1 <1>   0.5440 
  3 N       -0.2170     3.6990     0.5720 N.am  1 <1>  -0.6600 
  4 C        1.8520     2.7650    -0.3870 C.ar  1 <1>   0.0860 
  5 C       -1.0970     3.8800     1.7650 C.3   1 <1>   0.1400 
  6 C       -0.8750     3.7480    -0.7680 C.3   1 <1>   0.1400 
  7 C        1.6070     1.4660    -0.8480 C.ar  1 <1>   0.0000 
  8 C        2.8440     3.5180    -1.0230 C.ar  1 <1>   0.1660 
  9 C       -2.3710     3.0640     1.5590 C.3   1 <1>  -0.1600 
 10 C       -2.2930     4.3140    -0.6730 C.3   1 <1>  -0.1600 
 11 C        0.5990     0.5970    -0.2810 C.ar  1 <1>   0.0000 
 12 C        2.3870     1.0370    -1.9080 C.ar  1 <1>  -0.1500 
 13 N        3.5750     3.1010    -2.0420 N.ar  1 <1>  -0.6200 
 14 C        3.1500     4.9320    -0.5530 C.3   1 <1>  -0.0970 
 15 C       -3.1650     3.5370     0.3250 C.3   1 <1>   0.4180 
 16 C        0.5970     0.2680     1.0730 C.ar  1 <1>  -0.1500 
 17 C       -0.4110     0.0650    -1.0800 C.ar  1 <1>  -0.1500 
 18 C        3.3360     1.8710    -2.4590 C.ar  1 <1>   0.1600 
 19 O       -4.1450     4.4580     0.7360 O.3   1 <1>  -0.5600 
 20 C       -3.8120     2.3450    -0.3820 C.2   1 <1>  -0.2880 
 21 C       -0.3830    -0.5460     1.6110 C.ar  1 <1>  -0.1500 
 22 C       -1.3930    -0.7510    -0.5470 C.ar  1 <1>  -0.1500 
 23 C       -5.3500     3.9480     1.2380 C.3   1 <1>   0.1200 
 24 C       -5.1290     2.1530    -0.4830 C.2   1 <1>  -0.2760 
 25 C       -1.3820    -1.0560     0.8010 C.ar  1 <1>  -0.1500 
 26 C       -6.0850     3.1380     0.1620 C.3   1 <1>  -0.0220 
 27 C       -5.7780     0.9950    -1.2190 C.3   1 <1>  -0.1020 
 28 H       -1.3330     4.9230     1.8860 H     1 <1>   0.0800 
 29 H       -0.5990     3.5410     2.6580 H     1 <1>   0.0800 
 30 H       -0.9220     2.7550    -1.1760 H     1 <1>   0.0800 
 31 H       -0.2870     4.3600    -1.4310 H     1 <1>   0.0800 
 32 H       -2.9760     3.1100     2.4430 H     1 <1>   0.0800 
 33 H       -2.0770     2.0390     1.4270 H     1 <1>   0.0800 
 34 H       -2.7540     4.2930    -1.6430 H     1 <1>   0.0800 
 35 H       -2.2200     5.3420    -0.3690 H     1 <1>   0.0800 
 36 H        2.2550     0.0450    -2.3010 H     1 <1>   0.1500 
 37 H        2.2460     5.5080    -0.4770 H     1 <1>   0.0800 
 38 H        3.8110     5.4260    -1.2430 H     1 <1>   0.0800 
 39 H        3.6250     4.8970     0.4100 H     1 <1>   0.0800 
 40 H        1.3690     0.6600     1.7140 H     1 <1>   0.1500 
 41 H       -0.4310     0.2970    -2.1300 H     1 <1>   0.1500 
 42 H        3.9310     1.5130    -3.2830 H     1 <1>   0.1500 
 43 H       -3.0880     1.6720    -0.8030 H     1 <1>   0.1500 
 44 H       -0.3670    -0.7820     2.6610 H     1 <1>   0.1500 
 45 H       -2.1680    -1.1490    -1.1800 H     1 <1>   0.1500 
 46 H       -5.9520     4.7800     1.5560 H     1 <1>   0.0800 
 47 H       -5.1360     3.3280     2.0890 H     1 <1>   0.0800 
 48 H       -2.1460    -1.6880     1.2200 H     1 <1>   0.1500 
 49 H       -6.4890     3.8000    -0.5830 H     1 <1>   0.0800 
 50 H       -6.9020     2.6160     0.6280 H     1 <1>   0.0800 
 51 H       -6.4110     1.3650    -2.0060 H     1 <1>   0.0800 
 52 H       -6.3710     0.4080    -0.5400 H     1 <1>   0.0800 
 53 H       -5.0280     0.3590    -1.6550 H     1 <1>   0.0800 
@<TRIPOS>BOND
  1   1   2  2   
  2   2   3  am  
  3   2   4  1   
  4   3   5  1   
  5   3   6  1   
  6   4   7  ar  
  7   4   8  ar  
  8   5   9  1   
  9   5  28  1   
 10   5  29  1   
 11   6  10  1   
 12   6  30  1   
 13   6  31  1   
 14   7  11  1   
 15   7  12  ar  
 16   8  13  ar  
 17   8  14  1   
 18   9  15  1   
 19   9  32  1   
 20   9  33  1   
 21  10  15  1   
 22  10  34  1   
 23  10  35  1   
 24  11  16  ar  
 25  11  17  ar  
 26  12  18  ar  
 27  12  36  1   
 28  13  18  ar  
 29  14  37  1   
 30  14  38  1   
 31  14  39  1   
 32  15  19  1   
 33  15  20  1   
 34  16  21  ar  
 35  16  40  1   
 36  17  22  ar  
 37  17  41  1   
 38  18  42  1   
 39  19  23  1   
 40  20  24  2   
 41  20  43  1   
 42  21  25  ar  
 43  21  44  1   
 44  22  25  ar  
 45  22  45  1   
 46  23  26  1   
 47  23  46  1   
 48  23  47  1   
 49  24  26  1   
 50  24  27  1   
 51  25  48  1   
 52  26  49  1   
 53  26  50  1   
 54  27  51  1   
 55  27  52  1   
 56  27  53  1   
@<TRIPOS>SUBSTRUCTURE
  1 ****   6 GROUP 4 **** **** 0

# MOE 2024.06 (io_trps.svl 2023.06)
