@<TRIPOS>MOLECULE
NONAME
48 51 1 0 0 
SMALL
USER_CHARGES


@<TRIPOS>ATOM
  1 O        3.6580     2.4440     1.5140 O.co2 1 <1>  -0.9000 
  2 C        3.6490     1.2650     1.1400 C.2   1 <1>   0.9060 
  3 O        4.2420     0.4050     1.8180 O.co2 1 <1>  -0.9000 
  4 C        2.8980     0.8390    -0.1450 C.3   1 <1>  -0.1060 
  5 C        3.5210    -0.4780    -0.6720 C.3   1 <1>   0.4230 
  6 C        3.0080     1.9150    -1.2780 C.3   1 <1>  -0.1600 
  7 C        1.4010     0.6190     0.1850 C.3   1 <1>  -0.1600 
  8 N        3.3160    -1.5860     0.3300 N.4   1 <1>  -0.9590 
  9 C        5.0150    -0.2770    -1.0980 C.3   1 <1>   0.2090 
 10 C        4.2350     1.7580    -2.1970 C.3   1 <1>   0.2090 
 11 C        1.2060    -0.5650     1.1420 C.3   1 <1>  -0.1600 
 12 C        1.8790    -1.8360     0.6250 C.3   1 <1>   0.3430 
 13 C        4.0460    -2.8540     0.0520 C.3   1 <1>   0.2630 
 14 N        5.3550     1.1670    -1.4050 N.pl3 1 <1>  -0.8380 
 15 C        6.1420     1.9400    -0.5900 C.ar  1 <1>   0.1000 
 16 C        6.1440     3.3690    -0.6340 C.ar  1 <1>   0.0000 
 17 C        6.7590     1.3880     0.5370 C.ar  1 <1>  -0.1500 
 18 C        6.0690     4.0550     0.5920 C.ar  1 <1>   0.3610 
 19 C        6.2320     4.1440    -1.8050 C.ar  1 <1>  -0.1500 
 20 C        6.7510     2.0840     1.7180 C.ar  1 <1>   0.2110 
 21 N        6.2990     3.3500     1.7500 N.ar  1 <1>  -0.1790 
 22 C        5.8630     5.4410     0.6080 C.ar  1 <1>  -0.1500 
 23 C        6.0830     5.5070    -1.7740 C.ar  1 <1>  -0.1500 
 24 C        5.8670     6.1610    -0.5610 C.ar  1 <1>  -0.1500 
 25 H        2.9820    -0.7430    -1.5650 H     1 <1>   0.0800 
 26 H        3.0300     2.8980    -0.8410 H     1 <1>   0.0800 
 27 H        2.1380     1.8920    -1.9090 H     1 <1>   0.0800 
 28 H        1.0000     1.5130     0.6350 H     1 <1>   0.0800 
 29 H        0.8450     0.4280    -0.7180 H     1 <1>   0.0800 
 30 H        3.7150    -1.1350     1.1970 H     1 <1>   0.4500 
 31 H        5.2090    -0.8640    -1.9780 H     1 <1>   0.0800 
 32 H        5.6380    -0.6560    -0.3160 H     1 <1>   0.0800 
 33 H        4.4800     2.7020    -2.6400 H     1 <1>   0.0800 
 34 H        3.9980     1.0940    -3.0110 H     1 <1>   0.0800 
 35 H        0.1540    -0.7490     1.2710 H     1 <1>   0.0800 
 36 H        1.6050    -0.3230     2.1130 H     1 <1>   0.0800 
 37 H        1.3780    -2.1690    -0.2690 H     1 <1>   0.0800 
 38 H        1.7900    -2.6080     1.3730 H     1 <1>   0.0800 
 39 H        3.7020    -3.2910    -0.8700 H     1 <1>   0.0800 
 40 H        3.8800    -3.5570     0.8530 H     1 <1>   0.0800 
 41 H        5.1050    -2.6710    -0.0190 H     1 <1>   0.0800 
 42 H        7.1310     0.3830     0.5310 H     1 <1>   0.1500 
 43 H        6.4120     3.6400    -2.7400 H     1 <1>   0.1500 
 44 H        7.0470     1.6100     2.6390 H     1 <1>   0.1500 
 45 H        6.0100     3.7690     2.6320 H     1 <1>   0.4570 
 46 H        5.7170     5.9460     1.5450 H     1 <1>   0.1500 
 47 H        6.1270     6.0840    -2.6830 H     1 <1>   0.1500 
 48 H        5.7180     7.2280    -0.5560 H     1 <1>   0.1500 
@<TRIPOS>BOND
  1   1   2  ar  
  2   2   3  ar  
  3   2   4  1   
  4   4   5  1   
  5   4   6  1   
  6   4   7  1   
  7   5   8  1   
  8   5   9  1   
  9   5  25  1   
 10   6  10  1   
 11   6  26  1   
 12   6  27  1   
 13   7  11  1   
 14   7  28  1   
 15   7  29  1   
 16   8  12  1   
 17   8  13  1   
 18   8  30  1   
 19   9  14  1   
 20   9  31  1   
 21   9  32  1   
 22  10  14  1   
 23  10  33  1   
 24  10  34  1   
 25  11  12  1   
 26  11  35  1   
 27  11  36  1   
 28  12  37  1   
 29  12  38  1   
 30  13  39  1   
 31  13  40  1   
 32  13  41  1   
 33  14  15  1   
 34  15  16  ar  
 35  15  17  ar  
 36  16  18  ar  
 37  16  19  ar  
 38  17  20  ar  
 39  17  42  1   
 40  18  21  ar  
 41  18  22  ar  
 42  19  23  ar  
 43  19  43  1   
 44  20  21  ar  
 45  20  44  1   
 46  21  45  1   
 47  22  24  ar  
 48  22  46  1   
 49  23  24  ar  
 50  23  47  1   
 51  24  48  1   
@<TRIPOS>SUBSTRUCTURE
  1 ****   2 GROUP 4 **** **** 0

# MOE 2024.06 (io_trps.svl 2023.06)
