@<TRIPOS>MOLECULE
NONAME
50 53 1 0 0 
SMALL
USER_CHARGES


@<TRIPOS>ATOM
  1 O       -0.0790     2.7730    -1.2410 O.2   1 <1>  -0.5700 
  2 C        0.9450     2.2660    -0.8440 C.2   1 <1>   0.7150 
  3 N        1.0130     0.9110    -0.8460 N.am  1 <1>  -0.7300 
  4 C        2.0400     3.0460    -0.3470 C.2   1 <1>  -0.2370 
  5 C        1.9660     0.1560     0.0090 C.3   1 <1>   0.1400 
  6 N        3.3390     2.6650    -0.4220 N.pl3 1 <1>   0.3140 
  7 C        2.0550     4.2440     0.2890 C.2   1 <1>  -0.1500 
  8 C        3.3780     0.1480    -0.6060 C.3   1 <1>   0.2000 
  9 N        4.1640     3.5450     0.1530 N.2   1 <1>  -0.7070 
 10 C        3.8610     1.4980    -1.1680 C.3   1 <1>   0.0960 
 11 C        3.3850     4.5210     0.5940 C.2   1 <1>   0.2030 
 12 O        3.3750    -0.7600    -1.6540 O.3   1 <1>  -0.6800 
 13 C        3.8470     5.7140     1.2870 C.2   1 <1>   0.7160 
 14 O        3.0820     6.5870     1.6580 O.2   1 <1>  -0.5700 
 15 N        5.1790     5.8890     1.5140 N.am  1 <1>  -0.7300 
 16 C        5.8050     7.0050     2.2510 C.3   1 <1>   0.3200 
 17 C        6.7440     7.7760     1.3410 C.2   1 <1>   0.0060 
 18 N        8.0230     7.8080     1.5040 N.2   1 <1>  -0.3380 
 19 N        6.3660     8.5100     0.2860 N.pl3 1 <1>   0.0480 
 20 N        8.5240     8.5780     0.5380 N.2   1 <1>  -0.3380 
 21 C        7.5280     8.9800    -0.1700 C.2   1 <1>   0.0360 
 22 C        5.0260     8.7750    -0.2830 C.3   1 <1>   0.0960 
 23 C        4.2950     9.8580     0.5150 C.3   1 <1>  -0.0170 
 24 C        3.0120    10.2380    -0.2020 C.ar  1 <1>  -0.1430 
 25 C        1.8580     9.4970    -0.0010 C.ar  1 <1>  -0.1500 
 26 C        2.9840    11.3200    -1.0680 C.ar  1 <1>  -0.1500 
 27 C        0.6890     9.8310    -0.6630 C.ar  1 <1>  -0.1500 
 28 C        1.8150    11.6570    -1.7290 C.ar  1 <1>  -0.1500 
 29 C        0.6670    10.9110    -1.5270 C.ar  1 <1>  -0.1500 
 30 H        0.1350     0.4470    -1.0910 H     1 <1>   0.3700 
 31 H        1.6210    -0.8550     0.1480 H     1 <1>   0.0800 
 32 H        2.0060     0.6210     0.9800 H     1 <1>   0.0800 
 33 H        1.2140     4.8730     0.5290 H     1 <1>   0.1500 
 34 H        4.0850    -0.2130     0.1220 H     1 <1>   0.0800 
 35 H        4.9350     1.5310    -1.1460 H     1 <1>   0.0800 
 36 H        3.5390     1.6060    -2.1870 H     1 <1>   0.0800 
 37 H        2.6280    -0.5680    -2.2580 H     1 <1>   0.4000 
 38 H        5.8080     5.1660     1.1520 H     1 <1>   0.3700 
 39 H        6.3650     6.6050     3.0790 H     1 <1>   0.0800 
 40 H        5.0560     7.6660     2.6480 H     1 <1>   0.0800 
 41 H        7.6080     9.6200    -1.0290 H     1 <1>   0.1500 
 42 H        4.4520     7.8680    -0.2890 H     1 <1>   0.0800 
 43 H        5.1450     9.0990    -1.3010 H     1 <1>   0.0800 
 44 H        4.9210    10.7270     0.6160 H     1 <1>   0.0800 
 45 H        4.0580     9.4940     1.4990 H     1 <1>   0.0800 
 46 H        1.8600     8.6550     0.6700 H     1 <1>   0.1500 
 47 H        3.8690    11.9090    -1.2340 H     1 <1>   0.1500 
 48 H       -0.2020     9.2490    -0.5030 H     1 <1>   0.1500 
 49 H        1.7980    12.4980    -2.3990 H     1 <1>   0.1500 
 50 H       -0.2430    11.1700    -2.0410 H     1 <1>   0.1500 
@<TRIPOS>BOND
  1   1   2  2   
  2   2   3  am  
  3   2   4  1   
  4   3   5  1   
  5   3  30  1   
  6   4   6  1   
  7   4   7  2   
  8   5   8  1   
  9   5  31  1   
 10   5  32  1   
 11   6   9  1   
 12   6  10  1   
 13   7  11  1   
 14   7  33  1   
 15   8  10  1   
 16   8  12  1   
 17   8  34  1   
 18   9  11  2   
 19  10  35  1   
 20  10  36  1   
 21  11  13  1   
 22  12  37  1   
 23  13  14  2   
 24  13  15  am  
 25  15  16  1   
 26  15  38  1   
 27  16  17  1   
 28  16  39  1   
 29  16  40  1   
 30  17  18  2   
 31  17  19  1   
 32  18  20  1   
 33  19  21  1   
 34  19  22  1   
 35  20  21  2   
 36  21  41  1   
 37  22  23  1   
 38  22  42  1   
 39  22  43  1   
 40  23  24  1   
 41  23  44  1   
 42  23  45  1   
 43  24  25  ar  
 44  24  26  ar  
 45  25  27  ar  
 46  25  46  1   
 47  26  28  ar  
 48  26  47  1   
 49  27  29  ar  
 50  27  48  1   
 51  28  29  ar  
 52  28  49  1   
 53  29  50  1   
@<TRIPOS>SUBSTRUCTURE
  1 ****  13 GROUP 4 **** **** 0

# MOE 2024.06 (io_trps.svl 2023.06)
