@<TRIPOS>MOLECULE
NONAME
53 57 1 0 0 
SMALL
USER_CHARGES


@<TRIPOS>ATOM
  1 O       -4.2020    -0.5300     1.9130 O.2   1 <1>  -0.5700 
  2 C       -3.2600    -1.0190     1.3320 C.2   1 <1>   0.6900 
  3 N       -2.9440    -2.3360     1.3180 N.am  1 <1>  -0.6600 
  4 N       -2.3990    -0.3130     0.5690 N.am  1 <1>  -0.4900 
  5 C       -1.7670    -2.5530     0.4270 C.3   1 <1>   0.2010 
  6 C       -3.6930    -3.4600     1.9540 C.3   1 <1>   0.2010 
  7 C       -1.4830    -1.1220    -0.0070 C.2   1 <1>   0.5690 
  8 C       -4.2740    -4.4400     0.9320 C.2   1 <1>   0.5690 
  9 O       -0.5980    -0.7630    -0.7390 O.2   1 <1>  -0.5700 
 10 O       -3.5600    -5.3610     0.6050 O.2   1 <1>  -0.5700 
 11 N       -5.5350    -4.2850     0.4030 N.am  1 <1>  -0.6600 
 12 C       -6.4520    -3.1240     0.6710 C.3   1 <1>   0.1400 
 13 C       -6.1300    -5.3340    -0.4760 C.3   1 <1>   0.1400 
 14 C       -6.9580    -2.4810    -0.6370 C.3   1 <1>   0.1430 
 15 C       -6.5910    -4.7180    -1.8000 C.3   1 <1>  -0.1600 
 16 C       -7.9760    -1.4090    -0.2910 C.ar  1 <1>   0.1670 
 17 C       -7.5690    -3.5560    -1.5620 C.3   1 <1>  -0.1600 
 18 C       -5.8370    -1.6750    -1.3510 C.3   1 <1>  -0.1600 
 19 N       -9.1760    -1.6310     0.1910 N.ar  1 <1>  -0.6200 
 20 C       -7.4960    -0.1600    -0.5290 C.ar  1 <1>  -0.1440 
 21 C       -6.0870    -0.1830    -1.0630 C.3   1 <1>  -0.0170 
 22 C       -9.9230    -0.5440     0.4280 C.ar  1 <1>   0.6200 
 23 C       -8.3180     0.9020    -0.2550 C.ar  1 <1>   0.1600 
 24 N       -9.5300     0.7210     0.2180 N.ar  1 <1>  -0.6200 
 25 C      -11.2660    -0.7550     0.9540 C.ar  1 <1>   0.0000 
 26 C      -11.5860    -1.8790     1.7220 C.ar  1 <1>  -0.1500 
 27 C      -12.2980     0.1580     0.7160 C.ar  1 <1>  -0.1500 
 28 C      -12.8600    -2.0820     2.2210 C.ar  1 <1>  -0.1500 
 29 C      -13.5740    -0.0380     1.2110 C.ar  1 <1>  -0.1500 
 30 C      -13.8590    -1.1610     1.9660 C.ar  1 <1>  -0.1500 
 31 H       -2.4250     0.6950     0.4790 H     1 <1>   0.3700 
 32 H       -2.0230    -3.1690    -0.4170 H     1 <1>   0.0800 
 33 H       -0.9370    -2.9650     0.9720 H     1 <1>   0.0800 
 34 H       -4.4750    -3.0710     2.5790 H     1 <1>   0.0800 
 35 H       -3.0180    -4.0030     2.5900 H     1 <1>   0.0800 
 36 H       -5.9680    -2.3680     1.2600 H     1 <1>   0.0800 
 37 H       -7.2990    -3.4810     1.2320 H     1 <1>   0.0800 
 38 H       -6.9710    -5.7760     0.0320 H     1 <1>   0.0800 
 39 H       -5.4190    -6.1170    -0.6760 H     1 <1>   0.0800 
 40 H       -7.0730    -5.4770    -2.3900 H     1 <1>   0.0800 
 41 H       -5.7290    -4.3790    -2.3460 H     1 <1>   0.0800 
 42 H       -7.8600    -3.1170    -2.5000 H     1 <1>   0.0800 
 43 H       -8.4600    -3.9470    -1.1010 H     1 <1>   0.0800 
 44 H       -5.9020    -1.8250    -2.4140 H     1 <1>   0.0800 
 45 H       -4.8560    -1.9780    -1.0330 H     1 <1>   0.0800 
 46 H       -5.9950     0.4110    -1.9560 H     1 <1>   0.0800 
 47 H       -5.4130     0.1850    -0.3120 H     1 <1>   0.0800 
 48 H       -7.9800     1.9100    -0.4240 H     1 <1>   0.1500 
 49 H      -10.8220    -2.6060     1.9320 H     1 <1>   0.1500 
 50 H      -12.0960     1.0380     0.1300 H     1 <1>   0.1500 
 51 H      -13.0740    -2.9580     2.8080 H     1 <1>   0.1500 
 52 H      -14.3460     0.6840     1.0100 H     1 <1>   0.1500 
 53 H      -14.8510    -1.3160     2.3540 H     1 <1>   0.1500 
@<TRIPOS>BOND
  1   1   2  2   
  2   2   3  am  
  3   2   4  am  
  4   3   5  1   
  5   3   6  1   
  6   4   7  am  
  7   4  31  1   
  8   5   7  1   
  9   5  32  1   
 10   5  33  1   
 11   6   8  1   
 12   6  34  1   
 13   6  35  1   
 14   7   9  2   
 15   8  10  2   
 16   8  11  am  
 17  11  12  1   
 18  11  13  1   
 19  12  14  1   
 20  12  36  1   
 21  12  37  1   
 22  13  15  1   
 23  13  38  1   
 24  13  39  1   
 25  14  16  1   
 26  14  17  1   
 27  14  18  1   
 28  15  17  1   
 29  15  40  1   
 30  15  41  1   
 31  16  19  ar  
 32  16  20  ar  
 33  17  42  1   
 34  17  43  1   
 35  18  21  1   
 36  18  44  1   
 37  18  45  1   
 38  19  22  ar  
 39  20  21  1   
 40  20  23  ar  
 41  21  46  1   
 42  21  47  1   
 43  22  24  ar  
 44  22  25  1   
 45  23  24  ar  
 46  23  48  1   
 47  25  26  ar  
 48  25  27  ar  
 49  26  28  ar  
 50  26  49  1   
 51  27  29  ar  
 52  27  50  1   
 53  28  30  ar  
 54  28  51  1   
 55  29  30  ar  
 56  29  52  1   
 57  30  53  1   
@<TRIPOS>SUBSTRUCTURE
  1 ****  14 GROUP 4 **** **** 0

# MOE 2024.06 (io_trps.svl 2023.06)
