@<TRIPOS>MOLECULE
NONAME
44 45 1 0 0 
SMALL
USER_CHARGES


@<TRIPOS>ATOM
  1 S       -0.6200     5.1030    -0.9640 S.3   1 <1>  -0.3320 
  2 C        0.4420     3.9710    -0.0770 C.ar  1 <1>   0.7220 
  3 C       -2.3210     4.3990    -0.7830 C.3   1 <1>  -0.0100 
  4 N        1.7160     4.3000    -0.1210 N.ar  1 <1>  -0.6200 
  5 N       -0.1510     2.9610     0.5290 N.ar  1 <1>  -0.6200 
  6 C        2.5280     3.4950     0.5340 C.ar  1 <1>   0.4100 
  7 C        0.6750     2.1740     1.1880 C.ar  1 <1>   0.1600 
  8 N        3.8810     3.8050     0.5130 N.pl3 1 <1>  -0.8380 
  9 C        2.0250     2.4030     1.2250 C.ar  1 <1>  -0.1500 
 10 C        4.3650     5.0930    -0.0790 C.3   1 <1>   0.2090 
 11 C        4.9090     2.7200     0.5710 C.3   1 <1>   0.1290 
 12 C        3.8060     6.3060     0.6980 C.3   1 <1>   0.3430 
 13 N        3.4550     7.4900    -0.1700 N.4   1 <1>  -0.9590 
 14 C        3.1880     8.7270     0.6210 C.3   1 <1>   0.4230 
 15 C        2.2670     7.1350    -1.0150 C.3   1 <1>   0.3430 
 16 C        2.8720     9.8900    -0.3310 C.3   1 <1>  -0.1600 
 17 C        4.4020     9.0910     1.4770 C.3   1 <1>  -0.2400 
 18 C        1.9470     8.2600    -1.9970 C.3   1 <1>  -0.1600 
 19 C        1.6970     9.5790    -1.2630 C.3   1 <1>  -0.1600 
 20 H       -3.0030     5.0410    -1.3100 H     1 <1>   0.0800 
 21 H       -2.5560     4.3640     0.2660 H     1 <1>   0.0800 
 22 H       -2.3170     3.4100    -1.2060 H     1 <1>   0.0800 
 23 H        0.2540     1.3310     1.7110 H     1 <1>   0.1500 
 24 H        2.6730     1.7560     1.7810 H     1 <1>   0.1500 
 25 H        4.0650     5.1210    -1.1110 H     1 <1>   0.0800 
 26 H        5.4400     5.1290    -0.0430 H     1 <1>   0.0800 
 27 H        4.4630     1.7580     0.3870 H     1 <1>   0.0800 
 28 H        5.3740     2.7110     1.5420 H     1 <1>   0.0800 
 29 H        5.6660     2.8760    -0.1790 H     1 <1>   0.0800 
 30 H        4.5410     6.5840     1.4300 H     1 <1>   0.0800 
 31 H        2.9210     5.9910     1.2260 H     1 <1>   0.0800 
 32 H        4.2360     7.7010    -0.7990 H     1 <1>   0.4500 
 33 H        2.3360     8.5640     1.2630 H     1 <1>   0.0800 
 34 H        1.4120     6.9600    -0.3810 H     1 <1>   0.0800 
 35 H        2.4530     6.2290    -1.5670 H     1 <1>   0.0800 
 36 H        3.7440    10.1260    -0.9170 H     1 <1>   0.0800 
 37 H        2.6290    10.7650     0.2470 H     1 <1>   0.0800 
 38 H        5.2960     9.1420     0.8820 H     1 <1>   0.0800 
 39 H        4.5390     8.3960     2.2840 H     1 <1>   0.0800 
 40 H        4.2480    10.0570     1.9270 H     1 <1>   0.0800 
 41 H        1.0680     7.9910    -2.5580 H     1 <1>   0.0800 
 42 H        2.7570     8.3690    -2.6970 H     1 <1>   0.0800 
 43 H        1.5680    10.3770    -1.9750 H     1 <1>   0.0800 
 44 H        0.7890     9.5030    -0.6870 H     1 <1>   0.0800 
@<TRIPOS>BOND
  1   1   2  1   
  2   1   3  1   
  3   2   4  ar  
  4   2   5  ar  
  5   3  20  1   
  6   3  21  1   
  7   3  22  1   
  8   4   6  ar  
  9   5   7  ar  
 10   6   8  1   
 11   6   9  ar  
 12   7   9  ar  
 13   7  23  1   
 14   8  10  1   
 15   8  11  1   
 16   9  24  1   
 17  10  12  1   
 18  10  25  1   
 19  10  26  1   
 20  11  27  1   
 21  11  28  1   
 22  11  29  1   
 23  12  13  1   
 24  12  30  1   
 25  12  31  1   
 26  13  14  1   
 27  13  15  1   
 28  13  32  1   
 29  14  16  1   
 30  14  17  1   
 31  14  33  1   
 32  15  18  1   
 33  15  34  1   
 34  15  35  1   
 35  16  19  1   
 36  16  36  1   
 37  16  37  1   
 38  17  38  1   
 39  17  39  1   
 40  17  40  1   
 41  18  19  1   
 42  18  41  1   
 43  18  42  1   
 44  19  43  1   
 45  19  44  1   
@<TRIPOS>SUBSTRUCTURE
  1 ****   4 GROUP 4 **** **** 0

# MOE 2024.06 (io_trps.svl 2023.06)
