@<TRIPOS>MOLECULE
NONAME
42 44 1 0 0 
SMALL
USER_CHARGES


@<TRIPOS>ATOM
  1 S        0.7210    -0.8850     1.2900 S.3   1 <1>  -0.0800 
  2 C       -0.3710    -1.7390     0.2340 C.2   1 <1>  -0.1400 
  3 C        1.4060    -0.0910    -0.1090 C.2   1 <1>   0.2280 
  4 C       -0.1290    -1.3640    -1.0330 C.2   1 <1>   0.0460 
  5 C       -1.3510    -2.6970     0.8670 C.3   1 <1>   0.5230 
  6 N        0.8720    -0.4290    -1.2130 N.2   1 <1>  -0.5650 
  7 C       -0.8240    -1.8380    -2.2930 C.3   1 <1>  -0.0590 
  8 N       -2.6770    -2.0330     0.9480 N.4   1 <1>  -0.9590 
  9 C       -2.6800    -0.7710     1.7480 C.3   1 <1>   0.3430 
 10 C       -3.7930    -2.9420     1.3110 C.3   1 <1>   0.3430 
 11 C       -4.0810    -0.1450     1.7840 C.3   1 <1>  -0.1600 
 12 C       -5.1370    -2.2690     1.0040 C.3   1 <1>  -0.1600 
 13 C       -5.0300    -0.7590     0.7490 C.3   1 <1>   0.4180 
 14 O       -4.4560    -0.6240    -0.5340 O.3   1 <1>  -0.5600 
 15 C       -6.4130    -0.1230     0.7950 C.2   1 <1>  -0.2880 
 16 C       -4.6430     0.6020    -1.1950 C.3   1 <1>   0.1200 
 17 C       -6.9360     0.5950    -0.2000 C.2   1 <1>  -0.2760 
 18 C       -6.1330     0.8510    -1.4620 C.3   1 <1>  -0.0220 
 19 C       -8.3300     1.1990    -0.1840 C.3   1 <1>  -0.1020 
 20 H        2.2080     0.6080     0.0600 H     1 <1>   0.1500 
 21 H       -1.0070    -2.9840     1.8480 H     1 <1>   0.0800 
 22 H       -1.4230    -3.5800     0.2540 H     1 <1>   0.0800 
 23 H       -1.5820    -2.5650    -2.0740 H     1 <1>   0.0800 
 24 H       -0.1020    -2.2770    -2.9580 H     1 <1>   0.0800 
 25 H       -1.2780    -0.9990    -2.7910 H     1 <1>   0.0800 
 26 H       -2.9120    -1.7030    -0.0090 H     1 <1>   0.4500 
 27 H       -2.0010    -0.0660     1.2940 H     1 <1>   0.0800 
 28 H       -2.3400    -0.9620     2.7530 H     1 <1>   0.0800 
 29 H       -3.7370    -3.1760     2.3620 H     1 <1>   0.0800 
 30 H       -3.7240    -3.8620     0.7540 H     1 <1>   0.0800 
 31 H       -4.0110     0.9180     1.6440 H     1 <1>   0.0800 
 32 H       -4.4960    -0.2940     2.7650 H     1 <1>   0.0800 
 33 H       -5.7900    -2.4460     1.8390 H     1 <1>   0.0800 
 34 H       -5.5960    -2.7350     0.1510 H     1 <1>   0.0800 
 35 H       -6.9410    -0.3140     1.7120 H     1 <1>   0.1500 
 36 H       -4.1010     0.5670    -2.1240 H     1 <1>   0.0800 
 37 H       -4.2370     1.3900    -0.5860 H     1 <1>   0.0800 
 38 H       -6.4790     0.2090    -2.2530 H     1 <1>   0.0800 
 39 H       -6.2570     1.8710    -1.7810 H     1 <1>   0.0800 
 40 H       -8.9100     0.8130    -1.0030 H     1 <1>   0.0800 
 41 H       -8.2740     2.2700    -0.2730 H     1 <1>   0.0800 
 42 H       -8.8360     0.9600     0.7340 H     1 <1>   0.0800 
@<TRIPOS>BOND
  1   1   2  1   
  2   1   3  1   
  3   2   4  2   
  4   2   5  1   
  5   3   6  2   
  6   3  20  1   
  7   4   6  1   
  8   4   7  1   
  9   5   8  1   
 10   5  21  1   
 11   5  22  1   
 12   7  23  1   
 13   7  24  1   
 14   7  25  1   
 15   8   9  1   
 16   8  10  1   
 17   8  26  1   
 18   9  11  1   
 19   9  27  1   
 20   9  28  1   
 21  10  12  1   
 22  10  29  1   
 23  10  30  1   
 24  11  13  1   
 25  11  31  1   
 26  11  32  1   
 27  12  13  1   
 28  12  33  1   
 29  12  34  1   
 30  13  14  1   
 31  13  15  1   
 32  14  16  1   
 33  15  17  2   
 34  15  35  1   
 35  16  18  1   
 36  16  36  1   
 37  16  37  1   
 38  17  18  1   
 39  17  19  1   
 40  18  38  1   
 41  18  39  1   
 42  19  40  1   
 43  19  41  1   
 44  19  42  1   
@<TRIPOS>SUBSTRUCTURE
  1 ****  14 GROUP 4 **** **** 0

# MOE 2024.06 (io_trps.svl 2023.06)
