@<TRIPOS>MOLECULE
NONAME
51 53 1 0 0 
SMALL
USER_CHARGES


@<TRIPOS>ATOM
  1 S        1.4380     1.0670    -1.7610 S.o2  1 <1>   1.3330 
  2 O        1.4440    -0.3440    -2.0770 O.2   1 <1>  -0.6500 
  3 O        1.2760     2.0340    -2.8230 O.2   1 <1>  -0.6500 
  4 N        0.1990     1.3430    -0.6330 N.am  1 <1>  -0.8490 
  5 C        2.9410     1.4250    -0.8500 C.3   1 <1>  -0.0550 
  6 C       -0.1050     2.7680    -0.4460 C.3   1 <1>   0.1160 
  7 C       -1.0270     0.6190    -0.9790 C.3   1 <1>   0.1160 
  8 C        3.2890     0.3820     0.2370 C.3   1 <1>  -0.0800 
  9 C        4.6290     0.5860     0.9310 C.3   1 <1>   0.2890 
 10 C        2.3070     0.3320     1.4130 C.3   1 <1>   0.1200 
 11 N        4.8330     2.0160     1.2500 N.pl3 1 <1>  -0.8190 
 12 C        4.3940    -0.1790     2.2270 C.3   1 <1>   0.1200 
 13 O        3.0560     0.0420     2.5570 O.3   1 <1>  -0.5600 
 14 C        5.3880     2.9900     0.5080 C.2   1 <1>   0.4860 
 15 N        5.0210     4.2060     0.8580 N.2   1 <1>  -0.6210 
 16 C        6.2470     2.7340    -0.5760 C.2   1 <1>  -0.1360 
 17 C        5.4700     5.2380     0.1380 C.2   1 <1>   0.2710 
 18 C        6.6980     3.7770    -1.3110 C.2   1 <1>  -0.0380 
 19 N        6.2850     5.0040    -0.9320 N.pl3 1 <1>  -0.6000 
 20 C        5.0960     6.5740     0.4840 C.2   1 <1>   0.0140 
 21 C        7.6170     3.6670    -2.5080 C.3   1 <1>  -0.1020 
 22 C        5.4770     7.7190    -0.2780 C.2   1 <1>   0.5410 
 23 C        4.3090     6.8240     1.6290 C.2   1 <1>  -0.1500 
 24 O        6.1780     7.6590    -1.3140 O.2   1 <1>  -0.5700 
 25 C        5.0580     9.0030     0.1300 C.2   1 <1>  -0.1360 
 26 C        3.9150     8.0840     2.0060 C.2   1 <1>  -0.1500 
 27 C        4.2940     9.1920     1.2470 C.2   1 <1>  -0.1500 
 28 H        3.7520     1.4600    -1.5500 H     1 <1>   0.0800 
 29 H        2.8610     2.4000    -0.4110 H     1 <1>   0.0800 
 30 H       -0.8380     2.8900     0.3330 H     1 <1>   0.0800 
 31 H       -0.4880     3.1950    -1.3580 H     1 <1>   0.0800 
 32 H        0.7830     3.3050    -0.1600 H     1 <1>   0.0800 
 33 H       -1.7890     0.7990    -0.2400 H     1 <1>   0.0800 
 34 H       -0.8330    -0.4410    -1.0100 H     1 <1>   0.0800 
 35 H       -1.3870     0.9320    -1.9450 H     1 <1>   0.0800 
 36 H        3.2990    -0.5940    -0.2170 H     1 <1>   0.0800 
 37 H        5.4590     0.1890     0.3750 H     1 <1>   0.0800 
 38 H        1.5560    -0.4290     1.2800 H     1 <1>   0.0800 
 39 H        1.8320     1.2840     1.5740 H     1 <1>   0.0800 
 40 H        4.2650     2.3430     2.0370 H     1 <1>   0.4000 
 41 H        5.0270     0.1570     3.0300 H     1 <1>   0.0800 
 42 H        4.5230    -1.2370     2.0750 H     1 <1>   0.0800 
 43 H        6.5290     1.7280    -0.8020 H     1 <1>   0.1500 
 44 H        6.5810     5.8450    -1.4560 H     1 <1>   0.4000 
 45 H        8.5220     4.2160    -2.3240 H     1 <1>   0.0800 
 46 H        7.1320     4.0740    -3.3780 H     1 <1>   0.0800 
 47 H        7.8680     2.6400    -2.7010 H     1 <1>   0.0800 
 48 H        4.0040     5.9910     2.2390 H     1 <1>   0.1500 
 49 H        5.3690     9.8310    -0.4790 H     1 <1>   0.1500 
 50 H        3.3150     8.2300     2.8890 H     1 <1>   0.1500 
 51 H        3.9800    10.1760     1.5510 H     1 <1>   0.1500 
@<TRIPOS>BOND
  1   1   2  2   
  2   1   3  2   
  3   1   4  am  
  4   1   5  1   
  5   4   6  1   
  6   4   7  1   
  7   5   8  1   
  8   5  28  1   
  9   5  29  1   
 10   6  30  1   
 11   6  31  1   
 12   6  32  1   
 13   7  33  1   
 14   7  34  1   
 15   7  35  1   
 16   8   9  1   
 17   8  10  1   
 18   8  36  1   
 19   9  11  1   
 20   9  12  1   
 21   9  37  1   
 22  10  13  1   
 23  10  38  1   
 24  10  39  1   
 25  11  14  1   
 26  11  40  1   
 27  12  13  1   
 28  12  41  1   
 29  12  42  1   
 30  14  15  2   
 31  14  16  1   
 32  15  17  1   
 33  16  18  2   
 34  16  43  1   
 35  17  19  1   
 36  17  20  2   
 37  18  19  1   
 38  18  21  1   
 39  19  44  1   
 40  20  22  1   
 41  20  23  1   
 42  21  45  1   
 43  21  46  1   
 44  21  47  1   
 45  22  24  2   
 46  22  25  1   
 47  23  26  2   
 48  23  48  1   
 49  25  27  2   
 50  25  49  1   
 51  26  27  1   
 52  26  50  1   
 53  27  51  1   
@<TRIPOS>SUBSTRUCTURE
  1 ****  15 GROUP 4 **** **** 0

# MOE 2024.06 (io_trps.svl 2023.06)
