@<TRIPOS>MOLECULE
NONAME
51 54 1 0 0 
SMALL
USER_CHARGES


@<TRIPOS>ATOM
  1 O       -0.0510     0.8710    -1.4540 O.2   1 <1>  -0.5700 
  2 C        0.2860     1.7840    -0.7230 C.2   1 <1>   0.5440 
  3 N       -0.5110     2.1150     0.3540 N.am  1 <1>  -0.6600 
  4 C        1.5080     2.5090    -1.0180 C.ar  1 <1>   0.0860 
  5 C       -1.6920     1.2830     0.7280 C.3   1 <1>   0.1400 
  6 C       -0.4380     3.4440     1.0330 C.3   1 <1>   0.1400 
  7 C        2.4790     2.7320    -0.0430 C.ar  1 <1>  -0.1500 
  8 C        1.7530     3.0050    -2.2980 C.ar  1 <1>  -0.1500 
  9 C       -3.0090     1.9830     0.3050 C.3   1 <1>   0.0000 
 10 C       -1.8180     3.9010     1.5370 C.3   1 <1>  -0.1600 
 11 C        3.6360     3.4340    -0.3280 C.ar  1 <1>   0.0820 
 12 C        2.9040     3.7130    -2.5930 C.ar  1 <1>  -0.1500 
 13 C       -4.2320     1.4020     1.0460 C.3   1 <1>   0.2000 
 14 C       -2.9260     3.5240     0.5410 C.3   1 <1>  -0.1600 
 15 C       -3.3560     1.6980    -1.1710 C.3   1 <1>  -0.1600 
 16 O        4.5330     3.6240     0.6710 O.3   1 <1>  -0.1650 
 17 C        3.8480     3.9350    -1.6060 C.ar  1 <1>  -0.1500 
 18 O       -4.1280     0.0250     1.1430 O.3   1 <1>  -0.6800 
 19 C       -5.4310     1.7000     0.1450 C.3   1 <1>  -0.1600 
 20 C       -4.8810     1.8130    -1.2840 C.3   1 <1>  -0.1600 
 21 C        5.8690     3.5570     0.4470 C.ar  1 <1>   0.0820 
 22 C        6.6940     4.4350     1.1320 C.ar  1 <1>  -0.1500 
 23 C        6.4220     2.6300    -0.4300 C.ar  1 <1>  -0.1500 
 24 C        8.0630     4.4010     0.9340 C.ar  1 <1>  -0.1500 
 25 C        7.7920     2.5970    -0.6280 C.ar  1 <1>  -0.1500 
 26 C        8.6110     3.4830     0.0530 C.ar  1 <1>  -0.1500 
 27 H       -1.6220     0.3040     0.2870 H     1 <1>   0.0800 
 28 H       -1.6850     1.1450     1.7950 H     1 <1>   0.0800 
 29 H        0.2500     3.3890     1.8590 H     1 <1>   0.0800 
 30 H       -0.0690     4.1740     0.3340 H     1 <1>   0.0800 
 31 H        2.3300     2.3460     0.9490 H     1 <1>   0.1500 
 32 H        1.0210     2.8250    -3.0680 H     1 <1>   0.1500 
 33 H       -2.0180     3.4470     2.4930 H     1 <1>   0.0800 
 34 H       -1.8030     4.9660     1.6860 H     1 <1>   0.0800 
 35 H        3.0660     4.0900    -3.5880 H     1 <1>   0.1500 
 36 H       -4.3450     1.7980     2.0420 H     1 <1>   0.0800 
 37 H       -2.7040     4.0230    -0.3850 H     1 <1>   0.0800 
 38 H       -3.8660     3.9160     0.8870 H     1 <1>   0.0800 
 39 H       -2.8430     2.3530    -1.8540 H     1 <1>   0.0800 
 40 H       -3.0680     0.6910    -1.4190 H     1 <1>   0.0800 
 41 H        4.7400     4.4940    -1.8290 H     1 <1>   0.1500 
 42 H       -4.0850    -0.3510     0.2430 H     1 <1>   0.4000 
 43 H       -6.1980     0.9490     0.2320 H     1 <1>   0.0800 
 44 H       -5.8560     2.6460     0.4310 H     1 <1>   0.0800 
 45 H       -5.2730     1.0350    -1.9160 H     1 <1>   0.0800 
 46 H       -5.1500     2.7680    -1.7030 H     1 <1>   0.0800 
 47 H        6.2610     5.1430     1.8160 H     1 <1>   0.1500 
 48 H        5.7900     1.9340    -0.9520 H     1 <1>   0.1500 
 49 H        8.7020     5.0850     1.4640 H     1 <1>   0.1500 
 50 H        8.2200     1.8820    -1.3080 H     1 <1>   0.1500 
 51 H        9.6760     3.4570    -0.1020 H     1 <1>   0.1500 
@<TRIPOS>BOND
  1   1   2  2   
  2   2   3  am  
  3   2   4  1   
  4   3   5  1   
  5   3   6  1   
  6   4   7  ar  
  7   4   8  ar  
  8   5   9  1   
  9   5  27  1   
 10   5  28  1   
 11   6  10  1   
 12   6  29  1   
 13   6  30  1   
 14   7  11  ar  
 15   7  31  1   
 16   8  12  ar  
 17   8  32  1   
 18   9  13  1   
 19   9  14  1   
 20   9  15  1   
 21  10  14  1   
 22  10  33  1   
 23  10  34  1   
 24  11  16  1   
 25  11  17  ar  
 26  12  17  ar  
 27  12  35  1   
 28  13  18  1   
 29  13  19  1   
 30  13  36  1   
 31  14  37  1   
 32  14  38  1   
 33  15  20  1   
 34  15  39  1   
 35  15  40  1   
 36  16  21  1   
 37  17  41  1   
 38  18  42  1   
 39  19  20  1   
 40  19  43  1   
 41  19  44  1   
 42  20  45  1   
 43  20  46  1   
 44  21  22  ar  
 45  21  23  ar  
 46  22  24  ar  
 47  22  47  1   
 48  23  25  ar  
 49  23  48  1   
 50  24  26  ar  
 51  24  49  1   
 52  25  26  ar  
 53  25  50  1   
 54  26  51  1   
@<TRIPOS>SUBSTRUCTURE
  1 ****   4 GROUP 4 **** **** 0

# MOE 2024.06 (io_trps.svl 2023.06)
