@<TRIPOS>MOLECULE
NONAME
44 45 1 0 0 
SMALL
USER_CHARGES


@<TRIPOS>ATOM
  1 S       -0.0830    -0.3240     0.5430 S.o2  1 <1>   1.3330 
  2 O        0.3520    -1.2170     1.5940 O.2   1 <1>  -0.6500 
  3 O       -0.8440     0.8570     0.8810 O.2   1 <1>  -0.6500 
  4 N       -0.9800    -1.2360    -0.5730 N.am  1 <1>  -0.8490 
  5 C        1.3300     0.1990    -0.4290 C.3   1 <1>  -0.0550 
  6 C       -0.5430    -2.6330    -0.6690 C.3   1 <1>   0.1160 
  7 C       -2.4210    -1.1820    -0.3060 C.3   1 <1>   0.1160 
  8 C        2.2890     1.1380     0.3310 C.3   1 <1>  -0.0800 
  9 C        3.3330     1.7280    -0.6030 C.3   1 <1>   0.2200 
 10 C        3.1530     0.3800     1.3490 C.3   1 <1>   0.1200 
 11 N        3.8380     2.9940    -0.0290 N.am  1 <1>  -0.7300 
 12 C        4.4290     0.6720    -0.5500 C.3   1 <1>   0.1200 
 13 O        4.3930     0.1500     0.7440 O.3   1 <1>  -0.5600 
 14 C        3.7000     4.2130    -0.6030 C.2   1 <1>   0.5690 
 15 O        3.1460     4.3620    -1.6620 O.2   1 <1>  -0.5700 
 16 C        4.2730     5.4190     0.1040 C.3   1 <1>  -0.0990 
 17 C        5.5880     5.8600    -0.5460 C.3   1 <1>   0.0210 
 18 C        6.1970     7.0260     0.2110 C.2   1 <1>  -0.1810 
 19 C        7.3250     6.9800     0.9450 C.2   1 <1>  -0.1100 
 20 C        5.5840     8.3220     0.1960 C.2   1 <1>  -0.1500 
 21 S        7.6740     8.5450     1.6580 S.3   1 <1>  -0.0800 
 22 C        6.2450     9.2440     0.9190 C.2   1 <1>  -0.1100 
 23 H        1.8660    -0.6630    -0.7750 H     1 <1>   0.0800 
 24 H        0.9580     0.7200    -1.2910 H     1 <1>   0.0800 
 25 H       -1.0810    -3.1360    -1.4550 H     1 <1>   0.0800 
 26 H       -0.7200    -3.1490     0.2610 H     1 <1>   0.0800 
 27 H        0.5090    -2.6790    -0.8940 H     1 <1>   0.0800 
 28 H       -2.9590    -1.7570    -1.0400 H     1 <1>   0.0800 
 29 H       -2.7680    -0.1630    -0.3590 H     1 <1>   0.0800 
 30 H       -2.6350    -1.5690     0.6760 H     1 <1>   0.0800 
 31 H        1.7110     1.9130     0.8050 H     1 <1>   0.0800 
 32 H        2.9690     1.8870    -1.6050 H     1 <1>   0.0800 
 33 H        2.7370    -0.5660     1.6480 H     1 <1>   0.0800 
 34 H        3.3270     0.9820     2.2240 H     1 <1>   0.0800 
 35 H        4.3420     2.8840     0.8530 H     1 <1>   0.3700 
 36 H        5.4050     1.0770    -0.7510 H     1 <1>   0.0800 
 37 H        4.2190    -0.1310    -1.2330 H     1 <1>   0.0800 
 38 H        3.5550     6.2170     0.0490 H     1 <1>   0.0800 
 39 H        4.4380     5.1900     1.1400 H     1 <1>   0.0800 
 40 H        5.4130     6.1480    -1.5690 H     1 <1>   0.0800 
 41 H        6.2800     5.0360    -0.5490 H     1 <1>   0.0800 
 42 H        8.0130     6.1810     1.1570 H     1 <1>   0.1500 
 43 H        4.6780     8.5020    -0.3570 H     1 <1>   0.1500 
 44 H        6.0510    10.2850     1.1050 H     1 <1>   0.1500 
@<TRIPOS>BOND
  1   1   2  2   
  2   1   3  2   
  3   1   4  am  
  4   1   5  1   
  5   4   6  1   
  6   4   7  1   
  7   5   8  1   
  8   5  23  1   
  9   5  24  1   
 10   6  25  1   
 11   6  26  1   
 12   6  27  1   
 13   7  28  1   
 14   7  29  1   
 15   7  30  1   
 16   8   9  1   
 17   8  10  1   
 18   8  31  1   
 19   9  11  1   
 20   9  12  1   
 21   9  32  1   
 22  10  13  1   
 23  10  33  1   
 24  10  34  1   
 25  11  14  am  
 26  11  35  1   
 27  12  13  1   
 28  12  36  1   
 29  12  37  1   
 30  14  15  2   
 31  14  16  1   
 32  16  17  1   
 33  16  38  1   
 34  16  39  1   
 35  17  18  1   
 36  17  40  1   
 37  17  41  1   
 38  18  19  2   
 39  18  20  1   
 40  19  21  1   
 41  19  42  1   
 42  20  22  2   
 43  20  43  1   
 44  21  22  1   
 45  22  44  1   
@<TRIPOS>SUBSTRUCTURE
  1 ****  11 GROUP 4 **** **** 0

# MOE 2024.06 (io_trps.svl 2023.06)
