@<TRIPOS>MOLECULE
NONAME
46 48 1 0 0 
SMALL
USER_CHARGES


@<TRIPOS>ATOM
  1 O       -0.5200    -0.1000     0.9070 O.2   1 <1>  -0.5700 
  2 C       -1.3950     0.6040     0.4620 C.2   1 <1>   0.5690 
  3 N       -2.7240     0.2410     0.4350 N.am  1 <1>  -0.4770 
  4 C       -1.0130     1.9650    -0.0720 C.3   1 <1>  -0.0990 
  5 C       -3.7150     1.1000    -0.0960 C.ar  1 <1>   0.1170 
  6 C       -3.1230    -1.0770     1.0080 C.3   1 <1>   0.0600 
  7 C       -2.0980     2.9810     0.3060 C.3   1 <1>   0.1250 
  8 C       -3.4540     2.4700    -0.1980 C.ar  1 <1>  -0.1440 
  9 C       -4.9440     0.6170    -0.5410 C.ar  1 <1>  -0.1500 
 10 C       -1.7450     4.3960    -0.1540 C.2   1 <1>   0.5690 
 11 C       -4.4140     3.3180    -0.7380 C.ar  1 <1>  -0.1500 
 12 C       -5.8950     1.4680    -1.0690 C.ar  1 <1>  -0.1500 
 13 O       -1.1080     4.5550    -1.1690 O.2   1 <1>  -0.5700 
 14 N       -2.1820     5.4420     0.6170 N.am  1 <1>  -0.4940 
 15 C       -5.6300     2.8200    -1.1690 C.ar  1 <1>  -0.1500 
 16 C       -2.1020     6.8370     0.3950 C.2   1 <1>  -0.0880 
 17 N       -1.0420     7.5480    -0.0950 N.pl3 1 <1>   0.3140 
 18 C       -3.0830     7.7370     0.6470 C.2   1 <1>  -0.1810 
 19 N       -1.3390     8.8710    -0.1650 N.2   1 <1>  -0.7070 
 20 C        0.3010     7.0330    -0.4680 C.3   1 <1>   0.0960 
 21 C       -2.5520     8.9660     0.2780 C.2   1 <1>   0.1390 
 22 C       -4.4810     7.5190     1.1960 C.3   1 <1>  -0.0590 
 23 C        1.4380     8.0080    -0.1170 C.3   1 <1>  -0.1600 
 24 C        2.8100     7.4010    -0.4330 C.3   1 <1>  -0.2400 
 25 H       -0.9170     1.9000    -1.1400 H     1 <1>   0.0800 
 26 H       -0.0650     2.2600     0.3400 H     1 <1>   0.0800 
 27 H       -2.3730    -1.4400     1.6900 H     1 <1>   0.0800 
 28 H       -3.2440    -1.7920     0.2140 H     1 <1>   0.0800 
 29 H       -4.0470    -0.9770     1.5490 H     1 <1>   0.0800 
 30 H       -2.1490     3.0020     1.3800 H     1 <1>   0.0800 
 31 H       -5.1670    -0.4310    -0.4900 H     1 <1>   0.1500 
 32 H       -4.2400     4.3750    -0.8450 H     1 <1>   0.1500 
 33 H       -6.8400     1.0790    -1.4080 H     1 <1>   0.1500 
 34 H       -2.7950     5.1840     1.3900 H     1 <1>   0.3700 
 35 H       -6.3670     3.4840    -1.5880 H     1 <1>   0.1500 
 36 H        0.2960     6.8330    -1.5240 H     1 <1>   0.0800 
 37 H        0.4630     6.1100     0.0530 H     1 <1>   0.0800 
 38 H       -3.0780     9.9040     0.3470 H     1 <1>   0.1500 
 39 H       -4.7070     6.4710     1.2660 H     1 <1>   0.0800 
 40 H       -5.2030     7.9810     0.5460 H     1 <1>   0.0800 
 41 H       -4.5620     7.9600     2.1730 H     1 <1>   0.0800 
 42 H        1.3880     8.2520     0.9300 H     1 <1>   0.0800 
 43 H        1.3170     8.9170    -0.6830 H     1 <1>   0.0800 
 44 H        2.9670     6.5030     0.1380 H     1 <1>   0.0800 
 45 H        3.5870     8.1030    -0.1850 H     1 <1>   0.0800 
 46 H        2.8850     7.1650    -1.4800 H     1 <1>   0.0800 
@<TRIPOS>BOND
  1   1   2  2   
  2   2   3  am  
  3   2   4  1   
  4   3   5  1   
  5   3   6  1   
  6   4   7  1   
  7   4  25  1   
  8   4  26  1   
  9   5   8  ar  
 10   5   9  ar  
 11   6  27  1   
 12   6  28  1   
 13   6  29  1   
 14   7   8  1   
 15   7  10  1   
 16   7  30  1   
 17   8  11  ar  
 18   9  12  ar  
 19   9  31  1   
 20  10  13  2   
 21  10  14  am  
 22  11  15  ar  
 23  11  32  1   
 24  12  15  ar  
 25  12  33  1   
 26  14  16  1   
 27  14  34  1   
 28  15  35  1   
 29  16  17  1   
 30  16  18  2   
 31  17  19  1   
 32  17  20  1   
 33  18  21  1   
 34  18  22  1   
 35  19  21  2   
 36  20  23  1   
 37  20  36  1   
 38  20  37  1   
 39  21  38  1   
 40  22  39  1   
 41  22  40  1   
 42  22  41  1   
 43  23  24  1   
 44  23  42  1   
 45  23  43  1   
 46  24  44  1   
 47  24  45  1   
 48  24  46  1   
@<TRIPOS>SUBSTRUCTURE
  1 ****  10 GROUP 4 **** **** 0

# MOE 2024.06 (io_trps.svl 2023.06)
