@<TRIPOS>MOLECULE
NONAME
52 53 1 0 0 
SMALL
USER_CHARGES


@<TRIPOS>ATOM
  1 O       -1.6870     0.0040     2.3070 O.2   1 <1>  -0.5700 
  2 C       -1.9700     0.4970     1.2390 C.2   1 <1>   0.5690 
  3 N       -2.2620    -0.2800     0.1470 N.am  1 <1>  -0.6600 
  4 C       -2.0300     2.0290     1.1830 C.3   1 <1>   0.1810 
  5 C       -2.2230    -1.7790     0.2350 C.3   1 <1>   0.3640 
  6 C       -2.6400     0.2860    -1.1880 C.3   1 <1>   0.1400 
  7 O       -1.3050     2.5730     0.1040 O.3   1 <1>  -0.5600 
  8 C       -0.9020    -2.3580    -0.3100 C.ar  1 <1>  -0.1440 
  9 C       -3.4680    -2.4050    -0.4760 C.3   1 <1>   0.2000 
 10 C       -3.0680    -0.8000    -2.1860 C.3   1 <1>   0.1200 
 11 C       -1.2150     3.9560     0.0890 C.3   1 <1>   0.2000 
 12 C       -0.7010    -3.7320    -0.2310 C.ar  1 <1>  -0.1500 
 13 C        0.1120    -1.5770    -0.8580 C.ar  1 <1>  -0.1500 
 14 O       -3.9700    -1.6680    -1.5720 O.3   1 <1>  -0.5600 
 15 C       -4.6360    -2.5720     0.5030 C.3   1 <1>   0.1200 
 16 C       -1.0850     4.3680    -1.3730 C.3   1 <1>  -0.2400 
 17 C        0.0160     4.3700     0.8930 C.3   1 <1>  -0.2400 
 18 C        0.4530    -4.3230    -0.7150 C.ar  1 <1>   0.0820 
 19 C        1.2800    -2.1540    -1.3280 C.ar  1 <1>  -0.1500 
 20 O       -4.3660    -3.5960     1.4070 O.3   1 <1>  -0.6800 
 21 O        0.5360    -5.6750    -0.6420 O.3   1 <1>  -0.3630 
 22 C        1.4660    -3.5220    -1.2510 C.ar  1 <1>   0.0820 
 23 C        0.6410    -6.3710    -1.8650 C.3   1 <1>   0.0400 
 24 O        2.6460    -4.0210    -1.6910 O.3   1 <1>  -0.3630 
 25 C        3.5020    -4.5410    -0.6980 C.3   1 <1>   0.0400 
 26 H       -1.6260     2.4180     2.0990 H     1 <1>   0.0800 
 27 H       -3.0560     2.3350     1.0920 H     1 <1>   0.0800 
 28 H       -2.2630    -2.0700     1.2710 H     1 <1>   0.0800 
 29 H       -3.4520     0.9790    -1.0610 H     1 <1>   0.0800 
 30 H       -1.8050     0.8260    -1.6000 H     1 <1>   0.0800 
 31 H       -3.2180    -3.3750    -0.8620 H     1 <1>   0.0800 
 32 H       -2.2220    -1.3660    -2.5370 H     1 <1>   0.0800 
 33 H       -3.5580    -0.3550    -3.0330 H     1 <1>   0.0800 
 34 H       -2.1130     4.3820     0.5070 H     1 <1>   0.0800 
 35 H       -1.4450    -4.3700     0.2110 H     1 <1>   0.1500 
 36 H        0.0190    -0.5070    -0.9170 H     1 <1>   0.1500 
 37 H       -5.5410    -2.8220    -0.0230 H     1 <1>   0.0800 
 38 H       -4.7830    -1.6650     1.0630 H     1 <1>   0.0800 
 39 H       -0.2070     3.9250    -1.8090 H     1 <1>   0.0800 
 40 H       -1.0050     5.4370    -1.4490 H     1 <1>   0.0800 
 41 H       -1.9530     4.0520    -1.9220 H     1 <1>   0.0800 
 42 H        0.8970     3.8970     0.4950 H     1 <1>   0.0800 
 43 H       -0.0940     4.1000     1.9270 H     1 <1>   0.0800 
 44 H        0.1470     5.4350     0.8390 H     1 <1>   0.0800 
 45 H        2.0570    -1.5410    -1.7470 H     1 <1>   0.1500 
 46 H       -4.5000    -4.4710     0.9930 H     1 <1>   0.4000 
 47 H        0.5210    -7.4200    -1.6660 H     1 <1>   0.0800 
 48 H        1.6070    -6.1910    -2.2980 H     1 <1>   0.0800 
 49 H       -0.1350    -6.0300    -2.5280 H     1 <1>   0.0800 
 50 H        4.4220    -4.8370    -1.1670 H     1 <1>   0.0800 
 51 H        3.0350    -5.3910    -0.2340 H     1 <1>   0.0800 
 52 H        3.6900    -3.7740     0.0330 H     1 <1>   0.0800 
@<TRIPOS>BOND
  1   1   2  2   
  2   2   3  am  
  3   2   4  1   
  4   3   5  1   
  5   3   6  1   
  6   4   7  1   
  7   4  26  1   
  8   4  27  1   
  9   5   8  1   
 10   5   9  1   
 11   5  28  1   
 12   6  10  1   
 13   6  29  1   
 14   6  30  1   
 15   7  11  1   
 16   8  12  ar  
 17   8  13  ar  
 18   9  14  1   
 19   9  15  1   
 20   9  31  1   
 21  10  14  1   
 22  10  32  1   
 23  10  33  1   
 24  11  16  1   
 25  11  17  1   
 26  11  34  1   
 27  12  18  ar  
 28  12  35  1   
 29  13  19  ar  
 30  13  36  1   
 31  15  20  1   
 32  15  37  1   
 33  15  38  1   
 34  16  39  1   
 35  16  40  1   
 36  16  41  1   
 37  17  42  1   
 38  17  43  1   
 39  17  44  1   
 40  18  21  1   
 41  18  22  ar  
 42  19  22  ar  
 43  19  45  1   
 44  20  46  1   
 45  21  23  1   
 46  22  24  1   
 47  23  47  1   
 48  23  48  1   
 49  23  49  1   
 50  24  25  1   
 51  25  50  1   
 52  25  51  1   
 53  25  52  1   
@<TRIPOS>SUBSTRUCTURE
  1 ****   8 GROUP 4 **** **** 0

# MOE 2024.06 (io_trps.svl 2023.06)
