@<TRIPOS>MOLECULE
NONAME
55 58 1 0 0 
SMALL
USER_CHARGES


@<TRIPOS>ATOM
  1 O        0.7650    -0.2400    -0.4050 O.2   1 <1>  -0.5700 
  2 C        0.5020    -1.2490     0.2150 C.2   1 <1>   0.5440 
  3 N       -0.1920    -1.0710     1.3600 N.am  1 <1>  -0.8000 
  4 C        0.9260    -2.5550    -0.2450 C.ar  1 <1>   0.0860 
  5 C        0.2390    -3.7510     0.0680 C.ar  1 <1>   0.4100 
  6 C        2.0720    -2.6610    -1.0240 C.ar  1 <1>  -0.1500 
  7 N        0.6590    -4.9590    -0.3090 N.ar  1 <1>  -0.6200 
  8 N       -0.9580    -3.7570     0.7680 N.pl3 1 <1>  -0.8380 
  9 C        2.4890    -3.9090    -1.4230 C.ar  1 <1>  -0.1500 
 10 C        1.7550    -5.0130    -1.0360 C.ar  1 <1>   0.1600 
 11 C       -1.2370    -4.8550     1.7600 C.3   1 <1>   0.2090 
 12 C       -2.1880    -3.3090     0.0330 C.3   1 <1>   0.2090 
 13 C       -2.0750    -6.0040     1.1620 C.3   1 <1>   0.2090 
 14 C       -2.9890    -4.4910    -0.5490 C.3   1 <1>   0.2090 
 15 N       -3.3200    -5.4930     0.5060 N.pl3 1 <1>  -0.8380 
 16 C       -4.3410    -6.3830     0.2410 C.ar  1 <1>   0.4100 
 17 N       -4.0380    -7.6380     0.0710 N.ar  1 <1>  -0.6200 
 18 C       -5.6580    -5.8960     0.1580 C.ar  1 <1>  -0.1500 
 19 C       -5.0490    -8.4920    -0.2130 C.ar  1 <1>   0.3100 
 20 C       -6.6990    -6.7270    -0.1200 C.ar  1 <1>  -0.1430 
 21 C       -6.4020    -8.0930    -0.3190 C.ar  1 <1>   0.0000 
 22 C       -4.7200    -9.8390    -0.4160 C.ar  1 <1>  -0.1500 
 23 C       -8.1230    -6.1990    -0.2070 C.3   1 <1>  -0.0970 
 24 C       -7.3650    -9.0790    -0.6130 C.ar  1 <1>  -0.1500 
 25 C       -5.6690   -10.7910    -0.7090 C.ar  1 <1>   0.0830 
 26 C       -7.0250   -10.3940    -0.7930 C.ar  1 <1>   0.0830 
 27 O       -5.3490   -12.0940    -0.9390 O.3   1 <1>  -0.3630 
 28 O       -8.0390   -11.2570    -1.0620 O.3   1 <1>  -0.3620 
 29 C       -4.0090   -12.5220    -1.0420 C.3   1 <1>   0.0400 
 30 C       -8.1580   -12.4280    -0.2830 C.3   1 <1>   0.0400 
 31 H       -0.5220    -0.1430     1.6210 H     1 <1>   0.3700 
 32 H       -0.6280    -1.8860     1.8060 H     1 <1>   0.3700 
 33 H        2.6220    -1.7780    -1.3030 H     1 <1>   0.1500 
 34 H        3.3720    -4.0280    -2.0240 H     1 <1>   0.1500 
 35 H        2.0890    -5.9900    -1.3450 H     1 <1>   0.1500 
 36 H       -1.7710    -4.4430     2.5980 H     1 <1>   0.0800 
 37 H       -0.3090    -5.2550     2.1300 H     1 <1>   0.0800 
 38 H       -1.9120    -2.6480    -0.7700 H     1 <1>   0.0800 
 39 H       -2.8210    -2.7600     0.7080 H     1 <1>   0.0800 
 40 H       -2.3380    -6.6960     1.9420 H     1 <1>   0.0800 
 41 H       -1.4820    -6.5330     0.4370 H     1 <1>   0.0800 
 42 H       -2.4020    -4.9680    -1.3150 H     1 <1>   0.0800 
 43 H       -3.8920    -4.1220    -1.0020 H     1 <1>   0.0800 
 44 H       -5.8040    -4.8480     0.3320 H     1 <1>   0.1500 
 45 H       -3.6800   -10.0800    -0.3310 H     1 <1>   0.1500 
 46 H       -8.1500    -5.1390    -0.0250 H     1 <1>   0.0800 
 47 H       -8.7410    -6.6840     0.5280 H     1 <1>   0.0800 
 48 H       -8.5270    -6.3860    -1.1860 H     1 <1>   0.0800 
 49 H       -8.3980    -8.8030    -0.6970 H     1 <1>   0.1500 
 50 H       -4.0110   -13.5680    -1.2910 H     1 <1>   0.0800 
 51 H       -3.5200   -12.3730    -0.0960 H     1 <1>   0.0800 
 52 H       -3.5230   -11.9620    -1.8210 H     1 <1>   0.0800 
 53 H       -9.1840   -12.7470    -0.3120 H     1 <1>   0.0800 
 54 H       -7.8660   -12.2110     0.7300 H     1 <1>   0.0800 
 55 H       -7.5290   -13.1910    -0.7030 H     1 <1>   0.0800 
@<TRIPOS>BOND
  1   1   2  2   
  2   2   3  am  
  3   2   4  1   
  4   3  31  1   
  5   3  32  1   
  6   4   5  ar  
  7   4   6  ar  
  8   5   7  ar  
  9   5   8  1   
 10   6   9  ar  
 11   6  33  1   
 12   7  10  ar  
 13   8  11  1   
 14   8  12  1   
 15   9  10  ar  
 16   9  34  1   
 17  10  35  1   
 18  11  13  1   
 19  11  36  1   
 20  11  37  1   
 21  12  14  1   
 22  12  38  1   
 23  12  39  1   
 24  13  15  1   
 25  13  40  1   
 26  13  41  1   
 27  14  15  1   
 28  14  42  1   
 29  14  43  1   
 30  15  16  1   
 31  16  17  ar  
 32  16  18  ar  
 33  17  19  ar  
 34  18  20  ar  
 35  18  44  1   
 36  19  21  ar  
 37  19  22  ar  
 38  20  21  ar  
 39  20  23  1   
 40  21  24  ar  
 41  22  25  ar  
 42  22  45  1   
 43  23  46  1   
 44  23  47  1   
 45  23  48  1   
 46  24  26  ar  
 47  24  49  1   
 48  25  26  ar  
 49  25  27  1   
 50  26  28  1   
 51  27  29  1   
 52  28  30  1   
 53  29  50  1   
 54  29  51  1   
 55  29  52  1   
 56  30  53  1   
 57  30  54  1   
 58  30  55  1   
@<TRIPOS>SUBSTRUCTURE
  1 ****  15 GROUP 4 **** **** 0

# MOE 2024.06 (io_trps.svl 2023.06)
