@<TRIPOS>MOLECULE
NONAME
42 43 1 0 0 
SMALL
USER_CHARGES


@<TRIPOS>ATOM
  1 S       -0.2900    -1.2060     1.3200 S.3   1 <1>  -0.0800 
  2 C       -1.6020    -0.5430     0.3850 C.2   1 <1>  -0.1400 
  3 C        0.4630    -1.7310    -0.1690 C.2   1 <1>   0.2280 
  4 C       -1.3610    -0.7710    -0.9160 C.2   1 <1>   0.0460 
  5 C       -2.7390     0.1370     1.1220 C.3   1 <1>   0.2900 
  6 N       -0.1900    -1.4440    -1.2230 N.2   1 <1>  -0.5650 
  7 C       -2.2390    -0.3660    -2.0810 C.3   1 <1>  -0.0590 
  8 N       -2.7140     1.5920     0.8820 N.3   1 <1>  -0.8100 
  9 C       -3.9580     2.2350     1.3490 C.3   1 <1>   0.2530 
 10 C       -1.5190     2.2360     1.5100 C.3   1 <1>   0.1710 
 11 C       -5.1460     1.7720     0.5190 C.ar  1 <1>  -0.1430 
 12 C       -1.2620     3.6680     1.0350 C.2   1 <1>   0.5690 
 13 C       -5.2000     2.0620    -0.8360 C.ar  1 <1>  -0.1500 
 14 C       -6.1830     1.0570     1.1020 C.ar  1 <1>  -0.1500 
 15 O       -0.8550     4.4920     1.8200 O.2   1 <1>  -0.5700 
 16 N       -1.5180     3.9600    -0.2650 N.am  1 <1>  -0.7300 
 17 C       -6.2730     1.6410    -1.6010 C.ar  1 <1>  -0.1500 
 18 C       -7.2570     0.6350     0.3370 C.ar  1 <1>  -0.1500 
 19 C       -1.3240     5.2620    -0.9230 C.3   1 <1>   0.1400 
 20 C       -7.3020     0.9260    -1.0150 C.ar  1 <1>  -0.1500 
 21 C       -0.6060     5.0320    -2.2470 C.3   1 <1>  -0.2400 
 22 H        1.4030    -2.2470    -0.0880 H     1 <1>   0.1500 
 23 H       -2.6820    -0.0720     2.1770 H     1 <1>   0.0800 
 24 H       -3.6590    -0.2800     0.7490 H     1 <1>   0.0800 
 25 H       -3.1160     0.1470    -1.7340 H     1 <1>   0.0800 
 26 H       -2.5380    -1.2410    -2.6280 H     1 <1>   0.0800 
 27 H       -1.6890     0.2840    -2.7350 H     1 <1>   0.0800 
 28 H       -3.8790     3.3040     1.2460 H     1 <1>   0.0800 
 29 H       -4.1170     2.0160     2.3910 H     1 <1>   0.0800 
 30 H       -0.6350     1.6760     1.2690 H     1 <1>   0.0800 
 31 H       -1.6230     2.2380     2.5810 H     1 <1>   0.0800 
 32 H       -4.4000     2.6150    -1.2940 H     1 <1>   0.1500 
 33 H       -6.1600     0.8250     2.1520 H     1 <1>   0.1500 
 34 H       -1.9180     3.2040    -0.8280 H     1 <1>   0.3700 
 35 H       -6.3080     1.8690    -2.6520 H     1 <1>   0.1500 
 36 H       -8.0580     0.0810     0.7940 H     1 <1>   0.1500 
 37 H       -0.7380     5.9080    -0.2900 H     1 <1>   0.0800 
 38 H       -2.2830     5.7230    -1.0920 H     1 <1>   0.0800 
 39 H       -8.1370     0.5980    -1.6090 H     1 <1>   0.1500 
 40 H        0.3510     4.5720    -2.0730 H     1 <1>   0.0800 
 41 H       -0.4460     5.9750    -2.7380 H     1 <1>   0.0800 
 42 H       -1.1950     4.4060    -2.8920 H     1 <1>   0.0800 
@<TRIPOS>BOND
  1   1   2  1   
  2   1   3  1   
  3   2   4  2   
  4   2   5  1   
  5   3   6  2   
  6   3  22  1   
  7   4   6  1   
  8   4   7  1   
  9   5   8  1   
 10   5  23  1   
 11   5  24  1   
 12   7  25  1   
 13   7  26  1   
 14   7  27  1   
 15   8   9  1   
 16   8  10  1   
 17   9  11  1   
 18   9  28  1   
 19   9  29  1   
 20  10  12  1   
 21  10  30  1   
 22  10  31  1   
 23  11  13  ar  
 24  11  14  ar  
 25  12  15  2   
 26  12  16  am  
 27  13  17  ar  
 28  13  32  1   
 29  14  18  ar  
 30  14  33  1   
 31  16  19  1   
 32  16  34  1   
 33  17  20  ar  
 34  17  35  1   
 35  18  20  ar  
 36  18  36  1   
 37  19  21  1   
 38  19  37  1   
 39  19  38  1   
 40  20  39  1   
 41  21  40  1   
 42  21  41  1   
 43  21  42  1   
@<TRIPOS>SUBSTRUCTURE
  1 ****   8 GROUP 4 **** **** 0

# MOE 2024.06 (io_trps.svl 2023.06)
