@<TRIPOS>MOLECULE
NONAME
37 38 1 0 0 
SMALL
USER_CHARGES


@<TRIPOS>ATOM
  1 F        0.8260     0.0020     1.3500 F     1 <1>  -0.1900 
  2 C        1.6640    -0.8250     0.7890 C.ar  1 <1>   0.1900 
  3 C        1.5600    -2.1690     1.0750 C.ar  1 <1>  -0.1500 
  4 C        2.6200    -0.3300    -0.0700 C.ar  1 <1>  -0.1500 
  5 C        2.4400    -3.0640     0.4780 C.ar  1 <1>  -0.1440 
  6 C        3.5020    -1.2180    -0.6590 C.ar  1 <1>  -0.1500 
  7 C        3.4310    -2.5880    -0.3970 C.ar  1 <1>  -0.1430 
  8 C        2.2660    -4.5420     0.8280 C.3   1 <1>   0.4870 
  9 C        4.4360    -3.5430    -1.0730 C.3   1 <1>   1.1640 
 10 N        1.5770    -5.2620    -0.2770 N.4   1 <1>  -0.9590 
 11 F        5.0860    -4.2800    -0.1840 F     1 <1>  -0.3400 
 12 F        3.8090    -4.4040    -1.8690 F     1 <1>  -0.3400 
 13 F        5.3540    -2.9440    -1.8160 F     1 <1>  -0.3400 
 14 C        1.4710    -6.7190     0.0850 C.3   1 <1>   0.3430 
 15 C        0.2560    -4.6180    -0.6170 C.3   1 <1>   0.3430 
 16 C        0.1610    -6.9790     0.8000 C.3   1 <1>  -0.1860 
 17 C       -0.7170    -5.6420    -1.1880 C.3   1 <1>  -0.1600 
 18 C        0.1220    -8.4020     1.2480 C.2   1 <1>   0.9060 
 19 C       -1.0250    -6.7010    -0.1250 C.3   1 <1>   0.2000 
 20 O        1.1090    -9.1060     1.0300 O.co2 1 <1>  -0.9000 
 21 O       -0.9000    -8.7900     1.8100 O.co2 1 <1>  -0.9000 
 22 O       -2.0330    -6.2210     0.6750 O.3   1 <1>  -0.6800 
 23 H        0.7930    -2.4910     1.7600 H     1 <1>   0.1500 
 24 H        2.6710     0.7270    -0.2690 H     1 <1>   0.1500 
 25 H        4.2490    -0.8170    -1.3270 H     1 <1>   0.1500 
 26 H        1.6790    -4.6280     1.7290 H     1 <1>   0.0800 
 27 H        3.2250    -4.9940     1.0220 H     1 <1>   0.0800 
 28 H        2.1760    -5.2140    -1.1140 H     1 <1>   0.4500 
 29 H        1.4960    -7.3290    -0.8040 H     1 <1>   0.0800 
 30 H        2.2950    -7.0270     0.7100 H     1 <1>   0.0800 
 31 H       -0.1890    -4.2090     0.2770 H     1 <1>   0.0800 
 32 H        0.4050    -3.8130    -1.3170 H     1 <1>   0.0800 
 33 H        0.1200    -6.3750     1.6870 H     1 <1>   0.0800 
 34 H       -0.2810    -6.1050    -2.0540 H     1 <1>   0.0800 
 35 H       -1.6290    -5.1620    -1.4990 H     1 <1>   0.0800 
 36 H       -1.3810    -7.6060    -0.5950 H     1 <1>   0.0800 
 37 H       -2.2400    -6.9360     1.3280 H     1 <1>   0.4000 
@<TRIPOS>BOND
  1   1   2  1   
  2   2   3  ar  
  3   2   4  ar  
  4   3   5  ar  
  5   3  23  1   
  6   4   6  ar  
  7   4  24  1   
  8   5   7  ar  
  9   5   8  1   
 10   6   7  ar  
 11   6  25  1   
 12   7   9  1   
 13   8  10  1   
 14   8  26  1   
 15   8  27  1   
 16   9  11  1   
 17   9  12  1   
 18   9  13  1   
 19  10  14  1   
 20  10  15  1   
 21  10  28  1   
 22  14  16  1   
 23  14  29  1   
 24  14  30  1   
 25  15  17  1   
 26  15  31  1   
 27  15  32  1   
 28  16  18  1   
 29  16  19  1   
 30  16  33  1   
 31  17  19  1   
 32  17  34  1   
 33  17  35  1   
 34  18  20  ar  
 35  18  21  ar  
 36  19  22  1   
 37  19  36  1   
 38  22  37  1   
@<TRIPOS>SUBSTRUCTURE
  1 ****  10 GROUP 4 **** **** 0

# MOE 2024.06 (io_trps.svl 2023.06)
