@<TRIPOS>MOLECULE
NONAME
47 50 1 0 0 
SMALL
USER_CHARGES


@<TRIPOS>ATOM
  1 O       -2.2610     0.0530     0.1030 O.2   1 <1>  -0.5700 
  2 C       -2.4480     1.0130    -0.6240 C.2   1 <1>   0.5440 
  3 N       -3.5370     0.9410    -1.4580 N.am  1 <1>  -0.6600 
  4 C       -1.6200     2.2020    -0.5470 C.ar  1 <1>   0.0860 
  5 C       -4.8270     1.4660    -0.9120 C.3   1 <1>   0.1400 
  6 C       -3.7320    -0.3230    -2.2470 C.3   1 <1>   0.1400 
  7 C       -0.7370     2.4180     0.4980 C.ar  1 <1>  -0.1500 
  8 C       -1.6510     3.2130    -1.5010 C.ar  1 <1>  -0.1500 
  9 C       -5.4850     0.4390     0.0520 C.3   1 <1>   0.4230 
 10 C       -4.6890    -1.3140    -1.5400 C.3   1 <1>   0.3430 
 11 C        0.0220     3.5720     0.5550 C.ar  1 <1>   0.3920 
 12 C       -0.8520     4.3310    -1.3610 C.ar  1 <1>   0.1600 
 13 N       -4.8810    -0.9390    -0.0980 N.4   1 <1>  -0.9590 
 14 C       -7.0200     0.3950    -0.1290 C.3   1 <1>   0.1200 
 15 O        0.8490     3.7060     1.6120 O.3   1 <1>  -0.3630 
 16 N       -0.0220     4.5380    -0.3560 N.ar  1 <1>  -0.6200 
 17 C       -5.5870    -1.9310     0.7650 C.3   1 <1>   0.5180 
 18 O       -7.5900    -0.5610     0.7210 O.3   1 <1>  -0.5600 
 19 C        1.6750     4.8460     1.7490 C.3   1 <1>   0.0400 
 20 C       -5.0170    -3.3340     0.5250 C.3   1 <1>  -0.1950 
 21 C       -7.1160    -1.8720     0.5560 C.3   1 <1>   0.1200 
 22 C       -4.7720    -4.2510     1.6840 C.3   1 <1>  -0.2000 
 23 C       -3.6130    -3.6840     0.9170 C.3   1 <1>  -0.2000 
 24 H       -4.6550     2.3900    -0.3850 H     1 <1>   0.0800 
 25 H       -5.4880     1.6860    -1.7340 H     1 <1>   0.0800 
 26 H       -4.1100    -0.0850    -3.2260 H     1 <1>   0.0800 
 27 H       -2.7770    -0.8030    -2.3830 H     1 <1>   0.0800 
 28 H       -0.6280     1.6910     1.2810 H     1 <1>   0.1500 
 29 H       -2.2960     3.1300    -2.3560 H     1 <1>   0.1500 
 30 H       -5.2980     0.7810     1.0570 H     1 <1>   0.0800 
 31 H       -4.2720    -2.3050    -1.6180 H     1 <1>   0.0800 
 32 H       -5.6400    -1.3170    -2.0460 H     1 <1>   0.0800 
 33 H       -0.8960     5.0990    -2.1160 H     1 <1>   0.1500 
 34 H       -3.9070    -0.8440     0.2610 H     1 <1>   0.4500 
 35 H       -7.2900     0.1550    -1.1420 H     1 <1>   0.0800 
 36 H       -7.4510     1.3480     0.1240 H     1 <1>   0.0800 
 37 H       -5.3960    -1.6750     1.7950 H     1 <1>   0.0800 
 38 H        2.2480     4.7420     2.6530 H     1 <1>   0.0800 
 39 H        1.0530     5.7220     1.8040 H     1 <1>   0.0800 
 40 H        2.3310     4.9050     0.8990 H     1 <1>   0.0800 
 41 H       -5.4240    -3.8050    -0.3540 H     1 <1>   0.1000 
 42 H       -7.6080    -2.4920     1.2850 H     1 <1>   0.0800 
 43 H       -7.3880    -2.2170    -0.4260 H     1 <1>   0.0800 
 44 H       -4.9240    -3.9080     2.6940 H     1 <1>   0.1000 
 45 H       -4.9860    -5.3020     1.5770 H     1 <1>   0.1000 
 46 H       -3.0420    -4.3550     0.2970 H     1 <1>   0.1000 
 47 H       -2.9890    -2.9560     1.4090 H     1 <1>   0.1000 
@<TRIPOS>BOND
  1   1   2  2   
  2   2   3  am  
  3   2   4  1   
  4   3   5  1   
  5   3   6  1   
  6   4   7  ar  
  7   4   8  ar  
  8   5   9  1   
  9   5  24  1   
 10   5  25  1   
 11   6  10  1   
 12   6  26  1   
 13   6  27  1   
 14   7  11  ar  
 15   7  28  1   
 16   8  12  ar  
 17   8  29  1   
 18   9  13  1   
 19   9  14  1   
 20   9  30  1   
 21  10  13  1   
 22  10  31  1   
 23  10  32  1   
 24  11  15  1   
 25  11  16  ar  
 26  12  16  ar  
 27  12  33  1   
 28  13  17  1   
 29  13  34  1   
 30  14  18  1   
 31  14  35  1   
 32  14  36  1   
 33  15  19  1   
 34  17  20  1   
 35  17  21  1   
 36  17  37  1   
 37  18  21  1   
 38  19  38  1   
 39  19  39  1   
 40  19  40  1   
 41  20  22  1   
 42  20  23  1   
 43  20  41  1   
 44  21  42  1   
 45  21  43  1   
 46  22  23  1   
 47  22  44  1   
 48  22  45  1   
 49  23  46  1   
 50  23  47  1   
@<TRIPOS>SUBSTRUCTURE
  1 ****   2 GROUP 4 **** **** 0

# MOE 2024.06 (io_trps.svl 2023.06)
