@<TRIPOS>MOLECULE
NONAME
51 53 1 0 0 
SMALL
USER_CHARGES


@<TRIPOS>ATOM
  1 O        1.8380     1.9340     1.0290 O.3   1 <1>  -0.0190 
  2 N        2.5980     0.8830     1.0020 N.2   1 <1>  -0.4100 
  3 C        0.8640     1.8570     0.1620 C.2   1 <1>  -0.0400 
  4 C        2.0940     0.1010     0.1160 C.2   1 <1>   0.1080 
  5 C        0.9670     0.6770    -0.4660 C.2   1 <1>  -0.1500 
  6 C       -0.1130     3.0080     0.0230 C.3   1 <1>   0.0200 
  7 C        2.6560    -1.2580    -0.2390 C.3   1 <1>  -0.0590 
  8 C        0.5990     4.2590    -0.5320 C.3   1 <1>  -0.0800 
  9 C       -0.2780     5.4940    -0.7350 C.3   1 <1>   0.2000 
 10 C        1.7750     4.7470     0.3260 C.3   1 <1>   0.3430 
 11 O       -1.1520     5.6540     0.3360 O.3   1 <1>  -0.6800 
 12 C        0.7350     6.6380    -0.7390 C.3   1 <1>   0.3430 
 13 N        1.7830     6.2440     0.2590 N.4   1 <1>  -0.9590 
 14 C        3.1380     6.7920    -0.0310 C.3   1 <1>   0.3430 
 15 C        3.1330     8.3080     0.1300 C.3   1 <1>  -0.1600 
 16 C        4.5300     8.8900    -0.0710 C.3   1 <1>   0.1200 
 17 O        4.3960    10.2580     0.0570 O.3   1 <1>  -0.5600 
 18 C        5.5780    10.9840    -0.0910 C.3   1 <1>   0.2630 
 19 C        5.2550    12.4620     0.0420 C.ar  1 <1>  -0.1430 
 20 C        5.1820    13.0510     1.2960 C.ar  1 <1>  -0.1500 
 21 C        5.0330    13.2380    -1.0860 C.ar  1 <1>  -0.1500 
 22 C        4.8980    14.4000     1.4210 C.ar  1 <1>  -0.1500 
 23 C        4.7490    14.5870    -0.9630 C.ar  1 <1>  -0.1500 
 24 C        4.6820    15.1690     0.2910 C.ar  1 <1>  -0.1500 
 25 H        0.3560     0.2420    -1.2360 H     1 <1>   0.1500 
 26 H       -0.9060     2.7180    -0.6450 H     1 <1>   0.0800 
 27 H       -0.5510     3.2010     0.9870 H     1 <1>   0.0800 
 28 H        1.9130    -2.0160    -0.0680 H     1 <1>   0.0800 
 29 H        3.5150    -1.4720     0.3710 H     1 <1>   0.0800 
 30 H        2.9490    -1.2750    -1.2720 H     1 <1>   0.0800 
 31 H        1.0080     3.9940    -1.4920 H     1 <1>   0.0800 
 32 H       -0.8610     5.4610    -1.6410 H     1 <1>   0.0800 
 33 H        2.6970     4.3290    -0.0460 H     1 <1>   0.0800 
 34 H        1.6450     4.4280     1.3480 H     1 <1>   0.0800 
 35 H       -0.7440     5.4580     1.2010 H     1 <1>   0.4000 
 36 H        0.2670     7.5780    -0.4910 H     1 <1>   0.0800 
 37 H        1.1770     6.7090    -1.7190 H     1 <1>   0.0800 
 38 H        1.4850     6.6080     1.1750 H     1 <1>   0.4500 
 39 H        3.8520     6.3680     0.6580 H     1 <1>   0.0800 
 40 H        3.4380     6.5300    -1.0330 H     1 <1>   0.0800 
 41 H        2.7990     8.5690     1.1200 H     1 <1>   0.0800 
 42 H        2.4790     8.7570    -0.5960 H     1 <1>   0.0800 
 43 H        4.9090     8.6710    -1.0560 H     1 <1>   0.0800 
 44 H        5.2150     8.5360     0.6820 H     1 <1>   0.0800 
 45 H        6.2710    10.6810     0.6740 H     1 <1>   0.0800 
 46 H        5.9960    10.7770    -1.0620 H     1 <1>   0.0800 
 47 H        5.3430    12.4590     2.1800 H     1 <1>   0.1500 
 48 H        5.0780    12.7950    -2.0650 H     1 <1>   0.1500 
 49 H        4.8430    14.8500     2.3960 H     1 <1>   0.1500 
 50 H        4.5770    15.1830    -1.8420 H     1 <1>   0.1500 
 51 H        4.4600    16.2170     0.3870 H     1 <1>   0.1500 
@<TRIPOS>BOND
  1   1   2  1   
  2   1   3  1   
  3   2   4  2   
  4   3   5  2   
  5   3   6  1   
  6   4   5  1   
  7   4   7  1   
  8   5  25  1   
  9   6   8  1   
 10   6  26  1   
 11   6  27  1   
 12   7  28  1   
 13   7  29  1   
 14   7  30  1   
 15   8   9  1   
 16   8  10  1   
 17   8  31  1   
 18   9  11  1   
 19   9  12  1   
 20   9  32  1   
 21  10  13  1   
 22  10  33  1   
 23  10  34  1   
 24  11  35  1   
 25  12  13  1   
 26  12  36  1   
 27  12  37  1   
 28  13  14  1   
 29  13  38  1   
 30  14  15  1   
 31  14  39  1   
 32  14  40  1   
 33  15  16  1   
 34  15  41  1   
 35  15  42  1   
 36  16  17  1   
 37  16  43  1   
 38  16  44  1   
 39  17  18  1   
 40  18  19  1   
 41  18  45  1   
 42  18  46  1   
 43  19  20  ar  
 44  19  21  ar  
 45  20  22  ar  
 46  20  47  1   
 47  21  23  ar  
 48  21  48  1   
 49  22  24  ar  
 50  22  49  1   
 51  23  24  ar  
 52  23  50  1   
 53  24  51  1   
@<TRIPOS>SUBSTRUCTURE
  1 ****  14 GROUP 4 **** **** 0

# MOE 2024.06 (io_trps.svl 2023.06)
