@<TRIPOS>MOLECULE
NONAME
54 57 1 0 0 
SMALL
USER_CHARGES


@<TRIPOS>ATOM
  1 O       -0.6660    -0.3740     0.1780 O.3   1 <1>  -0.3630 
  2 C       -0.6170    -1.7390     0.1750 C.ar  1 <1>   0.0830 
  3 C        0.4790     0.4360     0.3150 C.3   1 <1>   0.0400 
  4 C       -1.8420    -2.4400    -0.0120 C.ar  1 <1>   0.3100 
  5 C        0.5690    -2.4200     0.3450 C.ar  1 <1>  -0.1500 
  6 N       -2.9970    -1.7390    -0.1700 N.ar  1 <1>  -0.6200 
  7 C       -1.8120    -3.8580    -0.0240 C.ar  1 <1>   0.0000 
  8 C        0.5900    -3.8210     0.3350 C.ar  1 <1>   0.0830 
  9 C       -4.1040    -2.4020    -0.3400 C.ar  1 <1>   0.4100 
 10 C       -3.0300    -4.5500    -0.2170 C.ar  1 <1>  -0.1440 
 11 C       -0.5770    -4.5110     0.1530 C.ar  1 <1>  -0.1500 
 12 O        1.7220    -4.5520     0.4980 O.3   1 <1>  -0.3630 
 13 N       -5.2790    -1.6950    -0.4820 N.pl3 1 <1>  -0.8380 
 14 C       -4.1550    -3.8050    -0.3740 C.ar  1 <1>  -0.1500 
 15 C       -3.0940    -6.0710    -0.2570 C.3   1 <1>  -0.0970 
 16 C        2.9770    -3.9430     0.7100 C.3   1 <1>   0.0400 
 17 C       -6.2550    -1.7650     0.6380 C.3   1 <1>   0.2090 
 18 C       -5.2220    -0.3530    -1.1170 C.3   1 <1>   0.2090 
 19 C       -7.6880    -1.4480     0.1430 C.3   1 <1>   0.0000 
 20 C       -6.6110     0.0230    -1.6460 C.3   1 <1>  -0.1600 
 21 C       -8.7270    -1.5100     1.2800 C.3   1 <1>   0.2000 
 22 C       -7.6910    -0.0680    -0.5510 C.3   1 <1>  -0.1600 
 23 C       -8.1890    -2.5690    -0.7860 C.3   1 <1>  -0.1600 
 24 O       -8.2650    -0.9910     2.4780 O.3   1 <1>  -0.6800 
 25 C       -9.1030    -2.9830     1.4510 C.3   1 <1>  -0.1600 
 26 C       -8.7020    -3.6750     0.1410 C.3   1 <1>  -0.1600 
 27 H        0.1650     1.4630     0.2680 H     1 <1>   0.0800 
 28 H        1.1550     0.2240    -0.4940 H     1 <1>   0.0800 
 29 H        0.9360     0.2370     1.2670 H     1 <1>   0.0800 
 30 H        1.4860    -1.8890     0.4860 H     1 <1>   0.1500 
 31 H       -0.5360    -5.5830     0.1480 H     1 <1>   0.1500 
 32 H       -5.1160    -4.2520    -0.5370 H     1 <1>   0.1500 
 33 H       -4.1030    -6.4070    -0.4180 H     1 <1>   0.0800 
 34 H       -2.7450    -6.4790     0.6740 H     1 <1>   0.0800 
 35 H       -2.4820    -6.4440    -1.0580 H     1 <1>   0.0800 
 36 H        3.7110    -4.7210     0.8170 H     1 <1>   0.0800 
 37 H        2.9320    -3.3570     1.6100 H     1 <1>   0.0800 
 38 H        3.2160    -3.3310    -0.1410 H     1 <1>   0.0800 
 39 H       -6.2210    -2.7400     1.0900 H     1 <1>   0.0800 
 40 H       -5.9580    -1.0450     1.3820 H     1 <1>   0.0800 
 41 H       -4.8910     0.3690    -0.3890 H     1 <1>   0.0800 
 42 H       -4.5120    -0.3660    -1.9260 H     1 <1>   0.0800 
 43 H       -6.5770     1.0230    -2.0370 H     1 <1>   0.0800 
 44 H       -6.8560    -0.6370    -2.4590 H     1 <1>   0.0800 
 45 H       -9.6030    -0.9500     0.9970 H     1 <1>   0.0800 
 46 H       -8.6570     0.1350    -0.9790 H     1 <1>   0.0800 
 47 H       -7.4960     0.6900     0.1880 H     1 <1>   0.0800 
 48 H       -9.0100    -2.2060    -1.3790 H     1 <1>   0.0800 
 49 H       -7.4240    -2.9290    -1.4530 H     1 <1>   0.0800 
 50 H       -7.5630    -1.5590     2.8460 H     1 <1>   0.4000 
 51 H       -8.5740    -3.4320     2.2740 H     1 <1>   0.0800 
 52 H      -10.1620    -3.0710     1.6170 H     1 <1>   0.0800 
 53 H       -7.9130    -4.3820     0.3320 H     1 <1>   0.0800 
 54 H       -9.5330    -4.1970    -0.3030 H     1 <1>   0.0800 
@<TRIPOS>BOND
  1   1   2  1   
  2   1   3  1   
  3   2   4  ar  
  4   2   5  ar  
  5   3  27  1   
  6   3  28  1   
  7   3  29  1   
  8   4   6  ar  
  9   4   7  ar  
 10   5   8  ar  
 11   5  30  1   
 12   6   9  ar  
 13   7  10  ar  
 14   7  11  ar  
 15   8  11  ar  
 16   8  12  1   
 17   9  13  1   
 18   9  14  ar  
 19  10  14  ar  
 20  10  15  1   
 21  11  31  1   
 22  12  16  1   
 23  13  17  1   
 24  13  18  1   
 25  14  32  1   
 26  15  33  1   
 27  15  34  1   
 28  15  35  1   
 29  16  36  1   
 30  16  37  1   
 31  16  38  1   
 32  17  19  1   
 33  17  39  1   
 34  17  40  1   
 35  18  20  1   
 36  18  41  1   
 37  18  42  1   
 38  19  21  1   
 39  19  22  1   
 40  19  23  1   
 41  20  22  1   
 42  20  43  1   
 43  20  44  1   
 44  21  24  1   
 45  21  25  1   
 46  21  45  1   
 47  22  46  1   
 48  22  47  1   
 49  23  26  1   
 50  23  48  1   
 51  23  49  1   
 52  24  50  1   
 53  25  26  1   
 54  25  51  1   
 55  25  52  1   
 56  26  53  1   
 57  26  54  1   
@<TRIPOS>SUBSTRUCTURE
  1 ****   9 GROUP 4 **** **** 0

# MOE 2024.06 (io_trps.svl 2023.06)
