@<TRIPOS>MOLECULE
NONAME
53 56 1 0 0 
SMALL
USER_CHARGES


@<TRIPOS>ATOM
  1 S       -3.2610     0.6040     0.7630 S.3   1 <1>  -0.2420 
  2 C       -3.9670    -0.6480    -0.2600 C.2   1 <1>   0.6510 
  3 C       -3.0720     1.7030    -0.6170 C.2   1 <1>  -0.0490 
  4 N       -4.3590    -1.7940     0.1950 N.2   1 <1>  -0.6210 
  5 N       -4.0330    -0.1950    -1.5500 N.am  1 <1>  -0.2290 
  6 C       -3.5290     1.1130    -1.7290 C.2   1 <1>  -0.0410 
  7 C       -4.8890    -2.6570    -0.7280 C.2   1 <1>   0.0330 
  8 C       -4.5810    -1.0340    -2.4880 C.2   1 <1>   0.6160 
  9 C       -5.0060    -2.3090    -2.0370 C.2   1 <1>  -0.1360 
 10 C       -5.3450    -4.0310    -0.2230 C.3   1 <1>   0.4810 
 11 O       -4.7090    -0.6860    -3.6490 O.2   1 <1>  -0.5700 
 12 N       -6.3570    -3.9260     0.8690 N.4   1 <1>  -0.9590 
 13 C       -7.4970    -3.0140     0.5250 C.3   1 <1>   0.3430 
 14 C       -5.7450    -3.5980     2.1830 C.3   1 <1>   0.3430 
 15 C       -8.7280    -3.2430     1.4310 C.3   1 <1>   0.1400 
 16 C       -6.3350    -4.4990     3.2690 C.3   1 <1>  -0.1600 
 17 N       -8.6060    -4.5110     2.2230 N.am  1 <1>  -0.6600 
 18 C       -7.8460    -4.3460     3.4980 C.3   1 <1>   0.1400 
 19 C       -8.9240    -5.7780     1.7710 C.2   1 <1>   0.5690 
 20 O       -8.4290    -6.7380     2.3120 O.2   1 <1>  -0.5700 
 21 C       -9.8800    -6.0750     0.6140 C.3   1 <1>   0.2370 
 22 N       -9.4020    -5.4420    -0.6530 N.pl3 1 <1>   0.3140 
 23 C      -11.3460    -5.7490     0.9940 C.3   1 <1>  -0.1600 
 24 N       -8.1390    -5.6270    -1.1150 N.2   1 <1>  -0.7070 
 25 C      -10.1000    -4.6660    -1.5150 C.2   1 <1>  -0.3020 
 26 C      -12.3810    -6.4870     0.1280 C.3   1 <1>  -0.2400 
 27 C       -8.1090    -5.0400    -2.2750 C.2   1 <1>   0.1390 
 28 C       -9.3020    -4.4010    -2.5690 C.2   1 <1>  -0.1500 
 29 H       -2.6360     2.6690    -0.4230 H     1 <1>   0.1500 
 30 H       -3.5470     1.5330    -2.7230 H     1 <1>   0.1500 
 31 H       -5.4130    -2.9590    -2.7880 H     1 <1>   0.1500 
 32 H       -4.4880    -4.5780     0.1330 H     1 <1>   0.0800 
 33 H       -5.7690    -4.5850    -1.0440 H     1 <1>   0.0800 
 34 H       -6.7870    -4.8630     0.9700 H     1 <1>   0.4500 
 35 H       -7.7980    -3.1960    -0.4930 H     1 <1>   0.0800 
 36 H       -7.1820    -1.9850     0.5880 H     1 <1>   0.0800 
 37 H       -5.9070    -2.5590     2.4200 H     1 <1>   0.0800 
 38 H       -4.6800    -3.7610     2.1380 H     1 <1>   0.0800 
 39 H       -9.6200    -3.2510     0.8320 H     1 <1>   0.0800 
 40 H       -8.8240    -2.4090     2.1050 H     1 <1>   0.0800 
 41 H       -5.8380    -4.2750     4.1960 H     1 <1>   0.0800 
 42 H       -6.1120    -5.5270     3.0440 H     1 <1>   0.0800 
 43 H       -8.0610    -3.3830     3.9310 H     1 <1>   0.0800 
 44 H       -8.1720    -5.0920     4.2050 H     1 <1>   0.0800 
 45 H       -9.8250    -7.1360     0.4500 H     1 <1>   0.0800 
 46 H      -11.5180    -4.6880     0.9660 H     1 <1>   0.0800 
 47 H      -11.5030    -6.0630     2.0130 H     1 <1>   0.0800 
 48 H      -11.1180    -4.3570    -1.3620 H     1 <1>   0.1500 
 49 H      -12.2870    -6.2390    -0.9130 H     1 <1>   0.0800 
 50 H      -13.3760    -6.2280     0.4470 H     1 <1>   0.0800 
 51 H      -12.2650    -7.5520     0.2330 H     1 <1>   0.0800 
 52 H       -7.2550    -5.0510    -2.9330 H     1 <1>   0.1500 
 53 H       -9.5210    -3.8360    -3.4600 H     1 <1>   0.1500 
@<TRIPOS>BOND
  1   1   2  1   
  2   1   3  1   
  3   2   4  2   
  4   2   5  1   
  5   3   6  2   
  6   3  29  1   
  7   4   7  1   
  8   5   6  1   
  9   5   8  am  
 10   6  30  1   
 11   7   9  2   
 12   7  10  1   
 13   8   9  1   
 14   8  11  2   
 15   9  31  1   
 16  10  12  1   
 17  10  32  1   
 18  10  33  1   
 19  12  13  1   
 20  12  14  1   
 21  12  34  1   
 22  13  15  1   
 23  13  35  1   
 24  13  36  1   
 25  14  16  1   
 26  14  37  1   
 27  14  38  1   
 28  15  17  1   
 29  15  39  1   
 30  15  40  1   
 31  16  18  1   
 32  16  41  1   
 33  16  42  1   
 34  17  18  1   
 35  17  19  am  
 36  18  43  1   
 37  18  44  1   
 38  19  20  2   
 39  19  21  1   
 40  21  22  1   
 41  21  23  1   
 42  21  45  1   
 43  22  24  1   
 44  22  25  1   
 45  23  26  1   
 46  23  46  1   
 47  23  47  1   
 48  24  27  2   
 49  25  28  2   
 50  25  48  1   
 51  26  49  1   
 52  26  50  1   
 53  26  51  1   
 54  27  28  1   
 55  27  52  1   
 56  28  53  1   
@<TRIPOS>SUBSTRUCTURE
  1 ****  13 GROUP 4 **** **** 0

# MOE 2024.06 (io_trps.svl 2023.06)
