@<TRIPOS>MOLECULE
NONAME
54 57 1 0 0 
SMALL
USER_CHARGES


@<TRIPOS>ATOM
  1 O        0.8530     1.9310     0.1540 O.co2 1 <1>  -0.9000 
  2 C        1.6200     1.0170     0.4500 C.2   1 <1>   0.9060 
  3 O        1.7250     0.6100     1.6200 O.co2 1 <1>  -0.9000 
  4 C        2.4240     0.3150    -0.6600 C.3   1 <1>  -0.1060 
  5 C        3.6850    -0.3320    -0.0430 C.3   1 <1>   0.4230 
  6 C        2.8740     1.3390    -1.7420 C.3   1 <1>  -0.1600 
  7 C        1.5670    -0.7840    -1.3330 C.3   1 <1>  -0.1600 
  8 N        3.2900    -1.3920     0.9520 N.4   1 <1>  -0.9590 
  9 C        4.6380     0.7600     0.5040 C.3   1 <1>   0.2090 
 10 C        3.8520     2.3810    -1.1840 C.3   1 <1>   0.2090 
 11 C        1.2470    -1.9220    -0.3500 C.3   1 <1>  -0.1600 
 12 C        2.5020    -2.4830     0.3240 C.3   1 <1>   0.3430 
 13 C        4.3770    -1.8950     1.8310 C.3   1 <1>   0.2630 
 14 N        5.0280     1.6650    -0.6100 N.pl3 1 <1>  -0.8380 
 15 C        6.2250     2.3430    -0.5000 C.ar  1 <1>   0.4100 
 16 N        6.1940     3.6240    -0.2840 N.ar  1 <1>  -0.6200 
 17 C        7.4230     1.6190    -0.6160 C.ar  1 <1>  -0.1500 
 18 C        7.3730     4.2890    -0.1530 C.ar  1 <1>   0.3100 
 19 C        8.6280     2.2350    -0.4890 C.ar  1 <1>  -0.1430 
 20 C        7.3650     5.6920     0.0840 C.ar  1 <1>   0.0830 
 21 C        8.6250     3.6280    -0.2410 C.ar  1 <1>   0.0000 
 22 C        9.9220     1.4430    -0.6210 C.3   1 <1>  -0.0970 
 23 O        6.1540     6.3170     0.1590 O.3   1 <1>  -0.3620 
 24 C        8.5450     6.3890     0.2330 C.ar  1 <1>  -0.1500 
 25 C        9.8060     4.3820    -0.0810 C.ar  1 <1>  -0.1500 
 26 C        6.0140     7.6800     0.4850 C.3   1 <1>   0.0400 
 27 C        9.7690     5.7280     0.1500 C.ar  1 <1>  -0.1500 
 28 H        4.2200    -0.8170    -0.8410 H     1 <1>   0.0800 
 29 H        2.0130     1.8550    -2.1320 H     1 <1>   0.0800 
 30 H        3.3510     0.8370    -2.5640 H     1 <1>   0.0800 
 31 H        0.6460    -0.3470    -1.6860 H     1 <1>   0.0800 
 32 H        2.0890    -1.1860    -2.1830 H     1 <1>   0.0800 
 33 H        2.6090    -0.8420     1.5450 H     1 <1>   0.4500 
 34 H        5.5250     0.3140     0.9120 H     1 <1>   0.0800 
 35 H        4.1560     1.3370     1.2750 H     1 <1>   0.0800 
 36 H        3.3780     2.9780    -0.4210 H     1 <1>   0.0800 
 37 H        4.1750     3.0420    -1.9710 H     1 <1>   0.0800 
 38 H        0.7430    -2.7140    -0.8740 H     1 <1>   0.0800 
 39 H        0.5720    -1.5650     0.4100 H     1 <1>   0.0800 
 40 H        3.1070    -2.9890    -0.4100 H     1 <1>   0.0800 
 41 H        2.2060    -3.1980     1.0750 H     1 <1>   0.0800 
 42 H        5.1440    -2.3700     1.2430 H     1 <1>   0.0800 
 43 H        3.9810    -2.6090     2.5350 H     1 <1>   0.0800 
 44 H        4.8110    -1.0800     2.3860 H     1 <1>   0.0800 
 45 H        7.3440     0.5710    -0.8190 H     1 <1>   0.1500 
 46 H        9.7180     0.4060    -0.8170 H     1 <1>   0.0800 
 47 H       10.4910     1.5100     0.2890 H     1 <1>   0.0800 
 48 H       10.5090     1.8300    -1.4350 H     1 <1>   0.0800 
 49 H        8.5640     7.4460     0.4120 H     1 <1>   0.1500 
 50 H       10.7600     3.8910    -0.1430 H     1 <1>   0.1500 
 51 H        4.9630     7.9060     0.5160 H     1 <1>   0.0800 
 52 H        6.4930     8.2720    -0.2750 H     1 <1>   0.0800 
 53 H        6.4540     7.8540     1.4500 H     1 <1>   0.0800 
 54 H       10.6790     6.2910     0.2700 H     1 <1>   0.1500 
@<TRIPOS>BOND
  1   1   2  ar  
  2   2   3  ar  
  3   2   4  1   
  4   4   5  1   
  5   4   6  1   
  6   4   7  1   
  7   5   8  1   
  8   5   9  1   
  9   5  28  1   
 10   6  10  1   
 11   6  29  1   
 12   6  30  1   
 13   7  11  1   
 14   7  31  1   
 15   7  32  1   
 16   8  12  1   
 17   8  13  1   
 18   8  33  1   
 19   9  14  1   
 20   9  34  1   
 21   9  35  1   
 22  10  14  1   
 23  10  36  1   
 24  10  37  1   
 25  11  12  1   
 26  11  38  1   
 27  11  39  1   
 28  12  40  1   
 29  12  41  1   
 30  13  42  1   
 31  13  43  1   
 32  13  44  1   
 33  14  15  1   
 34  15  16  ar  
 35  15  17  ar  
 36  16  18  ar  
 37  17  19  ar  
 38  17  45  1   
 39  18  20  ar  
 40  18  21  ar  
 41  19  21  ar  
 42  19  22  1   
 43  20  23  1   
 44  20  24  ar  
 45  21  25  ar  
 46  22  46  1   
 47  22  47  1   
 48  22  48  1   
 49  23  26  1   
 50  24  27  ar  
 51  24  49  1   
 52  25  27  ar  
 53  25  50  1   
 54  26  51  1   
 55  26  52  1   
 56  26  53  1   
 57  27  54  1   
@<TRIPOS>SUBSTRUCTURE
  1 ****  14 GROUP 4 **** **** 0

# MOE 2024.06 (io_trps.svl 2023.06)
