@<TRIPOS>MOLECULE
NONAME
31 33 1 0 0 
SMALL
USER_CHARGES


@<TRIPOS>ATOM
  1 CL      -0.5000    -0.1750    -0.3830 Cl    1 <1>  -0.1770 
  2 C       -0.4580    -1.9170    -0.3440 C.ar  1 <1>   0.1770 
  3 C        0.5630    -2.5570     0.3290 C.ar  1 <1>  -0.1500 
  4 C       -1.4510    -2.6360    -0.9890 C.ar  1 <1>  -0.1500 
  5 C        0.5690    -3.9390     0.3390 C.ar  1 <1>   0.1900 
  6 C       -1.4180    -4.0210    -0.9640 C.ar  1 <1>  -0.1500 
  7 F        1.5360    -4.5270     0.9890 F     1 <1>  -0.1900 
  8 C       -0.4020    -4.7110    -0.2970 C.ar  1 <1>   0.0860 
  9 C       -0.3710    -6.1550    -0.2850 C.2   1 <1>   0.5440 
 10 O        0.4730    -6.7350    -0.9440 O.2   1 <1>  -0.5700 
 11 N       -1.2960    -6.8780     0.4200 N.am  1 <1>  -0.6600 
 12 C       -2.3940    -6.3080     1.2540 C.3   1 <1>   0.2350 
 13 C       -1.6260    -8.2990     0.1060 C.3   1 <1>   0.2350 
 14 C       -3.6220    -7.1170     0.8900 C.3   1 <1>  -0.2420 
 15 C       -3.1430    -8.3740     0.2030 C.3   1 <1>  -0.2420 
 16 C       -4.7470    -6.8280     1.8860 C.2   1 <1>   0.9470 
 17 C       -3.9980    -7.3830    -0.5480 C.3   1 <1>  -0.2000 
 18 C       -3.6150    -9.8250     0.3270 C.2   1 <1>   0.9470 
 19 O       -5.8080    -6.3380     1.4750 O.co2 1 <1>  -0.9000 
 20 O       -4.5060    -6.9050     3.0980 O.co2 1 <1>  -0.9000 
 21 O       -4.4090   -10.2820    -0.5080 O.co2 1 <1>  -0.9000 
 22 O       -3.0790   -10.5600     1.1680 O.co2 1 <1>  -0.9000 
 23 H        1.3300    -1.9970     0.8300 H     1 <1>   0.1500 
 24 H       -2.2400    -2.1150    -1.5020 H     1 <1>   0.1500 
 25 H       -2.1880    -4.5900    -1.4600 H     1 <1>   0.1500 
 26 H       -2.1590    -6.4550     2.2950 H     1 <1>   0.0800 
 27 H       -2.5650    -5.2650     1.0710 H     1 <1>   0.0800 
 28 H       -1.2900    -8.5770    -0.8770 H     1 <1>   0.0800 
 29 H       -1.1710    -8.9410     0.8400 H     1 <1>   0.0800 
 30 H       -3.5610    -6.8010    -1.3350 H     1 <1>   0.1000 
 31 H       -5.0170    -7.6630    -0.7580 H     1 <1>   0.1000 
@<TRIPOS>BOND
  1   1   2  1   
  2   2   3  ar  
  3   2   4  ar  
  4   3   5  ar  
  5   3  23  1   
  6   4   6  ar  
  7   4  24  1   
  8   5   7  1   
  9   5   8  ar  
 10   6   8  ar  
 11   6  25  1   
 12   8   9  1   
 13   9  10  2   
 14   9  11  am  
 15  11  12  1   
 16  11  13  1   
 17  12  14  1   
 18  12  26  1   
 19  12  27  1   
 20  13  15  1   
 21  13  28  1   
 22  13  29  1   
 23  14  15  1   
 24  14  16  1   
 25  14  17  1   
 26  15  17  1   
 27  15  18  1   
 28  16  19  ar  
 29  16  20  ar  
 30  17  30  1   
 31  17  31  1   
 32  18  21  ar  
 33  18  22  ar  
@<TRIPOS>SUBSTRUCTURE
  1 ****  12 GROUP 4 **** **** 0

# MOE 2024.06 (io_trps.svl 2023.06)
