@<TRIPOS>MOLECULE
NONAME
49 51 1 0 0 
SMALL
USER_CHARGES


@<TRIPOS>ATOM
  1 S       -0.6360     0.5830    -1.1840 S.o2  1 <1>   1.4470 
  2 O        0.1100     1.2950    -2.1980 O.2   1 <1>  -0.6500 
  3 O       -1.9130     0.0010    -1.5530 O.2   1 <1>  -0.6500 
  4 N       -0.9730     1.6860     0.0630 N.am  1 <1>  -0.8490 
  5 C        0.4190    -0.6720    -0.3810 C.ar  1 <1>  -0.0090 
  6 C       -1.6680     1.0860     1.2170 C.3   1 <1>   0.1960 
  7 C       -1.5350     2.9580    -0.4100 C.3   1 <1>   0.1960 
  8 C        1.7070    -0.3960     0.0990 C.ar  1 <1>  -0.1440 
  9 C       -0.0820    -1.9650    -0.2190 C.ar  1 <1>  -0.1500 
 10 C       -2.8360     1.9370     1.7300 C.3   1 <1>  -0.1600 
 11 C       -3.0370     2.8200    -0.6550 C.3   1 <1>  -0.1600 
 12 C        2.4540    -1.3900     0.7170 C.ar  1 <1>  -0.1500 
 13 C        2.3370     0.9860    -0.0380 C.3   1 <1>  -0.0970 
 14 C        0.6550    -2.9620     0.3960 C.ar  1 <1>  -0.1500 
 15 C       -3.8070     2.3580     0.6060 C.3   1 <1>   0.2800 
 16 C        1.9160    -2.6520     0.8550 C.ar  1 <1>   0.1900 
 17 O       -4.4390     3.5170     1.1040 O.3   1 <1>  -0.5600 
 18 C       -4.8540     1.2340     0.3170 C.3   1 <1>   0.2000 
 19 F        2.6230    -3.5810     1.4380 F     1 <1>  -0.1900 
 20 C       -5.8360     3.6450     1.0370 C.3   1 <1>   0.1200 
 21 O       -4.2910     0.0300    -0.1380 O.3   1 <1>  -0.6800 
 22 C       -6.0410     1.7080    -0.5740 C.3   1 <1>   0.2800 
 23 C       -6.3450     3.1950    -0.3350 C.3   1 <1>  -0.1600 
 24 O       -7.1480     0.9950    -0.1620 O.3   1 <1>  -0.6800 
 25 C       -5.9220     1.4180    -2.0780 C.3   1 <1>  -0.2400 
 26 H       -2.0400     0.1080     0.9670 H     1 <1>   0.0800 
 27 H       -0.9550     0.9530     2.0130 H     1 <1>   0.0800 
 28 H       -1.3620     3.7190     0.3330 H     1 <1>   0.0800 
 29 H       -1.0390     3.2790    -1.3110 H     1 <1>   0.0800 
 30 H       -1.0700    -2.2010    -0.5800 H     1 <1>   0.1500 
 31 H       -2.4270     2.8120     2.2030 H     1 <1>   0.0800 
 32 H       -3.3650     1.3860     2.4850 H     1 <1>   0.0800 
 33 H       -3.1750     2.1320    -1.4620 H     1 <1>   0.0800 
 34 H       -3.4170     3.7670    -0.9930 H     1 <1>   0.0800 
 35 H        3.4450    -1.2010     1.0900 H     1 <1>   0.1500 
 36 H        3.2970     1.0250     0.4440 H     1 <1>   0.0800 
 37 H        1.7120     1.7350     0.4140 H     1 <1>   0.0800 
 38 H        2.4780     1.2300    -1.0760 H     1 <1>   0.0800 
 39 H        0.2630    -3.9560     0.5170 H     1 <1>   0.1500 
 40 H       -5.2750     0.9880     1.2770 H     1 <1>   0.0800 
 41 H       -6.2740     3.0530     1.8230 H     1 <1>   0.0800 
 42 H       -6.0770     4.6790     1.2090 H     1 <1>   0.0800 
 43 H       -3.6070     0.1800    -0.8370 H     1 <1>   0.4000 
 44 H       -5.8610     3.8020    -1.0780 H     1 <1>   0.0800 
 45 H       -7.4020     3.3760    -0.4160 H     1 <1>   0.0800 
 46 H       -6.9410     0.0430    -0.2470 H     1 <1>   0.4000 
 47 H       -5.1150     1.9720    -2.5150 H     1 <1>   0.0800 
 48 H       -6.8280     1.7090    -2.5790 H     1 <1>   0.0800 
 49 H       -5.7490     0.3720    -2.2580 H     1 <1>   0.0800 
@<TRIPOS>BOND
  1   1   2  2   
  2   1   3  2   
  3   1   4  am  
  4   1   5  1   
  5   4   6  1   
  6   4   7  1   
  7   5   8  ar  
  8   5   9  ar  
  9   6  10  1   
 10   6  26  1   
 11   6  27  1   
 12   7  11  1   
 13   7  28  1   
 14   7  29  1   
 15   8  12  ar  
 16   8  13  1   
 17   9  14  ar  
 18   9  30  1   
 19  10  15  1   
 20  10  31  1   
 21  10  32  1   
 22  11  15  1   
 23  11  33  1   
 24  11  34  1   
 25  12  16  ar  
 26  12  35  1   
 27  13  36  1   
 28  13  37  1   
 29  13  38  1   
 30  14  16  ar  
 31  14  39  1   
 32  15  17  1   
 33  15  18  1   
 34  16  19  1   
 35  17  20  1   
 36  18  21  1   
 37  18  22  1   
 38  18  40  1   
 39  20  23  1   
 40  20  41  1   
 41  20  42  1   
 42  21  43  1   
 43  22  23  1   
 44  22  24  1   
 45  22  25  1   
 46  23  44  1   
 47  23  45  1   
 48  24  46  1   
 49  25  47  1   
 50  25  48  1   
 51  25  49  1   
@<TRIPOS>SUBSTRUCTURE
  1 ****   6 GROUP 4 **** **** 0

# MOE 2024.06 (io_trps.svl 2023.06)
