@<TRIPOS>MOLECULE
NONAME
50 52 1 0 0 
SMALL
USER_CHARGES


@<TRIPOS>ATOM
  1 O        0.9420    -0.5580     1.6130 O.2   1 <1>  -0.5700 
  2 C        1.4600    -1.2780     0.7910 C.2   1 <1>   0.5690 
  3 N        0.8330    -2.3970     0.3060 N.am  1 <1>  -0.6600 
  4 C        2.8350    -0.8790     0.2820 C.3   1 <1>  -0.0990 
  5 C        1.4510    -3.3440    -0.6610 C.3   1 <1>   0.1400 
  6 C       -0.4920    -2.8160     0.8380 C.3   1 <1>   0.1400 
  7 C        3.5830    -2.0130    -0.4310 C.3   1 <1>  -0.1600 
  8 C        2.6340    -2.7160    -1.4040 C.3   1 <1>  -0.1600 
  9 C       -1.6020    -2.0500     0.1160 C.3   1 <1>  -0.0990 
 10 C       -2.9900    -2.4820     0.5540 C.2   1 <1>   0.5690 
 11 O       -3.1010    -3.5330     1.1430 O.2   1 <1>  -0.5700 
 12 N       -4.0830    -1.7030     0.2660 N.am  1 <1>  -0.6600 
 13 C       -5.4440    -2.0750     0.7570 C.3   1 <1>   0.1400 
 14 C       -4.0750    -0.4610    -0.5590 C.3   1 <1>   0.1400 
 15 C       -6.4220    -2.3010    -0.4230 C.3   1 <1>   0.0000 
 16 C       -5.0250    -0.6240    -1.7510 C.3   1 <1>  -0.1600 
 17 C       -7.8390    -2.6740     0.0590 C.3   1 <1>   0.2000 
 18 C       -6.4410    -1.0370    -1.3110 C.3   1 <1>  -0.1600 
 19 C       -6.0240    -3.5600    -1.2150 C.3   1 <1>  -0.1600 
 20 O       -8.2050    -2.0200     1.2230 O.3   1 <1>  -0.6800 
 21 C       -7.8500    -4.1890     0.2830 C.3   1 <1>  -0.1600 
 22 C       -6.6040    -4.7350    -0.4270 C.3   1 <1>  -0.1600 
 23 H        2.6990    -0.0580    -0.3980 H     1 <1>   0.0800 
 24 H        3.4210    -0.5250     1.1110 H     1 <1>   0.0800 
 25 H        1.7890    -4.2110    -0.1180 H     1 <1>   0.0800 
 26 H        0.7110    -3.6630    -1.3750 H     1 <1>   0.0800 
 27 H       -0.6220    -3.8770     0.7050 H     1 <1>   0.0800 
 28 H       -0.5410    -2.6080     1.8940 H     1 <1>   0.0800 
 29 H        4.4330    -1.6160    -0.9580 H     1 <1>   0.0800 
 30 H        3.9380    -2.7220     0.2980 H     1 <1>   0.0800 
 31 H        3.1630    -3.4860    -1.9380 H     1 <1>   0.0800 
 32 H        2.2630    -2.0120    -2.1290 H     1 <1>   0.0800 
 33 H       -1.5180    -2.2050    -0.9420 H     1 <1>   0.0800 
 34 H       -1.4760    -1.0070     0.3370 H     1 <1>   0.0800 
 35 H       -5.3970    -2.9580     1.3700 H     1 <1>   0.0800 
 36 H       -5.8020    -1.2700     1.3740 H     1 <1>   0.0800 
 37 H       -4.4000     0.3630     0.0540 H     1 <1>   0.0800 
 38 H       -3.0910    -0.2350    -0.9240 H     1 <1>   0.0800 
 39 H       -5.0760     0.3050    -2.2900 H     1 <1>   0.0800 
 40 H       -4.6200    -1.3630    -2.4200 H     1 <1>   0.0800 
 41 H       -8.5600    -2.4210    -0.7000 H     1 <1>   0.0800 
 42 H       -7.0550    -1.2000    -2.1790 H     1 <1>   0.0800 
 43 H       -6.8810    -0.2290    -0.7500 H     1 <1>   0.0800 
 44 H       -6.4830    -3.5370    -2.1890 H     1 <1>   0.0800 
 45 H       -4.9600    -3.6590    -1.3430 H     1 <1>   0.0800 
 46 H       -7.6880    -2.3680     1.9740 H     1 <1>   0.4000 
 47 H       -7.8150    -4.4420     1.3280 H     1 <1>   0.0800 
 48 H       -8.7400    -4.6080    -0.1530 H     1 <1>   0.0800 
 49 H       -5.8850    -5.0610     0.3060 H     1 <1>   0.0800 
 50 H       -6.8400    -5.5640    -1.0720 H     1 <1>   0.0800 
@<TRIPOS>BOND
  1   1   2  2   
  2   2   3  am  
  3   2   4  1   
  4   3   5  1   
  5   3   6  1   
  6   4   7  1   
  7   4  23  1   
  8   4  24  1   
  9   5   8  1   
 10   5  25  1   
 11   5  26  1   
 12   6   9  1   
 13   6  27  1   
 14   6  28  1   
 15   7   8  1   
 16   7  29  1   
 17   7  30  1   
 18   8  31  1   
 19   8  32  1   
 20   9  10  1   
 21   9  33  1   
 22   9  34  1   
 23  10  11  2   
 24  10  12  am  
 25  12  13  1   
 26  12  14  1   
 27  13  15  1   
 28  13  35  1   
 29  13  36  1   
 30  14  16  1   
 31  14  37  1   
 32  14  38  1   
 33  15  17  1   
 34  15  18  1   
 35  15  19  1   
 36  16  18  1   
 37  16  39  1   
 38  16  40  1   
 39  17  20  1   
 40  17  21  1   
 41  17  41  1   
 42  18  42  1   
 43  18  43  1   
 44  19  22  1   
 45  19  44  1   
 46  19  45  1   
 47  20  46  1   
 48  21  22  1   
 49  21  47  1   
 50  21  48  1   
 51  22  49  1   
 52  22  50  1   
@<TRIPOS>SUBSTRUCTURE
  1 ****  10 GROUP 4 **** **** 0

# MOE 2024.06 (io_trps.svl 2023.06)
