@<TRIPOS>MOLECULE
NONAME
52 54 1 0 0 
SMALL
USER_CHARGES


@<TRIPOS>ATOM
  1 O       -0.6090     1.1820     2.3130 O.2   1 <1>  -0.5700 
  2 C       -0.2080     2.0790     1.6090 C.2   1 <1>   0.5690 
  3 N       -1.0680     2.9390     0.9680 N.am  1 <1>  -0.6600 
  4 C        1.3010     2.2110     1.4630 C.3   1 <1>  -0.0990 
  5 C       -2.5510     2.7610     1.0690 C.3   1 <1>   0.1400 
  6 C       -0.6820     4.0700     0.0800 C.3   1 <1>   0.1400 
  7 C        1.8360     1.6630     0.1240 C.3   1 <1>  -0.0800 
  8 C       -3.1670     2.4820    -0.3250 C.3   1 <1>   0.0000 
  9 C       -1.2490     3.8370    -1.3260 C.3   1 <1>  -0.1600 
 10 C        1.5720     0.1520    -0.0140 C.3   1 <1>  -0.1600 
 11 C        3.3400     1.9570    -0.0110 C.3   1 <1>  -0.1600 
 12 C       -4.6950     2.3210    -0.2380 C.3   1 <1>   0.2000 
 13 C       -2.7700     3.6150    -1.2970 C.3   1 <1>  -0.1600 
 14 C       -2.7390     1.0950    -0.8350 C.3   1 <1>  -0.1600 
 15 C        2.1350    -0.3990    -1.3310 C.3   1 <1>  -0.1600 
 16 C        3.9040     1.4100    -1.3290 C.3   1 <1>  -0.1600 
 17 O       -5.2590     3.2500     0.6390 O.3   1 <1>  -0.5600 
 18 C       -4.9340     0.8830     0.2360 C.3   1 <1>  -0.1600 
 19 C       -3.6690     0.0980    -0.1380 C.3   1 <1>  -0.1600 
 20 C        3.6310    -0.0940    -1.4660 C.3   1 <1>  -0.1600 
 21 C       -6.6440     3.3720     0.5550 C.3   1 <1>   0.0400 
 22 H        1.5730     3.2410     1.5840 H     1 <1>   0.0800 
 23 H        1.7620     1.6720     2.2710 H     1 <1>   0.0800 
 24 H       -2.7930     1.9610     1.7470 H     1 <1>   0.0800 
 25 H       -2.9720     3.6620     1.4790 H     1 <1>   0.0800 
 26 H       -1.0880     4.9800     0.4860 H     1 <1>   0.0800 
 27 H        0.3840     4.1820     0.0230 H     1 <1>   0.0800 
 28 H        1.3270     2.1620    -0.6810 H     1 <1>   0.0800 
 29 H       -1.0240     4.6900    -1.9420 H     1 <1>   0.0800 
 30 H       -0.7620     2.9830    -1.7630 H     1 <1>   0.0800 
 31 H        2.0250    -0.3700     0.8110 H     1 <1>   0.0800 
 32 H        0.5140    -0.0430     0.0210 H     1 <1>   0.0800 
 33 H        3.5090     3.0190     0.0300 H     1 <1>   0.0800 
 34 H        3.8690     1.5060     0.8120 H     1 <1>   0.0800 
 35 H       -5.1200     2.4590    -1.2180 H     1 <1>   0.0800 
 36 H       -3.1230     3.3950    -2.2900 H     1 <1>   0.0800 
 37 H       -3.2480     4.5250    -0.9760 H     1 <1>   0.0800 
 38 H       -2.8990     1.0340    -1.8970 H     1 <1>   0.0800 
 39 H       -1.7050     0.8770    -0.6340 H     1 <1>   0.0800 
 40 H        1.9790    -1.4640    -1.3700 H     1 <1>   0.0800 
 41 H        1.6040     0.0420    -2.1570 H     1 <1>   0.0800 
 42 H        3.4500     1.9300    -2.1550 H     1 <1>   0.0800 
 43 H        4.9640     1.5880    -1.3690 H     1 <1>   0.0800 
 44 H       -5.0650     0.8610     1.3050 H     1 <1>   0.0800 
 45 H       -5.7990     0.4660    -0.2450 H     1 <1>   0.0800 
 46 H       -3.1950    -0.2690     0.7580 H     1 <1>   0.0800 
 47 H       -3.8920    -0.7370    -0.7790 H     1 <1>   0.0800 
 48 H        3.9860    -0.4400    -2.4210 H     1 <1>   0.0800 
 49 H        4.1720    -0.6240    -0.7010 H     1 <1>   0.0800 
 50 H       -6.9550     4.1260     1.2560 H     1 <1>   0.0800 
 51 H       -7.1030     2.4330     0.8090 H     1 <1>   0.0800 
 52 H       -6.9150     3.6710    -0.4430 H     1 <1>   0.0800 
@<TRIPOS>BOND
  1   1   2  2   
  2   2   3  am  
  3   2   4  1   
  4   3   5  1   
  5   3   6  1   
  6   4   7  1   
  7   4  22  1   
  8   4  23  1   
  9   5   8  1   
 10   5  24  1   
 11   5  25  1   
 12   6   9  1   
 13   6  26  1   
 14   6  27  1   
 15   7  10  1   
 16   7  11  1   
 17   7  28  1   
 18   8  12  1   
 19   8  13  1   
 20   8  14  1   
 21   9  13  1   
 22   9  29  1   
 23   9  30  1   
 24  10  15  1   
 25  10  31  1   
 26  10  32  1   
 27  11  16  1   
 28  11  33  1   
 29  11  34  1   
 30  12  17  1   
 31  12  18  1   
 32  12  35  1   
 33  13  36  1   
 34  13  37  1   
 35  14  19  1   
 36  14  38  1   
 37  14  39  1   
 38  15  20  1   
 39  15  40  1   
 40  15  41  1   
 41  16  20  1   
 42  16  42  1   
 43  16  43  1   
 44  17  21  1   
 45  18  19  1   
 46  18  44  1   
 47  18  45  1   
 48  19  46  1   
 49  19  47  1   
 50  20  48  1   
 51  20  49  1   
 52  21  50  1   
 53  21  51  1   
 54  21  52  1   
@<TRIPOS>SUBSTRUCTURE
  1 ****   3 GROUP 4 **** **** 0

# MOE 2024.06 (io_trps.svl 2023.06)
