@<TRIPOS>MOLECULE
NONAME
44 46 1 0 0 
SMALL
USER_CHARGES


@<TRIPOS>ATOM
  1 CL      -0.4630    -1.0770     2.2180 Cl    1 <1>  -0.1770 
  2 C        1.0140    -1.4310     1.3350 C.ar  1 <1>   0.1770 
  3 C        1.0990    -2.5120     0.4640 C.ar  1 <1>   0.4100 
  4 C        2.1210    -0.6460     1.5020 C.ar  1 <1>   0.1600 
  5 N        2.2280    -2.7720    -0.1700 N.ar  1 <1>  -0.6200 
  6 N        0.0340    -3.3590     0.2040 N.pl3 1 <1>  -0.8380 
  7 N        3.2520    -0.8950     0.8640 N.ar  1 <1>  -0.6200 
  8 C        3.2340    -1.9470     0.0630 C.ar  1 <1>   0.4770 
  9 C        0.2940    -4.8300     0.1040 C.3   1 <1>   0.2090 
 10 C       -1.0260    -2.8580    -0.7060 C.3   1 <1>   0.2090 
 11 C        4.5230    -2.2400    -0.6670 C.3   1 <1>  -0.0960 
 12 C       -0.7340    -5.6580     0.9030 C.3   1 <1>   0.3430 
 13 C       -2.3880    -2.9010    -0.0070 C.3   1 <1>  -0.1600 
 14 N       -2.1750    -5.2970     0.6300 N.4   1 <1>  -0.9590 
 15 C       -2.5030    -3.9280     1.1210 C.3   1 <1>   0.3430 
 16 C       -3.1110    -6.3090     1.1870 C.3   1 <1>   0.4860 
 17 C       -2.8880    -7.6340     0.4870 C.ar  1 <1>  -0.1440 
 18 C       -3.1080    -7.7610    -0.8760 C.ar  1 <1>   0.1900 
 19 C       -2.4620    -8.7560     1.1860 C.ar  1 <1>  -0.1500 
 20 F       -3.4980    -6.7120    -1.5540 F     1 <1>  -0.1900 
 21 C       -2.9190    -8.9480    -1.5560 C.ar  1 <1>  -0.1500 
 22 C       -2.2650    -9.9570     0.5200 C.ar  1 <1>  -0.1500 
 23 C       -2.4920   -10.0560    -0.8440 C.ar  1 <1>  -0.1500 
 24 H        2.0890     0.1980     2.1690 H     1 <1>   0.1500 
 25 H        1.2750    -5.0530     0.4910 H     1 <1>   0.0800 
 26 H        0.2870    -5.1320    -0.9290 H     1 <1>   0.0800 
 27 H       -1.0490    -3.4620    -1.5970 H     1 <1>   0.0800 
 28 H       -0.8070    -1.8470    -1.0120 H     1 <1>   0.0800 
 29 H        4.3420    -2.8830    -1.5080 H     1 <1>   0.0800 
 30 H        5.2100    -2.7210     0.0040 H     1 <1>   0.0800 
 31 H        4.9590    -1.3230    -1.0180 H     1 <1>   0.0800 
 32 H       -0.5270    -5.5260     1.9510 H     1 <1>   0.0800 
 33 H       -0.5700    -6.6970     0.6700 H     1 <1>   0.0800 
 34 H       -3.1610    -3.0620    -0.7370 H     1 <1>   0.0800 
 35 H       -2.5700    -1.9310     0.4180 H     1 <1>   0.0800 
 36 H       -2.3190    -5.3110    -0.3890 H     1 <1>   0.4500 
 37 H       -3.5080    -3.9010     1.5090 H     1 <1>   0.0800 
 38 H       -1.8290    -3.6550     1.9180 H     1 <1>   0.0800 
 39 H       -4.1300    -5.9960     1.0250 H     1 <1>   0.0800 
 40 H       -2.9520    -6.4190     2.2480 H     1 <1>   0.0800 
 41 H       -2.2830    -8.7160     2.2480 H     1 <1>   0.1500 
 42 H       -3.1020    -9.0070    -2.6150 H     1 <1>   0.1500 
 43 H       -1.9370   -10.8270     1.0660 H     1 <1>   0.1500 
 44 H       -2.3380   -10.9950    -1.3500 H     1 <1>   0.1500 
@<TRIPOS>BOND
  1   1   2  1   
  2   2   3  ar  
  3   2   4  ar  
  4   3   5  ar  
  5   3   6  1   
  6   4   7  ar  
  7   4  24  1   
  8   5   8  ar  
  9   6   9  1   
 10   6  10  1   
 11   7   8  ar  
 12   8  11  1   
 13   9  12  1   
 14   9  25  1   
 15   9  26  1   
 16  10  13  1   
 17  10  27  1   
 18  10  28  1   
 19  11  29  1   
 20  11  30  1   
 21  11  31  1   
 22  12  14  1   
 23  12  32  1   
 24  12  33  1   
 25  13  15  1   
 26  13  34  1   
 27  13  35  1   
 28  14  15  1   
 29  14  16  1   
 30  14  36  1   
 31  15  37  1   
 32  15  38  1   
 33  16  17  1   
 34  16  39  1   
 35  16  40  1   
 36  17  18  ar  
 37  17  19  ar  
 38  18  20  1   
 39  18  21  ar  
 40  19  22  ar  
 41  19  41  1   
 42  21  23  ar  
 43  21  42  1   
 44  22  23  ar  
 45  22  43  1   
 46  23  44  1   
@<TRIPOS>SUBSTRUCTURE
  1 ****   9 GROUP 4 **** **** 0

# MOE 2024.06 (io_trps.svl 2023.06)
