@<TRIPOS>MOLECULE
NONAME
40 41 1 0 0 
SMALL
USER_CHARGES


@<TRIPOS>ATOM
  1 S        0.4990     0.6570    -1.5610 S.o2  1 <1>   1.3330 
  2 O       -0.3170     1.6850    -2.1660 O.2   1 <1>  -0.6500 
  3 O        0.7570    -0.5690    -2.2830 O.2   1 <1>  -0.6500 
  4 N       -0.2260     0.2460    -0.0810 N.am  1 <1>  -0.8490 
  5 C        2.0790     1.3620    -1.0860 C.3   1 <1>  -0.0550 
  6 C       -0.8480     1.3880     0.5980 C.3   1 <1>   0.1160 
  7 C       -1.2060    -0.8340    -0.2290 C.3   1 <1>   0.1160 
  8 C        3.0750     0.3460    -0.4860 C.3   1 <1>  -0.0800 
  9 C        4.4720     0.8930    -0.2320 C.3   1 <1>   0.2200 
 10 C        2.6810    -0.2220     0.8830 C.3   1 <1>   0.1200 
 11 N        4.4040     2.2480     0.3610 N.am  1 <1>  -0.7300 
 12 C        4.9710    -0.0860     0.8210 C.3   1 <1>   0.1200 
 13 O        3.8620    -0.3610     1.6200 O.3   1 <1>  -0.5600 
 14 C        4.6470     3.4310    -0.2700 C.2   1 <1>   0.7160 
 15 O        4.9270     3.4020    -1.4550 O.2   1 <1>  -0.5700 
 16 C        4.5380     4.6740     0.4760 C.2   1 <1>   0.1410 
 17 N        4.1180     4.7150     1.7810 N.2   1 <1>  -0.5650 
 18 C        4.7930     5.9510     0.0950 C.2   1 <1>  -0.0400 
 19 C        4.1540     5.9620     2.0730 C.2   1 <1>   0.3280 
 20 O        4.5500     6.7400     1.0980 O.3   1 <1>  -0.2800 
 21 C        5.2780     6.5720    -1.2020 C.3   1 <1>  -0.0600 
 22 H        2.5310     1.7890    -1.9610 H     1 <1>   0.0800 
 23 H        1.9130     2.1620    -0.3930 H     1 <1>   0.0800 
 24 H       -1.2150     1.0890     1.5650 H     1 <1>   0.0800 
 25 H       -1.6700     1.7720     0.0160 H     1 <1>   0.0800 
 26 H       -0.1290     2.1760     0.7390 H     1 <1>   0.0800 
 27 H       -1.6380    -1.0810     0.7260 H     1 <1>   0.0800 
 28 H       -0.7270    -1.7170    -0.6190 H     1 <1>   0.0800 
 29 H       -1.9890    -0.5380    -0.9080 H     1 <1>   0.0800 
 30 H        3.1660    -0.4840    -1.1660 H     1 <1>   0.0800 
 31 H        5.0880     0.8930    -1.1160 H     1 <1>   0.0800 
 32 H        2.2040    -1.1830     0.7970 H     1 <1>   0.0800 
 33 H        2.0420     0.4530     1.4260 H     1 <1>   0.0800 
 34 H        4.1620     2.2880     1.3570 H     1 <1>   0.3700 
 35 H        5.7650     0.3170     1.4250 H     1 <1>   0.0800 
 36 H        5.2870    -1.0080     0.3660 H     1 <1>   0.0800 
 37 H        3.8960     6.4100     3.0170 H     1 <1>   0.1500 
 38 H        5.4650     5.8220    -1.9480 H     1 <1>   0.0800 
 39 H        6.1890     7.1150    -1.0250 H     1 <1>   0.0800 
 40 H        4.5350     7.2530    -1.5770 H     1 <1>   0.0800 
@<TRIPOS>BOND
  1   1   2  2   
  2   1   3  2   
  3   1   4  am  
  4   1   5  1   
  5   4   6  1   
  6   4   7  1   
  7   5   8  1   
  8   5  22  1   
  9   5  23  1   
 10   6  24  1   
 11   6  25  1   
 12   6  26  1   
 13   7  27  1   
 14   7  28  1   
 15   7  29  1   
 16   8   9  1   
 17   8  10  1   
 18   8  30  1   
 19   9  11  1   
 20   9  12  1   
 21   9  31  1   
 22  10  13  1   
 23  10  32  1   
 24  10  33  1   
 25  11  14  am  
 26  11  34  1   
 27  12  13  1   
 28  12  35  1   
 29  12  36  1   
 30  14  15  2   
 31  14  16  1   
 32  16  17  1   
 33  16  18  2   
 34  17  19  2   
 35  18  20  1   
 36  18  21  1   
 37  19  20  1   
 38  19  37  1   
 39  21  38  1   
 40  21  39  1   
 41  21  40  1   
@<TRIPOS>SUBSTRUCTURE
  1 ****  11 GROUP 4 **** **** 0

# MOE 2024.06 (io_trps.svl 2023.06)
