@<TRIPOS>MOLECULE
NONAME
44 45 1 0 0 
SMALL
USER_CHARGES


@<TRIPOS>ATOM
  1 O       -0.1400     0.9920    -0.1670 O.2   1 <1>  -0.5700 
  2 C       -0.7860     2.0230    -0.2120 C.2   1 <1>   0.7150 
  3 N       -2.1400     1.9340    -0.4060 N.am  1 <1>  -0.7300 
  4 C       -0.1640     3.3230    -0.0690 C.2   1 <1>   0.0550 
  5 C       -2.9160     0.6780    -0.5720 C.3   1 <1>   0.0600 
  6 O        1.1340     3.4410     0.1970 O.3   1 <1>  -0.2800 
  7 C       -0.6900     4.5790    -0.1600 C.2   1 <1>  -0.1500 
  8 C        1.4520     4.7120     0.2760 C.2   1 <1>  -0.0400 
  9 C        0.3560     5.4750     0.0630 C.2   1 <1>  -0.1500 
 10 C        2.8960     5.0770     0.5720 C.3   1 <1>   0.3200 
 11 N        3.1320     6.5040     0.2640 N.am  1 <1>  -0.7300 
 12 C        3.7830     7.3730     1.0730 C.2   1 <1>   0.5690 
 13 O        4.2660     7.0270     2.1220 O.2   1 <1>  -0.5700 
 14 C        3.9000     8.8360     0.6510 C.3   1 <1>  -0.0190 
 15 C        2.5170     9.5000     0.5040 C.3   1 <1>  -0.1600 
 16 C        4.7510     9.0070    -0.6320 C.3   1 <1>  -0.1600 
 17 C        2.6270    11.0160     0.2370 C.3   1 <1>   0.2000 
 18 C        4.4570    10.3100    -1.4010 C.3   1 <1>  -0.1600 
 19 O        1.5410    11.3880    -0.5740 O.3   1 <1>  -0.5600 
 20 C        3.9530    11.4120    -0.4670 C.3   1 <1>   0.2000 
 21 C        0.3570    11.6530     0.1120 C.3   1 <1>   0.0400 
 22 O        3.7440    12.5480    -1.2210 O.3   1 <1>  -0.6800 
 23 H       -2.6800     2.7990    -0.4160 H     1 <1>   0.3700 
 24 H       -2.2620    -0.1780    -0.5520 H     1 <1>   0.0800 
 25 H       -3.4360     0.6920    -1.5140 H     1 <1>   0.0800 
 26 H       -3.6310     0.5830     0.2270 H     1 <1>   0.0800 
 27 H       -1.7060     4.8620    -0.3640 H     1 <1>   0.1500 
 28 H        0.2740     6.5470     0.0650 H     1 <1>   0.1500 
 29 H        3.5460     4.4750    -0.0400 H     1 <1>   0.0800 
 30 H        3.1150     4.8700     1.6060 H     1 <1>   0.0800 
 31 H        2.7520     6.8180    -0.6280 H     1 <1>   0.3700 
 32 H        4.4110     9.3440     1.4510 H     1 <1>   0.0800 
 33 H        1.9470     9.3410     1.4020 H     1 <1>   0.0800 
 34 H        1.9960     9.0340    -0.3150 H     1 <1>   0.0800 
 35 H        5.7900     8.9870    -0.3480 H     1 <1>   0.0800 
 36 H        4.5940     8.1810    -1.3030 H     1 <1>   0.0800 
 37 H        2.5760    11.5610     1.1650 H     1 <1>   0.0800 
 38 H        3.6990    10.1180    -2.1410 H     1 <1>   0.0800 
 39 H        5.3480    10.6390    -1.9080 H     1 <1>   0.0800 
 40 H        4.7120    11.6360     0.2630 H     1 <1>   0.0800 
 41 H       -0.3980    11.9120    -0.6100 H     1 <1>   0.0800 
 42 H        0.5130    12.4810     0.7830 H     1 <1>   0.0800 
 43 H        0.0500    10.7770     0.6560 H     1 <1>   0.0800 
 44 H        2.8000    12.5140    -1.5010 H     1 <1>   0.4000 
@<TRIPOS>BOND
  1   1   2  2   
  2   2   3  am  
  3   2   4  1   
  4   3   5  1   
  5   3  23  1   
  6   4   6  1   
  7   4   7  2   
  8   5  24  1   
  9   5  25  1   
 10   5  26  1   
 11   6   8  1   
 12   7   9  1   
 13   7  27  1   
 14   8   9  2   
 15   8  10  1   
 16   9  28  1   
 17  10  11  1   
 18  10  29  1   
 19  10  30  1   
 20  11  12  am  
 21  11  31  1   
 22  12  13  2   
 23  12  14  1   
 24  14  15  1   
 25  14  16  1   
 26  14  32  1   
 27  15  17  1   
 28  15  33  1   
 29  15  34  1   
 30  16  18  1   
 31  16  35  1   
 32  16  36  1   
 33  17  19  1   
 34  17  20  1   
 35  17  37  1   
 36  18  20  1   
 37  18  38  1   
 38  18  39  1   
 39  19  21  1   
 40  20  22  1   
 41  20  40  1   
 42  21  41  1   
 43  21  42  1   
 44  21  43  1   
 45  22  44  1   
@<TRIPOS>SUBSTRUCTURE
  1 ****  11 GROUP 4 **** **** 0

# MOE 2024.06 (io_trps.svl 2023.06)
