@<TRIPOS>MOLECULE
NONAME
36 37 1 0 0 
SMALL
USER_CHARGES


@<TRIPOS>ATOM
  1 O       -0.9440    -0.9970     1.6290 O.3   1 <1>  -0.0190 
  2 N       -1.3290    -0.3150     0.5890 N.2   1 <1>  -0.4100 
  3 C       -0.9410    -2.2810     1.3930 C.2   1 <1>  -0.0400 
  4 C       -1.5750    -1.1760    -0.3320 C.2   1 <1>   0.1080 
  5 C       -1.3450    -2.4730     0.1280 C.2   1 <1>  -0.1810 
  6 C       -0.5390    -3.2450     2.4900 C.3   1 <1>  -0.0600 
  7 C       -2.0490    -0.7920    -1.7180 C.3   1 <1>  -0.0590 
  8 C       -1.5160    -3.7670    -0.6450 C.3   1 <1>   0.2910 
  9 N       -2.4770    -4.6750     0.0100 N.3   1 <1>  -0.8100 
 10 C       -2.4870    -5.9830    -0.6830 C.3   1 <1>   0.2900 
 11 C       -3.8430    -4.0930     0.1000 C.3   1 <1>   0.1100 
 12 C       -3.1120    -7.0660     0.1800 C.2   1 <1>   0.0060 
 13 C       -4.1630    -3.5090     1.4900 C.3   1 <1>   0.1200 
 14 N       -3.7330    -8.1090    -0.2690 N.2   1 <1>  -0.5650 
 15 N       -3.0520    -7.0120     1.5260 N.pl3 1 <1>   0.0330 
 16 O       -4.1090    -4.4910     2.4760 O.3   1 <1>  -0.6800 
 17 C       -4.0970    -8.7720     0.8470 C.2   1 <1>   0.0770 
 18 C       -3.6920    -8.1130     1.9550 C.2   1 <1>  -0.3020 
 19 H        0.4630    -3.0340     2.8140 H     1 <1>   0.0800 
 20 H       -0.5900    -4.2570     2.1330 H     1 <1>   0.0800 
 21 H       -1.2100    -3.1410     3.3230 H     1 <1>   0.0800 
 22 H       -2.1450     0.2760    -1.7880 H     1 <1>   0.0800 
 23 H       -3.0060    -1.2390    -1.9150 H     1 <1>   0.0800 
 24 H       -1.3390    -1.1240    -2.4520 H     1 <1>   0.0800 
 25 H       -0.5540    -4.2470    -0.6970 H     1 <1>   0.0800 
 26 H       -1.8380    -3.5600    -1.6510 H     1 <1>   0.0800 
 27 H       -1.4780    -6.2900    -0.8980 H     1 <1>   0.0800 
 28 H       -3.0220    -5.9120    -1.6160 H     1 <1>   0.0800 
 29 H       -4.5860    -4.8420    -0.1190 H     1 <1>   0.0800 
 30 H       -3.9600    -3.3160    -0.6370 H     1 <1>   0.0800 
 31 H       -5.1570    -3.0950     1.4940 H     1 <1>   0.0800 
 32 H       -3.4750    -2.7270     1.7530 H     1 <1>   0.0800 
 33 H       -2.6630    -6.2200     2.0570 H     1 <1>   0.2700 
 34 H       -4.7490    -5.2000     2.2700 H     1 <1>   0.4000 
 35 H       -4.6400    -9.7000     0.7930 H     1 <1>   0.1500 
 36 H       -3.8200    -8.3580     2.9940 H     1 <1>   0.1500 
@<TRIPOS>BOND
  1   1   2  1   
  2   1   3  1   
  3   2   4  2   
  4   3   5  2   
  5   3   6  1   
  6   4   5  1   
  7   4   7  1   
  8   5   8  1   
  9   6  19  1   
 10   6  20  1   
 11   6  21  1   
 12   7  22  1   
 13   7  23  1   
 14   7  24  1   
 15   8   9  1   
 16   8  25  1   
 17   8  26  1   
 18   9  10  1   
 19   9  11  1   
 20  10  12  1   
 21  10  27  1   
 22  10  28  1   
 23  11  13  1   
 24  11  29  1   
 25  11  30  1   
 26  12  14  2   
 27  12  15  1   
 28  13  16  1   
 29  13  31  1   
 30  13  32  1   
 31  14  17  1   
 32  15  18  1   
 33  15  33  1   
 34  16  34  1   
 35  17  18  2   
 36  17  35  1   
 37  18  36  1   
@<TRIPOS>SUBSTRUCTURE
  1 ****   9 GROUP 4 **** **** 0

# MOE 2024.06 (io_trps.svl 2023.06)
