@<TRIPOS>MOLECULE
NONAME
54 57 1 0 0 
SMALL
USER_CHARGES


@<TRIPOS>ATOM
  1 S       -0.4740     0.4020    -1.1820 S.o2  1 <1>   1.4470 
  2 O       -1.8040     0.8240    -1.5610 O.2   1 <1>  -0.6500 
  3 O        0.3600    -0.2680    -2.1580 O.2   1 <1>  -0.6500 
  4 N        0.3740     1.7950    -0.7090 N.am  1 <1>  -0.8490 
  5 C       -0.5660    -0.5740     0.3460 C.ar  1 <1>  -0.0090 
  6 C        0.2220     2.8670    -1.6960 C.3   1 <1>   0.1960 
  7 C        1.7850     1.5070    -0.4300 C.3   1 <1>   0.1960 
  8 C       -0.1360    -1.8960     0.3860 C.ar  1 <1>  -0.1500 
  9 C       -1.0730    -0.0190     1.5160 C.ar  1 <1>  -0.1500 
 10 C        0.8640     4.1540    -1.1780 C.3   1 <1>  -0.1600 
 11 C        2.4700     2.7510     0.1360 C.3   1 <1>  -0.1600 
 12 C       -0.2030    -2.6370     1.5540 C.ar  1 <1>  -0.1500 
 13 C       -1.1430    -0.7530     2.6880 C.ar  1 <1>  -0.1500 
 14 C        2.3320     3.9170    -0.8360 C.3   1 <1>   0.2890 
 15 C       -0.7070    -2.0640     2.7070 C.ar  1 <1>  -0.1500 
 16 N        2.8880     5.1260    -0.2090 N.pl3 1 <1>  -0.8690 
 17 C        3.3240     6.1770    -0.9710 C.ar  1 <1>   0.4100 
 18 N        2.7910     7.3270    -0.6240 N.ar  1 <1>  -0.6200 
 19 C        4.2460     6.0410    -2.0200 C.ar  1 <1>   0.1600 
 20 C        3.1970     8.3630    -1.3810 C.ar  1 <1>   0.3960 
 21 N        4.6570     7.0270    -2.7880 N.ar  1 <1>  -0.6200 
 22 C        2.7050     9.7230    -1.1450 C.2   1 <1>   0.5440 
 23 C        4.1000     8.1790    -2.4340 C.ar  1 <1>   0.1600 
 24 O        2.5900    10.4770    -2.0970 O.2   1 <1>  -0.5700 
 25 N        2.3880    10.2320     0.1030 N.am  1 <1>  -0.6600 
 26 C        2.5530     9.5310     1.3980 C.3   1 <1>   0.1400 
 27 C        1.9990    11.6430     0.3170 C.3   1 <1>   0.1400 
 28 C        2.1390    10.5450     2.4590 C.3   1 <1>  -0.1600 
 29 C        2.2980    11.9060     1.7870 C.3   1 <1>  -0.1600 
 30 H       -0.8250     3.0560    -1.8730 H     1 <1>   0.0800 
 31 H        0.6710     2.5720    -2.6310 H     1 <1>   0.0800 
 32 H        2.2840     1.1900    -1.3330 H     1 <1>   0.0800 
 33 H        1.8600     0.7100     0.2910 H     1 <1>   0.0800 
 34 H        0.2560    -2.3530    -0.5070 H     1 <1>   0.1500 
 35 H       -1.4170     1.0020     1.5050 H     1 <1>   0.1500 
 36 H        0.3260     4.4800    -0.3050 H     1 <1>   0.0800 
 37 H        0.7850     4.9160    -1.9310 H     1 <1>   0.0800 
 38 H        3.5120     2.5410     0.2990 H     1 <1>   0.0800 
 39 H        2.0180     2.9970     1.0800 H     1 <1>   0.0800 
 40 H        0.1360    -3.6590     1.5640 H     1 <1>   0.1500 
 41 H       -1.5390    -0.3030     3.5820 H     1 <1>   0.1500 
 42 H        2.8740     3.6870    -1.7390 H     1 <1>   0.0800 
 43 H       -0.7610    -2.6380     3.6160 H     1 <1>   0.1500 
 44 H        2.2860     5.4640     0.5460 H     1 <1>   0.4000 
 45 H        4.6490     5.0640    -2.2090 H     1 <1>   0.1500 
 46 H        4.3780     9.0430    -3.0140 H     1 <1>   0.1500 
 47 H        3.5850     9.2490     1.5220 H     1 <1>   0.0800 
 48 H        1.9280     8.6550     1.4420 H     1 <1>   0.0800 
 49 H        0.9470    11.7490     0.1170 H     1 <1>   0.0800 
 50 H        2.5570    12.3040    -0.3260 H     1 <1>   0.0800 
 51 H        2.7330    10.4560     3.3500 H     1 <1>   0.0800 
 52 H        1.1050    10.3820     2.7100 H     1 <1>   0.0800 
 53 H        1.6400    12.6500     2.2020 H     1 <1>   0.0800 
 54 H        3.3150    12.2450     1.8810 H     1 <1>   0.0800 
@<TRIPOS>BOND
  1   1   2  2   
  2   1   3  2   
  3   1   4  am  
  4   1   5  1   
  5   4   6  1   
  6   4   7  1   
  7   5   8  ar  
  8   5   9  ar  
  9   6  10  1   
 10   6  30  1   
 11   6  31  1   
 12   7  11  1   
 13   7  32  1   
 14   7  33  1   
 15   8  12  ar  
 16   8  34  1   
 17   9  13  ar  
 18   9  35  1   
 19  10  14  1   
 20  10  36  1   
 21  10  37  1   
 22  11  14  1   
 23  11  38  1   
 24  11  39  1   
 25  12  15  ar  
 26  12  40  1   
 27  13  15  ar  
 28  13  41  1   
 29  14  16  1   
 30  14  42  1   
 31  15  43  1   
 32  16  17  1   
 33  16  44  1   
 34  17  18  ar  
 35  17  19  ar  
 36  18  20  ar  
 37  19  21  ar  
 38  19  45  1   
 39  20  22  1   
 40  20  23  ar  
 41  21  23  ar  
 42  22  24  2   
 43  22  25  am  
 44  23  46  1   
 45  25  26  1   
 46  25  27  1   
 47  26  28  1   
 48  26  47  1   
 49  26  48  1   
 50  27  29  1   
 51  27  49  1   
 52  27  50  1   
 53  28  29  1   
 54  28  51  1   
 55  28  52  1   
 56  29  53  1   
 57  29  54  1   
@<TRIPOS>SUBSTRUCTURE
  1 ****  14 GROUP 4 **** **** 0

# MOE 2024.06 (io_trps.svl 2023.06)
