@<TRIPOS>MOLECULE
NONAME
36 38 1 0 0 
SMALL
USER_CHARGES


@<TRIPOS>ATOM
  1 O       -0.2030    -0.3750     0.7630 O.3   1 <1>  -0.5600 
  2 C       -0.2770    -1.6240     0.1540 C.3   1 <1>   0.2000 
  3 C        0.2630     0.6750    -0.0310 C.3   1 <1>   0.0400 
  4 C       -1.1150    -2.5220     1.0770 C.3   1 <1>   0.2090 
  5 C        1.1250    -2.2210    -0.0340 C.3   1 <1>  -0.1600 
  6 N       -1.2200    -3.9290     0.5400 N.pl3 1 <1>  -0.8380 
  7 C        1.0230    -3.6770    -0.5190 C.3   1 <1>  -0.1600 
  8 C       -2.3780    -4.5500     0.2130 C.ar  1 <1>   0.4610 
  9 C        0.1410    -4.5480     0.3860 C.3   1 <1>   0.2090 
 10 N       -3.3660    -3.7800    -0.2660 N.ar  1 <1>  -0.1790 
 11 C       -2.6180    -5.9680     0.2820 C.ar  1 <1>   0.0000 
 12 C       -4.5130    -4.2750    -0.8420 C.ar  1 <1>   0.2110 
 13 C       -3.7560    -6.4990    -0.3460 C.ar  1 <1>   0.0000 
 14 C       -1.8190    -6.8790     0.9970 C.ar  1 <1>   0.1600 
 15 C       -4.7080    -5.6120    -0.9100 C.ar  1 <1>  -0.1500 
 16 C       -3.9080    -7.8860    -0.3310 C.ar  1 <1>  -0.1500 
 17 N       -1.9720    -8.1770     1.0260 N.ar  1 <1>  -0.6200 
 18 C       -3.0080    -8.6670     0.3440 C.ar  1 <1>   0.1600 
 19 H       -0.7760    -1.5120    -0.7930 H     1 <1>   0.0800 
 20 H        0.1610     1.5870     0.5300 H     1 <1>   0.0800 
 21 H       -0.3230     0.7380    -0.9310 H     1 <1>   0.0800 
 22 H        1.3020     0.5190    -0.2640 H     1 <1>   0.0800 
 23 H       -2.0850    -2.0820     1.2220 H     1 <1>   0.0800 
 24 H       -0.6330    -2.5590     2.0400 H     1 <1>   0.0800 
 25 H        1.6520    -2.1940     0.9040 H     1 <1>   0.0800 
 26 H        1.6810    -1.6530    -0.7580 H     1 <1>   0.0800 
 27 H        2.0100    -4.1050    -0.5600 H     1 <1>   0.0800 
 28 H        0.6240    -3.6990    -1.5180 H     1 <1>   0.0800 
 29 H        0.0750    -5.5240    -0.0650 H     1 <1>   0.0800 
 30 H        0.6030    -4.6490     1.3550 H     1 <1>   0.0800 
 31 H       -3.1820    -2.7790    -0.2820 H     1 <1>   0.4570 
 32 H       -5.2250    -3.5680    -1.2400 H     1 <1>   0.1500 
 33 H       -1.0100    -6.4920     1.5900 H     1 <1>   0.1500 
 34 H       -5.5860    -6.0330    -1.3730 H     1 <1>   0.1500 
 35 H       -4.7380    -8.3430    -0.8410 H     1 <1>   0.1500 
 36 H       -3.1250    -9.7390     0.3530 H     1 <1>   0.1500 
@<TRIPOS>BOND
  1   1   2  1   
  2   1   3  1   
  3   2   4  1   
  4   2   5  1   
  5   2  19  1   
  6   3  20  1   
  7   3  21  1   
  8   3  22  1   
  9   4   6  1   
 10   4  23  1   
 11   4  24  1   
 12   5   7  1   
 13   5  25  1   
 14   5  26  1   
 15   6   8  1   
 16   6   9  1   
 17   7   9  1   
 18   7  27  1   
 19   7  28  1   
 20   8  10  ar  
 21   8  11  ar  
 22   9  29  1   
 23   9  30  1   
 24  10  12  ar  
 25  10  31  1   
 26  11  13  ar  
 27  11  14  ar  
 28  12  15  ar  
 29  12  32  1   
 30  13  15  ar  
 31  13  16  ar  
 32  14  17  ar  
 33  14  33  1   
 34  15  34  1   
 35  16  18  ar  
 36  16  35  1   
 37  17  18  ar  
 38  18  36  1   
@<TRIPOS>SUBSTRUCTURE
  1 ****   8 GROUP 4 **** **** 0

# MOE 2024.06 (io_trps.svl 2023.06)
