@<TRIPOS>MOLECULE
NONAME
57 60 1 0 0 
SMALL
USER_CHARGES


@<TRIPOS>ATOM
  1 O        0.8160    -2.3070    -1.8350 O.2   1 <1>  -0.5700 
  2 C        1.2230    -1.2850    -1.3010 C.2   1 <1>   0.5440 
  3 N        0.3120    -0.2890    -1.0340 N.am  1 <1>  -0.6600 
  4 C        2.6170    -1.1080    -0.9750 C.ar  1 <1>   0.0860 
  5 C       -0.9790    -0.1460    -1.7400 C.3   1 <1>   0.1400 
  6 C        0.6510     0.9510    -0.2970 C.3   1 <1>   0.1400 
  7 C        3.1550    -1.5180     0.2620 C.ar  1 <1>   0.4100 
  8 C        3.4630    -0.4670    -1.8680 C.ar  1 <1>  -0.1500 
  9 C       -1.3100     1.3380    -1.6480 C.3   1 <1>  -0.1600 
 10 C       -0.6060     1.8090    -0.3790 C.3   1 <1>  -0.1600 
 11 N        4.4010    -1.2610     0.6480 N.ar  1 <1>  -0.6200 
 12 N        2.4190    -2.2470     1.1690 N.pl3 1 <1>  -0.8380 
 13 C        4.7630    -0.2340    -1.4800 C.ar  1 <1>  -0.1500 
 14 C        5.1720    -0.6400    -0.2220 C.ar  1 <1>   0.1600 
 15 C        1.9580    -3.6030     0.8190 C.3   1 <1>   0.2090 
 16 C        2.1790    -1.7610     2.5560 C.3   1 <1>   0.2090 
 17 C        0.4680    -3.6370     1.1510 C.3   1 <1>  -0.0800 
 18 C        1.4270    -2.8130     3.3940 C.3   1 <1>  -0.1600 
 19 C        0.2260    -3.4690     2.6700 C.3   1 <1>  -0.1600 
 20 C       -0.1620    -4.8930     0.5440 C.3   1 <1>   0.3430 
 21 N       -1.5860    -4.6470     0.1830 N.4   1 <1>  -0.9590 
 22 C       -2.3450    -5.9320     0.0180 C.3   1 <1>   0.3430 
 23 C       -1.6700    -3.8310    -1.0850 C.3   1 <1>   0.3430 
 24 C       -3.7750    -5.6790    -0.4990 C.3   1 <1>   0.1200 
 25 C       -3.1230    -3.6800    -1.5710 C.3   1 <1>   0.1200 
 26 O       -3.7390    -4.9310    -1.6800 O.3   1 <1>  -0.5600 
 27 H       -1.7260    -0.7240    -1.2270 H     1 <1>   0.0800 
 28 H       -0.8990    -0.4730    -2.7640 H     1 <1>   0.0800 
 29 H        1.4720     1.4480    -0.7870 H     1 <1>   0.0800 
 30 H        0.9170     0.7320     0.7240 H     1 <1>   0.0800 
 31 H        3.1030    -0.1560    -2.8330 H     1 <1>   0.1500 
 32 H       -2.3710     1.5140    -1.6190 H     1 <1>   0.0800 
 33 H       -0.8960     1.8430    -2.5040 H     1 <1>   0.0800 
 34 H       -0.3720     2.8590    -0.4050 H     1 <1>   0.0800 
 35 H       -1.2230     1.6100     0.4800 H     1 <1>   0.0800 
 36 H        5.4550     0.2610    -2.1380 H     1 <1>   0.1500 
 37 H        6.1870    -0.4430     0.0800 H     1 <1>   0.1500 
 38 H        2.5090    -4.3340     1.3880 H     1 <1>   0.0800 
 39 H        2.1310    -3.7890    -0.2280 H     1 <1>   0.0800 
 40 H        1.5960    -0.8580     2.5050 H     1 <1>   0.0800 
 41 H        3.1220    -1.5250     3.0220 H     1 <1>   0.0800 
 42 H        0.0510    -2.7750     0.6650 H     1 <1>   0.0800 
 43 H        1.0990    -2.3640     4.3150 H     1 <1>   0.0800 
 44 H        2.1370    -3.5770     3.6590 H     1 <1>   0.0800 
 45 H        0.0380    -4.4220     3.1340 H     1 <1>   0.0800 
 46 H       -0.6460    -2.8560     2.8160 H     1 <1>   0.0800 
 47 H       -0.0850    -5.7030     1.2510 H     1 <1>   0.0800 
 48 H        0.3800    -5.1720    -0.3450 H     1 <1>   0.0800 
 49 H       -2.0210    -4.1040     0.9380 H     1 <1>   0.4500 
 50 H       -2.3930    -6.4570     0.9580 H     1 <1>   0.0800 
 51 H       -1.8380    -6.5650    -0.6920 H     1 <1>   0.0800 
 52 H       -1.0950    -4.3040    -1.8650 H     1 <1>   0.0800 
 53 H       -1.2490    -2.8520    -0.9260 H     1 <1>   0.0800 
 54 H       -4.3660    -5.1500     0.2290 H     1 <1>   0.0800 
 55 H       -4.2600    -6.6140    -0.7210 H     1 <1>   0.0800 
 56 H       -3.1380    -3.2220    -2.5450 H     1 <1>   0.0800 
 57 H       -3.6960    -3.0680    -0.8960 H     1 <1>   0.0800 
@<TRIPOS>BOND
  1   1   2  2   
  2   2   3  am  
  3   2   4  1   
  4   3   5  1   
  5   3   6  1   
  6   4   7  ar  
  7   4   8  ar  
  8   5   9  1   
  9   5  27  1   
 10   5  28  1   
 11   6  10  1   
 12   6  29  1   
 13   6  30  1   
 14   7  11  ar  
 15   7  12  1   
 16   8  13  ar  
 17   8  31  1   
 18   9  10  1   
 19   9  32  1   
 20   9  33  1   
 21  10  34  1   
 22  10  35  1   
 23  11  14  ar  
 24  12  15  1   
 25  12  16  1   
 26  13  14  ar  
 27  13  36  1   
 28  14  37  1   
 29  15  17  1   
 30  15  38  1   
 31  15  39  1   
 32  16  18  1   
 33  16  40  1   
 34  16  41  1   
 35  17  19  1   
 36  17  20  1   
 37  17  42  1   
 38  18  19  1   
 39  18  43  1   
 40  18  44  1   
 41  19  45  1   
 42  19  46  1   
 43  20  21  1   
 44  20  47  1   
 45  20  48  1   
 46  21  22  1   
 47  21  23  1   
 48  21  49  1   
 49  22  24  1   
 50  22  50  1   
 51  22  51  1   
 52  23  25  1   
 53  23  52  1   
 54  23  53  1   
 55  24  26  1   
 56  24  54  1   
 57  24  55  1   
 58  25  26  1   
 59  25  56  1   
 60  25  57  1   
@<TRIPOS>SUBSTRUCTURE
  1 ****   2 GROUP 4 **** **** 0

# MOE 2024.06 (io_trps.svl 2023.06)
