@<TRIPOS>MOLECULE
NONAME
46 48 1 0 0 
SMALL
USER_CHARGES


@<TRIPOS>ATOM
  1 S       -0.8480    -1.4300    -2.7800 S.3   1 <1>  -0.0800 
  2 C       -1.8840    -1.6780    -1.3980 C.2   1 <1>  -0.1400 
  3 C       -1.2770     0.2590    -2.7830 C.2   1 <1>   0.2280 
  4 C       -2.4440    -0.4910    -1.0760 C.2   1 <1>   0.0460 
  5 C       -1.8980    -3.1240    -0.9120 C.3   1 <1>   0.0200 
  6 N       -2.0900     0.5920    -1.8660 N.2   1 <1>  -0.5650 
  7 C       -3.4200    -0.1320     0.0290 C.3   1 <1>  -0.0590 
  8 C       -2.7640    -3.3860     0.3190 C.3   1 <1>   0.2090 
  9 N       -2.7080    -4.8270     0.7050 N.pl3 1 <1>  -0.8380 
 10 C       -3.8830    -5.4570     1.0700 C.ar  1 <1>   0.4100 
 11 C       -1.4830    -5.2320     1.4490 C.3   1 <1>   0.1290 
 12 N       -4.7810    -4.7400     1.7360 N.ar  1 <1>  -0.6200 
 13 C       -4.0670    -6.7930     0.7440 C.ar  1 <1>  -0.1500 
 14 C       -5.8780    -5.3820     2.0950 C.ar  1 <1>   0.1600 
 15 C       -5.2190    -7.4630     1.1020 C.ar  1 <1>   0.0860 
 16 C       -6.1410    -6.7060     1.8140 C.ar  1 <1>  -0.1500 
 17 C       -5.4380    -8.8560     0.7660 C.2   1 <1>   0.5440 
 18 O       -4.5660    -9.6670     1.0080 O.2   1 <1>  -0.5700 
 19 N       -6.6060    -9.2850     0.1730 N.am  1 <1>  -0.6600 
 20 C       -6.9370   -10.7360     0.0320 C.3   1 <1>   0.1400 
 21 C       -7.5170    -8.3990    -0.6140 C.3   1 <1>   0.1400 
 22 C       -7.1120   -11.1110    -1.4480 C.3   1 <1>   0.1200 
 23 C       -7.6650    -8.9160    -2.0560 C.3   1 <1>   0.1200 
 24 O       -8.0410   -10.2630    -2.0640 O.3   1 <1>  -0.5600 
 25 H       -0.8320     0.8790    -3.5410 H     1 <1>   0.1500 
 26 H       -0.8870    -3.4100    -0.6900 H     1 <1>   0.0800 
 27 H       -2.2550    -3.7480    -1.7110 H     1 <1>   0.0800 
 28 H       -3.6990    -0.9700     0.6310 H     1 <1>   0.0800 
 29 H       -4.3100     0.2830    -0.4070 H     1 <1>   0.0800 
 30 H       -2.9750     0.6110     0.6660 H     1 <1>   0.0800 
 31 H       -3.7790    -3.1190     0.0810 H     1 <1>   0.0800 
 32 H       -2.4320    -2.7810     1.1440 H     1 <1>   0.0800 
 33 H       -0.6500    -5.3060     0.7710 H     1 <1>   0.0800 
 34 H       -1.6280    -6.1890     1.9200 H     1 <1>   0.0800 
 35 H       -1.2580    -4.5070     2.2130 H     1 <1>   0.0800 
 36 H       -3.2950    -7.3060     0.2030 H     1 <1>   0.1500 
 37 H       -6.6080    -4.8140     2.6470 H     1 <1>   0.1500 
 38 H       -7.0570    -7.1600     2.1470 H     1 <1>   0.1500 
 39 H       -7.8530   -10.9420     0.5580 H     1 <1>   0.0800 
 40 H       -6.1660   -11.3490     0.4650 H     1 <1>   0.0800 
 41 H       -7.1390    -7.3930    -0.6460 H     1 <1>   0.0800 
 42 H       -8.4850    -8.3800    -0.1450 H     1 <1>   0.0800 
 43 H       -7.4780   -12.1190    -1.5350 H     1 <1>   0.0800 
 44 H       -6.1730   -11.0370    -1.9680 H     1 <1>   0.0800 
 45 H       -6.7370    -8.8140    -2.5910 H     1 <1>   0.0800 
 46 H       -8.4260    -8.3600    -2.5740 H     1 <1>   0.0800 
@<TRIPOS>BOND
  1   1   2  1   
  2   1   3  1   
  3   2   4  2   
  4   2   5  1   
  5   3   6  2   
  6   3  25  1   
  7   4   6  1   
  8   4   7  1   
  9   5   8  1   
 10   5  26  1   
 11   5  27  1   
 12   7  28  1   
 13   7  29  1   
 14   7  30  1   
 15   8   9  1   
 16   8  31  1   
 17   8  32  1   
 18   9  10  1   
 19   9  11  1   
 20  10  12  ar  
 21  10  13  ar  
 22  11  33  1   
 23  11  34  1   
 24  11  35  1   
 25  12  14  ar  
 26  13  15  ar  
 27  13  36  1   
 28  14  16  ar  
 29  14  37  1   
 30  15  16  ar  
 31  15  17  1   
 32  16  38  1   
 33  17  18  2   
 34  17  19  am  
 35  19  20  1   
 36  19  21  1   
 37  20  22  1   
 38  20  39  1   
 39  20  40  1   
 40  21  23  1   
 41  21  41  1   
 42  21  42  1   
 43  22  24  1   
 44  22  43  1   
 45  22  44  1   
 46  23  24  1   
 47  23  45  1   
 48  23  46  1   
@<TRIPOS>SUBSTRUCTURE
  1 ****  10 GROUP 4 **** **** 0

# MOE 2024.06 (io_trps.svl 2023.06)
