@<TRIPOS>MOLECULE
NONAME
47 50 1 0 0 
SMALL
USER_CHARGES


@<TRIPOS>ATOM
  1 S        2.7790    -1.2290    -1.6540 S.3   1 <1>  -0.3320 
  2 C        1.1380    -1.4820    -0.9620 C.ar  1 <1>   0.1020 
  3 C        3.6380    -0.1960    -0.3970 C.3   1 <1>   0.1500 
  4 C        0.9300    -2.2460     0.1820 C.ar  1 <1>  -0.1440 
  5 C        0.0900    -0.8600    -1.6170 C.ar  1 <1>  -0.1500 
  6 C        2.8510     1.1060    -0.2340 C.3   1 <1>  -0.1600 
  7 C        5.0570     0.0560    -0.9090 C.3   1 <1>  -0.1600 
  8 C       -0.3620    -2.3390     0.6790 C.ar  1 <1>  -0.1500 
  9 C        2.0400    -3.0020     0.9000 C.3   1 <1>  -0.0970 
 10 C       -1.1920    -0.9680    -1.1100 C.ar  1 <1>  -0.1500 
 11 C        3.6210     2.1090     0.6180 C.3   1 <1>   0.3430 
 12 C        5.7790     1.0840    -0.0420 C.3   1 <1>   0.3430 
 13 C       -1.4140    -1.7030     0.0410 C.ar  1 <1>  -0.1500 
 14 N        4.9730     2.3390     0.0240 N.4   1 <1>  -0.9590 
 15 C        5.7100     3.4270     0.7300 C.3   1 <1>   0.4810 
 16 C        5.0080     4.7580     0.4610 C.2   1 <1>  -0.0380 
 17 N        5.0080     5.2620    -0.8290 N.pl3 1 <1>  -0.5840 
 18 C        4.3700     5.4650     1.4350 C.2   1 <1>  -0.1360 
 19 C        4.3580     6.4550    -1.1120 C.2   1 <1>   0.2700 
 20 C        3.6930     6.6980     1.1770 C.2   1 <1>   0.5650 
 21 N        4.2870     6.9980    -2.2700 N.2   1 <1>  -0.5650 
 22 N        3.7180     7.1750    -0.1560 N.pl3 1 <1>   0.5610 
 23 O        3.1160     7.2760     2.0830 O.2   1 <1>  -0.5700 
 24 C        3.5650     8.0990    -1.9960 C.2   1 <1>   0.3660 
 25 N        3.1960     8.2590    -0.7700 N.2   1 <1>  -0.7070 
 26 H        3.6550    -0.7550     0.5220 H     1 <1>   0.0800 
 27 H        0.2760    -0.2960    -2.5130 H     1 <1>   0.1500 
 28 H        1.9070     0.8990     0.2390 H     1 <1>   0.0800 
 29 H        2.6450     1.5370    -1.1990 H     1 <1>   0.0800 
 30 H        5.0240     0.4060    -1.9260 H     1 <1>   0.0800 
 31 H        5.6060    -0.8690    -0.9000 H     1 <1>   0.0800 
 32 H       -0.5600    -2.9160     1.5660 H     1 <1>   0.1500 
 33 H        2.8070    -3.3080     0.2110 H     1 <1>   0.0800 
 34 H        1.6440    -3.8910     1.3590 H     1 <1>   0.0800 
 35 H        2.4720    -2.3880     1.6670 H     1 <1>   0.0800 
 36 H       -2.0140    -0.4850    -1.6100 H     1 <1>   0.1500 
 37 H        3.7180     1.7290     1.6220 H     1 <1>   0.0800 
 38 H        3.0680     3.0350     0.6570 H     1 <1>   0.0800 
 39 H        6.7510     1.2850    -0.4660 H     1 <1>   0.0800 
 40 H        5.9180     0.6830     0.9500 H     1 <1>   0.0800 
 41 H       -2.4110    -1.7870     0.4390 H     1 <1>   0.1500 
 42 H        4.8150     2.6650    -0.9390 H     1 <1>   0.4500 
 43 H        6.7240     3.4860     0.3690 H     1 <1>   0.0800 
 44 H        5.7370     3.2290     1.7900 H     1 <1>   0.0800 
 45 H        5.5440     4.8860    -1.6230 H     1 <1>   0.4000 
 46 H        4.3350     5.1370     2.4590 H     1 <1>   0.1500 
 47 H        3.3180     8.7990    -2.7810 H     1 <1>   0.1500 
@<TRIPOS>BOND
  1   1   2  1   
  2   1   3  1   
  3   2   4  ar  
  4   2   5  ar  
  5   3   6  1   
  6   3   7  1   
  7   3  26  1   
  8   4   8  ar  
  9   4   9  1   
 10   5  10  ar  
 11   5  27  1   
 12   6  11  1   
 13   6  28  1   
 14   6  29  1   
 15   7  12  1   
 16   7  30  1   
 17   7  31  1   
 18   8  13  ar  
 19   8  32  1   
 20   9  33  1   
 21   9  34  1   
 22   9  35  1   
 23  10  13  ar  
 24  10  36  1   
 25  11  14  1   
 26  11  37  1   
 27  11  38  1   
 28  12  14  1   
 29  12  39  1   
 30  12  40  1   
 31  13  41  1   
 32  14  15  1   
 33  14  42  1   
 34  15  16  1   
 35  15  43  1   
 36  15  44  1   
 37  16  17  1   
 38  16  18  2   
 39  17  19  1   
 40  17  45  1   
 41  18  20  1   
 42  18  46  1   
 43  19  21  2   
 44  19  22  1   
 45  20  22  1   
 46  20  23  2   
 47  21  24  1   
 48  22  25  1   
 49  24  25  2   
 50  24  47  1   
@<TRIPOS>SUBSTRUCTURE
  1 ****  11 GROUP 4 **** **** 0

# MOE 2024.06 (io_trps.svl 2023.06)
