@<TRIPOS>MOLECULE
NONAME
53 56 1 0 0 
SMALL
USER_CHARGES


@<TRIPOS>ATOM
  1 O       -0.0390    -0.1340    -1.5620 O.2   1 <1>  -0.5700 
  2 C       -1.0880    -0.5370    -1.0920 C.2   1 <1>   0.6160 
  3 N       -1.3100    -1.9020    -1.0280 N.am  1 <1>  -0.6600 
  4 C       -2.0790     0.4150    -0.6260 C.2   1 <1>   0.0140 
  5 C       -0.2400    -2.9650    -1.1030 C.3   1 <1>   0.2200 
  6 C       -2.6830    -2.4340    -1.2870 C.3   1 <1>   0.1400 
  7 C       -2.7210     0.2540     0.5610 C.2   1 <1>  -0.1780 
  8 C       -2.3380     1.5580    -1.4720 C.2   1 <1>  -0.1500 
  9 C       -0.5120    -4.0920    -0.0630 C.3   1 <1>   0.0000 
 10 C        1.2230    -2.4500    -1.0120 C.3   1 <1>   0.3430 
 11 C       -3.0140    -3.5590    -0.3040 C.3   1 <1>  -0.1600 
 12 C       -3.7180     1.0960     1.1730 C.ar  1 <1>   0.0280 
 13 C       -3.4910     2.2420    -1.5700 C.2   1 <1>  -0.0730 
 14 C        0.5120    -5.2530    -0.2620 C.3   1 <1>  -0.1600 
 15 C       -1.9340    -4.6550    -0.3150 C.3   1 <1>  -0.1600 
 16 C       -0.4730    -3.5590     1.4040 C.3   1 <1>   0.1200 
 17 N        2.2000    -3.4790    -0.5170 N.4   1 <1>  -0.9590 
 18 C       -4.6160     1.9040     0.4580 C.ar  1 <1>   0.0820 
 19 C       -3.8220     1.1050     2.5620 C.ar  1 <1>  -0.1500 
 20 O       -4.6310     1.9480    -0.9030 O.3   1 <1>  -0.1590 
 21 C        1.8390    -4.8530    -0.9280 C.3   1 <1>   0.3430 
 22 O        0.8170    -3.2950     1.8620 O.3   1 <1>  -0.6800 
 23 C        3.6080    -3.1050    -0.8260 C.3   1 <1>   0.2630 
 24 C       -5.5630     2.6710     1.1110 C.ar  1 <1>  -0.1500 
 25 C       -4.7660     1.8770     3.2180 C.ar  1 <1>  -0.1500 
 26 C       -5.6410     2.6630     2.4930 C.ar  1 <1>  -0.1500 
 27 H       -0.3290    -3.4070    -2.0800 H     1 <1>   0.0800 
 28 H       -3.4270    -1.6600    -1.2100 H     1 <1>   0.0800 
 29 H       -2.7210    -2.8160    -2.2930 H     1 <1>   0.0800 
 30 H       -2.4600    -0.5970     1.1630 H     1 <1>   0.1500 
 31 H       -1.5020     1.8600    -2.0800 H     1 <1>   0.1500 
 32 H        1.2460    -1.6130    -0.3350 H     1 <1>   0.0800 
 33 H        1.5180    -2.0960    -1.9860 H     1 <1>   0.0800 
 34 H       -3.1350    -3.1470     0.6820 H     1 <1>   0.0800 
 35 H       -3.9600    -3.9920    -0.5800 H     1 <1>   0.0800 
 36 H       -3.6170     3.0880    -2.2230 H     1 <1>   0.1500 
 37 H        0.0880    -6.0290    -0.8750 H     1 <1>   0.0800 
 38 H        0.7260    -5.7150     0.6860 H     1 <1>   0.0800 
 39 H       -1.9680    -5.1360    -1.2780 H     1 <1>   0.0800 
 40 H       -2.1770    -5.4020     0.4220 H     1 <1>   0.0800 
 41 H       -0.8990    -4.2920     2.0680 H     1 <1>   0.0800 
 42 H       -1.0430    -2.6500     1.4960 H     1 <1>   0.0800 
 43 H        2.0550    -3.4630     0.5170 H     1 <1>   0.4500 
 44 H       -3.1510     0.5040     3.1480 H     1 <1>   0.1500 
 45 H        1.7360    -4.8890    -2.0010 H     1 <1>   0.0800 
 46 H        2.6110    -5.5480    -0.6370 H     1 <1>   0.0800 
 47 H        0.7800    -3.0030     2.8000 H     1 <1>   0.4000 
 48 H        3.7690    -3.1010    -1.8920 H     1 <1>   0.0800 
 49 H        4.2890    -3.8070    -0.3730 H     1 <1>   0.0800 
 50 H        3.8230    -2.1210    -0.4410 H     1 <1>   0.0800 
 51 H       -6.2430     3.2760     0.5380 H     1 <1>   0.1500 
 52 H       -4.8200     1.8660     4.2930 H     1 <1>   0.1500 
 53 H       -6.3780     3.2640     2.9970 H     1 <1>   0.1500 
@<TRIPOS>BOND
  1   1   2  2   
  2   2   3  am  
  3   2   4  1   
  4   3   5  1   
  5   3   6  1   
  6   4   7  2   
  7   4   8  1   
  8   5   9  1   
  9   5  10  1   
 10   5  27  1   
 11   6  11  1   
 12   6  28  1   
 13   6  29  1   
 14   7  12  1   
 15   7  30  1   
 16   8  13  2   
 17   8  31  1   
 18   9  14  1   
 19   9  15  1   
 20   9  16  1   
 21  10  17  1   
 22  10  32  1   
 23  10  33  1   
 24  11  15  1   
 25  11  34  1   
 26  11  35  1   
 27  12  18  ar  
 28  12  19  ar  
 29  13  20  1   
 30  13  36  1   
 31  14  21  1   
 32  14  37  1   
 33  14  38  1   
 34  15  39  1   
 35  15  40  1   
 36  16  22  1   
 37  16  41  1   
 38  16  42  1   
 39  17  21  1   
 40  17  23  1   
 41  17  43  1   
 42  18  20  1   
 43  18  24  ar  
 44  19  25  ar  
 45  19  44  1   
 46  21  45  1   
 47  21  46  1   
 48  22  47  1   
 49  23  48  1   
 50  23  49  1   
 51  23  50  1   
 52  24  26  ar  
 53  24  51  1   
 54  25  26  ar  
 55  25  52  1   
 56  26  53  1   
@<TRIPOS>SUBSTRUCTURE
  1 ****   3 GROUP 4 **** **** 0

# MOE 2024.06 (io_trps.svl 2023.06)
