@<TRIPOS>MOLECULE
NONAME
44 45 1 0 0 
SMALL
USER_CHARGES


@<TRIPOS>ATOM
  1 S        0.6710     0.1280     0.6980 S.o2  1 <1>   1.3330 
  2 O        0.4000     1.2700     1.5420 O.2   1 <1>  -0.6500 
  3 O        1.0110    -1.1420     1.3000 O.2   1 <1>  -0.6500 
  4 N       -0.6650    -0.1180    -0.3210 N.am  1 <1>  -0.8490 
  5 C        1.9680     0.5910    -0.4470 C.3   1 <1>  -0.0550 
  6 C       -1.9360     0.1880     0.3430 C.3   1 <1>   0.1160 
  7 C       -0.7170    -1.4630    -0.9030 C.3   1 <1>   0.1160 
  8 C        3.2850     0.9560     0.2570 C.3   1 <1>  -0.0800 
  9 C        4.3430     1.4560    -0.7250 C.3   1 <1>   0.2200 
 10 C        3.9650    -0.2200     0.9630 C.3   1 <1>   0.1200 
 11 N        4.6930     2.8490    -0.3810 N.am  1 <1>  -0.7300 
 12 C        5.5250     0.5170    -0.4950 C.3   1 <1>   0.1200 
 13 O        5.3270    -0.0210     0.7700 O.3   1 <1>  -0.5600 
 14 C        4.0380     3.9400    -0.8600 C.2   1 <1>   0.7150 
 15 O        3.2100     3.7780    -1.7360 O.2   1 <1>  -0.5700 
 16 C        4.3240     5.2300    -0.3020 C.2   1 <1>  -0.2370 
 17 N        3.6160     6.3630    -0.5510 N.pl3 1 <1>   0.3140 
 18 C        5.3070     5.6070     0.5630 C.2   1 <1>  -0.1500 
 19 N        4.1050     7.4190     0.1150 N.2   1 <1>  -0.7070 
 20 C        2.4300     6.5280    -1.4100 C.3   1 <1>   0.0160 
 21 C        5.1340     6.9660     0.7940 C.2   1 <1>   0.1080 
 22 C        6.0510     7.8030     1.7300 C.3   1 <1>   1.2010 
 23 F        6.7260     8.7500     1.0850 F     1 <1>  -0.3400 
 24 F        6.9720     7.0530     2.3350 F     1 <1>  -0.3400 
 25 F        5.3870     8.4150     2.7070 F     1 <1>  -0.3400 
 26 H        2.1390    -0.2090    -1.1400 H     1 <1>   0.0800 
 27 H        1.6350     1.4450    -1.0060 H     1 <1>   0.0800 
 28 H       -2.7580     0.0360    -0.3350 H     1 <1>   0.0800 
 29 H       -1.9480     1.2180     0.6600 H     1 <1>   0.0800 
 30 H       -2.0670    -0.4410     1.2080 H     1 <1>   0.0800 
 31 H       -1.5280    -1.5300    -1.6080 H     1 <1>   0.0800 
 32 H       -0.8610    -2.2030    -0.1310 H     1 <1>   0.0800 
 33 H        0.2020    -1.6800    -1.4210 H     1 <1>   0.0800 
 34 H        3.0760     1.7090     0.9980 H     1 <1>   0.0800 
 35 H        4.0200     1.4010    -1.7520 H     1 <1>   0.0800 
 36 H        3.7010    -1.1650     0.5190 H     1 <1>   0.0800 
 37 H        3.7570    -0.2440     2.0200 H     1 <1>   0.0800 
 38 H        5.2590     2.9510     0.4610 H     1 <1>   0.3700 
 39 H        6.4750     1.0190    -0.5310 H     1 <1>   0.0800 
 40 H        5.5090    -0.2940    -1.2020 H     1 <1>   0.0800 
 41 H        6.0770     4.9900     0.9930 H     1 <1>   0.1500 
 42 H        1.6540     5.8660    -1.0740 H     1 <1>   0.0800 
 43 H        2.6930     6.2930    -2.4240 H     1 <1>   0.0800 
 44 H        2.0870     7.5440    -1.3530 H     1 <1>   0.0800 
@<TRIPOS>BOND
  1   1   2  2   
  2   1   3  2   
  3   1   4  am  
  4   1   5  1   
  5   4   6  1   
  6   4   7  1   
  7   5   8  1   
  8   5  26  1   
  9   5  27  1   
 10   6  28  1   
 11   6  29  1   
 12   6  30  1   
 13   7  31  1   
 14   7  32  1   
 15   7  33  1   
 16   8   9  1   
 17   8  10  1   
 18   8  34  1   
 19   9  11  1   
 20   9  12  1   
 21   9  35  1   
 22  10  13  1   
 23  10  36  1   
 24  10  37  1   
 25  11  14  am  
 26  11  38  1   
 27  12  13  1   
 28  12  39  1   
 29  12  40  1   
 30  14  15  2   
 31  14  16  1   
 32  16  17  1   
 33  16  18  2   
 34  17  19  1   
 35  17  20  1   
 36  18  21  1   
 37  18  41  1   
 38  19  21  2   
 39  20  42  1   
 40  20  43  1   
 41  20  44  1   
 42  21  22  1   
 43  22  23  1   
 44  22  24  1   
 45  22  25  1   
@<TRIPOS>SUBSTRUCTURE
  1 ****  14 GROUP 4 **** **** 0

# MOE 2024.06 (io_trps.svl 2023.06)
