@<TRIPOS>MOLECULE
NONAME
51 53 1 0 0 
SMALL
USER_CHARGES


@<TRIPOS>ATOM
  1 S        0.1470    -0.1010     1.1130 S.o2  1 <1>   1.3330 
  2 O       -0.7540    -1.0250     1.7620 O.2   1 <1>  -0.6500 
  3 O        1.3340     0.3520     1.8050 O.2   1 <1>  -0.6500 
  4 N        0.6430    -0.8110    -0.3490 N.am  1 <1>  -0.8490 
  5 C       -0.7680     1.3490     0.5810 C.3   1 <1>  -0.0550 
  6 C       -0.4150    -1.5920    -1.0000 C.3   1 <1>   0.1160 
  7 C        1.8320    -1.6510    -0.1720 C.3   1 <1>   0.1160 
  8 C        0.0760     2.3570    -0.2300 C.3   1 <1>  -0.0800 
  9 C       -0.7180     3.4920    -0.8710 C.3   1 <1>   0.2000 
 10 C        1.1630     3.0690     0.5950 C.3   1 <1>   0.1100 
 11 O       -1.6720     3.9430     0.0230 O.3   1 <1>  -0.6800 
 12 C        0.3350     4.5840    -1.0050 C.3   1 <1>   0.1100 
 13 N        1.0940     4.5050     0.2570 N.3   1 <1>  -0.8100 
 14 C        2.4230     5.1340     0.2070 C.3   1 <1>   0.2480 
 15 C        2.3490     6.6640     0.3080 C.2   1 <1>   0.2030 
 16 N        3.4680     7.3930    -0.0460 N.pl3 1 <1>  -0.6450 
 17 C        1.2680     7.3470     0.7340 C.2   1 <1>  -0.1360 
 18 C        3.5300     8.7450     0.0080 C.cat 1 <1>   0.7390 
 19 C        1.2870     8.7590     0.8020 C.2   1 <1>   0.9370 
 20 N        2.4490     9.4470     0.4270 N.pl3 1 <1>  -0.5760 
 21 C        4.6970     9.4280    -0.3660 C.2   1 <1>  -0.1800 
 22 O        0.3200     9.3840     1.1780 O.2   1 <1>  -0.5700 
 23 C        2.5100    10.8210     0.4800 C.2   1 <1>   0.1910 
 24 C        4.7640    10.7940    -0.3150 C.2   1 <1>  -0.1500 
 25 C        3.6400    11.5050     0.1190 C.2   1 <1>  -0.1380 
 26 C        3.7130    13.0230     0.1750 C.3   1 <1>  -0.1020 
 27 H       -1.5990     1.0360    -0.0200 H     1 <1>   0.0800 
 28 H       -1.1710     1.8400     1.4450 H     1 <1>   0.0800 
 29 H       -0.0740    -1.9550    -1.9540 H     1 <1>   0.0800 
 30 H       -1.2860    -0.9810    -1.1620 H     1 <1>   0.0800 
 31 H       -0.6950    -2.4340    -0.3860 H     1 <1>   0.0800 
 32 H        2.1300    -2.0810    -1.1130 H     1 <1>   0.0800 
 33 H        1.6290    -2.4420     0.5310 H     1 <1>   0.0800 
 34 H        2.6500    -1.0590     0.2010 H     1 <1>   0.0800 
 35 H        0.5710     1.8240    -1.0240 H     1 <1>   0.0800 
 36 H       -1.1980     3.2260    -1.7980 H     1 <1>   0.0800 
 37 H        2.1270     2.6490     0.3570 H     1 <1>   0.0800 
 38 H        0.9910     2.9500     1.6530 H     1 <1>   0.0800 
 39 H       -1.1940     4.3170     0.7910 H     1 <1>   0.4000 
 40 H       -0.1160     5.5510    -1.1510 H     1 <1>   0.0800 
 41 H        0.9740     4.3550    -1.8420 H     1 <1>   0.0800 
 42 H        3.0120     4.7760     1.0350 H     1 <1>   0.0800 
 43 H        2.9200     4.8450    -0.7040 H     1 <1>   0.0800 
 44 H        4.3080     6.9010    -0.3640 H     1 <1>   0.4500 
 45 H        0.3570     6.8690     1.0400 H     1 <1>   0.1500 
 46 H        5.5500     8.8640    -0.6960 H     1 <1>   0.1500 
 47 H        1.6370    11.3620     0.8170 H     1 <1>   0.1500 
 48 H        5.6580    11.3270    -0.6010 H     1 <1>   0.1500 
 49 H        4.4980    13.3310     0.8430 H     1 <1>   0.0800 
 50 H        2.7870    13.4450     0.5240 H     1 <1>   0.0800 
 51 H        3.9190    13.4200    -0.8030 H     1 <1>   0.0800 
@<TRIPOS>BOND
  1   1   2  2   
  2   1   3  2   
  3   1   4  am  
  4   1   5  1   
  5   4   6  1   
  6   4   7  1   
  7   5   8  1   
  8   5  27  1   
  9   5  28  1   
 10   6  29  1   
 11   6  30  1   
 12   6  31  1   
 13   7  32  1   
 14   7  33  1   
 15   7  34  1   
 16   8   9  1   
 17   8  10  1   
 18   8  35  1   
 19   9  11  1   
 20   9  12  1   
 21   9  36  1   
 22  10  13  1   
 23  10  37  1   
 24  10  38  1   
 25  11  39  1   
 26  12  13  1   
 27  12  40  1   
 28  12  41  1   
 29  13  14  1   
 30  14  15  1   
 31  14  42  1   
 32  14  43  1   
 33  15  16  1   
 34  15  17  2   
 35  16  18  ar  
 36  16  44  1   
 37  17  19  1   
 38  17  45  1   
 39  18  20  ar  
 40  18  21  1   
 41  19  20  1   
 42  19  22  2   
 43  20  23  1   
 44  21  24  2   
 45  21  46  1   
 46  23  25  2   
 47  23  47  1   
 48  24  25  1   
 49  24  48  1   
 50  25  26  1   
 51  26  49  1   
 52  26  50  1   
 53  26  51  1   
@<TRIPOS>SUBSTRUCTURE
  1 ****  13 GROUP 4 **** **** 0

# MOE 2024.06 (io_trps.svl 2023.06)
