@<TRIPOS>MOLECULE
NONAME
39 41 1 0 0 
SMALL
USER_CHARGES


@<TRIPOS>ATOM
  1 O       -0.5370     0.3530    -0.4530 O.2   1 <1>  -0.5700 
  2 C       -1.5140     0.9340    -0.0180 C.2   1 <1>   0.6160 
  3 N       -2.6410     0.1930     0.2650 N.am  1 <1>  -0.6600 
  4 C       -1.4740     2.3670     0.1730 C.2   1 <1>   0.0140 
  5 C       -4.0280     0.7210     0.1690 C.3   1 <1>   0.1400 
  6 C       -2.6460    -1.2890     0.1490 C.3   1 <1>   0.1400 
  7 C       -2.0700     3.0010     1.2370 C.2   1 <1>  -0.0410 
  8 C       -0.7750     3.1890    -0.7660 C.2   1 <1>  -0.1500 
  9 C       -4.8700    -0.4710    -0.2820 C.3   1 <1>   0.2000 
 10 C       -4.1180    -1.7020     0.2150 C.3   1 <1>  -0.0800 
 11 N       -2.0260     4.3650     1.3810 N.am  1 <1>  -0.5390 
 12 C       -0.7320     4.5410    -0.6100 C.2   1 <1>  -0.1360 
 13 O       -6.1430    -0.4330     0.2610 O.3   1 <1>  -0.6800 
 14 C       -4.4370    -2.9700    -0.5900 C.3   1 <1>   0.0200 
 15 C       -1.3760     5.1710     0.4880 C.2   1 <1>   0.6160 
 16 C       -3.6060    -4.1420    -0.1060 C.2   1 <1>  -0.0400 
 17 O       -1.3800     6.3750     0.6740 O.2   1 <1>  -0.5700 
 18 O       -3.7370    -4.5730     1.1210 O.3   1 <1>  -0.0190 
 19 C       -2.6760    -4.8950    -0.7110 C.2   1 <1>  -0.1500 
 20 N       -2.9410    -5.5720     1.3700 N.2   1 <1>  -0.4100 
 21 C       -2.2910    -5.7890     0.2840 C.2   1 <1>   0.1080 
 22 C       -1.2470    -6.8720     0.1200 C.3   1 <1>  -0.0590 
 23 H       -4.3440     1.0610     1.1390 H     1 <1>   0.0800 
 24 H       -4.0860     1.5220    -0.5470 H     1 <1>   0.0800 
 25 H       -2.2110    -1.5710    -0.7960 H     1 <1>   0.0800 
 26 H       -2.0760    -1.7350     0.9460 H     1 <1>   0.0800 
 27 H       -2.5850     2.4390     1.9980 H     1 <1>   0.1500 
 28 H       -0.2840     2.7020    -1.5930 H     1 <1>   0.1500 
 29 H       -4.9570    -0.4680    -1.3550 H     1 <1>   0.0800 
 30 H       -4.3520    -1.8710     1.2520 H     1 <1>   0.0800 
 31 H       -2.4530     4.8650     2.1630 H     1 <1>   0.3700 
 32 H       -0.2170     5.1870    -1.2960 H     1 <1>   0.1500 
 33 H       -6.1100    -0.5530     1.2300 H     1 <1>   0.4000 
 34 H       -4.2390    -2.8040    -1.6340 H     1 <1>   0.0800 
 35 H       -5.4800    -3.2120    -0.4830 H     1 <1>   0.0800 
 36 H       -2.2930    -4.8500    -1.7130 H     1 <1>   0.1500 
 37 H       -1.5390    -7.5450    -0.6650 H     1 <1>   0.0800 
 38 H       -1.1470    -7.4260     1.0350 H     1 <1>   0.0800 
 39 H       -0.2990    -6.4300    -0.1240 H     1 <1>   0.0800 
@<TRIPOS>BOND
  1   1   2  2   
  2   2   3  am  
  3   2   4  1   
  4   3   5  1   
  5   3   6  1   
  6   4   7  2   
  7   4   8  1   
  8   5   9  1   
  9   5  23  1   
 10   5  24  1   
 11   6  10  1   
 12   6  25  1   
 13   6  26  1   
 14   7  11  1   
 15   7  27  1   
 16   8  12  2   
 17   8  28  1   
 18   9  10  1   
 19   9  13  1   
 20   9  29  1   
 21  10  14  1   
 22  10  30  1   
 23  11  15  am  
 24  11  31  1   
 25  12  15  1   
 26  12  32  1   
 27  13  33  1   
 28  14  16  1   
 29  14  34  1   
 30  14  35  1   
 31  15  17  2   
 32  16  18  1   
 33  16  19  2   
 34  18  20  1   
 35  19  21  1   
 36  19  36  1   
 37  20  21  2   
 38  21  22  1   
 39  22  37  1   
 40  22  38  1   
 41  22  39  1   
@<TRIPOS>SUBSTRUCTURE
  1 ****   3 GROUP 4 **** **** 0

# MOE 2024.06 (io_trps.svl 2023.06)
