@<TRIPOS>MOLECULE
NONAME
41 43 1 0 0 
SMALL
USER_CHARGES


@<TRIPOS>ATOM
  1 O       -0.5600     0.2530    -0.6180 O.2   1 <1>  -0.5700 
  2 C       -1.6570     0.7550    -0.5100 C.2   1 <1>   0.5440 
  3 N       -1.6920     2.1090    -0.5460 N.am  1 <1>  -0.8000 
  4 C       -2.8440    -0.0490    -0.3330 C.ar  1 <1>   0.0860 
  5 C       -4.1080     0.4160    -0.6900 C.ar  1 <1>   0.1600 
  6 C       -2.7860    -1.3310     0.2040 C.ar  1 <1>  -0.1500 
  7 N       -5.2480    -0.2340    -0.5500 N.ar  1 <1>  -0.6200 
  8 C       -3.9600    -2.0260     0.3540 C.ar  1 <1>  -0.1500 
  9 C       -5.1740    -1.4570    -0.0320 C.ar  1 <1>   0.4100 
 10 N       -6.3600    -2.1450     0.1200 N.pl3 1 <1>  -0.8380 
 11 C       -7.6570    -1.5600    -0.3250 C.3   1 <1>   0.2090 
 12 C       -6.4420    -3.6300     0.0170 C.3   1 <1>   0.2090 
 13 C       -8.6670    -2.6840    -0.1120 C.3   1 <1>   0.2000 
 14 C       -7.8620    -3.9340    -0.4700 C.3   1 <1>  -0.0800 
 15 O       -8.9830    -2.7110     1.2390 O.3   1 <1>  -0.6800 
 16 C       -8.4270    -5.2660     0.0610 C.3   1 <1>   0.0210 
 17 C       -7.5100    -6.4350    -0.2580 C.2   1 <1>   0.1080 
 18 N       -6.9240    -6.5930    -1.4050 N.2   1 <1>  -0.7070 
 19 C       -7.1960    -7.4540     0.6340 C.2   1 <1>  -0.1500 
 20 N       -6.2190    -7.7320    -1.2750 N.pl3 1 <1>   0.3000 
 21 C       -6.3650    -8.2720    -0.0460 C.2   1 <1>  -0.3320 
 22 C       -5.6960    -9.5560     0.4060 C.3   1 <1>  -0.0600 
 23 H       -0.8040     2.6060    -0.6330 H     1 <1>   0.3700 
 24 H       -2.4970     2.6710    -0.2730 H     1 <1>   0.3700 
 25 H       -4.1780     1.3950    -1.1280 H     1 <1>   0.1500 
 26 H       -1.8390    -1.7550     0.4930 H     1 <1>   0.1500 
 27 H       -3.9510    -3.0120     0.7760 H     1 <1>   0.1500 
 28 H       -7.9070    -0.6780     0.2390 H     1 <1>   0.0800 
 29 H       -7.5930    -1.3110    -1.3700 H     1 <1>   0.0800 
 30 H       -5.7130    -4.0160    -0.6760 H     1 <1>   0.0800 
 31 H       -6.2740    -4.0600     0.9900 H     1 <1>   0.0800 
 32 H       -9.5710    -2.5680    -0.6840 H     1 <1>   0.0800 
 33 H       -7.8180    -3.9980    -1.5430 H     1 <1>   0.0800 
 34 H       -8.1510    -2.5330     1.7290 H     1 <1>   0.4000 
 35 H       -9.3860    -5.4500    -0.3870 H     1 <1>   0.0800 
 36 H       -8.5630    -5.2190     1.1260 H     1 <1>   0.0800 
 37 H       -7.5550    -7.5470     1.6440 H     1 <1>   0.1500 
 38 H       -5.6530    -8.1160    -2.0410 H     1 <1>   0.2700 
 39 H       -5.9710    -9.7790     1.4220 H     1 <1>   0.0800 
 40 H       -4.6260    -9.4580     0.3550 H     1 <1>   0.0800 
 41 H       -6.0030   -10.3760    -0.2190 H     1 <1>   0.0800 
@<TRIPOS>BOND
  1   1   2  2   
  2   2   3  am  
  3   2   4  1   
  4   3  23  1   
  5   3  24  1   
  6   4   5  ar  
  7   4   6  ar  
  8   5   7  ar  
  9   5  25  1   
 10   6   8  ar  
 11   6  26  1   
 12   7   9  ar  
 13   8   9  ar  
 14   8  27  1   
 15   9  10  1   
 16  10  11  1   
 17  10  12  1   
 18  11  13  1   
 19  11  28  1   
 20  11  29  1   
 21  12  14  1   
 22  12  30  1   
 23  12  31  1   
 24  13  14  1   
 25  13  15  1   
 26  13  32  1   
 27  14  16  1   
 28  14  33  1   
 29  15  34  1   
 30  16  17  1   
 31  16  35  1   
 32  16  36  1   
 33  17  18  2   
 34  17  19  1   
 35  18  20  1   
 36  19  21  2   
 37  19  37  1   
 38  20  21  1   
 39  20  38  1   
 40  21  22  1   
 41  22  39  1   
 42  22  40  1   
 43  22  41  1   
@<TRIPOS>SUBSTRUCTURE
  1 ****  12 GROUP 4 **** **** 0

# MOE 2024.06 (io_trps.svl 2023.06)
