@<TRIPOS>MOLECULE
NONAME
46 48 1 0 0 
SMALL
USER_CHARGES


@<TRIPOS>ATOM
  1 S       -0.0820    -0.1290     0.1980 S.o2  1 <1>   1.3330 
  2 O       -0.7550     1.1500     0.1680 O.2   1 <1>  -0.6500 
  3 O       -0.0070    -0.8650     1.4390 O.2   1 <1>  -0.6500 
  4 N       -0.8040    -1.1390    -0.9600 N.am  1 <1>  -0.8490 
  5 C        1.5660     0.1090    -0.4690 C.3   1 <1>  -0.0550 
  6 C       -0.5180    -2.5630    -0.7510 C.3   1 <1>   0.1160 
  7 C       -2.2520    -0.9310    -1.0560 C.3   1 <1>   0.1160 
  8 C        2.4310     1.0830     0.3570 C.3   1 <1>  -0.0800 
  9 C        3.7180     1.4250    -0.3730 C.3   1 <1>   0.2200 
 10 C        2.9560     0.4380     1.6460 C.3   1 <1>   0.1200 
 11 N        4.2320     2.7190     0.1310 N.am  1 <1>  -0.7300 
 12 C        4.6410     0.2980     0.0740 C.3   1 <1>   0.1200 
 13 O        4.2340    -0.0530     1.3630 O.3   1 <1>  -0.5600 
 14 C        4.3700     3.8570    -0.6100 C.2   1 <1>   0.5440 
 15 O        4.0580     3.8240    -1.7830 O.2   1 <1>  -0.5700 
 16 C        4.8640     5.0670     0.0120 C.ar  1 <1>   0.0860 
 17 C        5.9910     5.7670    -0.5060 C.ar  1 <1>   0.0000 
 18 C        4.2350     5.5520     1.1420 C.ar  1 <1>  -0.1500 
 19 C        6.4390     6.9380     0.1520 C.ar  1 <1>   0.3100 
 20 C        6.7150     5.3640    -1.6460 C.ar  1 <1>  -0.1500 
 21 C        4.6760     6.7040     1.7880 C.ar  1 <1>  -0.1500 
 22 N        7.5080     7.6630    -0.2640 N.ar  1 <1>  -0.6200 
 23 C        5.7590     7.3790     1.2960 C.ar  1 <1>  -0.1500 
 24 C        7.7830     6.1080    -2.0460 C.ar  1 <1>  -0.1500 
 25 C        8.1370     7.2500    -1.3200 C.ar  1 <1>   0.1600 
 26 H        2.0620    -0.8390    -0.5450 H     1 <1>   0.0800 
 27 H        1.4630     0.5050    -1.4610 H     1 <1>   0.0800 
 28 H       -0.9190    -3.1440    -1.5630 H     1 <1>   0.0800 
 29 H       -0.9550    -2.9030     0.1740 H     1 <1>   0.0800 
 30 H        0.5450    -2.7270    -0.7090 H     1 <1>   0.0800 
 31 H       -2.6730    -1.5740    -1.8090 H     1 <1>   0.0800 
 32 H       -2.4600     0.0900    -1.3330 H     1 <1>   0.0800 
 33 H       -2.7230    -1.1340    -0.1080 H     1 <1>   0.0800 
 34 H        1.8550     1.9690     0.5640 H     1 <1>   0.0800 
 35 H        3.6060     1.4530    -1.4440 H     1 <1>   0.0800 
 36 H        2.3470    -0.3720     2.0050 H     1 <1>   0.0800 
 37 H        3.0580     1.1750     2.4240 H     1 <1>   0.0800 
 38 H        4.5720     2.6930     1.0950 H     1 <1>   0.3700 
 39 H        5.6770     0.5900     0.0870 H     1 <1>   0.0800 
 40 H        4.5160    -0.5670    -0.5530 H     1 <1>   0.0800 
 41 H        3.3760     5.0380     1.5390 H     1 <1>   0.1500 
 42 H        6.4270     4.4850    -2.1960 H     1 <1>   0.1500 
 43 H        4.1610     7.0560     2.6660 H     1 <1>   0.1500 
 44 H        6.1200     8.2710     1.7740 H     1 <1>   0.1500 
 45 H        8.3610     5.8390    -2.9110 H     1 <1>   0.1500 
 46 H        8.9860     7.8200    -1.6600 H     1 <1>   0.1500 
@<TRIPOS>BOND
  1   1   2  2   
  2   1   3  2   
  3   1   4  am  
  4   1   5  1   
  5   4   6  1   
  6   4   7  1   
  7   5   8  1   
  8   5  26  1   
  9   5  27  1   
 10   6  28  1   
 11   6  29  1   
 12   6  30  1   
 13   7  31  1   
 14   7  32  1   
 15   7  33  1   
 16   8   9  1   
 17   8  10  1   
 18   8  34  1   
 19   9  11  1   
 20   9  12  1   
 21   9  35  1   
 22  10  13  1   
 23  10  36  1   
 24  10  37  1   
 25  11  14  am  
 26  11  38  1   
 27  12  13  1   
 28  12  39  1   
 29  12  40  1   
 30  14  15  2   
 31  14  16  1   
 32  16  17  ar  
 33  16  18  ar  
 34  17  19  ar  
 35  17  20  ar  
 36  18  21  ar  
 37  18  41  1   
 38  19  22  ar  
 39  19  23  ar  
 40  20  24  ar  
 41  20  42  1   
 42  21  23  ar  
 43  21  43  1   
 44  22  25  ar  
 45  23  44  1   
 46  24  25  ar  
 47  24  45  1   
 48  25  46  1   
@<TRIPOS>SUBSTRUCTURE
  1 ****  11 GROUP 4 **** **** 0

# MOE 2024.06 (io_trps.svl 2023.06)
