@<TRIPOS>MOLECULE
NONAME
45 46 1 0 0 
SMALL
USER_CHARGES


@<TRIPOS>ATOM
  1 S        1.9770     1.1920     0.0750 S.o2  1 <1>   1.3330 
  2 O        2.4490    -0.0830     0.5640 O.2   1 <1>  -0.6500 
  3 O        2.2360     1.5550    -1.3000 O.2   1 <1>  -0.6500 
  4 N        2.6340     2.3890     1.0810 N.am  1 <1>  -0.8490 
  5 C        0.2000     1.2720     0.3590 C.3   1 <1>  -0.0550 
  6 C        2.7800     1.9760     2.4800 C.3   1 <1>   0.1160 
  7 C        3.9130     2.9040     0.5840 C.3   1 <1>   0.1160 
  8 C       -0.5710     2.5830     0.0600 C.3   1 <1>  -0.0800 
  9 C       -0.3230     3.1730    -1.3350 C.3   1 <1>   0.2000 
 10 C       -0.2720     3.7290     1.0390 C.3   1 <1>   0.1400 
 11 O       -1.5160     3.7350    -1.7640 O.3   1 <1>  -0.6800 
 12 C        0.6780     4.3100    -1.1250 C.3   1 <1>   0.1400 
 13 N        0.4330     4.7730     0.2620 N.am  1 <1>  -0.6600 
 14 C        0.9560     5.8890     0.8590 C.2   1 <1>   0.5690 
 15 O        0.7570     6.1210     2.0290 O.2   1 <1>  -0.5700 
 16 C        1.7800     6.8920     0.0640 C.3   1 <1>   0.0440 
 17 C        3.2480     6.4930    -0.0350 C.ar  1 <1>  -0.1440 
 18 C        3.7960     6.0730    -1.2400 C.ar  1 <1>  -0.1500 
 19 C        4.0510     6.5580     1.0950 C.ar  1 <1>  -0.1500 
 20 C        5.1320     5.7190    -1.3120 C.ar  1 <1>  -0.1500 
 21 C        5.3890     6.2120     1.0260 C.ar  1 <1>  -0.1500 
 22 C        5.9240     5.7900    -0.1800 C.ar  1 <1>   0.0820 
 23 O        7.2160     5.4440    -0.2620 O.3   1 <1>  -0.5330 
 24 H       -0.2470     0.5030    -0.2420 H     1 <1>   0.0800 
 25 H        0.0100     1.0020     1.3790 H     1 <1>   0.0800 
 26 H        3.0990     2.8120     3.0780 H     1 <1>   0.0800 
 27 H        3.5070     1.1840     2.5650 H     1 <1>   0.0800 
 28 H        1.8390     1.6230     2.8650 H     1 <1>   0.0800 
 29 H        4.2770     3.6800     1.2330 H     1 <1>   0.0800 
 30 H        3.7880     3.3240    -0.3990 H     1 <1>   0.0800 
 31 H        4.6420     2.1130     0.5310 H     1 <1>   0.0800 
 32 H       -1.6130     2.3300     0.1580 H     1 <1>   0.0800 
 33 H       -0.0070     2.4560    -2.0730 H     1 <1>   0.0800 
 34 H        0.3350     3.4130     1.8690 H     1 <1>   0.0800 
 35 H       -1.1880     4.1450     1.4240 H     1 <1>   0.0800 
 36 H       -1.7450     4.4780    -1.1710 H     1 <1>   0.4000 
 37 H        0.5330     5.0940    -1.8470 H     1 <1>   0.0800 
 38 H        1.6860     3.9460    -1.1980 H     1 <1>   0.0800 
 39 H        1.3550     7.0180    -0.9120 H     1 <1>   0.0800 
 40 H        1.7160     7.8440     0.5580 H     1 <1>   0.0800 
 41 H        3.1900     6.0190    -2.1270 H     1 <1>   0.1500 
 42 H        3.6300     6.8790     2.0330 H     1 <1>   0.1500 
 43 H        5.5650     5.3910    -2.2400 H     1 <1>   0.1500 
 44 H        6.0010     6.2710     1.9070 H     1 <1>   0.1500 
 45 H        7.7030     5.5810     0.5700 H     1 <1>   0.4500 
@<TRIPOS>BOND
  1   1   2  2   
  2   1   3  2   
  3   1   4  am  
  4   1   5  1   
  5   4   6  1   
  6   4   7  1   
  7   5   8  1   
  8   5  24  1   
  9   5  25  1   
 10   6  26  1   
 11   6  27  1   
 12   6  28  1   
 13   7  29  1   
 14   7  30  1   
 15   7  31  1   
 16   8   9  1   
 17   8  10  1   
 18   8  32  1   
 19   9  11  1   
 20   9  12  1   
 21   9  33  1   
 22  10  13  1   
 23  10  34  1   
 24  10  35  1   
 25  11  36  1   
 26  12  13  1   
 27  12  37  1   
 28  12  38  1   
 29  13  14  am  
 30  14  15  2   
 31  14  16  1   
 32  16  17  1   
 33  16  39  1   
 34  16  40  1   
 35  17  18  ar  
 36  17  19  ar  
 37  18  20  ar  
 38  18  41  1   
 39  19  21  ar  
 40  19  42  1   
 41  20  22  ar  
 42  20  43  1   
 43  21  22  ar  
 44  21  44  1   
 45  22  23  1   
 46  23  45  1   
@<TRIPOS>SUBSTRUCTURE
  1 ****  13 GROUP 4 **** **** 0

# MOE 2024.06 (io_trps.svl 2023.06)
