@<TRIPOS>MOLECULE
NONAME
51 53 1 0 0 
SMALL
USER_CHARGES


@<TRIPOS>ATOM
  1 O       -1.6390     0.5030    -1.1780 O.2   1 <1>  -0.5700 
  2 C       -1.5830     0.2500     0.0020 C.2   1 <1>   0.5690 
  3 N       -1.7810    -1.0110     0.4700 N.am  1 <1>  -0.7300 
  4 C       -1.2640     1.4100     0.9630 C.3   1 <1>   0.4040 
  5 C       -2.0120    -2.2080    -0.3800 C.3   1 <1>   0.2200 
  6 N       -0.5190     2.5430     0.2930 N.4   1 <1>  -0.9590 
  7 C       -3.4420    -2.7210    -0.2370 C.3   1 <1>  -0.0800 
  8 C       -1.2470    -3.3720     0.2320 C.3   1 <1>   0.1200 
  9 C        0.8750     2.1370    -0.0490 C.3   1 <1>   0.3430 
 10 C       -0.6380     3.8100     1.0630 C.3   1 <1>   0.3430 
 11 C       -3.3730    -3.6100     1.0130 C.3   1 <1>   0.1200 
 12 C       -4.5460    -1.6490    -0.1950 C.3   1 <1>  -0.0170 
 13 O       -2.0170    -3.7350     1.3340 O.3   1 <1>  -0.5600 
 14 C        1.3310     2.8710    -1.3090 C.3   1 <1>  -0.1600 
 15 C       -0.1360     5.0190     0.2720 C.3   1 <1>  -0.1600 
 16 C       -5.9240    -2.2920    -0.1740 C.ar  1 <1>  -0.1430 
 17 C        1.9320     4.2670    -1.0760 C.3   1 <1>  -0.1600 
 18 C        1.3920     5.0550     0.1250 C.3   1 <1>  -0.1600 
 19 C       -6.6380    -2.4680     0.9940 C.ar  1 <1>  -0.1500 
 20 C       -6.5320    -2.7360    -1.3310 C.ar  1 <1>  -0.1500 
 21 C       -7.8860    -3.0670     0.9500 C.ar  1 <1>   0.1600 
 22 C       -7.7850    -3.3220    -1.2660 C.ar  1 <1>   0.1600 
 23 N       -8.4760    -3.5000    -0.1520 N.ar  1 <1>  -0.6200 
 24 H       -1.7590    -1.2590     1.4660 H     1 <1>   0.3700 
 25 H       -0.6890     1.0340     1.7910 H     1 <1>   0.0800 
 26 H       -2.2020     1.7770     1.3440 H     1 <1>   0.0800 
 27 H       -1.7330    -2.0230    -1.4040 H     1 <1>   0.0800 
 28 H       -0.9940     2.6650    -0.6170 H     1 <1>   0.4500 
 29 H       -3.6410    -3.3680    -1.0750 H     1 <1>   0.0800 
 30 H       -0.2540    -3.1080     0.5510 H     1 <1>   0.0800 
 31 H       -1.2080    -4.2110    -0.4420 H     1 <1>   0.0800 
 32 H        1.5490     2.3320     0.7700 H     1 <1>   0.0800 
 33 H        0.8950     1.0800    -0.2600 H     1 <1>   0.0800 
 34 H       -1.6740     3.9760     1.3100 H     1 <1>   0.0800 
 35 H       -0.0860     3.7320     1.9860 H     1 <1>   0.0800 
 36 H       -3.7770    -4.5900     0.8240 H     1 <1>   0.0800 
 37 H       -3.8720    -3.1690     1.8570 H     1 <1>   0.0800 
 38 H       -4.4640    -1.0180    -1.0640 H     1 <1>   0.0800 
 39 H       -4.4340    -1.0250     0.6730 H     1 <1>   0.0800 
 40 H        2.0870     2.2710    -1.7870 H     1 <1>   0.0800 
 41 H        0.5120     2.9330    -2.0050 H     1 <1>   0.0800 
 42 H       -0.6210     5.0830    -0.6870 H     1 <1>   0.0800 
 43 H       -0.4260     5.8950     0.8260 H     1 <1>   0.0800 
 44 H        2.9980     4.1700    -0.9500 H     1 <1>   0.0800 
 45 H        1.7830     4.8490    -1.9710 H     1 <1>   0.0800 
 46 H        1.7000     6.0810     0.0020 H     1 <1>   0.0800 
 47 H        1.8550     4.7050     1.0330 H     1 <1>   0.0800 
 48 H       -6.2410    -2.1480     1.9400 H     1 <1>   0.1500 
 49 H       -6.0450    -2.6320    -2.2840 H     1 <1>   0.1500 
 50 H       -8.4290    -3.1970     1.8710 H     1 <1>   0.1500 
 51 H       -8.2440    -3.6620    -2.1790 H     1 <1>   0.1500 
@<TRIPOS>BOND
  1   1   2  2   
  2   2   3  am  
  3   2   4  1   
  4   3   5  1   
  5   3  24  1   
  6   4   6  1   
  7   4  25  1   
  8   4  26  1   
  9   5   7  1   
 10   5   8  1   
 11   5  27  1   
 12   6   9  1   
 13   6  10  1   
 14   6  28  1   
 15   7  11  1   
 16   7  12  1   
 17   7  29  1   
 18   8  13  1   
 19   8  30  1   
 20   8  31  1   
 21   9  14  1   
 22   9  32  1   
 23   9  33  1   
 24  10  15  1   
 25  10  34  1   
 26  10  35  1   
 27  11  13  1   
 28  11  36  1   
 29  11  37  1   
 30  12  16  1   
 31  12  38  1   
 32  12  39  1   
 33  14  17  1   
 34  14  40  1   
 35  14  41  1   
 36  15  18  1   
 37  15  42  1   
 38  15  43  1   
 39  16  19  ar  
 40  16  20  ar  
 41  17  18  1   
 42  17  44  1   
 43  17  45  1   
 44  18  46  1   
 45  18  47  1   
 46  19  21  ar  
 47  19  48  1   
 48  20  22  ar  
 49  20  49  1   
 50  21  23  ar  
 51  21  50  1   
 52  22  23  ar  
 53  22  51  1   
@<TRIPOS>SUBSTRUCTURE
  1 ****   3 GROUP 4 **** **** 0

# MOE 2024.06 (io_trps.svl 2023.06)
