@<TRIPOS>MOLECULE
NONAME
63 65 1 0 0 
SMALL
USER_CHARGES


@<TRIPOS>ATOM
  1 O       -0.4930     0.3310     0.4770 O.2   1 <1>  -0.5700 
  2 C       -1.5500     0.9270     0.3940 C.2   1 <1>   0.7150 
  3 N       -2.7200     0.2580     0.7050 N.am  1 <1>  -0.6600 
  4 C       -1.5370     2.3220     0.0080 C.2   1 <1>   0.0550 
  5 C       -2.6510    -1.2290     0.8430 C.3   1 <1>   0.3200 
  6 C       -3.7980     0.9640     1.4830 C.3   1 <1>   0.1400 
  7 O       -0.6460     3.1450     0.5490 O.3   1 <1>  -0.2800 
  8 C       -2.2750     3.0340    -0.8900 C.2   1 <1>  -0.1500 
  9 C       -3.9020    -1.8330     0.2500 C.2   1 <1>  -0.3320 
 10 C       -4.9830     1.4610     0.6210 C.3   1 <1>   0.3430 
 11 C       -0.7640     4.3380     0.0130 C.2   1 <1>  -0.0400 
 12 C       -1.7770     4.3390    -0.8810 C.2   1 <1>  -0.1500 
 13 N       -4.7330    -2.6690     0.9020 N.pl3 1 <1>   0.0330 
 14 C       -4.4050    -1.6770    -0.9930 C.2   1 <1>   0.0770 
 15 N       -6.0280     0.4230     0.3430 N.4   1 <1>  -0.9590 
 16 C        0.2000     5.4350     0.4390 C.3   1 <1>   0.5230 
 17 C       -5.7340    -2.9130     0.0290 C.2   1 <1>   0.0060 
 18 N       -5.5880    -2.3060    -1.1030 N.2   1 <1>  -0.5650 
 19 C       -6.8470     0.7670    -0.8580 C.3   1 <1>   0.2630 
 20 C       -6.9140     0.1490     1.5110 C.3   1 <1>   0.2630 
 21 N        1.5790     5.1090    -0.0320 N.4   1 <1>  -0.9590 
 22 C       -6.8990    -3.8280     0.3480 C.3   1 <1>  -0.0600 
 23 C        2.2050     4.0170     0.7790 C.3   1 <1>   0.3430 
 24 C        2.4400     6.3240    -0.0850 C.3   1 <1>   0.3430 
 25 C        3.5540     3.6320     0.1730 C.3   1 <1>  -0.1600 
 26 C        3.7900     5.9740    -0.7120 C.3   1 <1>  -0.1600 
 27 C        4.4910     4.8420     0.0510 C.3   1 <1>  -0.0800 
 28 C        5.7960     4.4460    -0.6490 C.3   1 <1>  -0.2400 
 29 H       -2.5470    -1.4910     1.8820 H     1 <1>   0.0800 
 30 H       -1.8000    -1.6280     0.3130 H     1 <1>   0.0800 
 31 H       -3.3560     1.8260     1.9550 H     1 <1>   0.0800 
 32 H       -4.1560     0.3320     2.2760 H     1 <1>   0.0800 
 33 H       -3.0670     2.6820    -1.5270 H     1 <1>   0.1500 
 34 H       -4.5880     1.8330    -0.3090 H     1 <1>   0.0800 
 35 H       -5.4510     2.2890     1.1270 H     1 <1>   0.0800 
 36 H       -2.1440     5.1460    -1.4950 H     1 <1>   0.1500 
 37 H       -4.6210    -3.0810     1.8360 H     1 <1>   0.2700 
 38 H       -3.9830    -1.1220    -1.8160 H     1 <1>   0.1500 
 39 H       -5.5460    -0.4710     0.0920 H     1 <1>   0.4500 
 40 H        0.1850     5.5420     1.5110 H     1 <1>   0.0800 
 41 H       -0.1230     6.3640    -0.0010 H     1 <1>   0.0800 
 42 H       -7.4150     1.6660    -0.6870 H     1 <1>   0.0800 
 43 H       -7.5270    -0.0400    -1.0830 H     1 <1>   0.0800 
 44 H       -6.2090     0.9120    -1.7150 H     1 <1>   0.0800 
 45 H       -7.4650     1.0360     1.7810 H     1 <1>   0.0800 
 46 H       -6.3320    -0.1720     2.3590 H     1 <1>   0.0800 
 47 H       -7.6170    -0.6310     1.2650 H     1 <1>   0.0800 
 48 H        1.4830     4.7380    -0.9850 H     1 <1>   0.4500 
 49 H       -7.4260    -3.4840     1.2180 H     1 <1>   0.0800 
 50 H       -6.5430    -4.8280     0.5220 H     1 <1>   0.0800 
 51 H       -7.5810    -3.8540    -0.4830 H     1 <1>   0.0800 
 52 H        1.5720     3.1440     0.7940 H     1 <1>   0.0800 
 53 H        2.3480     4.3480     1.7950 H     1 <1>   0.0800 
 54 H        2.5970     6.7040     0.9120 H     1 <1>   0.0800 
 55 H        1.9630     7.0920    -0.6720 H     1 <1>   0.0800 
 56 H        3.3920     3.1850    -0.7930 H     1 <1>   0.0800 
 57 H        4.0120     2.8850     0.7980 H     1 <1>   0.0800 
 58 H        4.4150     6.8510    -0.7030 H     1 <1>   0.0800 
 59 H        3.6430     5.6950    -1.7410 H     1 <1>   0.0800 
 60 H        4.7350     5.1910     1.0420 H     1 <1>   0.0800 
 61 H        5.6070     4.0870    -1.6460 H     1 <1>   0.0800 
 62 H        6.2960     3.6680    -0.0970 H     1 <1>   0.0800 
 63 H        6.4600     5.2900    -0.7110 H     1 <1>   0.0800 
@<TRIPOS>BOND
  1   1   2  2   
  2   2   3  am  
  3   2   4  1   
  4   3   5  1   
  5   3   6  1   
  6   4   7  1   
  7   4   8  2   
  8   5   9  1   
  9   5  29  1   
 10   5  30  1   
 11   6  10  1   
 12   6  31  1   
 13   6  32  1   
 14   7  11  1   
 15   8  12  1   
 16   8  33  1   
 17   9  13  1   
 18   9  14  2   
 19  10  15  1   
 20  10  34  1   
 21  10  35  1   
 22  11  12  2   
 23  11  16  1   
 24  12  36  1   
 25  13  17  1   
 26  13  37  1   
 27  14  18  1   
 28  14  38  1   
 29  15  19  1   
 30  15  20  1   
 31  15  39  1   
 32  16  21  1   
 33  16  40  1   
 34  16  41  1   
 35  17  18  2   
 36  17  22  1   
 37  19  42  1   
 38  19  43  1   
 39  19  44  1   
 40  20  45  1   
 41  20  46  1   
 42  20  47  1   
 43  21  23  1   
 44  21  24  1   
 45  21  48  1   
 46  22  49  1   
 47  22  50  1   
 48  22  51  1   
 49  23  25  1   
 50  23  52  1   
 51  23  53  1   
 52  24  26  1   
 53  24  54  1   
 54  24  55  1   
 55  25  27  1   
 56  25  56  1   
 57  25  57  1   
 58  26  27  1   
 59  26  58  1   
 60  26  59  1   
 61  27  28  1   
 62  27  60  1   
 63  28  61  1   
 64  28  62  1   
 65  28  63  1   
@<TRIPOS>SUBSTRUCTURE
  1 ****   4 GROUP 4 **** **** 0

# MOE 2024.06 (io_trps.svl 2023.06)
