@<TRIPOS>MOLECULE
NONAME
36 36 1 0 0 
SMALL
USER_CHARGES


@<TRIPOS>ATOM
  1 S        1.0450     0.4240    -0.2510 S.3   1 <1>  -0.4600 
  2 C       -0.5570     1.3170    -0.2270 C.3   1 <1>   0.1310 
  3 C        0.5480    -1.3110    -0.3900 C.3   1 <1>   0.0700 
  4 C       -0.3730     2.8270    -0.1150 C.2   1 <1>   0.5690 
  5 C        1.8210    -2.1520    -0.4130 C.3   1 <1>  -0.2400 
  6 O       -1.3530     3.5260    -0.0300 O.2   1 <1>  -0.5700 
  7 N        0.8730     3.3520    -0.1120 N.am  1 <1>  -0.7300 
  8 C        1.2080     4.7800    -0.1310 C.3   1 <1>   0.4000 
  9 C        2.6520     4.8960    -0.6030 C.2   1 <1>  -0.3320 
 10 C        0.9950     5.3810     1.2700 C.3   1 <1>   0.1200 
 11 N        3.1760     6.0230    -1.1420 N.pl3 1 <1>   0.3140 
 12 C        3.6500     3.9800    -0.5880 C.2   1 <1>  -0.1500 
 13 O        1.1510     6.7720     1.2440 O.3   1 <1>  -0.5600 
 14 N        4.4670     5.8520    -1.4760 N.2   1 <1>  -0.7070 
 15 C        2.5240     7.3190    -1.3850 C.3   1 <1>   0.0160 
 16 C        4.7430     4.6310    -1.1410 C.2   1 <1>   0.1390 
 17 C        1.0010     7.3740     2.4890 C.3   1 <1>   0.0400 
 18 H       -1.1140     0.9530     0.6150 H     1 <1>   0.0800 
 19 H       -1.0710     1.0780    -1.1390 H     1 <1>   0.0800 
 20 H       -0.0140    -1.4180    -1.3010 H     1 <1>   0.0800 
 21 H       -0.0660    -1.5450     0.4620 H     1 <1>   0.0800 
 22 H        2.4320    -1.8780    -1.2550 H     1 <1>   0.0800 
 23 H        1.5710    -3.1950    -0.4930 H     1 <1>   0.0800 
 24 H        2.3820    -2.0000     0.4920 H     1 <1>   0.0800 
 25 H        1.6700     2.7240    -0.2400 H     1 <1>   0.3700 
 26 H        0.5420     5.2660    -0.8240 H     1 <1>   0.0800 
 27 H        1.7160     4.9670     1.9530 H     1 <1>   0.0800 
 28 H       -0.0030     5.1640     1.6080 H     1 <1>   0.0800 
 29 H        3.6520     2.9630    -0.2370 H     1 <1>   0.1500 
 30 H        1.4780     7.1760    -1.5720 H     1 <1>   0.0800 
 31 H        2.9820     7.7860    -2.2360 H     1 <1>   0.0800 
 32 H        2.6580     7.9410    -0.5200 H     1 <1>   0.0800 
 33 H        5.7130     4.1840    -1.2810 H     1 <1>   0.1500 
 34 H        1.1310     8.4340     2.3670 H     1 <1>   0.0800 
 35 H        1.7500     6.9910     3.1600 H     1 <1>   0.0800 
 36 H        0.0130     7.1700     2.8660 H     1 <1>   0.0800 
@<TRIPOS>BOND
  1   1   2  1   
  2   1   3  1   
  3   2   4  1   
  4   2  18  1   
  5   2  19  1   
  6   3   5  1   
  7   3  20  1   
  8   3  21  1   
  9   4   6  2   
 10   4   7  am  
 11   5  22  1   
 12   5  23  1   
 13   5  24  1   
 14   7   8  1   
 15   7  25  1   
 16   8   9  1   
 17   8  10  1   
 18   8  26  1   
 19   9  11  1   
 20   9  12  2   
 21  10  13  1   
 22  10  27  1   
 23  10  28  1   
 24  11  14  1   
 25  11  15  1   
 26  12  16  1   
 27  12  29  1   
 28  13  17  1   
 29  14  16  2   
 30  15  30  1   
 31  15  31  1   
 32  15  32  1   
 33  16  33  1   
 34  17  34  1   
 35  17  35  1   
 36  17  36  1   
@<TRIPOS>SUBSTRUCTURE
  1 ****   7 GROUP 4 **** **** 0

# MOE 2024.06 (io_trps.svl 2023.06)
