@<TRIPOS>MOLECULE
NONAME
55 59 1 0 0 
SMALL
USER_CHARGES


@<TRIPOS>ATOM
  1 O        0.0830     0.4500    -0.1900 O.2   1 <1>  -0.5700 
  2 C       -0.6610     1.3500     0.1210 C.2   1 <1>   0.5690 
  3 N       -2.0220     1.2460    -0.0080 N.am  1 <1>  -0.6600 
  4 C       -0.0330     2.6210     0.6610 C.3   1 <1>  -0.0990 
  5 C       -3.0210     2.2710     0.4370 C.3   1 <1>   0.1400 
  6 C       -2.6530     0.0640    -0.6620 C.3   1 <1>   0.1400 
  7 C        1.4480     2.7430     0.2760 C.3   1 <1>   0.0960 
  8 C       -3.8340     2.7950    -0.7620 C.3   1 <1>   0.1440 
  9 C       -3.4940     0.5200    -1.8630 C.3   1 <1>  -0.1600 
 10 N        1.9830     4.0400     0.7290 N.pl3 1 <1>   0.3140 
 11 C       -4.8220     3.8230    -0.2430 C.ar  1 <1>   0.1660 
 12 C       -4.5160     1.6070    -1.4750 C.3   1 <1>  -0.1600 
 13 C       -2.9660     3.6380    -1.7360 C.3   1 <1>  -0.1600 
 14 N        1.6150     5.1820     0.1890 N.2   1 <1>  -0.4180 
 15 C        2.8330     4.3160     1.7070 C.2   1 <1>   0.0060 
 16 N       -5.9070     3.5580     0.4420 N.ar  1 <1>  -0.6200 
 17 C       -4.4340     5.0900    -0.5540 C.ar  1 <1>  -0.1440 
 18 C       -3.1400     5.1110    -1.3290 C.3   1 <1>  -0.0170 
 19 N        2.2360     6.1040     0.8320 N.2   1 <1>   0.0000 
 20 N        3.0000     5.5800     1.7850 N.2   1 <1>  -0.3380 
 21 C        3.5090     3.3010     2.6090 C.3   1 <1>  -0.0600 
 22 C       -6.6390     4.6180     0.8140 C.ar  1 <1>   0.6200 
 23 C       -5.2310     6.1220    -0.1330 C.ar  1 <1>   0.1600 
 24 N       -6.3310     5.8960     0.5480 N.ar  1 <1>  -0.6200 
 25 C       -7.8600     4.3610     1.5670 C.ar  1 <1>   0.0000 
 26 C       -8.0100     3.2150     2.3560 C.ar  1 <1>  -0.1500 
 27 C       -8.9410     5.2470     1.5380 C.ar  1 <1>  -0.1500 
 28 C       -9.1670     2.9680     3.0720 C.ar  1 <1>  -0.1500 
 29 C      -10.1020     5.0070     2.2510 C.ar  1 <1>  -0.1500 
 30 C      -10.2180     3.8650     3.0210 C.ar  1 <1>  -0.1500 
 31 H       -0.1340     2.6240     1.7300 H     1 <1>   0.0800 
 32 H       -0.5510     3.4680     0.2530 H     1 <1>   0.0800 
 33 H       -2.5530     3.0910     0.9470 H     1 <1>   0.0800 
 34 H       -3.6960     1.8080     1.1370 H     1 <1>   0.0800 
 35 H       -3.2810    -0.4380     0.0550 H     1 <1>   0.0800 
 36 H       -1.9040    -0.6360    -0.9920 H     1 <1>   0.0800 
 37 H        1.5550     2.6900    -0.7930 H     1 <1>   0.0800 
 38 H        2.0170     1.9450     0.7150 H     1 <1>   0.0800 
 39 H       -4.0130    -0.3290    -2.2700 H     1 <1>   0.0800 
 40 H       -2.8330     0.8900    -2.6260 H     1 <1>   0.0800 
 41 H       -5.0440     1.9500    -2.3470 H     1 <1>   0.0800 
 42 H       -5.2440     1.1740    -0.8110 H     1 <1>   0.0800 
 43 H       -3.3490     3.5270    -2.7350 H     1 <1>   0.0800 
 44 H       -1.9330     3.3420    -1.7440 H     1 <1>   0.0800 
 45 H       -3.1980     5.7560    -2.1890 H     1 <1>   0.0800 
 46 H       -2.3350     5.4290    -0.6870 H     1 <1>   0.0800 
 47 H        2.7730     2.7230     3.1380 H     1 <1>   0.0800 
 48 H        4.1280     3.8090     3.3280 H     1 <1>   0.0800 
 49 H        4.1310     2.6440     2.0280 H     1 <1>   0.0800 
 50 H       -4.9650     7.1420    -0.3530 H     1 <1>   0.1500 
 51 H       -7.2040     2.5040     2.4100 H     1 <1>   0.1500 
 52 H       -8.8710     6.1420     0.9440 H     1 <1>   0.1500 
 53 H       -9.2500     2.0770     3.6690 H     1 <1>   0.1500 
 54 H      -10.9150     5.7110     2.2070 H     1 <1>   0.1500 
 55 H      -11.1190     3.6760     3.5770 H     1 <1>   0.1500 
@<TRIPOS>BOND
  1   1   2  2   
  2   2   3  am  
  3   2   4  1   
  4   3   5  1   
  5   3   6  1   
  6   4   7  1   
  7   4  31  1   
  8   4  32  1   
  9   5   8  1   
 10   5  33  1   
 11   5  34  1   
 12   6   9  1   
 13   6  35  1   
 14   6  36  1   
 15   7  10  1   
 16   7  37  1   
 17   7  38  1   
 18   8  11  1   
 19   8  12  1   
 20   8  13  1   
 21   9  12  1   
 22   9  39  1   
 23   9  40  1   
 24  10  14  1   
 25  10  15  1   
 26  11  16  ar  
 27  11  17  ar  
 28  12  41  1   
 29  12  42  1   
 30  13  18  1   
 31  13  43  1   
 32  13  44  1   
 33  14  19  2   
 34  15  20  2   
 35  15  21  1   
 36  16  22  ar  
 37  17  18  1   
 38  17  23  ar  
 39  18  45  1   
 40  18  46  1   
 41  19  20  1   
 42  21  47  1   
 43  21  48  1   
 44  21  49  1   
 45  22  24  ar  
 46  22  25  1   
 47  23  24  ar  
 48  23  50  1   
 49  25  26  ar  
 50  25  27  ar  
 51  26  28  ar  
 52  26  51  1   
 53  27  29  ar  
 54  27  52  1   
 55  28  30  ar  
 56  28  53  1   
 57  29  30  ar  
 58  29  54  1   
 59  30  55  1   
@<TRIPOS>SUBSTRUCTURE
  1 ****   5 GROUP 4 **** **** 0

# MOE 2024.06 (io_trps.svl 2023.06)
