@<TRIPOS>MOLECULE
NONAME
43 44 1 0 0 
SMALL
USER_CHARGES


@<TRIPOS>ATOM
  1 S        0.9420     0.2410    -0.3790 S.o2  1 <1>   1.3330 
  2 O        1.7870     0.1840     0.7930 O.2   1 <1>  -0.6500 
  3 O        1.5390     0.2060    -1.6950 O.2   1 <1>  -0.6500 
  4 N       -0.1800    -1.0280    -0.2720 N.am  1 <1>  -0.8490 
  5 C       -0.0910     1.7000    -0.2910 C.3   1 <1>  -0.0550 
  6 C        0.3020    -2.2490    -0.9260 C.3   1 <1>   0.1160 
  7 C       -0.5880    -1.3300     1.1040 C.3   1 <1>   0.1160 
  8 C        0.6960     3.0140    -0.4670 C.3   1 <1>  -0.0800 
  9 C       -0.1810     4.2660    -0.5430 C.3   1 <1>   0.2000 
 10 C        1.6910     3.3120     0.6650 C.3   1 <1>   0.1400 
 11 O       -1.1410     4.2090     0.4580 O.3   1 <1>  -0.6800 
 12 C        0.7870     5.3960    -0.2080 C.3   1 <1>   0.1400 
 13 N        1.7130     4.7920     0.7850 N.am  1 <1>  -0.6600 
 14 C        2.5370     5.4460     1.6620 C.2   1 <1>   0.5690 
 15 O        3.2380     4.8310     2.4300 O.2   1 <1>  -0.5700 
 16 C        2.5900     6.9650     1.7310 C.3   1 <1>   0.0810 
 17 C        3.2600     7.5730     0.5130 C.2   1 <1>  -0.0400 
 18 O        2.5570     7.8580    -0.5490 O.3   1 <1>  -0.0190 
 19 C        4.5330     7.9170     0.2700 C.2   1 <1>  -0.1500 
 20 N        3.2910     8.3660    -1.4950 N.2   1 <1>  -0.4100 
 21 C        4.4880     8.4150    -1.0300 C.2   1 <1>   0.1080 
 22 C        5.6800     8.9410    -1.7980 C.3   1 <1>  -0.0590 
 23 H       -0.8320     1.6410    -1.0640 H     1 <1>   0.0800 
 24 H       -0.6060     1.7120     0.6500 H     1 <1>   0.0800 
 25 H       -0.4370    -3.0270    -0.8550 H     1 <1>   0.0800 
 26 H        1.2170    -2.5840    -0.4660 H     1 <1>   0.0800 
 27 H        0.4900    -2.0580    -1.9700 H     1 <1>   0.0800 
 28 H       -1.3590    -2.0810     1.1050 H     1 <1>   0.0800 
 29 H       -0.9770    -0.4460     1.5790 H     1 <1>   0.0800 
 30 H        0.2520    -1.6890     1.6770 H     1 <1>   0.0800 
 31 H        1.2590     2.9530    -1.3830 H     1 <1>   0.0800 
 32 H       -0.6740     4.3930    -1.4910 H     1 <1>   0.0800 
 33 H        2.6750     2.9350     0.4380 H     1 <1>   0.0800 
 34 H        1.3620     2.8880     1.6000 H     1 <1>   0.0800 
 35 H       -0.6890     4.2800     1.3240 H     1 <1>   0.4000 
 36 H        0.2750     6.2610     0.1750 H     1 <1>   0.0800 
 37 H        1.3450     5.6630    -1.0890 H     1 <1>   0.0800 
 38 H        1.5990     7.3600     1.8430 H     1 <1>   0.0800 
 39 H        3.1510     7.2410     2.6040 H     1 <1>   0.0800 
 40 H        5.4020     7.8360     0.8970 H     1 <1>   0.1500 
 41 H        6.1310     9.7540    -1.2600 H     1 <1>   0.0800 
 42 H        5.3680     9.2930    -2.7650 H     1 <1>   0.0800 
 43 H        6.4030     8.1570    -1.9300 H     1 <1>   0.0800 
@<TRIPOS>BOND
  1   1   2  2   
  2   1   3  2   
  3   1   4  am  
  4   1   5  1   
  5   4   6  1   
  6   4   7  1   
  7   5   8  1   
  8   5  23  1   
  9   5  24  1   
 10   6  25  1   
 11   6  26  1   
 12   6  27  1   
 13   7  28  1   
 14   7  29  1   
 15   7  30  1   
 16   8   9  1   
 17   8  10  1   
 18   8  31  1   
 19   9  11  1   
 20   9  12  1   
 21   9  32  1   
 22  10  13  1   
 23  10  33  1   
 24  10  34  1   
 25  11  35  1   
 26  12  13  1   
 27  12  36  1   
 28  12  37  1   
 29  13  14  am  
 30  14  15  2   
 31  14  16  1   
 32  16  17  1   
 33  16  38  1   
 34  16  39  1   
 35  17  18  1   
 36  17  19  2   
 37  18  20  1   
 38  19  21  1   
 39  19  40  1   
 40  20  21  2   
 41  21  22  1   
 42  22  41  1   
 43  22  42  1   
 44  22  43  1   
@<TRIPOS>SUBSTRUCTURE
  1 ****  10 GROUP 4 **** **** 0

# MOE 2024.06 (io_trps.svl 2023.06)
