@<TRIPOS>MOLECULE
NONAME
47 49 1 0 0 
SMALL
USER_CHARGES


@<TRIPOS>ATOM
  1 F       -1.0480     2.8360     1.6840 F     1 <1>  -0.1900 
  2 C       -0.7910     2.9670     0.4090 C.ar  1 <1>   0.1900 
  3 C       -1.6150     2.3520    -0.5230 C.ar  1 <1>  -0.1440 
  4 C        0.3040     3.7300     0.0470 C.ar  1 <1>  -0.1500 
  5 C       -1.3110     2.5230    -1.8660 C.ar  1 <1>  -0.1500 
  6 C       -2.8220     1.5180    -0.1110 C.3   1 <1>  -0.0160 
  7 C        0.5910     3.8880    -1.2980 C.ar  1 <1>  -0.1500 
  8 C       -0.2170     3.2840    -2.2500 C.ar  1 <1>  -0.1500 
  9 C       -4.0310     2.4250     0.1650 C.3   1 <1>  -0.0990 
 10 C       -5.3050     1.6720     0.5240 C.2   1 <1>   0.5690 
 11 O       -5.2800     0.4630     0.5120 O.2   1 <1>  -0.5700 
 12 N       -6.4470     2.3650     0.8390 N.am  1 <1>  -0.6600 
 13 C       -6.5870     3.8490     0.8540 C.3   1 <1>   0.1400 
 14 C       -7.7090     1.6580     1.1980 C.3   1 <1>   0.1400 
 15 C       -7.6620     4.2570    -0.1550 C.3   1 <1>  -0.1600 
 16 C       -8.8070     2.0480     0.2050 C.3   1 <1>  -0.1600 
 17 C       -9.0010     3.5650     0.1380 C.3   1 <1>   0.4180 
 18 O       -9.4600     3.9600     1.4090 O.3   1 <1>  -0.5600 
 19 C      -10.0370     3.9030    -0.9310 C.2   1 <1>  -0.2880 
 20 C      -10.1220     5.1900     1.5060 C.3   1 <1>   0.1200 
 21 C      -11.1420     4.6180    -0.7070 C.2   1 <1>  -0.2760 
 22 C      -11.4150     5.1750     0.6780 C.3   1 <1>  -0.0220 
 23 C      -12.1970     4.9240    -1.7540 C.3   1 <1>  -0.1020 
 24 H        0.9150     4.1870     0.8040 H     1 <1>   0.1500 
 25 H       -1.9250     2.0630    -2.6210 H     1 <1>   0.1500 
 26 H       -2.5900     0.9440     0.7700 H     1 <1>   0.0800 
 27 H       -3.0650     0.8200    -0.8930 H     1 <1>   0.0800 
 28 H        1.4380     4.4760    -1.6040 H     1 <1>   0.1500 
 29 H        0.0070     3.4080    -3.2950 H     1 <1>   0.1500 
 30 H       -4.2250     3.0160    -0.7100 H     1 <1>   0.0800 
 31 H       -3.7850     3.0830     0.9770 H     1 <1>   0.0800 
 32 H       -5.6620     4.3380     0.6100 H     1 <1>   0.0800 
 33 H       -6.8780     4.1620     1.8430 H     1 <1>   0.0800 
 34 H       -7.9990     1.9400     2.1960 H     1 <1>   0.0800 
 35 H       -7.5700     0.5910     1.1820 H     1 <1>   0.0800 
 36 H       -7.3310     3.9800    -1.1390 H     1 <1>   0.0800 
 37 H       -7.7880     5.3230    -0.1520 H     1 <1>   0.0800 
 38 H       -9.7350     1.5860     0.4880 H     1 <1>   0.0800 
 39 H       -8.5380     1.6730    -0.7650 H     1 <1>   0.0800 
 40 H       -9.7880     3.4940    -1.8940 H     1 <1>   0.1500 
 41 H       -9.4630     5.9650     1.1600 H     1 <1>   0.0800 
 42 H      -10.3460     5.3620     2.5430 H     1 <1>   0.0800 
 43 H      -11.7870     6.1820     0.6090 H     1 <1>   0.0800 
 44 H      -12.1570     4.5750     1.1730 H     1 <1>   0.0800 
 45 H      -13.1490     4.5290    -1.4460 H     1 <1>   0.0800 
 46 H      -11.9330     4.4790    -2.6970 H     1 <1>   0.0800 
 47 H      -12.2890     5.9870    -1.8920 H     1 <1>   0.0800 
@<TRIPOS>BOND
  1   1   2  1   
  2   2   3  ar  
  3   2   4  ar  
  4   3   5  ar  
  5   3   6  1   
  6   4   7  ar  
  7   4  24  1   
  8   5   8  ar  
  9   5  25  1   
 10   6   9  1   
 11   6  26  1   
 12   6  27  1   
 13   7   8  ar  
 14   7  28  1   
 15   8  29  1   
 16   9  10  1   
 17   9  30  1   
 18   9  31  1   
 19  10  11  2   
 20  10  12  am  
 21  12  13  1   
 22  12  14  1   
 23  13  15  1   
 24  13  32  1   
 25  13  33  1   
 26  14  16  1   
 27  14  34  1   
 28  14  35  1   
 29  15  17  1   
 30  15  36  1   
 31  15  37  1   
 32  16  17  1   
 33  16  38  1   
 34  16  39  1   
 35  17  18  1   
 36  17  19  1   
 37  18  20  1   
 38  19  21  2   
 39  19  40  1   
 40  20  22  1   
 41  20  41  1   
 42  20  42  1   
 43  21  22  1   
 44  21  23  1   
 45  22  43  1   
 46  22  44  1   
 47  23  45  1   
 48  23  46  1   
 49  23  47  1   
@<TRIPOS>SUBSTRUCTURE
  1 ****  12 GROUP 4 **** **** 0

# MOE 2024.06 (io_trps.svl 2023.06)
