@<TRIPOS>MOLECULE
NONAME
43 44 1 0 0 
SMALL
USER_CHARGES


@<TRIPOS>ATOM
  1 O        0.4710    -1.8410     2.6810 O.2   1 <1>  -0.5700 
  2 C        0.3840    -1.4350     1.5390 C.2   1 <1>   0.5440 
  3 N       -0.8630    -1.4690     0.9880 N.am  1 <1>  -0.7300 
  4 C        1.5170    -0.8930     0.8320 C.ar  1 <1>   0.0860 
  5 C       -1.2440    -1.2510    -0.4300 C.3   1 <1>   0.0600 
  6 C        2.5310    -1.7190     0.3140 C.ar  1 <1>   0.4100 
  7 C        1.6220     0.4740     0.6200 C.ar  1 <1>  -0.1500 
  8 N        3.5710    -1.2670    -0.3860 N.ar  1 <1>  -0.6200 
  9 N        2.5050    -3.0830     0.5060 N.pl3 1 <1>  -0.8380 
 10 C        2.7030     0.9410    -0.0910 C.ar  1 <1>  -0.1500 
 11 C        3.6360     0.0370    -0.5670 C.ar  1 <1>   0.1600 
 12 C        2.5070    -4.0070    -0.6560 C.3   1 <1>   0.2090 
 13 C        3.0790    -3.6210     1.7660 C.3   1 <1>   0.1290 
 14 C        1.0630    -4.2870    -1.0690 C.3   1 <1>  -0.1600 
 15 C        0.2750    -5.0030     0.0300 C.3   1 <1>   0.3430 
 16 O        0.7340    -6.3020     0.1250 O.3   1 <1>  -0.6800 
 17 C       -1.2230    -5.0710    -0.2430 C.ar  1 <1>  -0.1440 
 18 C       -2.1110    -4.5940     0.7100 C.ar  1 <1>  -0.1500 
 19 C       -1.7240    -5.6050    -1.4230 C.ar  1 <1>  -0.1500 
 20 C       -3.4760    -4.6380     0.4850 C.ar  1 <1>  -0.1500 
 21 C       -3.0880    -5.6500    -1.6500 C.ar  1 <1>  -0.1500 
 22 C       -3.9660    -5.1650    -0.6970 C.ar  1 <1>  -0.1500 
 23 H       -1.5940    -1.8310     1.6030 H     1 <1>   0.3700 
 24 H       -0.3780    -1.0240    -1.0270 H     1 <1>   0.0800 
 25 H       -1.9400    -0.4330    -0.4960 H     1 <1>   0.0800 
 26 H       -1.7090    -2.1400    -0.8190 H     1 <1>   0.0800 
 27 H        0.8720     1.1420     1.0060 H     1 <1>   0.1500 
 28 H        2.8280     1.9930    -0.2780 H     1 <1>   0.1500 
 29 H        4.4790     0.4080    -1.1240 H     1 <1>   0.1500 
 30 H        3.0040    -4.9280    -0.4020 H     1 <1>   0.0800 
 31 H        3.0380    -3.5570    -1.4780 H     1 <1>   0.0800 
 32 H        3.0220    -2.8790     2.5450 H     1 <1>   0.0800 
 33 H        4.1110    -3.8850     1.6110 H     1 <1>   0.0800 
 34 H        2.5300    -4.4910     2.0790 H     1 <1>   0.0800 
 35 H        1.0560    -4.8800    -1.9630 H     1 <1>   0.0800 
 36 H        0.5880    -3.3510    -1.2940 H     1 <1>   0.0800 
 37 H        0.4400    -4.5250     0.9810 H     1 <1>   0.0800 
 38 H        0.0530    -6.8240     0.5900 H     1 <1>   0.4000 
 39 H       -1.7390    -4.1850     1.6350 H     1 <1>   0.1500 
 40 H       -1.0500    -5.9930    -2.1670 H     1 <1>   0.1500 
 41 H       -4.1560    -4.2650     1.2310 H     1 <1>   0.1500 
 42 H       -3.4670    -6.0640    -2.5680 H     1 <1>   0.1500 
 43 H       -5.0270    -5.2010    -0.8730 H     1 <1>   0.1500 
@<TRIPOS>BOND
  1   1   2  2   
  2   2   3  am  
  3   2   4  1   
  4   3   5  1   
  5   3  23  1   
  6   4   6  ar  
  7   4   7  ar  
  8   5  24  1   
  9   5  25  1   
 10   5  26  1   
 11   6   8  ar  
 12   6   9  1   
 13   7  10  ar  
 14   7  27  1   
 15   8  11  ar  
 16   9  12  1   
 17   9  13  1   
 18  10  11  ar  
 19  10  28  1   
 20  11  29  1   
 21  12  14  1   
 22  12  30  1   
 23  12  31  1   
 24  13  32  1   
 25  13  33  1   
 26  13  34  1   
 27  14  15  1   
 28  14  35  1   
 29  14  36  1   
 30  15  16  1   
 31  15  17  1   
 32  15  37  1   
 33  16  38  1   
 34  17  18  ar  
 35  17  19  ar  
 36  18  20  ar  
 37  18  39  1   
 38  19  21  ar  
 39  19  40  1   
 40  20  22  ar  
 41  20  41  1   
 42  21  22  ar  
 43  21  42  1   
 44  22  43  1   
@<TRIPOS>SUBSTRUCTURE
  1 ****  14 GROUP 4 **** **** 0

# MOE 2024.06 (io_trps.svl 2023.06)
