@<TRIPOS>MOLECULE
NONAME
48 50 1 0 0 
SMALL
USER_CHARGES


@<TRIPOS>ATOM
  1 O       -0.7980     0.1840    -1.5970 O.3   1 <1>  -0.0190 
  2 N       -1.2170    -0.9800    -1.2090 N.2   1 <1>  -0.4100 
  3 C       -1.5660     1.1460    -1.1680 C.2   1 <1>  -0.0400 
  4 C       -2.2900    -0.7730    -0.5270 C.2   1 <1>   0.1080 
  5 C       -2.5680     0.5920    -0.4660 C.2   1 <1>  -0.1500 
  6 C       -1.2270     2.5800    -1.5160 C.3   1 <1>   0.5230 
  7 C       -3.1380    -1.8630     0.1230 C.3   1 <1>   0.1010 
  8 N       -0.0710     3.0640    -0.6930 N.4   1 <1>  -0.9590 
  9 C       -2.3350    -2.6190     1.1950 C.3   1 <1>  -0.1600 
 10 C       -3.6870    -2.8380    -0.9320 C.3   1 <1>  -0.1600 
 11 C        0.0940     4.5440    -0.7250 C.3   1 <1>   0.5660 
 12 C        1.2010     2.3550    -1.0780 C.3   1 <1>   0.2630 
 13 C       -3.1680    -3.7350     1.8430 C.3   1 <1>  -0.1600 
 14 C       -4.5240    -3.9540    -0.2890 C.3   1 <1>  -0.1600 
 15 C        1.3170     4.9370     0.0950 C.ar  1 <1>  -0.1430 
 16 C       -1.1500     5.2390    -0.1700 C.3   1 <1>  -0.2400 
 17 C       -3.7190    -4.7000     0.7840 C.3   1 <1>  -0.1600 
 18 C        1.4310     4.6990     1.4550 C.ar  1 <1>  -0.1500 
 19 C        2.3970     5.5600    -0.5030 C.ar  1 <1>  -0.1500 
 20 C        2.5860     5.0720     2.1220 C.ar  1 <1>   0.1600 
 21 C        3.5070     5.8920     0.2560 C.ar  1 <1>   0.1600 
 22 N        3.6230     5.6540     1.5500 N.ar  1 <1>  -0.6200 
 23 H       -3.4060     1.0380     0.0400 H     1 <1>   0.1500 
 24 H       -2.0980     3.1800    -1.3180 H     1 <1>   0.0800 
 25 H       -0.9990     2.6520    -2.5670 H     1 <1>   0.0800 
 26 H       -3.9760    -1.3910     0.6070 H     1 <1>   0.0800 
 27 H       -0.2700     2.8110     0.2810 H     1 <1>   0.4500 
 28 H       -2.0050    -1.9310     1.9530 H     1 <1>   0.0800 
 29 H       -1.4590    -3.0520     0.7410 H     1 <1>   0.0800 
 30 H       -2.8650    -3.2790    -1.4690 H     1 <1>   0.0800 
 31 H       -4.2910    -2.2990    -1.6420 H     1 <1>   0.0800 
 32 H        0.2500     4.8670    -1.7420 H     1 <1>   0.0800 
 33 H        1.4440     2.5470    -2.1110 H     1 <1>   0.0800 
 34 H        1.1000     1.2910    -0.9410 H     1 <1>   0.0800 
 35 H        2.0230     2.6870    -0.4640 H     1 <1>   0.0800 
 36 H       -3.9870    -3.3010     2.3900 H     1 <1>   0.0800 
 37 H       -2.5580    -4.2810     2.5420 H     1 <1>   0.0800 
 38 H       -4.8410    -4.6480    -1.0480 H     1 <1>   0.0800 
 39 H       -5.4060    -3.5290     0.1580 H     1 <1>   0.0800 
 40 H       -1.4230     4.8480     0.7930 H     1 <1>   0.0800 
 41 H       -1.9810     5.1610    -0.8450 H     1 <1>   0.0800 
 42 H       -0.9400     6.2880    -0.0510 H     1 <1>   0.0800 
 43 H       -4.3450    -5.4360     1.2570 H     1 <1>   0.0800 
 44 H       -2.8990    -5.2180     0.3150 H     1 <1>   0.0800 
 45 H        0.6430     4.2330     2.0180 H     1 <1>   0.1500 
 46 H        2.4010     5.7980    -1.5520 H     1 <1>   0.1500 
 47 H        2.6620     4.8830     3.1810 H     1 <1>   0.1500 
 48 H        4.3420     6.3780    -0.2230 H     1 <1>   0.1500 
@<TRIPOS>BOND
  1   1   2  1   
  2   1   3  1   
  3   2   4  2   
  4   3   5  2   
  5   3   6  1   
  6   4   5  1   
  7   4   7  1   
  8   5  23  1   
  9   6   8  1   
 10   6  24  1   
 11   6  25  1   
 12   7   9  1   
 13   7  10  1   
 14   7  26  1   
 15   8  11  1   
 16   8  12  1   
 17   8  27  1   
 18   9  13  1   
 19   9  28  1   
 20   9  29  1   
 21  10  14  1   
 22  10  30  1   
 23  10  31  1   
 24  11  15  1   
 25  11  16  1   
 26  11  32  1   
 27  12  33  1   
 28  12  34  1   
 29  12  35  1   
 30  13  17  1   
 31  13  36  1   
 32  13  37  1   
 33  14  17  1   
 34  14  38  1   
 35  14  39  1   
 36  15  18  ar  
 37  15  19  ar  
 38  16  40  1   
 39  16  41  1   
 40  16  42  1   
 41  17  43  1   
 42  17  44  1   
 43  18  20  ar  
 44  18  45  1   
 45  19  21  ar  
 46  19  46  1   
 47  20  22  ar  
 48  20  47  1   
 49  21  22  ar  
 50  21  48  1   
@<TRIPOS>SUBSTRUCTURE
  1 ****   3 GROUP 4 **** **** 0

# MOE 2024.06 (io_trps.svl 2023.06)
