@<TRIPOS>MOLECULE
NONAME
51 53 1 0 0 
SMALL
USER_CHARGES


@<TRIPOS>ATOM
  1 S       -1.7170     1.1990     0.0260 S.3   1 <1>  -0.4600 
  2 C       -2.4550     0.4850     1.5340 C.3   1 <1>   0.0700 
  3 C       -0.4840     2.3760     0.6510 C.3   1 <1>   0.0700 
  4 C       -3.3790    -0.6740     1.1290 C.3   1 <1>   0.3430 
  5 C        0.7530     1.5910     1.0810 C.3   1 <1>  -0.2400 
  6 N       -4.2030    -0.3010    -0.0590 N.4   1 <1>  -0.9590 
  7 C       -5.2910     0.6770     0.2840 C.3   1 <1>   0.3430 
  8 C       -4.7390    -1.4930    -0.7710 C.3   1 <1>   0.3430 
  9 C       -6.0240     1.1790    -0.9720 C.3   1 <1>   0.1430 
 10 C       -5.4340    -1.0540    -2.0640 C.3   1 <1>  -0.1600 
 11 C       -7.1760     2.0450    -0.5270 C.ar  1 <1>   0.1670 
 12 C       -6.5380    -0.0130    -1.8060 C.3   1 <1>  -0.1600 
 13 C       -5.1710     2.1630    -1.8180 C.3   1 <1>  -0.1600 
 14 N       -8.0270     1.7140     0.4100 N.ar  1 <1>  -0.6200 
 15 C       -7.2160     3.2250    -1.2010 C.ar  1 <1>  -0.1430 
 16 C       -6.1000     3.3290    -2.2100 C.3   1 <1>  -0.0170 
 17 C       -8.9680     2.6300     0.6620 C.ar  1 <1>   0.7200 
 18 C       -8.2150     4.1060    -0.8730 C.ar  1 <1>   0.1600 
 19 N       -9.0920     3.8170     0.0590 N.ar  1 <1>  -0.6200 
 20 N       -9.8880     2.3230     1.6420 N.pl3 1 <1>  -0.8380 
 21 C      -10.2260     0.9200     2.0080 C.3   1 <1>   0.1290 
 22 C      -10.7650     3.3660     2.2440 C.3   1 <1>   0.1290 
 23 H       -2.9940     1.2690     2.0350 H     1 <1>   0.0800 
 24 H       -1.6570     0.1370     2.1650 H     1 <1>   0.0800 
 25 H       -0.9240     2.9220     1.4680 H     1 <1>   0.0800 
 26 H       -0.2520     3.0490    -0.1570 H     1 <1>   0.0800 
 27 H       -4.0100    -0.9560     1.9560 H     1 <1>   0.0800 
 28 H       -2.7590    -1.5190     0.8760 H     1 <1>   0.0800 
 29 H        0.5250     0.9270     1.8940 H     1 <1>   0.0800 
 30 H        1.5190     2.2730     1.4060 H     1 <1>   0.0800 
 31 H        1.1370     1.0200     0.2550 H     1 <1>   0.0800 
 32 H       -3.5450     0.1860    -0.6950 H     1 <1>   0.4500 
 33 H       -4.8830     1.5250     0.8070 H     1 <1>   0.0800 
 34 H       -6.0120     0.2040     0.9310 H     1 <1>   0.0800 
 35 H       -5.4470    -2.0070    -0.1400 H     1 <1>   0.0800 
 36 H       -3.9370    -2.1740    -1.0090 H     1 <1>   0.0800 
 37 H       -5.8700    -1.9190    -2.5340 H     1 <1>   0.0800 
 38 H       -4.7000    -0.6620    -2.7460 H     1 <1>   0.0800 
 39 H       -6.9450     0.3370    -2.7400 H     1 <1>   0.0800 
 40 H       -7.3430    -0.4890    -1.2690 H     1 <1>   0.0800 
 41 H       -4.7380     1.7050    -2.6900 H     1 <1>   0.0800 
 42 H       -4.3730     2.5630    -1.2160 H     1 <1>   0.0800 
 43 H       -6.4960     3.1880    -3.2010 H     1 <1>   0.0800 
 44 H       -5.5950     4.2790    -2.1500 H     1 <1>   0.0800 
 45 H       -8.2970     5.0550    -1.3750 H     1 <1>   0.1500 
 46 H       -9.8810     0.2340     1.2540 H     1 <1>   0.0800 
 47 H      -11.2920     0.8120     2.0990 H     1 <1>   0.0800 
 48 H       -9.7630     0.6730     2.9470 H     1 <1>   0.0800 
 49 H      -10.2570     4.3150     2.2710 H     1 <1>   0.0800 
 50 H      -11.0270     3.0940     3.2510 H     1 <1>   0.0800 
 51 H      -11.6600     3.4670     1.6560 H     1 <1>   0.0800 
@<TRIPOS>BOND
  1   1   2  1   
  2   1   3  1   
  3   2   4  1   
  4   2  23  1   
  5   2  24  1   
  6   3   5  1   
  7   3  25  1   
  8   3  26  1   
  9   4   6  1   
 10   4  27  1   
 11   4  28  1   
 12   5  29  1   
 13   5  30  1   
 14   5  31  1   
 15   6   7  1   
 16   6   8  1   
 17   6  32  1   
 18   7   9  1   
 19   7  33  1   
 20   7  34  1   
 21   8  10  1   
 22   8  35  1   
 23   8  36  1   
 24   9  11  1   
 25   9  12  1   
 26   9  13  1   
 27  10  12  1   
 28  10  37  1   
 29  10  38  1   
 30  11  14  ar  
 31  11  15  ar  
 32  12  39  1   
 33  12  40  1   
 34  13  16  1   
 35  13  41  1   
 36  13  42  1   
 37  14  17  ar  
 38  15  16  1   
 39  15  18  ar  
 40  16  43  1   
 41  16  44  1   
 42  17  19  ar  
 43  17  20  1   
 44  18  19  ar  
 45  18  45  1   
 46  20  21  1   
 47  20  22  1   
 48  21  46  1   
 49  21  47  1   
 50  21  48  1   
 51  22  49  1   
 52  22  50  1   
 53  22  51  1   
@<TRIPOS>SUBSTRUCTURE
  1 ****   9 GROUP 4 **** **** 0

# MOE 2024.06 (io_trps.svl 2023.06)
