@<TRIPOS>MOLECULE
NONAME
49 51 1 0 0 
SMALL
USER_CHARGES


@<TRIPOS>ATOM
  1 O       -0.1410     1.5720    -2.1140 O.2   1 <1>  -0.5700 
  2 C        0.0310     2.4890    -1.3490 C.2   1 <1>   0.5690 
  3 N       -0.9680     2.8920    -0.5270 N.am  1 <1>  -0.7300 
  4 C        1.3970     3.1900    -1.2860 C.3   1 <1>   0.1710 
  5 C       -0.8690     4.0860     0.3510 C.3   1 <1>   0.1400 
  6 N        1.3950     4.5270    -0.6130 N.3   1 <1>  -0.8100 
  7 C        0.6000     4.4650     0.6330 C.3   1 <1>   0.1100 
  8 C        2.7690     4.9970    -0.3980 C.3   1 <1>   0.1100 
  9 C        2.7980     6.5090    -0.1600 C.3   1 <1>  -0.1600 
 10 C        4.2380     7.0080    -0.0960 C.3   1 <1>   0.2090 
 11 N        4.2370     8.4590     0.1640 N.pl3 1 <1>  -0.8690 
 12 C        5.3790     9.1850     0.4140 C.ar  1 <1>   0.4100 
 13 N        6.5300     8.5720     0.1370 N.ar  1 <1>  -0.6200 
 14 C        5.2920    10.4910     0.9290 C.ar  1 <1>   0.0860 
 15 C        7.6320     9.2490     0.3900 C.ar  1 <1>   0.1600 
 16 C        4.0100    11.1030     1.1720 C.2   1 <1>   0.5440 
 17 C        6.4760    11.1680     1.1880 C.ar  1 <1>  -0.1500 
 18 C        7.6640    10.5300     0.9110 C.ar  1 <1>  -0.1500 
 19 O        3.2040    10.5620     1.9110 O.2   1 <1>  -0.5700 
 20 N        3.6630    12.2980     0.5780 N.am  1 <1>  -0.6600 
 21 C        2.3420    12.9360     0.7810 C.3   1 <1>   0.1400 
 22 C        4.3240    12.8300    -0.6360 C.3   1 <1>   0.1400 
 23 C        2.0610    13.6690    -0.5250 C.3   1 <1>  -0.1600 
 24 C        3.4410    13.9860    -1.0920 C.3   1 <1>  -0.1600 
 25 H       -1.8780     2.4440    -0.6440 H     1 <1>   0.3700 
 26 H        1.7550     3.3070    -2.2920 H     1 <1>   0.0800 
 27 H        2.0690     2.5300    -0.7690 H     1 <1>   0.0800 
 28 H       -1.3720     3.8890     1.2810 H     1 <1>   0.0800 
 29 H       -1.3580     4.9150    -0.1300 H     1 <1>   0.0800 
 30 H        1.0310     3.7420     1.3050 H     1 <1>   0.0800 
 31 H        0.6080     5.4210     1.1250 H     1 <1>   0.0800 
 32 H        3.3500     4.7870    -1.2810 H     1 <1>   0.0800 
 33 H        3.2170     4.4750     0.4310 H     1 <1>   0.0800 
 34 H        2.3110     6.7470     0.7670 H     1 <1>   0.0800 
 35 H        2.2910     7.0030    -0.9700 H     1 <1>   0.0800 
 36 H        4.7440     6.8180    -1.0280 H     1 <1>   0.0800 
 37 H        4.7730     6.5080     0.6940 H     1 <1>   0.0800 
 38 H        3.4010     8.8050     0.6580 H     1 <1>   0.4000 
 39 H        8.5650     8.7570     0.1710 H     1 <1>   0.1500 
 40 H        6.4560    12.1620     1.5980 H     1 <1>   0.1500 
 41 H        8.6060    11.0150     1.0940 H     1 <1>   0.1500 
 42 H        2.4130    13.6310     1.5990 H     1 <1>   0.0800 
 43 H        1.5790    12.2060     0.9930 H     1 <1>   0.0800 
 44 H        4.3540    12.0600    -1.3890 H     1 <1>   0.0800 
 45 H        5.3220    13.1680    -0.4190 H     1 <1>   0.0800 
 46 H        1.4660    14.5510    -0.3680 H     1 <1>   0.0800 
 47 H        1.5360    13.0040    -1.1890 H     1 <1>   0.0800 
 48 H        3.4310    14.0830    -2.1640 H     1 <1>   0.0800 
 49 H        3.8100    14.9000    -0.6610 H     1 <1>   0.0800 
@<TRIPOS>BOND
  1   1   2  2   
  2   2   3  am  
  3   2   4  1   
  4   3   5  1   
  5   3  25  1   
  6   4   6  1   
  7   4  26  1   
  8   4  27  1   
  9   5   7  1   
 10   5  28  1   
 11   5  29  1   
 12   6   7  1   
 13   6   8  1   
 14   7  30  1   
 15   7  31  1   
 16   8   9  1   
 17   8  32  1   
 18   8  33  1   
 19   9  10  1   
 20   9  34  1   
 21   9  35  1   
 22  10  11  1   
 23  10  36  1   
 24  10  37  1   
 25  11  12  1   
 26  11  38  1   
 27  12  13  ar  
 28  12  14  ar  
 29  13  15  ar  
 30  14  16  1   
 31  14  17  ar  
 32  15  18  ar  
 33  15  39  1   
 34  16  19  2   
 35  16  20  am  
 36  17  18  ar  
 37  17  40  1   
 38  18  41  1   
 39  20  21  1   
 40  20  22  1   
 41  21  23  1   
 42  21  42  1   
 43  21  43  1   
 44  22  24  1   
 45  22  44  1   
 46  22  45  1   
 47  23  24  1   
 48  23  46  1   
 49  23  47  1   
 50  24  48  1   
 51  24  49  1   
@<TRIPOS>SUBSTRUCTURE
  1 ****  11 GROUP 4 **** **** 0

# MOE 2024.06 (io_trps.svl 2023.06)
