@<TRIPOS>MOLECULE
NONAME
47 49 1 0 0 
SMALL
USER_CHARGES


@<TRIPOS>ATOM
  1 O       -1.1420    -0.1610     1.3270 O.2   1 <1>  -0.5700 
  2 C       -2.2490    -0.5010     0.9980 C.2   1 <1>   0.4230 
  3 C       -3.2400     0.4240     0.5050 C.ar  1 <1>   0.0860 
  4 C       -2.5640    -1.9800     1.1270 C.3   1 <1>  -0.1790 
  5 C       -4.5350     0.0400     0.1480 C.ar  1 <1>   0.1600 
  6 C       -2.9450     1.7780     0.3570 C.ar  1 <1>  -0.1500 
  7 N       -5.4890     0.8300    -0.3020 N.ar  1 <1>  -0.6200 
  8 C       -3.9270     2.6160    -0.1090 C.ar  1 <1>  -0.1500 
  9 C       -5.1920     2.1210    -0.4190 C.ar  1 <1>   0.4100 
 10 N       -6.1890     2.9670    -0.8530 N.pl3 1 <1>  -0.8380 
 11 C       -6.5210     4.2050    -0.1070 C.3   1 <1>   0.2090 
 12 C       -7.3010     2.4750    -1.7120 C.3   1 <1>   0.2090 
 13 C       -7.7530     3.9550     0.7650 C.3   1 <1>  -0.1600 
 14 C       -8.5410     2.2220    -0.8520 C.3   1 <1>  -0.1600 
 15 C       -8.9660     3.4740    -0.0570 C.3   1 <1>   0.2800 
 16 O       -9.2720     4.4650    -1.0190 O.3   1 <1>  -0.5600 
 17 C      -10.2010     3.2380     0.8720 C.3   1 <1>   0.2000 
 18 C      -10.0580     5.5430    -0.6050 C.3   1 <1>   0.1200 
 19 O      -10.2610     1.9480     1.4070 O.3   1 <1>  -0.6800 
 20 C      -11.5450     3.6150     0.1930 C.3   1 <1>   0.2800 
 21 C      -11.4900     5.0730    -0.2990 C.3   1 <1>  -0.1600 
 22 O      -12.5430     3.5260     1.1490 O.3   1 <1>  -0.6800 
 23 C      -11.9810     2.6730    -0.9390 C.3   1 <1>  -0.2400 
 24 H       -3.3630    -2.1270     1.8290 H     1 <1>   0.0800 
 25 H       -1.6970    -2.5060     1.4830 H     1 <1>   0.0800 
 26 H       -2.8380    -2.3850     0.1700 H     1 <1>   0.0800 
 27 H       -4.8080    -0.9950     0.2400 H     1 <1>   0.1500 
 28 H       -1.9650     2.1490     0.6020 H     1 <1>   0.1500 
 29 H       -3.7310     3.6610    -0.2480 H     1 <1>   0.1500 
 30 H       -5.6980     4.5010     0.5180 H     1 <1>   0.0800 
 31 H       -6.7170     4.9980    -0.8080 H     1 <1>   0.0800 
 32 H       -7.5200     3.2130    -2.4640 H     1 <1>   0.0800 
 33 H       -7.0110     1.5670    -2.2130 H     1 <1>   0.0800 
 34 H       -7.9920     4.8480     1.3090 H     1 <1>   0.0800 
 35 H       -7.5050     3.1990     1.4890 H     1 <1>   0.0800 
 36 H       -8.3060     1.4240    -0.1710 H     1 <1>   0.0800 
 37 H       -9.3390     1.8780    -1.4760 H     1 <1>   0.0800 
 38 H      -10.0930     3.8940     1.7170 H     1 <1>   0.0800 
 39 H       -9.6050     5.9880     0.2640 H     1 <1>   0.0800 
 40 H      -10.0640     6.2720    -1.3970 H     1 <1>   0.0800 
 41 H      -11.1380     1.8550     1.8340 H     1 <1>   0.4000 
 42 H      -12.0830     5.1880    -1.1880 H     1 <1>   0.0800 
 43 H      -11.8950     5.7360     0.4450 H     1 <1>   0.0800 
 44 H      -13.4080     3.6800     0.7270 H     1 <1>   0.4000 
 45 H      -11.3350     2.7950    -1.7880 H     1 <1>   0.0800 
 46 H      -12.9820     2.8950    -1.2610 H     1 <1>   0.0800 
 47 H      -11.9320     1.6470    -0.6210 H     1 <1>   0.0800 
@<TRIPOS>BOND
  1   1   2  2   
  2   2   3  1   
  3   2   4  1   
  4   3   5  ar  
  5   3   6  ar  
  6   4  24  1   
  7   4  25  1   
  8   4  26  1   
  9   5   7  ar  
 10   5  27  1   
 11   6   8  ar  
 12   6  28  1   
 13   7   9  ar  
 14   8   9  ar  
 15   8  29  1   
 16   9  10  1   
 17  10  11  1   
 18  10  12  1   
 19  11  13  1   
 20  11  30  1   
 21  11  31  1   
 22  12  14  1   
 23  12  32  1   
 24  12  33  1   
 25  13  15  1   
 26  13  34  1   
 27  13  35  1   
 28  14  15  1   
 29  14  36  1   
 30  14  37  1   
 31  15  16  1   
 32  15  17  1   
 33  16  18  1   
 34  17  19  1   
 35  17  20  1   
 36  17  38  1   
 37  18  21  1   
 38  18  39  1   
 39  18  40  1   
 40  19  41  1   
 41  20  21  1   
 42  20  22  1   
 43  20  23  1   
 44  21  42  1   
 45  21  43  1   
 46  22  44  1   
 47  23  45  1   
 48  23  46  1   
 49  23  47  1   
@<TRIPOS>SUBSTRUCTURE
  1 ****  10 GROUP 4 **** **** 0

# MOE 2024.06 (io_trps.svl 2023.06)
