@<TRIPOS>MOLECULE
NONAME
47 49 1 0 0 
SMALL
USER_CHARGES


@<TRIPOS>ATOM
  1 S        0.7400     1.0780    -0.2510 S.o2  1 <1>   1.3330 
  2 O        0.1780     1.6540    -1.4520 O.2   1 <1>  -0.6500 
  3 O        2.0470     1.4980     0.2020 O.2   1 <1>  -0.6500 
  4 N        0.7840    -0.6050    -0.4690 N.am  1 <1>  -0.8490 
  5 C       -0.4240     1.2560     1.1090 C.3   1 <1>  -0.0550 
  6 C       -0.3100    -1.1160    -1.3030 C.3   1 <1>   0.1160 
  7 C        2.0700    -1.0620    -1.0080 C.3   1 <1>   0.1160 
  8 C       -0.7380     2.6910     1.5890 C.3   1 <1>  -0.0800 
  9 C       -1.2390     3.6170     0.4750 C.3   1 <1>   0.2000 
 10 C        0.4720     3.4220     2.2010 C.3   1 <1>   0.1100 
 11 O       -2.2320     4.4110     1.0150 O.3   1 <1>  -0.6800 
 12 C       -0.0420     4.5200     0.1940 C.3   1 <1>   0.1100 
 13 N        0.5700     4.7160     1.5150 N.3   1 <1>  -0.8100 
 14 C        1.9700     5.1900     1.4010 C.3   1 <1>   0.2530 
 15 C        2.0730     6.6060     0.8330 C.ar  1 <1>   0.1670 
 16 N        2.9760     6.8390    -0.0730 N.ar  1 <1>  -0.6200 
 17 C        1.2020     7.5950     1.3180 C.ar  1 <1>  -0.1500 
 18 C        3.0770     8.1010    -0.5800 C.ar  1 <1>   0.3100 
 19 C        1.2740     8.8660     0.8360 C.ar  1 <1>  -0.1500 
 20 C        4.0340     8.4290    -1.5670 C.ar  1 <1>   0.1900 
 21 C        2.2360     9.1530    -0.1460 C.ar  1 <1>   0.0000 
 22 F        4.8390     7.4940    -2.0020 F     1 <1>  -0.1900 
 23 C        4.1720     9.6820    -2.1020 C.ar  1 <1>  -0.1500 
 24 C        2.3850    10.4410    -0.7030 C.ar  1 <1>  -0.1500 
 25 C        3.3290    10.7050    -1.6590 C.ar  1 <1>  -0.1500 
 26 H       -1.3520     0.8040     0.8170 H     1 <1>   0.0800 
 27 H       -0.0540     0.6960     1.9450 H     1 <1>   0.0800 
 28 H       -0.2840    -2.1920    -1.3300 H     1 <1>   0.0800 
 29 H       -0.2250    -0.7380    -2.3090 H     1 <1>   0.0800 
 30 H       -1.2600    -0.8100    -0.9000 H     1 <1>   0.0800 
 31 H        2.0680    -2.1320    -1.1250 H     1 <1>   0.0800 
 32 H        2.8670    -0.8010    -0.3320 H     1 <1>   0.0800 
 33 H        2.2610    -0.6000    -1.9620 H     1 <1>   0.0800 
 34 H       -1.4970     2.6000     2.3470 H     1 <1>   0.0800 
 35 H       -1.6290     3.1200    -0.3960 H     1 <1>   0.0800 
 36 H        1.3780     2.8570     2.0710 H     1 <1>   0.0800 
 37 H        0.3250     3.5860     3.2550 H     1 <1>   0.0800 
 38 H       -1.7840     5.0270     1.6330 H     1 <1>   0.4000 
 39 H       -0.3390     5.4540    -0.2530 H     1 <1>   0.0800 
 40 H        0.6480     4.0210    -0.4650 H     1 <1>   0.0800 
 41 H        2.4230     5.1910     2.3760 H     1 <1>   0.0800 
 42 H        2.5340     4.5150     0.7770 H     1 <1>   0.0800 
 43 H        0.4810     7.3230     2.0690 H     1 <1>   0.1500 
 44 H        0.6180     9.6420     1.1880 H     1 <1>   0.1500 
 45 H        4.9170     9.8790    -2.8520 H     1 <1>   0.1500 
 46 H        1.7330    11.2250    -0.3580 H     1 <1>   0.1500 
 47 H        3.4340    11.6920    -2.0780 H     1 <1>   0.1500 
@<TRIPOS>BOND
  1   1   2  2   
  2   1   3  2   
  3   1   4  am  
  4   1   5  1   
  5   4   6  1   
  6   4   7  1   
  7   5   8  1   
  8   5  26  1   
  9   5  27  1   
 10   6  28  1   
 11   6  29  1   
 12   6  30  1   
 13   7  31  1   
 14   7  32  1   
 15   7  33  1   
 16   8   9  1   
 17   8  10  1   
 18   8  34  1   
 19   9  11  1   
 20   9  12  1   
 21   9  35  1   
 22  10  13  1   
 23  10  36  1   
 24  10  37  1   
 25  11  38  1   
 26  12  13  1   
 27  12  39  1   
 28  12  40  1   
 29  13  14  1   
 30  14  15  1   
 31  14  41  1   
 32  14  42  1   
 33  15  16  ar  
 34  15  17  ar  
 35  16  18  ar  
 36  17  19  ar  
 37  17  43  1   
 38  18  20  ar  
 39  18  21  ar  
 40  19  21  ar  
 41  19  44  1   
 42  20  22  1   
 43  20  23  ar  
 44  21  24  ar  
 45  23  25  ar  
 46  23  45  1   
 47  24  25  ar  
 48  24  46  1   
 49  25  47  1   
@<TRIPOS>SUBSTRUCTURE
  1 ****  14 GROUP 4 **** **** 0

# MOE 2024.06 (io_trps.svl 2023.06)
