@<TRIPOS>MOLECULE
NONAME
50 53 1 0 0 
SMALL
USER_CHARGES


@<TRIPOS>ATOM
  1 S       -0.7380     0.5840     1.5670 S.o2  1 <1>   1.4470 
  2 O       -0.7640    -0.6890     2.2590 O.2   1 <1>  -0.6500 
  3 O       -1.3290     1.7410     2.2040 O.2   1 <1>  -0.6500 
  4 N       -1.5060     0.3800     0.0670 N.am  1 <1>  -0.8490 
  5 C        0.9690     0.9780     1.0960 C.ar  1 <1>  -0.0090 
  6 C       -2.9640     0.4140     0.1550 C.3   1 <1>   0.1960 
  7 C       -1.1930    -0.8930    -0.5810 C.3   1 <1>   0.1960 
  8 C        1.2350     1.9260     0.1130 C.ar  1 <1>  -0.1500 
  9 C        2.0500     0.3510     1.7100 C.ar  1 <1>  -0.1500 
 10 C       -3.3930    -1.0200     0.4700 C.3   1 <1>  -0.0800 
 11 C       -2.3450    -1.8640    -0.2770 C.3   1 <1>  -0.0800 
 12 C        2.5340     2.2330    -0.2510 C.ar  1 <1>   0.0830 
 13 C        3.3560     0.6460     1.3510 C.ar  1 <1>  -0.1500 
 14 C       -4.8780    -1.3860     0.1910 C.3   1 <1>   0.2800 
 15 C       -2.9020    -2.4990    -1.5630 C.3   1 <1>  -0.1600 
 16 O        2.7430     3.1730    -1.2060 O.3   1 <1>  -0.3630 
 17 C        3.6030     1.5810     0.3650 C.ar  1 <1>   0.0830 
 18 O       -5.3280    -0.7150    -0.9310 O.3   1 <1>  -0.6800 
 19 C       -4.9870    -2.8940    -0.1030 C.3   1 <1>  -0.1600 
 20 C       -5.8300    -1.0210     1.3530 C.3   1 <1>  -0.1600 
 21 C       -4.1340    -3.3770    -1.2940 C.3   1 <1>  -0.1600 
 22 C        4.0540     3.6950    -1.3130 C.3   1 <1>   0.1200 
 23 O        4.8850     1.8450     0.0120 O.3   1 <1>  -0.3630 
 24 C       -5.8940     0.4650     1.7460 C.3   1 <1>  -0.2400 
 25 C        5.0870     2.5670    -1.1890 C.3   1 <1>   0.1200 
 26 H       -3.3060     1.1240     0.8860 H     1 <1>   0.0800 
 27 H       -3.3480     0.7120    -0.8060 H     1 <1>   0.0800 
 28 H       -1.1280    -0.7220    -1.6420 H     1 <1>   0.0800 
 29 H       -0.2480    -1.2910    -0.2480 H     1 <1>   0.0800 
 30 H        0.4210     2.4330    -0.3750 H     1 <1>   0.1500 
 31 H        1.8680    -0.3800     2.4810 H     1 <1>   0.1500 
 32 H       -3.2250    -1.1800     1.5200 H     1 <1>   0.0800 
 33 H       -1.9890    -2.6460     0.3710 H     1 <1>   0.0800 
 34 H        4.1830     0.1530     1.8300 H     1 <1>   0.1500 
 35 H       -3.1880    -1.7100    -2.2390 H     1 <1>   0.0800 
 36 H       -2.1410    -3.0830    -2.0510 H     1 <1>   0.0800 
 37 H       -6.2410    -0.9930    -1.1260 H     1 <1>   0.4000 
 38 H       -4.6520    -3.4180     0.7760 H     1 <1>   0.0800 
 39 H       -6.0140    -3.1760    -0.2580 H     1 <1>   0.0800 
 40 H       -6.8240    -1.3450     1.0980 H     1 <1>   0.0800 
 41 H       -5.5390    -1.5820     2.2250 H     1 <1>   0.0800 
 42 H       -3.8200    -4.3890    -1.1030 H     1 <1>   0.0800 
 43 H       -4.7390    -3.3900    -2.1840 H     1 <1>   0.0800 
 44 H        4.1380     4.1880    -2.2650 H     1 <1>   0.0800 
 45 H        4.1920     4.4170    -0.5280 H     1 <1>   0.0800 
 46 H       -6.0630     1.0850     0.8830 H     1 <1>   0.0800 
 47 H       -4.9830     0.7710     2.2280 H     1 <1>   0.0800 
 48 H       -6.7000     0.6230     2.4400 H     1 <1>   0.0800 
 49 H        6.0860     2.9640    -1.1720 H     1 <1>   0.0800 
 50 H        4.9930     1.8810    -2.0120 H     1 <1>   0.0800 
@<TRIPOS>BOND
  1   1   2  2   
  2   1   3  2   
  3   1   4  am  
  4   1   5  1   
  5   4   6  1   
  6   4   7  1   
  7   5   8  ar  
  8   5   9  ar  
  9   6  10  1   
 10   6  26  1   
 11   6  27  1   
 12   7  11  1   
 13   7  28  1   
 14   7  29  1   
 15   8  12  ar  
 16   8  30  1   
 17   9  13  ar  
 18   9  31  1   
 19  10  11  1   
 20  10  14  1   
 21  10  32  1   
 22  11  15  1   
 23  11  33  1   
 24  12  16  1   
 25  12  17  ar  
 26  13  17  ar  
 27  13  34  1   
 28  14  18  1   
 29  14  19  1   
 30  14  20  1   
 31  15  21  1   
 32  15  35  1   
 33  15  36  1   
 34  16  22  1   
 35  17  23  1   
 36  18  37  1   
 37  19  21  1   
 38  19  38  1   
 39  19  39  1   
 40  20  24  1   
 41  20  40  1   
 42  20  41  1   
 43  21  42  1   
 44  21  43  1   
 45  22  25  1   
 46  22  44  1   
 47  22  45  1   
 48  23  25  1   
 49  24  46  1   
 50  24  47  1   
 51  24  48  1   
 52  25  49  1   
 53  25  50  1   
@<TRIPOS>SUBSTRUCTURE
  1 ****   4 GROUP 4 **** **** 0

# MOE 2024.06 (io_trps.svl 2023.06)
