@<TRIPOS>MOLECULE
NONAME
44 45 1 0 0 
SMALL
USER_CHARGES


@<TRIPOS>ATOM
  1 O       -0.2070     1.9140    -1.8760 O.3   1 <1>  -0.3630 
  2 C        0.0740     2.2690    -0.5900 C.ar  1 <1>   0.0830 
  3 C       -1.0070     0.7850    -2.1500 C.3   1 <1>   0.0400 
  4 C       -0.8150     2.1690     0.4920 C.ar  1 <1>   0.0830 
  5 C        1.3490     2.7700    -0.3840 C.ar  1 <1>  -0.1500 
  6 O       -2.0880     1.7180     0.2880 O.3   1 <1>  -0.3630 
  7 C       -0.3760     2.5540     1.7570 C.ar  1 <1>  -0.1500 
  8 C        1.7810     3.1580     0.8760 C.ar  1 <1>  -0.1430 
  9 C       -3.0890     1.8400     1.2760 C.3   1 <1>   0.0400 
 10 C        0.9060     3.0420     1.9440 C.ar  1 <1>  -0.1500 
 11 C        3.1870     3.7090     1.0940 C.3   1 <1>   0.4330 
 12 N        3.3600     4.8690     0.2190 N.pl3 1 <1>  -0.8690 
 13 C        4.2570     2.6800     0.7480 C.3   1 <1>  -0.2400 
 14 C        3.8110     6.0650     0.7530 C.ar  1 <1>   0.4100 
 15 N        4.8390     5.9960     1.5800 N.ar  1 <1>  -0.6200 
 16 C        3.1580     7.2910     0.3980 C.ar  1 <1>   0.4100 
 17 C        5.1950     7.1920     2.0320 C.ar  1 <1>   0.1600 
 18 N        3.5300     8.4690     0.8710 N.ar  1 <1>  -0.6200 
 19 N        2.0730     7.2910    -0.4930 N.pl3 1 <1>  -0.8380 
 20 C        4.5680     8.3770     1.6920 C.ar  1 <1>   0.1600 
 21 C        2.4160     7.1420    -1.9310 C.3   1 <1>   0.1290 
 22 C        0.9620     8.2470    -0.2390 C.3   1 <1>   0.1290 
 23 H       -0.7840     0.4500    -3.1460 H     1 <1>   0.0800 
 24 H       -2.0420     1.0690    -2.0860 H     1 <1>   0.0800 
 25 H       -0.7790     0.0100    -1.4390 H     1 <1>   0.0800 
 26 H        2.0090     2.8520    -1.2290 H     1 <1>   0.1500 
 27 H       -1.0160     2.4840     2.6140 H     1 <1>   0.1500 
 28 H       -4.0220     1.5240     0.8460 H     1 <1>   0.0800 
 29 H       -3.1560     2.8700     1.5790 H     1 <1>   0.0800 
 30 H       -2.8380     1.2060     2.1080 H     1 <1>   0.0800 
 31 H        1.2170     3.3380     2.9310 H     1 <1>   0.1500 
 32 H        3.3020     4.0060     2.1240 H     1 <1>   0.0800 
 33 H        2.4740     5.0540    -0.2660 H     1 <1>   0.4000 
 34 H        4.1960     2.4020    -0.2880 H     1 <1>   0.0800 
 35 H        4.1250     1.8020     1.3530 H     1 <1>   0.0800 
 36 H        5.2290     3.0940     0.9460 H     1 <1>   0.0800 
 37 H        6.0320     7.2230     2.7070 H     1 <1>   0.1500 
 38 H        4.9320     9.2960     2.1140 H     1 <1>   0.1500 
 39 H        3.3000     6.5370    -2.0440 H     1 <1>   0.0800 
 40 H        2.6020     8.1090    -2.3650 H     1 <1>   0.0800 
 41 H        1.6030     6.6670    -2.4520 H     1 <1>   0.0800 
 42 H        0.7760     8.3160     0.8190 H     1 <1>   0.0800 
 43 H        0.0660     7.9070    -0.7270 H     1 <1>   0.0800 
 44 H        1.2250     9.2230    -0.6080 H     1 <1>   0.0800 
@<TRIPOS>BOND
  1   1   2  1   
  2   1   3  1   
  3   2   4  ar  
  4   2   5  ar  
  5   3  23  1   
  6   3  24  1   
  7   3  25  1   
  8   4   6  1   
  9   4   7  ar  
 10   5   8  ar  
 11   5  26  1   
 12   6   9  1   
 13   7  10  ar  
 14   7  27  1   
 15   8  10  ar  
 16   8  11  1   
 17   9  28  1   
 18   9  29  1   
 19   9  30  1   
 20  10  31  1   
 21  11  12  1   
 22  11  13  1   
 23  11  32  1   
 24  12  14  1   
 25  12  33  1   
 26  13  34  1   
 27  13  35  1   
 28  13  36  1   
 29  14  15  ar  
 30  14  16  ar  
 31  15  17  ar  
 32  16  18  ar  
 33  16  19  1   
 34  17  20  ar  
 35  17  37  1   
 36  18  20  ar  
 37  19  21  1   
 38  19  22  1   
 39  20  38  1   
 40  21  39  1   
 41  21  40  1   
 42  21  41  1   
 43  22  42  1   
 44  22  43  1   
 45  22  44  1   
@<TRIPOS>SUBSTRUCTURE
  1 ****   8 GROUP 4 **** **** 0

# MOE 2024.06 (io_trps.svl 2023.06)
