@<TRIPOS>MOLECULE
NONAME
49 51 1 0 0 
SMALL
USER_CHARGES


@<TRIPOS>ATOM
  1 O       -0.7710     0.3940    -1.8430 O.2   1 <1>  -0.5700 
  2 C       -1.4490     0.9270    -0.9800 C.2   1 <1>   0.7160 
  3 N       -2.5610     0.2570    -0.5120 N.am  1 <1>  -0.6600 
  4 C       -1.0740     2.2390    -0.4900 C.2   1 <1>  -0.0860 
  5 C       -3.1000    -0.9280    -1.2630 C.3   1 <1>   0.1400 
  6 C       -3.3010     0.6360     0.7340 C.3   1 <1>   0.1400 
  7 C        0.1330     2.6940    -0.0100 C.2   1 <1>  -0.3320 
  8 C       -1.9290     3.3590    -0.4420 C.2   1 <1>  -0.1500 
  9 C       -4.1720    -1.6690    -0.4540 C.3   1 <1>   0.2000 
 10 C       -4.7970     0.6440     0.4190 C.3   1 <1>  -0.1600 
 11 N        0.0440     4.0050     0.3220 N.pl3 1 <1>   0.0480 
 12 C        1.4140     1.8870     0.1400 C.3   1 <1>  -0.0600 
 13 C       -1.2260     4.4050     0.0540 C.2   1 <1>  -0.3020 
 14 O       -4.6640    -2.7500    -1.1690 O.3   1 <1>  -0.6800 
 15 C       -5.3420    -0.7650     0.0150 C.3   1 <1>  -0.1060 
 16 C        1.1120     4.8640     0.8600 C.3   1 <1>   0.0160 
 17 C       -5.9210    -1.5530     1.1950 C.2   1 <1>   0.9060 
 18 C       -6.4240    -0.5820    -1.0930 C.3   1 <1>  -0.0160 
 19 O       -5.7600    -1.1590     2.3550 O.co2 1 <1>  -0.9000 
 20 O       -6.4680    -2.6400     0.9500 O.co2 1 <1>  -0.9000 
 21 C       -7.4960     0.4600    -0.7750 C.ar  1 <1>  -0.1430 
 22 C       -8.4500     0.2090     0.1980 C.ar  1 <1>  -0.1500 
 23 C       -7.5340     1.6640    -1.4630 C.ar  1 <1>  -0.1500 
 24 C       -9.4250     1.1490     0.4860 C.ar  1 <1>  -0.1500 
 25 C       -8.5080     2.6060    -1.1790 C.ar  1 <1>  -0.1500 
 26 C       -9.4550     2.3490    -0.2030 C.ar  1 <1>  -0.1500 
 27 H       -3.5230    -0.5860    -2.1900 H     1 <1>   0.0800 
 28 H       -2.2940    -1.6080    -1.4800 H     1 <1>   0.0800 
 29 H       -3.0980    -0.0810     1.5120 H     1 <1>   0.0800 
 30 H       -2.9980     1.6010     1.0940 H     1 <1>   0.0800 
 31 H       -2.9580     3.3460    -0.7580 H     1 <1>   0.1500 
 32 H       -3.6830    -2.0860     0.4120 H     1 <1>   0.0800 
 33 H       -5.3430     1.0210     1.2670 H     1 <1>   0.0800 
 34 H       -4.9430     1.3490    -0.3780 H     1 <1>   0.0800 
 35 H        1.2520     0.8630    -0.1450 H     1 <1>   0.0800 
 36 H        1.7480     1.9050     1.1620 H     1 <1>   0.0800 
 37 H        2.1820     2.2950    -0.4910 H     1 <1>   0.0800 
 38 H       -1.5610     5.4120     0.2270 H     1 <1>   0.1500 
 39 H       -5.3990    -3.1210    -0.6100 H     1 <1>   0.4000 
 40 H        0.7410     5.8640     0.9870 H     1 <1>   0.0800 
 41 H        1.9370     4.8720     0.1720 H     1 <1>   0.0800 
 42 H        1.4330     4.4750     1.8080 H     1 <1>   0.0800 
 43 H       -5.9350    -0.3080    -2.0100 H     1 <1>   0.0800 
 44 H       -6.9220    -1.5170    -1.2820 H     1 <1>   0.0800 
 45 H       -8.4330    -0.7230     0.7410 H     1 <1>   0.1500 
 46 H       -6.8010     1.8720    -2.2220 H     1 <1>   0.1500 
 47 H      -10.1530     0.9400     1.2480 H     1 <1>   0.1500 
 48 H       -8.5280     3.5370    -1.7160 H     1 <1>   0.1500 
 49 H      -10.2120     3.0780     0.0220 H     1 <1>   0.1500 
@<TRIPOS>BOND
  1   1   2  2   
  2   2   3  am  
  3   2   4  1   
  4   3   5  1   
  5   3   6  1   
  6   4   7  2   
  7   4   8  1   
  8   5   9  1   
  9   5  27  1   
 10   5  28  1   
 11   6  10  1   
 12   6  29  1   
 13   6  30  1   
 14   7  11  1   
 15   7  12  1   
 16   8  13  2   
 17   8  31  1   
 18   9  14  1   
 19   9  15  1   
 20   9  32  1   
 21  10  15  1   
 22  10  33  1   
 23  10  34  1   
 24  11  13  1   
 25  11  16  1   
 26  12  35  1   
 27  12  36  1   
 28  12  37  1   
 29  13  38  1   
 30  14  39  1   
 31  15  17  1   
 32  15  18  1   
 33  16  40  1   
 34  16  41  1   
 35  16  42  1   
 36  17  19  ar  
 37  17  20  ar  
 38  18  21  1   
 39  18  43  1   
 40  18  44  1   
 41  21  22  ar  
 42  21  23  ar  
 43  22  24  ar  
 44  22  45  1   
 45  23  25  ar  
 46  23  46  1   
 47  24  26  ar  
 48  24  47  1   
 49  25  26  ar  
 50  25  48  1   
 51  26  49  1   
@<TRIPOS>SUBSTRUCTURE
  1 ****  10 GROUP 4 **** **** 0

# MOE 2024.06 (io_trps.svl 2023.06)
