@<TRIPOS>MOLECULE
NONAME
53 55 1 0 0 
SMALL
USER_CHARGES


@<TRIPOS>ATOM
  1 O        1.8310     0.1870     1.3610 O.2   1 <1>  -0.5700 
  2 C        2.3830    -0.2720     0.3770 C.2   1 <1>   0.5440 
  3 N        2.4760     0.5030    -0.7640 N.am  1 <1>  -0.6600 
  4 C        2.9250    -1.6180     0.4310 C.ar  1 <1>   0.0860 
  5 C        3.1780     0.0330    -2.0050 C.3   1 <1>   0.1400 
  6 C        1.9600     1.9000    -0.7730 C.3   1 <1>   0.1400 
  7 C        2.1310    -2.7650     0.3010 C.ar  1 <1>  -0.1440 
  8 C        4.2970    -1.7890     0.6080 C.ar  1 <1>  -0.1500 
  9 C        4.1130     1.0810    -2.6330 C.3   1 <1>   0.1400 
 10 C        3.0270     2.8650    -0.2390 C.3   1 <1>  -0.1600 
 11 C        2.7130    -4.0230     0.3470 C.ar  1 <1>  -0.1500 
 12 C        0.6210    -2.6700     0.1090 C.3   1 <1>  -0.0160 
 13 C        4.8740    -3.0430     0.6480 C.ar  1 <1>  -0.1500 
 14 N        4.8680     1.8590    -1.6050 N.am  1 <1>  -0.6600 
 15 C        4.2030     3.1260    -1.1880 C.3   1 <1>   0.1400 
 16 C        4.0780    -4.1660     0.5180 C.ar  1 <1>  -0.1500 
 17 C       -0.0970    -2.7070     1.4600 C.3   1 <1>  -0.2400 
 18 C        5.9910     1.3220    -1.0090 C.2   1 <1>   0.5690 
 19 O        6.3490     0.2020    -1.3110 O.2   1 <1>  -0.5700 
 20 C        6.8170     2.1290     0.0350 C.3   1 <1>   0.4040 
 21 O        6.0930     2.3850     1.2020 O.3   1 <1>  -0.6800 
 22 C        8.1470     1.5140     0.4840 C.ar  1 <1>  -0.1440 
 23 C        9.3140     2.2610     0.3900 C.ar  1 <1>  -0.1500 
 24 C        8.2170     0.2280     1.0060 C.ar  1 <1>  -0.1500 
 25 C       10.5250     1.7340     0.8050 C.ar  1 <1>  -0.1500 
 26 C        9.4260    -0.3010     1.4220 C.ar  1 <1>  -0.1500 
 27 C       10.5820     0.4520     1.3220 C.ar  1 <1>  -0.1500 
 28 H        3.7720    -0.8360    -1.7930 H     1 <1>   0.0800 
 29 H        2.4410    -0.2590    -2.7320 H     1 <1>   0.0800 
 30 H        1.6570     2.1780    -1.7660 H     1 <1>   0.0800 
 31 H        1.0900     1.9560    -0.1410 H     1 <1>   0.0800 
 32 H        4.9150    -0.9150     0.7050 H     1 <1>   0.1500 
 33 H        3.5370     1.7520    -3.2450 H     1 <1>   0.0800 
 34 H        4.8090     0.5790    -3.2840 H     1 <1>   0.0800 
 35 H        3.3930     2.5010     0.7050 H     1 <1>   0.0800 
 36 H        2.5520     3.8080    -0.0410 H     1 <1>   0.0800 
 37 H        2.1020    -4.9040     0.2510 H     1 <1>   0.1500 
 38 H        0.3600    -1.7650    -0.4120 H     1 <1>   0.0800 
 39 H        0.2810    -3.4920    -0.4960 H     1 <1>   0.0800 
 40 H        5.9370    -3.1450     0.7770 H     1 <1>   0.1500 
 41 H        4.9060     3.7780    -0.7020 H     1 <1>   0.0800 
 42 H        3.8490     3.6410    -2.0650 H     1 <1>   0.0800 
 43 H        4.5200    -5.1470     0.5500 H     1 <1>   0.1500 
 44 H        0.2140    -1.8740     2.0670 H     1 <1>   0.0800 
 45 H        0.1340    -3.6180     1.9820 H     1 <1>   0.0800 
 46 H       -1.1610    -2.6470     1.3160 H     1 <1>   0.0800 
 47 H        7.0200     3.0860    -0.4080 H     1 <1>   0.0800 
 48 H        6.0990     1.5770     1.7490 H     1 <1>   0.4000 
 49 H        9.2900     3.2620    -0.0040 H     1 <1>   0.1500 
 50 H        7.3300    -0.3760     1.0830 H     1 <1>   0.1500 
 51 H       11.4230     2.3210     0.7260 H     1 <1>   0.1500 
 52 H        9.4680    -1.2990     1.8200 H     1 <1>   0.1500 
 53 H       11.5230     0.0420     1.6440 H     1 <1>   0.1500 
@<TRIPOS>BOND
  1   1   2  2   
  2   2   3  am  
  3   2   4  1   
  4   3   5  1   
  5   3   6  1   
  6   4   7  ar  
  7   4   8  ar  
  8   5   9  1   
  9   5  28  1   
 10   5  29  1   
 11   6  10  1   
 12   6  30  1   
 13   6  31  1   
 14   7  11  ar  
 15   7  12  1   
 16   8  13  ar  
 17   8  32  1   
 18   9  14  1   
 19   9  33  1   
 20   9  34  1   
 21  10  15  1   
 22  10  35  1   
 23  10  36  1   
 24  11  16  ar  
 25  11  37  1   
 26  12  17  1   
 27  12  38  1   
 28  12  39  1   
 29  13  16  ar  
 30  13  40  1   
 31  14  15  1   
 32  14  18  am  
 33  15  41  1   
 34  15  42  1   
 35  16  43  1   
 36  17  44  1   
 37  17  45  1   
 38  17  46  1   
 39  18  19  2   
 40  18  20  1   
 41  20  21  1   
 42  20  22  1   
 43  20  47  1   
 44  21  48  1   
 45  22  23  ar  
 46  22  24  ar  
 47  23  25  ar  
 48  23  49  1   
 49  24  26  ar  
 50  24  50  1   
 51  25  27  ar  
 52  25  51  1   
 53  26  27  ar  
 54  26  52  1   
 55  27  53  1   
@<TRIPOS>SUBSTRUCTURE
  1 ****   8 GROUP 4 **** **** 0

# MOE 2024.06 (io_trps.svl 2023.06)
