@<TRIPOS>MOLECULE
NONAME
53 55 1 0 0 
SMALL
USER_CHARGES


@<TRIPOS>ATOM
  1 O        0.1210     0.9000    -1.1100 O.2   1 <1>  -0.5700 
  2 C        0.0080     2.1030    -1.1290 C.2   1 <1>   0.5690 
  3 N       -0.7980     2.7810    -0.2550 N.am  1 <1>  -0.6600 
  4 C        0.7920     2.8830    -2.1850 C.3   1 <1>   0.1810 
  5 C       -0.9400     4.2760    -0.3140 C.3   1 <1>   0.3640 
  6 C       -1.5420     2.0890     0.8390 C.3   1 <1>   0.0600 
  7 O        1.0150     4.2190    -1.8060 O.3   1 <1>  -0.5600 
  8 C       -2.4310     4.6390    -0.3630 C.ar  1 <1>  -0.1430 
  9 C       -0.1770     4.9280    -1.4980 C.3   1 <1>   0.2610 
 10 C       -3.0270     5.4960     0.5630 C.ar  1 <1>  -0.1430 
 11 C       -3.2150     4.0850    -1.3690 C.ar  1 <1>  -0.1500 
 12 C        0.1510     6.3830    -1.1570 C.2   1 <1>   0.5690 
 13 C       -4.3800     5.7830     0.4570 C.ar  1 <1>  -0.1500 
 14 C       -2.2480     6.1450     1.7000 C.3   1 <1>  -0.0960 
 15 C       -4.5630     4.3760    -1.4660 C.ar  1 <1>  -0.1500 
 16 O       -0.7080     7.2280    -1.2390 O.2   1 <1>  -0.5700 
 17 N        1.4110     6.7000    -0.7490 N.am  1 <1>  -0.7300 
 18 C       -5.1470     5.2280    -0.5500 C.ar  1 <1>  -0.1500 
 19 C        1.8750     8.0660    -0.4100 C.3   1 <1>   0.1400 
 20 C        1.6930     8.3220     1.0860 C.3   1 <1>   0.0210 
 21 C        1.9160     9.7910     1.3950 C.2   1 <1>  -0.1810 
 22 C        0.9830    10.8150     1.2300 C.2   1 <1>   0.1080 
 23 C        3.0210    10.4050     1.8760 C.2   1 <1>  -0.3320 
 24 N        1.4550    11.9680     1.5800 N.2   1 <1>  -0.7070 
 25 C       -0.4340    10.6680     0.7140 C.3   1 <1>  -0.0590 
 26 N        2.7130    11.7150     1.9800 N.pl3 1 <1>   0.3000 
 27 C        4.3810     9.8450     2.2570 C.3   1 <1>  -0.0600 
 28 H        0.2550     2.8720    -3.1160 H     1 <1>   0.0800 
 29 H        1.7500     2.4190    -2.3290 H     1 <1>   0.0800 
 30 H       -0.5040     4.6600     0.5890 H     1 <1>   0.0800 
 31 H       -1.3530     2.5780     1.7780 H     1 <1>   0.0800 
 32 H       -1.2320     1.0610     0.9180 H     1 <1>   0.0800 
 33 H       -2.5980     2.1120     0.6360 H     1 <1>   0.0800 
 34 H       -0.7940     4.9270    -2.3780 H     1 <1>   0.0800 
 35 H       -2.7800     3.4110    -2.0860 H     1 <1>   0.1500 
 36 H       -4.8510     6.4460     1.1610 H     1 <1>   0.1500 
 37 H       -2.8900     6.7570     2.3070 H     1 <1>   0.0800 
 38 H       -1.4710     6.7740     1.3060 H     1 <1>   0.0800 
 39 H       -1.8130     5.3920     2.3320 H     1 <1>   0.0800 
 40 H       -5.1560     3.9390    -2.2500 H     1 <1>   0.1500 
 41 H        2.1200     5.9610    -0.8020 H     1 <1>   0.3700 
 42 H       -6.1950     5.4600    -0.6210 H     1 <1>   0.1500 
 43 H        2.9090     8.1820    -0.6820 H     1 <1>   0.0800 
 44 H        1.3010     8.7840    -0.9700 H     1 <1>   0.0800 
 45 H        0.6960     8.0550     1.3830 H     1 <1>   0.0800 
 46 H        2.3840     7.7180     1.6440 H     1 <1>   0.0800 
 47 H       -0.5550     9.7620     0.1510 H     1 <1>   0.0800 
 48 H       -0.6700    11.5010     0.0780 H     1 <1>   0.0800 
 49 H       -1.1160    10.6620     1.5430 H     1 <1>   0.0800 
 50 H        3.3350    12.4590     2.3160 H     1 <1>   0.2700 
 51 H        4.4280     8.7900     2.0630 H     1 <1>   0.0800 
 52 H        4.5670    10.0090     3.3040 H     1 <1>   0.0800 
 53 H        5.1530    10.3290     1.6850 H     1 <1>   0.0800 
@<TRIPOS>BOND
  1   1   2  2   
  2   2   3  am  
  3   2   4  1   
  4   3   5  1   
  5   3   6  1   
  6   4   7  1   
  7   4  28  1   
  8   4  29  1   
  9   5   8  1   
 10   5   9  1   
 11   5  30  1   
 12   6  31  1   
 13   6  32  1   
 14   6  33  1   
 15   7   9  1   
 16   8  10  ar  
 17   8  11  ar  
 18   9  12  1   
 19   9  34  1   
 20  10  13  ar  
 21  10  14  1   
 22  11  15  ar  
 23  11  35  1   
 24  12  16  2   
 25  12  17  am  
 26  13  18  ar  
 27  13  36  1   
 28  14  37  1   
 29  14  38  1   
 30  14  39  1   
 31  15  18  ar  
 32  15  40  1   
 33  17  19  1   
 34  17  41  1   
 35  18  42  1   
 36  19  20  1   
 37  19  43  1   
 38  19  44  1   
 39  20  21  1   
 40  20  45  1   
 41  20  46  1   
 42  21  22  1   
 43  21  23  2   
 44  22  24  2   
 45  22  25  1   
 46  23  26  1   
 47  23  27  1   
 48  24  26  1   
 49  25  47  1   
 50  25  48  1   
 51  25  49  1   
 52  26  50  1   
 53  27  51  1   
 54  27  52  1   
 55  27  53  1   
@<TRIPOS>SUBSTRUCTURE
  1 ****  12 GROUP 4 **** **** 0

# MOE 2024.06 (io_trps.svl 2023.06)
