@<TRIPOS>MOLECULE
NONAME
50 53 1 0 0 
SMALL
USER_CHARGES


@<TRIPOS>ATOM
  1 O        0.1070     0.0480     1.2080 O.3   1 <1>  -0.3630 
  2 C        1.2570     0.5050     0.6480 C.ar  1 <1>   0.0820 
  3 C        0.0960    -1.1710     1.9320 C.3   1 <1>   0.2580 
  4 C        2.2940    -0.3740     0.3240 C.ar  1 <1>   0.0280 
  5 C        1.3700     1.8590     0.3870 C.ar  1 <1>  -0.1500 
  6 C        1.0580    -2.1900     1.3200 C.2   1 <1>  -0.2760 
  7 C        2.1030    -1.7730     0.5890 C.2   1 <1>  -0.1780 
  8 C        3.4510     0.1390    -0.2550 C.ar  1 <1>  -0.1500 
  9 C        2.5250     2.3540    -0.1890 C.ar  1 <1>  -0.1500 
 10 C        0.7520    -3.6370     1.6220 C.3   1 <1>   0.4810 
 11 C        3.5700     1.5010    -0.5100 C.ar  1 <1>   0.0820 
 12 N        0.1590    -4.2110     0.3910 N.4   1 <1>  -0.9590 
 13 O        4.6680     2.0740    -1.0690 O.3   1 <1>  -0.3620 
 14 C       -1.1820    -3.6580     0.0280 C.3   1 <1>   0.3430 
 15 C        0.0500    -5.7020     0.4140 C.3   1 <1>   0.3430 
 16 C        5.8070     1.3110    -1.3980 C.3   1 <1>   0.0400 
 17 C       -1.8810    -4.7880    -0.7230 C.3   1 <1>   0.2000 
 18 C       -1.3570    -6.0670    -0.0800 C.3   1 <1>  -0.0800 
 19 O       -3.2600    -4.7150    -0.6080 O.3   1 <1>  -0.6800 
 20 C       -1.3820    -7.2690    -1.0440 C.3   1 <1>  -0.0170 
 21 C       -0.9150    -8.5570    -0.3790 C.ar  1 <1>   0.1670 
 22 N        0.3370    -8.5770     0.0570 N.ar  1 <1>  -0.6200 
 23 C       -1.7890    -9.6380    -0.2600 C.ar  1 <1>   0.1600 
 24 C        0.6540    -9.7450     0.5990 C.ar  1 <1>   0.1600 
 25 N       -1.4750   -10.7950     0.2950 N.ar  1 <1>  -0.6200 
 26 C       -0.2230   -10.8160     0.7160 C.ar  1 <1>   0.1600 
 27 H        0.3800    -0.9480     2.9470 H     1 <1>   0.0800 
 28 H       -0.9190    -1.5240     1.9240 H     1 <1>   0.0800 
 29 H        0.5590     2.5190     0.6360 H     1 <1>   0.1500 
 30 H        2.8370    -2.4360     0.1630 H     1 <1>   0.1500 
 31 H        4.2460    -0.5380    -0.4990 H     1 <1>   0.1500 
 32 H        2.6260     3.4050    -0.3930 H     1 <1>   0.1500 
 33 H        0.0800    -3.7290     2.4600 H     1 <1>   0.0800 
 34 H        1.6710    -4.1520     1.8550 H     1 <1>   0.0800 
 35 H        0.8020    -3.9500    -0.3690 H     1 <1>   0.4500 
 36 H       -1.7390    -3.4300     0.9210 H     1 <1>   0.0800 
 37 H       -1.0900    -2.7740    -0.5830 H     1 <1>   0.0800 
 38 H        0.7930    -6.1340    -0.2390 H     1 <1>   0.0800 
 39 H        0.2020    -6.0960     1.4060 H     1 <1>   0.0800 
 40 H        6.5470     1.9760    -1.8040 H     1 <1>   0.0800 
 41 H        5.5340     0.5760    -2.1350 H     1 <1>   0.0800 
 42 H        6.1860     0.8450    -0.5060 H     1 <1>   0.0800 
 43 H       -1.6300    -4.7350    -1.7700 H     1 <1>   0.0800 
 44 H       -1.9460    -6.3050     0.7890 H     1 <1>   0.0800 
 45 H       -3.5880    -4.9730     0.2770 H     1 <1>   0.4000 
 46 H       -0.7490    -7.0770    -1.8940 H     1 <1>   0.0800 
 47 H       -2.3840    -7.4000    -1.4160 H     1 <1>   0.0800 
 48 H       -2.7910    -9.5470    -0.6400 H     1 <1>   0.1500 
 49 H        1.6570    -9.8640     0.9700 H     1 <1>   0.1500 
 50 H        0.1260   -11.7250     1.1740 H     1 <1>   0.1500 
@<TRIPOS>BOND
  1   1   2  1   
  2   1   3  1   
  3   2   4  ar  
  4   2   5  ar  
  5   3   6  1   
  6   3  27  1   
  7   3  28  1   
  8   4   7  1   
  9   4   8  ar  
 10   5   9  ar  
 11   5  29  1   
 12   6   7  2   
 13   6  10  1   
 14   7  30  1   
 15   8  11  ar  
 16   8  31  1   
 17   9  11  ar  
 18   9  32  1   
 19  10  12  1   
 20  10  33  1   
 21  10  34  1   
 22  11  13  1   
 23  12  14  1   
 24  12  15  1   
 25  12  35  1   
 26  13  16  1   
 27  14  17  1   
 28  14  36  1   
 29  14  37  1   
 30  15  18  1   
 31  15  38  1   
 32  15  39  1   
 33  16  40  1   
 34  16  41  1   
 35  16  42  1   
 36  17  18  1   
 37  17  19  1   
 38  17  43  1   
 39  18  20  1   
 40  18  44  1   
 41  19  45  1   
 42  20  21  1   
 43  20  46  1   
 44  20  47  1   
 45  21  22  ar  
 46  21  23  ar  
 47  22  24  ar  
 48  23  25  ar  
 49  23  48  1   
 50  24  26  ar  
 51  24  49  1   
 52  25  26  ar  
 53  26  50  1   
@<TRIPOS>SUBSTRUCTURE
  1 ****  12 GROUP 4 **** **** 0

# MOE 2024.06 (io_trps.svl 2023.06)
