@<TRIPOS>MOLECULE
NONAME
52 55 1 0 0 
SMALL
USER_CHARGES


@<TRIPOS>ATOM
  1 O       -0.5060     1.0130    -1.3500 O.2   1 <1>  -0.5700 
  2 C       -0.5050     2.2030    -1.1380 C.2   1 <1>   0.5690 
  3 N       -1.3420     2.8140    -0.2430 N.am  1 <1>  -0.5090 
  4 C        0.4610     3.0730    -1.9360 C.3   1 <1>   0.1810 
  5 C       -1.4550     4.3060    -0.1840 C.3   1 <1>   0.3640 
  6 C       -2.3020     2.0680     0.6050 C.3   1 <1>   0.0490 
  7 O        0.8020     4.2410    -1.2360 O.3   1 <1>  -0.5600 
  8 C       -2.8080     4.7420    -0.7560 C.ar  1 <1>  -0.1440 
  9 C       -0.3070     5.0690    -0.9050 C.3   1 <1>   0.2610 
 10 C       -2.2030     2.2160     2.0920 C.3   1 <1>  -0.2000 
 11 C       -1.8220     0.9250     1.4410 C.3   1 <1>  -0.2000 
 12 C       -3.5300     5.7410    -0.1180 C.ar  1 <1>  -0.1500 
 13 C       -3.3340     4.1700    -1.9090 C.ar  1 <1>  -0.1500 
 14 C        0.1480     6.2420    -0.0300 C.2   1 <1>   0.5690 
 15 C       -4.7510     6.1640    -0.6150 C.ar  1 <1>  -0.1500 
 16 C       -4.5550     4.5890    -2.4070 C.ar  1 <1>  -0.1500 
 17 O       -0.6720     7.0490     0.3390 O.2   1 <1>  -0.5700 
 18 N        1.4650     6.3270     0.3110 N.am  1 <1>  -0.7300 
 19 C       -5.2710     5.5860    -1.7680 C.ar  1 <1>   0.0830 
 20 C        2.1590     7.3330     1.1460 C.3   1 <1>   0.2200 
 21 O       -6.4570     5.9400    -2.3240 O.3   1 <1>  -0.3630 
 22 C        1.5290     7.4660     2.5380 C.3   1 <1>  -0.1600 
 23 C        2.1090     8.7250     0.5050 C.3   1 <1>  -0.1600 
 24 C       -7.2510     6.9620    -1.7630 C.3   1 <1>   0.0400 
 25 C        0.9500     8.8790     2.6110 C.3   1 <1>  -0.1600 
 26 C        1.8040     9.6940     1.6460 C.3   1 <1>  -0.1600 
 27 H        0.0200     3.3460    -2.8770 H     1 <1>   0.0800 
 28 H        1.3660     2.5230    -2.1180 H     1 <1>   0.0800 
 29 H       -1.4290     4.5820     0.8550 H     1 <1>   0.0800 
 30 H       -3.2810     1.9960     0.1580 H     1 <1>   0.1000 
 31 H       -0.6800     5.4810    -1.8250 H     1 <1>   0.0800 
 32 H       -1.4170     2.8110     2.5210 H     1 <1>   0.1000 
 33 H       -3.1090     2.2430     2.6710 H     1 <1>   0.1000 
 34 H       -2.4690     0.0740     1.5620 H     1 <1>   0.1000 
 35 H       -0.7840     0.6490     1.3810 H     1 <1>   0.1000 
 36 H       -3.1430     6.2070     0.7740 H     1 <1>   0.1500 
 37 H       -2.8060     3.3900    -2.4270 H     1 <1>   0.1500 
 38 H       -5.2760     6.9400    -0.0930 H     1 <1>   0.1500 
 39 H       -4.9620     4.1440    -3.2970 H     1 <1>   0.1500 
 40 H        2.0670     5.5930    -0.0760 H     1 <1>   0.3700 
 41 H        3.1870     7.0340     1.2620 H     1 <1>   0.0800 
 42 H        0.7760     6.7220     2.7270 H     1 <1>   0.0800 
 43 H        2.3040     7.3700     3.2770 H     1 <1>   0.0800 
 44 H        3.0380     8.9700     0.0230 H     1 <1>   0.0800 
 45 H        1.3110     8.7800    -0.2150 H     1 <1>   0.0800 
 46 H       -8.1290     7.0750    -2.3720 H     1 <1>   0.0800 
 47 H       -6.6880     7.8790    -1.7600 H     1 <1>   0.0800 
 48 H       -7.5310     6.6780    -0.7650 H     1 <1>   0.0800 
 49 H       -0.0670     8.8640     2.2570 H     1 <1>   0.0800 
 50 H        0.9700     9.2780     3.6110 H     1 <1>   0.0800 
 51 H        2.7200     9.9830     2.1320 H     1 <1>   0.0800 
 52 H        1.2910    10.5750     1.3010 H     1 <1>   0.0800 
@<TRIPOS>BOND
  1   1   2  2   
  2   2   3  am  
  3   2   4  1   
  4   3   5  1   
  5   3   6  1   
  6   4   7  1   
  7   4  27  1   
  8   4  28  1   
  9   5   8  1   
 10   5   9  1   
 11   5  29  1   
 12   6  10  1   
 13   6  11  1   
 14   6  30  1   
 15   7   9  1   
 16   8  12  ar  
 17   8  13  ar  
 18   9  14  1   
 19   9  31  1   
 20  10  11  1   
 21  10  32  1   
 22  10  33  1   
 23  11  34  1   
 24  11  35  1   
 25  12  15  ar  
 26  12  36  1   
 27  13  16  ar  
 28  13  37  1   
 29  14  17  2   
 30  14  18  am  
 31  15  19  ar  
 32  15  38  1   
 33  16  19  ar  
 34  16  39  1   
 35  18  20  1   
 36  18  40  1   
 37  19  21  1   
 38  20  22  1   
 39  20  23  1   
 40  20  41  1   
 41  21  24  1   
 42  22  25  1   
 43  22  42  1   
 44  22  43  1   
 45  23  26  1   
 46  23  44  1   
 47  23  45  1   
 48  24  46  1   
 49  24  47  1   
 50  24  48  1   
 51  25  26  1   
 52  25  49  1   
 53  25  50  1   
 54  26  51  1   
 55  26  52  1   
@<TRIPOS>SUBSTRUCTURE
  1 ****   5 GROUP 4 **** **** 0

# MOE 2024.06 (io_trps.svl 2023.06)
