@<TRIPOS>MOLECULE
NONAME
44 46 1 0 0 
SMALL
USER_CHARGES


@<TRIPOS>ATOM
  1 CL      -0.0890    -1.7630     3.1950 Cl    1 <1>  -0.1770 
  2 C        0.0260    -2.1960     1.5000 C.ar  1 <1>   0.1770 
  3 C        0.4090    -3.4770     1.1200 C.ar  1 <1>   0.4100 
  4 C       -0.2580    -1.2860     0.5210 C.ar  1 <1>   0.1600 
  5 N        0.4850    -3.8080    -0.1570 N.ar  1 <1>  -0.6200 
  6 N        0.6840    -4.4580     2.0520 N.pl3 1 <1>  -0.8690 
  7 N       -0.1760    -1.6040    -0.7600 N.ar  1 <1>  -0.6200 
  8 C        0.1930    -2.8450    -1.0220 C.ar  1 <1>   0.4770 
  9 C        1.8520    -5.4000     2.0050 C.3   1 <1>   0.2890 
 10 C        0.2820    -3.2040    -2.4860 C.3   1 <1>  -0.0970 
 11 C        1.8650    -6.2280     0.7000 C.3   1 <1>   0.3430 
 12 C        1.6870    -6.3780     3.1820 C.3   1 <1>  -0.1600 
 13 N        0.4800    -6.7500     0.4970 N.4   1 <1>  -0.9590 
 14 C        0.9300    -7.6770     2.8030 C.3   1 <1>  -0.1600 
 15 C       -0.0820    -7.5260     1.6520 C.3   1 <1>   0.3430 
 16 C        0.2340    -7.3450    -0.8340 C.3   1 <1>   0.4860 
 17 C       -1.2620    -7.5090    -1.0220 C.ar  1 <1>  -0.1440 
 18 C       -1.8230    -8.7770    -1.0840 C.ar  1 <1>  -0.1500 
 19 C       -2.0820    -6.3940    -1.1250 C.ar  1 <1>  -0.1500 
 20 C       -3.1900    -8.9270    -1.2410 C.ar  1 <1>  -0.1500 
 21 C       -3.4480    -6.5460    -1.2820 C.ar  1 <1>  -0.1500 
 22 C       -4.0020    -7.8120    -1.3390 C.ar  1 <1>  -0.1500 
 23 H       -0.5560    -0.2850     0.7820 H     1 <1>   0.1500 
 24 H        0.5040    -4.1430     3.0150 H     1 <1>   0.4000 
 25 H        2.7680    -4.8420     2.1090 H     1 <1>   0.0800 
 26 H        0.9560    -4.0260    -2.6360 H     1 <1>   0.0800 
 27 H        0.6400    -2.3600    -3.0480 H     1 <1>   0.0800 
 28 H       -0.6930    -3.4720    -2.8490 H     1 <1>   0.0800 
 29 H        2.5730    -7.0350     0.7760 H     1 <1>   0.0800 
 30 H        2.1500    -5.5920    -0.1210 H     1 <1>   0.0800 
 31 H        1.1910    -5.8870     4.0020 H     1 <1>   0.0800 
 32 H        2.6650    -6.6570     3.5380 H     1 <1>   0.0800 
 33 H       -0.0550    -5.8580     0.5090 H     1 <1>   0.4500 
 34 H        0.4210    -8.0610     3.6690 H     1 <1>   0.0800 
 35 H        1.6450    -8.4280     2.5120 H     1 <1>   0.0800 
 36 H       -0.3990    -8.5030     1.3230 H     1 <1>   0.0800 
 37 H       -0.9540    -7.0090     2.0200 H     1 <1>   0.0800 
 38 H        0.7240    -8.3010    -0.9110 H     1 <1>   0.0800 
 39 H        0.6170    -6.6950    -1.6040 H     1 <1>   0.0800 
 40 H       -1.2090    -9.6590    -1.0150 H     1 <1>   0.1500 
 41 H       -1.6740    -5.3980    -1.0860 H     1 <1>   0.1500 
 42 H       -3.6250    -9.9110    -1.2910 H     1 <1>   0.1500 
 43 H       -4.0840    -5.6800    -1.3610 H     1 <1>   0.1500 
 44 H       -5.0660    -7.9290    -1.4620 H     1 <1>   0.1500 
@<TRIPOS>BOND
  1   1   2  1   
  2   2   3  ar  
  3   2   4  ar  
  4   3   5  ar  
  5   3   6  1   
  6   4   7  ar  
  7   4  23  1   
  8   5   8  ar  
  9   6   9  1   
 10   6  24  1   
 11   7   8  ar  
 12   8  10  1   
 13   9  11  1   
 14   9  12  1   
 15   9  25  1   
 16  10  26  1   
 17  10  27  1   
 18  10  28  1   
 19  11  13  1   
 20  11  29  1   
 21  11  30  1   
 22  12  14  1   
 23  12  31  1   
 24  12  32  1   
 25  13  15  1   
 26  13  16  1   
 27  13  33  1   
 28  14  15  1   
 29  14  34  1   
 30  14  35  1   
 31  15  36  1   
 32  15  37  1   
 33  16  17  1   
 34  16  38  1   
 35  16  39  1   
 36  17  18  ar  
 37  17  19  ar  
 38  18  20  ar  
 39  18  40  1   
 40  19  21  ar  
 41  19  41  1   
 42  20  22  ar  
 43  20  42  1   
 44  21  22  ar  
 45  21  43  1   
 46  22  44  1   
@<TRIPOS>SUBSTRUCTURE
  1 ****  13 GROUP 4 **** **** 0

# MOE 2024.06 (io_trps.svl 2023.06)
