@<TRIPOS>MOLECULE
NONAME
51 53 1 0 0 
SMALL
USER_CHARGES


@<TRIPOS>ATOM
  1 O        1.2020     0.0420    -1.3410 O.3   1 <1>  -0.5600 
  2 C        2.4470    -0.5840    -1.1220 C.3   1 <1>   0.2000 
  3 C        1.2790     1.4220    -1.5710 C.3   1 <1>   0.1200 
  4 C        3.1390     0.0280     0.1230 C.3   1 <1>   0.5660 
  5 C        2.2210    -2.0940    -0.9650 C.3   1 <1>   0.1200 
  6 C        1.9000     2.1360    -0.3550 C.3   1 <1>   0.3430 
  7 N        3.2110     1.5180     0.0360 N.4   1 <1>  -0.9590 
  8 C        4.5440    -0.5210     0.3260 C.ar  1 <1>  -0.1430 
  9 O        1.5000    -2.5630    -2.0500 O.3   1 <1>  -0.6800 
 10 C        3.8210     2.1510     1.2330 C.3   1 <1>   0.4870 
 11 C        4.8490    -1.1880     1.5050 C.ar  1 <1>  -0.1500 
 12 C        5.5320    -0.3630    -0.6400 C.ar  1 <1>  -0.1500 
 13 C        4.0530     3.6170     0.9220 C.ar  1 <1>  -0.1430 
 14 C        6.1220    -1.6850     1.7170 C.ar  1 <1>  -0.1500 
 15 C        6.8040    -0.8630    -0.4250 C.ar  1 <1>  -0.1500 
 16 C        4.8580     3.9830    -0.1530 C.ar  1 <1>   0.0820 
 17 C        3.4530     4.5920     1.7030 C.ar  1 <1>  -0.1500 
 18 C        7.1000    -1.5220     0.7530 C.ar  1 <1>  -0.1500 
 19 O        5.4370     2.9690    -0.8620 O.3   1 <1>  -0.3630 
 20 C        5.0250     5.3380    -0.4740 C.ar  1 <1>   0.0820 
 21 C        3.6390     5.9290     1.4070 C.ar  1 <1>  -0.1500 
 22 C        6.8170     3.0530    -1.1670 C.3   1 <1>   0.0400 
 23 O        5.7580     5.6740    -1.5740 O.3   1 <1>  -0.3630 
 24 C        4.4160     6.3020     0.3250 C.ar  1 <1>  -0.1500 
 25 C        5.9810     7.0180    -1.9460 C.3   1 <1>   0.0400 
 26 H        3.0590    -0.4260    -1.9930 H     1 <1>   0.0800 
 27 H        1.8600     1.5960    -2.4610 H     1 <1>   0.0800 
 28 H        0.2800     1.7830    -1.7420 H     1 <1>   0.0800 
 29 H        2.5450    -0.2410     0.9800 H     1 <1>   0.0800 
 30 H        1.6600    -2.3100    -0.0720 H     1 <1>   0.0800 
 31 H        3.1550    -2.6280    -0.9340 H     1 <1>   0.0800 
 32 H        1.2070     2.0750     0.4670 H     1 <1>   0.0800 
 33 H        2.0410     3.1790    -0.5910 H     1 <1>   0.0800 
 34 H        3.8950     1.7460    -0.7050 H     1 <1>   0.4500 
 35 H        0.7140    -1.9920    -2.1910 H     1 <1>   0.4000 
 36 H        3.1740     2.0460     2.0880 H     1 <1>   0.0800 
 37 H        4.7700     1.6890     1.4560 H     1 <1>   0.0800 
 38 H        4.1070    -1.3340     2.2720 H     1 <1>   0.1500 
 39 H        5.3340     0.1450    -1.5690 H     1 <1>   0.1500 
 40 H        6.3570    -2.2030     2.6320 H     1 <1>   0.1500 
 41 H        7.5680    -0.7440    -1.1760 H     1 <1>   0.1500 
 42 H        2.8380     4.3280     2.5480 H     1 <1>   0.1500 
 43 H        8.0900    -1.9120     0.9190 H     1 <1>   0.1500 
 44 H        3.1770     6.6860     2.0190 H     1 <1>   0.1500 
 45 H        7.2070     2.0560    -1.2650 H     1 <1>   0.0800 
 46 H        7.3290     3.5690    -0.3730 H     1 <1>   0.0800 
 47 H        6.9400     3.5810    -2.0960 H     1 <1>   0.0800 
 48 H        4.5280     7.3500     0.1240 H     1 <1>   0.1500 
 49 H        6.5910     7.0230    -2.8310 H     1 <1>   0.0800 
 50 H        6.4960     7.5220    -1.1470 H     1 <1>   0.0800 
 51 H        5.0350     7.4860    -2.1540 H     1 <1>   0.0800 
@<TRIPOS>BOND
  1   1   2  1   
  2   1   3  1   
  3   2   4  1   
  4   2   5  1   
  5   2  26  1   
  6   3   6  1   
  7   3  27  1   
  8   3  28  1   
  9   4   7  1   
 10   4   8  1   
 11   4  29  1   
 12   5   9  1   
 13   5  30  1   
 14   5  31  1   
 15   6   7  1   
 16   6  32  1   
 17   6  33  1   
 18   7  10  1   
 19   7  34  1   
 20   8  11  ar  
 21   8  12  ar  
 22   9  35  1   
 23  10  13  1   
 24  10  36  1   
 25  10  37  1   
 26  11  14  ar  
 27  11  38  1   
 28  12  15  ar  
 29  12  39  1   
 30  13  16  ar  
 31  13  17  ar  
 32  14  18  ar  
 33  14  40  1   
 34  15  18  ar  
 35  15  41  1   
 36  16  19  1   
 37  16  20  ar  
 38  17  21  ar  
 39  17  42  1   
 40  18  43  1   
 41  19  22  1   
 42  20  23  1   
 43  20  24  ar  
 44  21  24  ar  
 45  21  44  1   
 46  22  45  1   
 47  22  46  1   
 48  22  47  1   
 49  23  25  1   
 50  24  48  1   
 51  25  49  1   
 52  25  50  1   
 53  25  51  1   
@<TRIPOS>SUBSTRUCTURE
  1 ****   7 GROUP 4 **** **** 0

# MOE 2024.06 (io_trps.svl 2023.06)
