@<TRIPOS>MOLECULE
NONAME
43 46 1 0 0 
SMALL
USER_CHARGES


@<TRIPOS>ATOM
  1 O       -0.5210     0.2370    -0.3360 O.2   1 <1>  -0.5700 
  2 C       -1.5740     0.8580    -0.3400 C.2   1 <1>   0.7160 
  3 N       -2.7380     0.1090    -0.3600 N.am  1 <1>  -0.6600 
  4 C       -1.5450     2.3230    -0.3270 C.2   1 <1>   0.2030 
  5 C       -4.1170     0.6440    -0.4700 C.3   1 <1>   0.1400 
  6 C       -2.7480    -1.3700    -0.3120 C.3   1 <1>   0.1400 
  7 N       -2.5710     3.1610    -0.2820 N.2   1 <1>  -0.7070 
  8 C       -0.3470     3.0520    -0.3610 C.2   1 <1>  -0.1500 
  9 C       -5.0110    -0.5890    -0.6010 C.3   1 <1>   0.2000 
 10 C       -4.2010    -1.7490    -0.0240 C.3   1 <1>  -0.0800 
 11 N       -2.0320     4.3900    -0.2860 N.pl3 1 <1>   0.3000 
 12 C       -0.6890     4.3540    -0.3340 C.2   1 <1>  -0.2370 
 13 O       -6.1960    -0.4420     0.1040 O.3   1 <1>  -0.6800 
 14 C       -4.6110    -3.1120    -0.6020 C.3   1 <1>  -0.0170 
 15 C        0.1780     5.5950    -0.3500 C.3   1 <1>  -0.0150 
 16 C       -3.7650    -4.2310    -0.0140 C.ar  1 <1>  -0.1430 
 17 C        1.5320     5.5720     0.2820 C.3   1 <1>  -0.2000 
 18 C        0.4150     6.3440     0.9210 C.3   1 <1>  -0.2000 
 19 C       -2.6760    -4.7570    -0.6790 C.ar  1 <1>  -0.1500 
 20 C       -4.0450    -4.7750     1.2230 C.ar  1 <1>  -0.1500 
 21 C       -1.9380    -5.7690    -0.0900 C.ar  1 <1>   0.1600 
 22 C       -3.2430    -5.7880     1.7230 C.ar  1 <1>   0.1600 
 23 N       -2.1950    -6.2970     1.0960 N.ar  1 <1>  -0.6200 
 24 H       -4.3520     1.2030     0.4200 H     1 <1>   0.0800 
 25 H       -4.2070     1.2760    -1.3360 H     1 <1>   0.0800 
 26 H       -2.4310    -1.7490    -1.2680 H     1 <1>   0.0800 
 27 H       -2.0850    -1.7370     0.4540 H     1 <1>   0.0800 
 28 H        0.6360     2.6180    -0.4000 H     1 <1>   0.1500 
 29 H       -5.2510    -0.7550    -1.6380 H     1 <1>   0.0800 
 30 H       -4.3160    -1.7660     1.0460 H     1 <1>   0.0800 
 31 H       -2.5980     5.2460    -0.2510 H     1 <1>   0.2700 
 32 H       -6.0090    -0.2400     1.0410 H     1 <1>   0.4000 
 33 H       -4.5090    -3.1040    -1.6730 H     1 <1>   0.0800 
 34 H       -5.6480    -3.2960    -0.3780 H     1 <1>   0.0800 
 35 H        0.0740     6.1660    -1.2580 H     1 <1>   0.1000 
 36 H        1.8700     4.6680     0.7570 H     1 <1>   0.1000 
 37 H        2.3310     6.1110    -0.1960 H     1 <1>   0.1000 
 38 H        0.4470     7.4190     0.8930 H     1 <1>   0.1000 
 39 H       -0.0060     5.9640     1.8360 H     1 <1>   0.1000 
 40 H       -2.3910    -4.3900    -1.6490 H     1 <1>   0.1500 
 41 H       -4.8780    -4.4210     1.8020 H     1 <1>   0.1500 
 42 H       -1.0900    -6.1670    -0.6220 H     1 <1>   0.1500 
 43 H       -3.4760    -6.2010     2.6890 H     1 <1>   0.1500 
@<TRIPOS>BOND
  1   1   2  2   
  2   2   3  am  
  3   2   4  1   
  4   3   5  1   
  5   3   6  1   
  6   4   7  2   
  7   4   8  1   
  8   5   9  1   
  9   5  24  1   
 10   5  25  1   
 11   6  10  1   
 12   6  26  1   
 13   6  27  1   
 14   7  11  1   
 15   8  12  2   
 16   8  28  1   
 17   9  10  1   
 18   9  13  1   
 19   9  29  1   
 20  10  14  1   
 21  10  30  1   
 22  11  12  1   
 23  11  31  1   
 24  12  15  1   
 25  13  32  1   
 26  14  16  1   
 27  14  33  1   
 28  14  34  1   
 29  15  17  1   
 30  15  18  1   
 31  15  35  1   
 32  16  19  ar  
 33  16  20  ar  
 34  17  18  1   
 35  17  36  1   
 36  17  37  1   
 37  18  38  1   
 38  18  39  1   
 39  19  21  ar  
 40  19  40  1   
 41  20  22  ar  
 42  20  41  1   
 43  21  23  ar  
 44  21  42  1   
 45  22  23  ar  
 46  22  43  1   
@<TRIPOS>SUBSTRUCTURE
  1 ****   3 GROUP 4 **** **** 0

# MOE 2024.06 (io_trps.svl 2023.06)
