@<TRIPOS>MOLECULE
NONAME
39 41 1 0 0 
SMALL
USER_CHARGES


@<TRIPOS>ATOM
  1 F       -2.1830    -2.4380     1.8800 F     1 <1>  -0.3400 
  2 C       -2.5630    -2.9310     0.7050 C.3   1 <1>   1.1640 
  3 F       -2.6320    -1.8860    -0.1170 F     1 <1>  -0.3400 
  4 F       -3.8190    -3.3430     0.8640 F     1 <1>  -0.3400 
  5 C       -1.6230    -4.0590     0.1890 C.ar  1 <1>   0.1660 
  6 N       -1.5470    -5.1940     0.8950 N.ar  1 <1>  -0.6200 
  7 C       -0.8970    -3.8650    -0.9850 C.ar  1 <1>  -0.1500 
  8 C       -0.7500    -6.1350     0.4300 C.ar  1 <1>   0.4100 
  9 C       -0.0610    -4.8560    -1.4610 C.ar  1 <1>  -0.1500 
 10 N       -0.7360    -7.2700     1.1790 N.pl3 1 <1>  -0.8690 
 11 C        0.0070    -6.0140    -0.7280 C.ar  1 <1>  -0.1500 
 12 C       -1.3900    -8.4740     0.6170 C.3   1 <1>   0.2890 
 13 C       -2.9070    -8.3870     0.7480 C.3   1 <1>  -0.0800 
 14 C       -1.0470    -9.7380     1.3910 C.3   1 <1>   0.1200 
 15 C       -3.3180    -9.7770     1.2460 C.3   1 <1>   0.1200 
 16 C       -3.5790    -7.9810    -0.5740 C.3   1 <1>  -0.0160 
 17 O       -2.1640   -10.5570     1.2520 O.3   1 <1>  -0.5600 
 18 C       -5.0750    -7.7890    -0.3900 C.ar  1 <1>  -0.1430 
 19 C       -6.0000    -8.7110    -0.8360 C.ar  1 <1>  -0.1500 
 20 C       -5.5830    -6.6710     0.2390 C.ar  1 <1>  -0.1500 
 21 C       -7.3510    -8.4780    -0.6330 C.ar  1 <1>   0.1600 
 22 C       -6.9530    -6.5330     0.3910 C.ar  1 <1>   0.1600 
 23 N       -7.8490    -7.4120    -0.0280 N.ar  1 <1>  -0.6200 
 24 H       -0.9700    -2.9450    -1.5400 H     1 <1>   0.1500 
 25 H        0.5120    -4.7240    -2.3640 H     1 <1>   0.1500 
 26 H       -1.1150    -7.0570     2.1050 H     1 <1>   0.4000 
 27 H        0.6390    -6.8270    -1.0280 H     1 <1>   0.1500 
 28 H       -1.0980    -8.6120    -0.4100 H     1 <1>   0.0800 
 29 H       -3.1720    -7.6730     1.5080 H     1 <1>   0.0800 
 30 H       -0.9130    -9.5330     2.4390 H     1 <1>   0.0800 
 31 H       -0.1880   -10.2430     0.9890 H     1 <1>   0.0800 
 32 H       -4.0450   -10.2520     0.6120 H     1 <1>   0.0800 
 33 H       -3.6950    -9.7290     2.2530 H     1 <1>   0.0800 
 34 H       -3.3910    -8.7270    -1.3270 H     1 <1>   0.0800 
 35 H       -3.1560    -7.0540    -0.9200 H     1 <1>   0.0800 
 36 H       -5.6870    -9.6070    -1.3390 H     1 <1>   0.1500 
 37 H       -4.9260    -5.9060     0.6130 H     1 <1>   0.1500 
 38 H       -8.0590    -9.2080    -0.9870 H     1 <1>   0.1500 
 39 H       -7.3290    -5.6530     0.8850 H     1 <1>   0.1500 
@<TRIPOS>BOND
  1   1   2  1   
  2   2   3  1   
  3   2   4  1   
  4   2   5  1   
  5   5   6  ar  
  6   5   7  ar  
  7   6   8  ar  
  8   7   9  ar  
  9   7  24  1   
 10   8  10  1   
 11   8  11  ar  
 12   9  11  ar  
 13   9  25  1   
 14  10  12  1   
 15  10  26  1   
 16  11  27  1   
 17  12  13  1   
 18  12  14  1   
 19  12  28  1   
 20  13  15  1   
 21  13  16  1   
 22  13  29  1   
 23  14  17  1   
 24  14  30  1   
 25  14  31  1   
 26  15  17  1   
 27  15  32  1   
 28  15  33  1   
 29  16  18  1   
 30  16  34  1   
 31  16  35  1   
 32  18  19  ar  
 33  18  20  ar  
 34  19  21  ar  
 35  19  36  1   
 36  20  22  ar  
 37  20  37  1   
 38  21  23  ar  
 39  21  38  1   
 40  22  23  ar  
 41  22  39  1   
@<TRIPOS>SUBSTRUCTURE
  1 ****  16 GROUP 4 **** **** 0

# MOE 2024.06 (io_trps.svl 2023.06)
