@<TRIPOS>MOLECULE
NONAME
55 56 1 0 0 
SMALL
USER_CHARGES


@<TRIPOS>ATOM
  1 O        0.6540     1.1920    -0.3600 O.2   1 <1>  -0.5700 
  2 C        0.2220     2.2920    -0.6140 C.2   1 <1>   0.5690 
  3 N       -0.7000     2.9240     0.1750 N.am  1 <1>  -0.6600 
  4 C        0.7170     2.9900    -1.8770 C.3   1 <1>   0.1810 
  5 C       -1.2690     4.2640    -0.1990 C.3   1 <1>   0.3640 
  6 C       -1.2120     2.3220     1.4390 C.3   1 <1>   0.0600 
  7 O        0.6540     4.3880    -1.7600 O.3   1 <1>  -0.5600 
  8 C       -2.7920     4.1180    -0.3400 C.ar  1 <1>  -0.1430 
  9 C       -0.6500     4.8880    -1.4840 C.3   1 <1>   0.2610 
 10 C       -3.6970     4.8600     0.4200 C.ar  1 <1>  -0.1430 
 11 C       -3.2840     3.1970    -1.2600 C.ar  1 <1>  -0.1500 
 12 C       -0.6060     6.4120    -1.3390 C.2   1 <1>   0.5690 
 13 C       -5.0590     4.6760     0.2340 C.ar  1 <1>  -0.1500 
 14 C       -3.2560     5.8800     1.4620 C.3   1 <1>  -0.0960 
 15 C       -4.6430     3.0190    -1.4370 C.ar  1 <1>  -0.1500 
 16 O       -1.6450     7.0260    -1.3240 O.2   1 <1>  -0.5700 
 17 N        0.6170     7.0020    -1.2080 N.am  1 <1>  -0.7300 
 18 C       -5.5340     3.7630    -0.6890 C.ar  1 <1>  -0.1500 
 19 C        1.0460     8.3980    -0.9780 C.3   1 <1>   0.3000 
 20 C        1.2130     8.6630     0.5760 C.3   1 <1>   0.0000 
 21 C        2.3740     8.5070    -1.7460 C.3   1 <1>  -0.2400 
 22 C        0.0730     9.3710    -1.6690 C.3   1 <1>  -0.2400 
 23 C        2.2800     7.7420     1.2130 C.3   1 <1>  -0.2400 
 24 C        1.6360    10.1170     0.8820 C.3   1 <1>  -0.2400 
 25 C       -0.0970     8.4110     1.3560 C.3   1 <1>  -0.2400 
 26 H        0.1260     2.6850    -2.7210 H     1 <1>   0.0800 
 27 H        1.7430     2.7220    -2.0530 H     1 <1>   0.0800 
 28 H       -1.0420     4.9310     0.6120 H     1 <1>   0.0800 
 29 H       -1.1220     3.0290     2.2450 H     1 <1>   0.0800 
 30 H       -0.6520     1.4390     1.6940 H     1 <1>   0.0800 
 31 H       -2.2470     2.0500     1.3220 H     1 <1>   0.0800 
 32 H       -1.2680     4.6600    -2.3330 H     1 <1>   0.0800 
 33 H       -2.6070     2.6010    -1.8450 H     1 <1>   0.1500 
 34 H       -5.7670     5.2470     0.8080 H     1 <1>   0.1500 
 35 H       -4.0990     6.2670     2.0040 H     1 <1>   0.0800 
 36 H       -2.7660     6.7080     0.9850 H     1 <1>   0.0800 
 37 H       -2.5870     5.4290     2.1720 H     1 <1>   0.0800 
 38 H       -5.0060     2.3040    -2.1530 H     1 <1>   0.1500 
 39 H        1.4050     6.3530    -1.2690 H     1 <1>   0.3700 
 40 H       -6.5930     3.6320    -0.8230 H     1 <1>   0.1500 
 41 H        2.7910     9.4910    -1.6520 H     1 <1>   0.0800 
 42 H        2.2100     8.3230    -2.7930 H     1 <1>   0.0800 
 43 H        3.0970     7.7960    -1.3940 H     1 <1>   0.0800 
 44 H        0.4780    10.3650    -1.6870 H     1 <1>   0.0800 
 45 H       -0.8740     9.4120    -1.1680 H     1 <1>   0.0800 
 46 H       -0.0980     9.0660    -2.6860 H     1 <1>   0.0800 
 47 H        2.3140     7.8850     2.2790 H     1 <1>   0.0800 
 48 H        3.2610     7.9560     0.8320 H     1 <1>   0.0800 
 49 H        2.0560     6.7070     1.0280 H     1 <1>   0.0800 
 50 H        1.7590    10.2580     1.9410 H     1 <1>   0.0800 
 51 H        0.8910    10.8150     0.5470 H     1 <1>   0.0800 
 52 H        2.5710    10.3600     0.4120 H     1 <1>   0.0800 
 53 H        0.0350     8.6220     2.4020 H     1 <1>   0.0800 
 54 H       -0.4030     7.3860     1.2660 H     1 <1>   0.0800 
 55 H       -0.8940     9.0340     0.9970 H     1 <1>   0.0800 
@<TRIPOS>BOND
  1   1   2  2   
  2   2   3  am  
  3   2   4  1   
  4   3   5  1   
  5   3   6  1   
  6   4   7  1   
  7   4  26  1   
  8   4  27  1   
  9   5   8  1   
 10   5   9  1   
 11   5  28  1   
 12   6  29  1   
 13   6  30  1   
 14   6  31  1   
 15   7   9  1   
 16   8  10  ar  
 17   8  11  ar  
 18   9  12  1   
 19   9  32  1   
 20  10  13  ar  
 21  10  14  1   
 22  11  15  ar  
 23  11  33  1   
 24  12  16  2   
 25  12  17  am  
 26  13  18  ar  
 27  13  34  1   
 28  14  35  1   
 29  14  36  1   
 30  14  37  1   
 31  15  18  ar  
 32  15  38  1   
 33  17  19  1   
 34  17  39  1   
 35  18  40  1   
 36  19  20  1   
 37  19  21  1   
 38  19  22  1   
 39  20  23  1   
 40  20  24  1   
 41  20  25  1   
 42  21  41  1   
 43  21  42  1   
 44  21  43  1   
 45  22  44  1   
 46  22  45  1   
 47  22  46  1   
 48  23  47  1   
 49  23  48  1   
 50  23  49  1   
 51  24  50  1   
 52  24  51  1   
 53  24  52  1   
 54  25  53  1   
 55  25  54  1   
 56  25  55  1   
@<TRIPOS>SUBSTRUCTURE
  1 ****   9 GROUP 4 **** **** 0

# MOE 2024.06 (io_trps.svl 2023.06)
