@<TRIPOS>MOLECULE
NONAME
42 44 1 0 0 
SMALL
USER_CHARGES


@<TRIPOS>ATOM
  1 O        0.0650    -1.3910     1.6860 O.3   1 <1>  -0.6800 
  2 C        0.7500    -2.4410     1.0970 C.3   1 <1>   0.2000 
  3 C        1.9870    -1.9890     0.2990 C.3   1 <1>   0.0000 
  4 C       -0.1480    -3.1720     0.1020 C.3   1 <1>  -0.1600 
  5 C        3.1820    -1.7560     1.2450 C.3   1 <1>   0.2090 
  6 C        1.7370    -0.7050    -0.5440 C.3   1 <1>  -0.1600 
  7 C        2.2000    -3.2090    -0.6170 C.3   1 <1>  -0.1600 
  8 C        0.7980    -3.7160    -0.9780 C.3   1 <1>  -0.1600 
  9 N        4.3870    -1.3370     0.4650 N.pl3 1 <1>  -0.8380 
 10 C        3.0170    -0.1930    -1.2350 C.3   1 <1>  -0.1600 
 11 C        5.4520    -2.1830     0.2180 C.ar  1 <1>   0.7200 
 12 C        4.1840    -0.0490    -0.2520 C.3   1 <1>   0.2090 
 13 N        5.4870    -3.3340     0.8890 N.ar  1 <1>  -0.6200 
 14 N        6.3580    -1.7810    -0.6740 N.ar  1 <1>  -0.6200 
 15 C        6.5000    -4.1260     0.6430 C.ar  1 <1>   0.1600 
 16 C        7.3590    -2.5950    -0.8990 C.ar  1 <1>   0.1600 
 17 C        7.4870    -3.8060    -0.2600 C.ar  1 <1>  -0.1440 
 18 C        8.6560    -4.7380    -0.5350 C.3   1 <1>  -0.0170 
 19 C        9.8170    -4.4390     0.4160 C.3   1 <1>  -0.2400 
 20 H       -0.7550    -1.7200     2.1000 H     1 <1>   0.4000 
 21 H        1.0510    -3.1240     1.8750 H     1 <1>   0.0800 
 22 H       -0.6830    -3.9700     0.5830 H     1 <1>   0.0800 
 23 H       -0.8430    -2.4850    -0.3500 H     1 <1>   0.0800 
 24 H        3.3740    -2.6430     1.8200 H     1 <1>   0.0800 
 25 H        2.9330    -0.9740     1.9410 H     1 <1>   0.0800 
 26 H        0.9740    -0.8780    -1.2810 H     1 <1>   0.0800 
 27 H        1.3850     0.0770     0.1050 H     1 <1>   0.0800 
 28 H        2.7870    -2.9860    -1.4890 H     1 <1>   0.0800 
 29 H        2.7150    -3.9780    -0.0660 H     1 <1>   0.0800 
 30 H        0.7820    -4.7920    -1.0130 H     1 <1>   0.0800 
 31 H        0.5070    -3.3330    -1.9420 H     1 <1>   0.0800 
 32 H        2.8210     0.7630    -1.6860 H     1 <1>   0.0800 
 33 H        3.3150    -0.8630    -2.0200 H     1 <1>   0.0800 
 34 H        3.9570     0.7160     0.4700 H     1 <1>   0.0800 
 35 H        5.0700     0.2580    -0.7790 H     1 <1>   0.0800 
 36 H        6.5460    -5.0580     1.1780 H     1 <1>   0.1500 
 37 H        8.1000    -2.2850    -1.6150 H     1 <1>   0.1500 
 38 H        8.3420    -5.7600    -0.4110 H     1 <1>   0.0800 
 39 H        8.9840    -4.6190    -1.5530 H     1 <1>   0.0800 
 40 H        9.5080    -4.5730     1.4370 H     1 <1>   0.0800 
 41 H       10.1520    -3.4250     0.2890 H     1 <1>   0.0800 
 42 H       10.6400    -5.1020     0.2150 H     1 <1>   0.0800 
@<TRIPOS>BOND
  1   1   2  1   
  2   1  20  1   
  3   2   3  1   
  4   2   4  1   
  5   2  21  1   
  6   3   5  1   
  7   3   6  1   
  8   3   7  1   
  9   4   8  1   
 10   4  22  1   
 11   4  23  1   
 12   5   9  1   
 13   5  24  1   
 14   5  25  1   
 15   6  10  1   
 16   6  26  1   
 17   6  27  1   
 18   7   8  1   
 19   7  28  1   
 20   7  29  1   
 21   8  30  1   
 22   8  31  1   
 23   9  11  1   
 24   9  12  1   
 25  10  12  1   
 26  10  32  1   
 27  10  33  1   
 28  11  13  ar  
 29  11  14  ar  
 30  12  34  1   
 31  12  35  1   
 32  13  15  ar  
 33  14  16  ar  
 34  15  17  ar  
 35  15  36  1   
 36  16  17  ar  
 37  16  37  1   
 38  17  18  1   
 39  18  19  1   
 40  18  38  1   
 41  18  39  1   
 42  19  40  1   
 43  19  41  1   
 44  19  42  1   
@<TRIPOS>SUBSTRUCTURE
  1 ****   9 GROUP 4 **** **** 0

# MOE 2024.06 (io_trps.svl 2023.06)
