@<TRIPOS>MOLECULE
NONAME
55 58 1 0 0 
SMALL
USER_CHARGES


@<TRIPOS>ATOM
  1 O       -0.4580    -0.6980    -0.3840 O.3   1 <1>  -0.5600 
  2 C        0.7480    -1.3320    -0.0850 C.3   1 <1>   0.1200 
  3 C       -1.5930    -1.4440    -0.0580 C.3   1 <1>   0.1200 
  4 C        0.8700    -2.6540    -0.8680 C.3   1 <1>   0.2090 
  5 C       -1.6060    -2.7720    -0.8340 C.3   1 <1>   0.2090 
  6 N       -0.3230    -3.5440    -0.6260 N.pl3 1 <1>  -0.8380 
  7 C       -0.3180    -4.8530    -0.2610 C.ar  1 <1>   0.7710 
  8 N       -1.4650    -5.4470     0.0500 N.ar  1 <1>  -0.6200 
  9 N        0.8480    -5.5240    -0.2270 N.ar  1 <1>  -0.1790 
 10 C       -1.4420    -6.7160     0.4050 C.ar  1 <1>   0.4100 
 11 C        0.9220    -6.8290     0.1270 C.ar  1 <1>   0.2180 
 12 N       -2.6280    -7.2950     0.7120 N.3   1 <1>  -0.5900 
 13 C       -0.2400    -7.4470     0.4510 C.ar  1 <1>  -0.1500 
 14 C        2.2810    -7.5190     0.1370 C.3   1 <1>  -0.0170 
 15 C       -3.8610    -6.5850     1.2110 C.3   1 <1>   0.2450 
 16 C       -2.9410    -8.4150     1.6650 C.3   1 <1>   0.2450 
 17 C        2.9140    -7.5740    -1.2600 C.3   1 <1>  -0.2400 
 18 C       -4.4390    -7.9940     1.5350 C.3   1 <1>   0.4720 
 19 N       -5.1670    -8.6300     0.3780 N.4   1 <1>  -0.9280 
 20 C       -6.4630    -7.9420     0.0990 C.3   1 <1>   0.3430 
 21 C       -5.3610   -10.0960     0.5770 C.3   1 <1>   0.3430 
 22 C       -7.0840    -8.5120    -1.1780 C.3   1 <1>  -0.1600 
 23 C       -5.9550   -10.7130    -0.6900 C.3   1 <1>  -0.1600 
 24 C       -7.2700   -10.0320    -1.0900 C.3   1 <1>  -0.1600 
 25 H        0.7920    -1.5040     0.9770 H     1 <1>   0.0800 
 26 H        1.5440    -0.6610    -0.3590 H     1 <1>   0.0800 
 27 H       -2.4560    -0.8560    -0.3150 H     1 <1>   0.0800 
 28 H       -1.6010    -1.6200     1.0040 H     1 <1>   0.0800 
 29 H        1.7880    -3.1300    -0.5790 H     1 <1>   0.0800 
 30 H        0.9320    -2.4210    -1.9180 H     1 <1>   0.0800 
 31 H       -1.7220    -2.5550    -1.8820 H     1 <1>   0.0800 
 32 H       -2.4710    -3.3340    -0.5280 H     1 <1>   0.0800 
 33 H        1.6680    -5.0060    -0.5130 H     1 <1>   0.4570 
 34 H       -0.2710    -8.4820     0.7380 H     1 <1>   0.1500 
 35 H        2.1700    -8.5260     0.5030 H     1 <1>   0.0800 
 36 H        2.9440    -7.0070     0.8150 H     1 <1>   0.0800 
 37 H       -4.3760    -6.0560     0.4290 H     1 <1>   0.0000 
 38 H       -3.6450    -5.9910     2.0820 H     1 <1>   0.0000 
 39 H       -2.5170    -8.2310     2.6370 H     1 <1>   0.0000 
 40 H       -2.7080    -9.3810     1.2550 H     1 <1>   0.0000 
 41 H        2.2660    -8.0880    -1.9490 H     1 <1>   0.0800 
 42 H        3.8460    -8.1130    -1.2150 H     1 <1>   0.0800 
 43 H        3.1190    -6.5900    -1.6430 H     1 <1>   0.0800 
 44 H       -4.9980    -8.0470     2.4520 H     1 <1>   0.0000 
 45 H       -4.5640    -8.5000    -0.4460 H     1 <1>   0.4500 
 46 H       -6.3060    -6.8830    -0.0270 H     1 <1>   0.0800 
 47 H       -7.1400    -8.0900     0.9240 H     1 <1>   0.0800 
 48 H       -6.0290   -10.2670     1.4070 H     1 <1>   0.0800 
 49 H       -4.4190   -10.5740     0.7950 H     1 <1>   0.0800 
 50 H       -6.4610    -8.2670    -2.0210 H     1 <1>   0.0800 
 51 H       -8.0410    -8.0470    -1.3420 H     1 <1>   0.0800 
 52 H       -6.1360   -11.7610    -0.5200 H     1 <1>   0.0800 
 53 H       -5.2430   -10.6380    -1.4940 H     1 <1>   0.0800 
 54 H       -7.6070   -10.4160    -2.0390 H     1 <1>   0.0800 
 55 H       -8.0290   -10.2600    -0.3590 H     1 <1>   0.0800 
@<TRIPOS>BOND
  1   1   2  1   
  2   1   3  1   
  3   2   4  1   
  4   2  25  1   
  5   2  26  1   
  6   3   5  1   
  7   3  27  1   
  8   3  28  1   
  9   4   6  1   
 10   4  29  1   
 11   4  30  1   
 12   5   6  1   
 13   5  31  1   
 14   5  32  1   
 15   6   7  1   
 16   7   8  ar  
 17   7   9  ar  
 18   8  10  ar  
 19   9  11  ar  
 20   9  33  1   
 21  10  12  1   
 22  10  13  ar  
 23  11  13  ar  
 24  11  14  1   
 25  12  15  1   
 26  12  16  1   
 27  13  34  1   
 28  14  17  1   
 29  14  35  1   
 30  14  36  1   
 31  15  18  1   
 32  15  37  1   
 33  15  38  1   
 34  16  18  1   
 35  16  39  1   
 36  16  40  1   
 37  17  41  1   
 38  17  42  1   
 39  17  43  1   
 40  18  19  1   
 41  18  44  1   
 42  19  20  1   
 43  19  21  1   
 44  19  45  1   
 45  20  22  1   
 46  20  46  1   
 47  20  47  1   
 48  21  23  1   
 49  21  48  1   
 50  21  49  1   
 51  22  24  1   
 52  22  50  1   
 53  22  51  1   
 54  23  24  1   
 55  23  52  1   
 56  23  53  1   
 57  24  54  1   
 58  24  55  1   
@<TRIPOS>SUBSTRUCTURE
  1 ****  10 GROUP 4 **** **** 0

# MOE 2024.06 (io_trps.svl 2023.06)
