@<TRIPOS>MOLECULE
NONAME
52 54 1 0 0 
SMALL
USER_CHARGES


@<TRIPOS>ATOM
  1 O       -5.2360     2.6060     0.1160 O.2   1 <1>  -0.5700 
  2 C       -4.2070     2.0670    -0.2530 C.2   1 <1>   0.5440 
  3 N       -4.3060     1.0940    -1.2240 N.am  1 <1>  -0.6600 
  4 C       -2.9470     2.4230     0.3660 C.ar  1 <1>   0.0860 
  5 C       -3.1770     0.1620    -1.5480 C.3   1 <1>   0.3210 
  6 C       -5.5610     0.8910    -2.0210 C.3   1 <1>   0.1400 
  7 C       -1.9150     3.0100    -0.3690 C.ar  1 <1>  -0.1500 
  8 C       -2.7250     2.1800     1.7210 C.ar  1 <1>  -0.1500 
  9 C       -3.1740    -1.0650    -0.6400 C.2   1 <1>   0.0460 
 10 C       -6.5840    -0.0450    -1.3450 C.3   1 <1>   0.3430 
 11 C       -0.6950     3.3120     0.2090 C.ar  1 <1>  -0.1440 
 12 C       -1.5130     2.4820     2.3110 C.ar  1 <1>  -0.1500 
 13 N       -4.1460    -2.0010    -0.7230 N.2   1 <1>  -0.5650 
 14 C       -2.2550    -1.4110     0.2940 C.2   1 <1>  -0.3320 
 15 N       -6.9080     0.3940     0.0480 N.4   1 <1>  -0.9590 
 16 C       -0.4940     3.0410     1.5600 C.ar  1 <1>   0.0830 
 17 C        0.4130     3.9390    -0.6220 C.3   1 <1>  -0.0170 
 18 C       -3.7880    -2.8980     0.1380 C.2   1 <1>   0.0360 
 19 N       -2.6500    -2.5960     0.7940 N.pl3 1 <1>   0.0330 
 20 C       -0.9810    -0.7240     0.7630 C.3   1 <1>  -0.0600 
 21 C       -6.2340    -0.4860     1.0440 C.3   1 <1>   0.2630 
 22 C       -8.3700     0.5170     0.2990 C.3   1 <1>   0.2630 
 23 O        0.6810     3.2970     2.1760 O.3   1 <1>  -0.3630 
 24 C        1.7660     3.7500     0.0670 C.3   1 <1>  -0.1600 
 25 C        1.6500     4.1130     1.5490 C.3   1 <1>   0.1200 
 26 H       -2.2360     0.6700    -1.4600 H     1 <1>   0.0800 
 27 H       -3.2560    -0.1690    -2.5680 H     1 <1>   0.0800 
 28 H       -5.3130     0.4910    -2.9890 H     1 <1>   0.0800 
 29 H       -6.0270     1.8470    -2.1880 H     1 <1>   0.0800 
 30 H       -2.0820     3.2290    -1.4090 H     1 <1>   0.1500 
 31 H       -3.5130     1.7510     2.3130 H     1 <1>   0.1500 
 32 H       -6.1980    -1.0500    -1.3370 H     1 <1>   0.0800 
 33 H       -7.4810    -0.0510    -1.9400 H     1 <1>   0.0800 
 34 H       -1.3450     2.2900     3.3560 H     1 <1>   0.1500 
 35 H       -6.4620     1.3360     0.1480 H     1 <1>   0.4500 
 36 H        0.2080     4.9900    -0.7280 H     1 <1>   0.0800 
 37 H        0.4410     3.4990    -1.6030 H     1 <1>   0.0800 
 38 H       -4.3270    -3.8110     0.3280 H     1 <1>   0.1500 
 39 H       -2.1750    -3.1630     1.5040 H     1 <1>   0.2700 
 40 H       -0.8180     0.1990     0.2370 H     1 <1>   0.0800 
 41 H       -0.1310    -1.3610     0.5930 H     1 <1>   0.0800 
 42 H       -1.0410    -0.5040     1.8140 H     1 <1>   0.0800 
 43 H       -6.5630    -1.5050     0.9290 H     1 <1>   0.0800 
 44 H       -6.4520    -0.1540     2.0460 H     1 <1>   0.0800 
 45 H       -5.1670    -0.4530     0.8980 H     1 <1>   0.0800 
 46 H       -8.8490    -0.4420     0.1960 H     1 <1>   0.0800 
 47 H       -8.8100     1.2050    -0.4050 H     1 <1>   0.0800 
 48 H       -8.5450     0.8890     1.2950 H     1 <1>   0.0800 
 49 H        2.5070     4.3700    -0.4050 H     1 <1>   0.0800 
 50 H        2.0840     2.7250    -0.0170 H     1 <1>   0.0800 
 51 H        2.5850     3.9610     2.0590 H     1 <1>   0.0800 
 52 H        1.3440     5.1380     1.6700 H     1 <1>   0.0800 
@<TRIPOS>BOND
  1   1   2  2   
  2   2   3  am  
  3   2   4  1   
  4   3   5  1   
  5   3   6  1   
  6   4   7  ar  
  7   4   8  ar  
  8   5   9  1   
  9   5  26  1   
 10   5  27  1   
 11   6  10  1   
 12   6  28  1   
 13   6  29  1   
 14   7  11  ar  
 15   7  30  1   
 16   8  12  ar  
 17   8  31  1   
 18   9  13  1   
 19   9  14  2   
 20  10  15  1   
 21  10  32  1   
 22  10  33  1   
 23  11  16  ar  
 24  11  17  1   
 25  12  16  ar  
 26  12  34  1   
 27  13  18  2   
 28  14  19  1   
 29  14  20  1   
 30  15  21  1   
 31  15  22  1   
 32  15  35  1   
 33  16  23  1   
 34  17  24  1   
 35  17  36  1   
 36  17  37  1   
 37  18  19  1   
 38  18  38  1   
 39  19  39  1   
 40  20  40  1   
 41  20  41  1   
 42  20  42  1   
 43  21  43  1   
 44  21  44  1   
 45  21  45  1   
 46  22  46  1   
 47  22  47  1   
 48  22  48  1   
 49  23  25  1   
 50  24  25  1   
 51  24  49  1   
 52  24  50  1   
 53  25  51  1   
 54  25  52  1   
@<TRIPOS>SUBSTRUCTURE
  1 ****   4 GROUP 4 **** **** 0

# MOE 2024.06 (io_trps.svl 2023.06)
