@<TRIPOS>MOLECULE
NONAME
44 45 1 0 0 
SMALL
USER_CHARGES


@<TRIPOS>ATOM
  1 CL      -0.2660     3.3880     1.5890 Cl    1 <1>  -0.1770 
  2 C       -0.0310     3.9110    -0.0620 C.ar  1 <1>   0.1770 
  3 C       -0.9680     4.7210    -0.6890 C.ar  1 <1>  -0.1440 
  4 C        1.1140     3.4930    -0.7160 C.ar  1 <1>  -0.1500 
  5 C       -0.7340     5.1070    -2.0020 C.ar  1 <1>  -0.1500 
  6 C       -2.2360     5.1890     0.0120 C.3   1 <1>   0.2140 
  7 C        1.3330     3.8830    -2.0260 C.ar  1 <1>  -0.1500 
  8 C        0.4070     4.6880    -2.6670 C.ar  1 <1>  -0.1500 
  9 S       -2.0520     6.9550     0.3900 S.3   1 <1>  -0.4600 
 10 C       -0.9160     6.9660     1.8330 C.3   1 <1>   0.1310 
 11 C       -0.1900     8.2970     1.9850 C.2   1 <1>   0.5690 
 12 O        0.5420     8.4510     2.9330 O.2   1 <1>  -0.5700 
 13 N       -0.3470     9.2570     1.0380 N.am  1 <1>  -0.7300 
 14 C        0.3670    10.5490     0.9810 C.3   1 <1>   0.1400 
 15 C        1.4710    10.4760    -0.0770 C.3   1 <1>  -0.1600 
 16 C        2.6030     9.5170     0.3190 C.3   1 <1>   0.0210 
 17 C        3.5840     9.3560    -0.8290 C.2   1 <1>  -0.1810 
 18 C        4.7240    10.0130    -1.0950 C.2   1 <1>  -0.0400 
 19 C        3.4840     8.4490    -1.8840 C.2   1 <1>   0.1080 
 20 O        5.2210     9.5240    -2.2000 O.3   1 <1>  -0.0190 
 21 C        5.4540    11.1310    -0.3820 C.3   1 <1>  -0.0600 
 22 N        4.4780     8.5740    -2.6890 N.2   1 <1>  -0.4100 
 23 C        2.3740     7.4370    -2.0730 C.3   1 <1>  -0.0590 
 24 H        1.8240     2.8680    -0.2040 H     1 <1>   0.1500 
 25 H       -1.4430     5.7370    -2.5120 H     1 <1>   0.1500 
 26 H       -2.4310     4.6740     0.9350 H     1 <1>   0.0800 
 27 H       -3.0890     5.0950    -0.6370 H     1 <1>   0.0800 
 28 H        2.2210     3.5610    -2.5440 H     1 <1>   0.1500 
 29 H        0.5740     4.9890    -3.6870 H     1 <1>   0.1500 
 30 H       -0.1940     6.1870     1.6840 H     1 <1>   0.0800 
 31 H       -1.5030     6.7580     2.7080 H     1 <1>   0.0800 
 32 H       -0.9900     9.0510     0.2660 H     1 <1>   0.3700 
 33 H        0.7920    10.7780     1.9450 H     1 <1>   0.0800 
 34 H       -0.3350    11.3260     0.7290 H     1 <1>   0.0800 
 35 H        1.8880    11.4580    -0.2120 H     1 <1>   0.0800 
 36 H        1.0430    10.1760    -1.0170 H     1 <1>   0.0800 
 37 H        2.2140     8.5490     0.5770 H     1 <1>   0.0800 
 38 H        3.1130     9.8980     1.1860 H     1 <1>   0.0800 
 39 H        4.9170    11.4310     0.4970 H     1 <1>   0.0800 
 40 H        5.5520    11.9760    -1.0390 H     1 <1>   0.0800 
 41 H        6.4350    10.7960    -0.0960 H     1 <1>   0.0800 
 42 H        1.4240     7.9350    -2.1130 H     1 <1>   0.0800 
 43 H        2.3740     6.7380    -1.2570 H     1 <1>   0.0800 
 44 H        2.5240     6.8990    -2.9910 H     1 <1>   0.0800 
@<TRIPOS>BOND
  1   1   2  1   
  2   2   3  ar  
  3   2   4  ar  
  4   3   5  ar  
  5   3   6  1   
  6   4   7  ar  
  7   4  24  1   
  8   5   8  ar  
  9   5  25  1   
 10   6   9  1   
 11   6  26  1   
 12   6  27  1   
 13   7   8  ar  
 14   7  28  1   
 15   8  29  1   
 16   9  10  1   
 17  10  11  1   
 18  10  30  1   
 19  10  31  1   
 20  11  12  2   
 21  11  13  am  
 22  13  14  1   
 23  13  32  1   
 24  14  15  1   
 25  14  33  1   
 26  14  34  1   
 27  15  16  1   
 28  15  35  1   
 29  15  36  1   
 30  16  17  1   
 31  16  37  1   
 32  16  38  1   
 33  17  18  2   
 34  17  19  1   
 35  18  20  1   
 36  18  21  1   
 37  19  22  2   
 38  19  23  1   
 39  20  22  1   
 40  21  39  1   
 41  21  40  1   
 42  21  41  1   
 43  23  42  1   
 44  23  43  1   
 45  23  44  1   
@<TRIPOS>SUBSTRUCTURE
  1 ****  23 GROUP 4 **** **** 0

# MOE 2024.06 (io_trps.svl 2023.06)
