@<TRIPOS>MOLECULE
NONAME
44 46 1 0 0 
SMALL
USER_CHARGES


@<TRIPOS>ATOM
  1 O       -0.9810     0.3900    -0.8980 O.2   1 <1>  -0.5700 
  2 C       -1.1060     0.4840     0.3090 C.2   1 <1>   0.7160 
  3 N       -1.5790    -0.6010     0.9860 N.am  1 <1>  -0.7300 
  4 C       -0.7980     1.6980     1.0520 C.2   1 <1>   0.1410 
  5 C       -2.0320    -1.8760     0.3890 C.3   1 <1>   0.2200 
  6 N       -1.0600     1.7910     2.3970 N.2   1 <1>  -0.5650 
  7 C       -0.2540     2.8830     0.6650 C.2   1 <1>  -0.0400 
  8 C       -3.5440    -1.8510     0.2570 C.3   1 <1>  -0.0800 
  9 C       -1.8120    -3.0220     1.3740 C.3   1 <1>   0.1200 
 10 C       -0.6740     2.9710     2.7050 C.2   1 <1>   0.3280 
 11 O       -0.1870     3.6600     1.7070 O.3   1 <1>  -0.2800 
 12 C        0.2620     3.4510    -0.6540 C.3   1 <1>   0.1000 
 13 C       -3.9830    -2.2910     1.6540 C.3   1 <1>   0.1200 
 14 C       -4.0330    -2.8160    -0.8400 C.3   1 <1>  -0.0160 
 15 O       -2.9730    -3.1200     2.1480 O.3   1 <1>  -0.5600 
 16 C       -0.8640     3.6080    -1.6810 C.3   1 <1>  -0.2400 
 17 C        1.4280     2.6290    -1.2120 C.3   1 <1>  -0.2400 
 18 C       -5.5440    -2.7560    -0.9940 C.ar  1 <1>  -0.1440 
 19 C       -6.3720    -3.7510    -0.5130 C.ar  1 <1>  -0.1500 
 20 C       -6.1660    -1.6980    -1.6250 C.ar  1 <1>  -0.1500 
 21 C       -7.7430    -3.6390    -0.6770 C.ar  1 <1>   0.1600 
 22 C       -7.5460    -1.6820    -1.7370 C.ar  1 <1>   0.1600 
 23 N       -8.3500    -2.6270    -1.2760 N.ar  1 <1>  -0.6200 
 24 H       -1.7350    -0.4810     1.9910 H     1 <1>   0.3700 
 25 H       -1.5260    -2.0450    -0.5470 H     1 <1>   0.0800 
 26 H       -3.9020    -0.8610     0.0320 H     1 <1>   0.0800 
 27 H       -0.9640    -2.8590     2.0150 H     1 <1>   0.0800 
 28 H       -1.6970    -3.9540     0.8490 H     1 <1>   0.0800 
 29 H       -0.7130     3.4290     3.6780 H     1 <1>   0.1500 
 30 H        0.6430     4.4380    -0.4480 H     1 <1>   0.0800 
 31 H       -4.9170    -2.8260     1.6610 H     1 <1>   0.0800 
 32 H       -4.0550    -1.4410     2.3120 H     1 <1>   0.0800 
 33 H       -3.7320    -3.8240    -0.6120 H     1 <1>   0.0800 
 34 H       -3.5810    -2.5470    -1.7790 H     1 <1>   0.0800 
 35 H       -1.2580     2.6520    -1.9730 H     1 <1>   0.0800 
 36 H       -0.4960     4.1060    -2.5600 H     1 <1>   0.0800 
 37 H       -1.6610     4.1960    -1.2630 H     1 <1>   0.0800 
 38 H        1.1080     1.6470    -1.5030 H     1 <1>   0.0800 
 39 H        2.1990     2.5340    -0.4690 H     1 <1>   0.0800 
 40 H        1.8450     3.1180    -2.0750 H     1 <1>   0.0800 
 41 H       -5.9660    -4.6090    -0.0100 H     1 <1>   0.1500 
 42 H       -5.5910    -0.8860    -2.0300 H     1 <1>   0.1500 
 43 H       -8.3730    -4.4230    -0.2950 H     1 <1>   0.1500 
 44 H       -8.0130    -0.8480    -2.2310 H     1 <1>   0.1500 
@<TRIPOS>BOND
  1   1   2  2   
  2   2   3  am  
  3   2   4  1   
  4   3   5  1   
  5   3  24  1   
  6   4   6  1   
  7   4   7  2   
  8   5   8  1   
  9   5   9  1   
 10   5  25  1   
 11   6  10  2   
 12   7  11  1   
 13   7  12  1   
 14   8  13  1   
 15   8  14  1   
 16   8  26  1   
 17   9  15  1   
 18   9  27  1   
 19   9  28  1   
 20  10  11  1   
 21  10  29  1   
 22  12  16  1   
 23  12  17  1   
 24  12  30  1   
 25  13  15  1   
 26  13  31  1   
 27  13  32  1   
 28  14  18  1   
 29  14  33  1   
 30  14  34  1   
 31  16  35  1   
 32  16  36  1   
 33  16  37  1   
 34  17  38  1   
 35  17  39  1   
 36  17  40  1   
 37  18  19  ar  
 38  18  20  ar  
 39  19  21  ar  
 40  19  41  1   
 41  20  22  ar  
 42  20  42  1   
 43  21  23  ar  
 44  21  43  1   
 45  22  23  ar  
 46  22  44  1   
@<TRIPOS>SUBSTRUCTURE
  1 ****   3 GROUP 4 **** **** 0

# MOE 2024.06 (io_trps.svl 2023.06)
