@<TRIPOS>MOLECULE
NONAME
49 53 1 0 0 
SMALL
USER_CHARGES


@<TRIPOS>ATOM
  1 O       -0.4470     0.1080     1.7500 O.2   1 <1>  -0.5700 
  2 C       -1.3450     0.7500     1.2450 C.2   1 <1>   0.6160 
  3 N       -2.5130     0.1100     0.8930 N.am  1 <1>  -0.6600 
  4 C       -1.1650     2.1620     1.0440 C.2   1 <1>   0.0290 
  5 C       -2.6890    -1.3720     1.0360 C.3   1 <1>   0.1400 
  6 C       -3.7360     0.7840     0.3550 C.3   1 <1>   0.1400 
  7 C       -1.0490     2.7860    -0.1730 C.2   1 <1>  -0.1690 
  8 C       -1.1150     2.9540     2.2310 C.2   1 <1>   0.3760 
  9 C       -3.2840    -1.9900    -0.2450 C.3   1 <1>   0.3440 
 10 C       -4.2480     0.0600    -0.9110 C.3   1 <1>   0.2950 
 11 N       -0.9370     4.1650    -0.1730 N.pl3 1 <1>   0.6010 
 12 C       -1.0250     2.0760    -1.5260 C.3   1 <1>  -0.1020 
 13 N       -1.0150     4.2410     2.2470 N.2   1 <1>  -0.5760 
 14 O       -4.4420    -1.2950    -0.6320 O.3   1 <1>  -0.5600 
 15 C       -3.6200    -3.4610    -0.0220 C.ar  1 <1>  -0.1440 
 16 C       -5.5760     0.6000    -1.4680 C.3   1 <1>  -0.1950 
 17 N       -0.8660     5.0090    -1.2280 N.2   1 <1>  -0.7070 
 18 C       -0.9350     4.8560     1.0180 C.2   1 <1>  -0.0260 
 19 C       -2.6710    -4.4330    -0.3080 C.ar  1 <1>  -0.1500 
 20 C       -4.8560    -3.8530     0.4770 C.ar  1 <1>  -0.1500 
 21 C       -5.9780     2.0430    -1.4010 C.3   1 <1>  -0.2000 
 22 C       -6.7380     1.0090    -0.6160 C.3   1 <1>  -0.2000 
 23 C       -0.8070     6.1960    -0.6930 C.2   1 <1>   0.1390 
 24 C       -0.8460     6.1680     0.6910 C.2   1 <1>  -0.1500 
 25 C       -2.9510    -5.7720    -0.0980 C.ar  1 <1>  -0.1500 
 26 C       -5.1370    -5.1920     0.6870 C.ar  1 <1>  -0.1500 
 27 C       -4.1840    -6.1530     0.4000 C.ar  1 <1>  -0.1500 
 28 H       -1.7480    -1.8500     1.2470 H     1 <1>   0.0800 
 29 H       -3.3490    -1.5730     1.8610 H     1 <1>   0.0800 
 30 H       -4.5020     0.7610     1.1090 H     1 <1>   0.0800 
 31 H       -3.5370     1.8120     0.1190 H     1 <1>   0.0800 
 32 H       -1.1730     2.4320     3.1710 H     1 <1>   0.0600 
 33 H       -2.5700    -1.9110    -1.0460 H     1 <1>   0.0800 
 34 H       -3.5040     0.1370    -1.6850 H     1 <1>   0.0800 
 35 H       -0.1300     2.3450    -2.0610 H     1 <1>   0.0800 
 36 H       -1.8720     2.3790    -2.1170 H     1 <1>   0.0800 
 37 H       -1.0400     1.0070    -1.4190 H     1 <1>   0.0800 
 38 H       -5.8210     0.0910    -2.3840 H     1 <1>   0.1000 
 39 H       -1.7060    -4.1550    -0.6950 H     1 <1>   0.1500 
 40 H       -5.6060    -3.1140     0.7000 H     1 <1>   0.1500 
 41 H       -5.3950     2.7610    -0.8520 H     1 <1>   0.1000 
 42 H       -6.4540     2.4830    -2.2610 H     1 <1>   0.1000 
 43 H       -7.7260     0.7310    -0.9410 H     1 <1>   0.1000 
 44 H       -6.6490     0.9960     0.4560 H     1 <1>   0.1000 
 45 H       -0.7380     7.0980    -1.2790 H     1 <1>   0.1500 
 46 H       -0.8140     7.0070     1.3610 H     1 <1>   0.1500 
 47 H       -2.2090    -6.5180    -0.3220 H     1 <1>   0.1500 
 48 H       -6.0980    -5.4840     1.0720 H     1 <1>   0.1500 
 49 H       -4.4020    -7.1940     0.5630 H     1 <1>   0.1500 
@<TRIPOS>BOND
  1   1   2  2   
  2   2   3  am  
  3   2   4  1   
  4   3   5  1   
  5   3   6  1   
  6   4   7  2   
  7   4   8  1   
  8   5   9  1   
  9   5  28  1   
 10   5  29  1   
 11   6  10  1   
 12   6  30  1   
 13   6  31  1   
 14   7  11  1   
 15   7  12  1   
 16   8  13  2   
 17   8  32  1   
 18   9  14  1   
 19   9  15  1   
 20   9  33  1   
 21  10  14  1   
 22  10  16  1   
 23  10  34  1   
 24  11  17  1   
 25  11  18  1   
 26  12  35  1   
 27  12  36  1   
 28  12  37  1   
 29  13  18  1   
 30  15  19  ar  
 31  15  20  ar  
 32  16  21  1   
 33  16  22  1   
 34  16  38  1   
 35  17  23  2   
 36  18  24  2   
 37  19  25  ar  
 38  19  39  1   
 39  20  26  ar  
 40  20  40  1   
 41  21  22  1   
 42  21  41  1   
 43  21  42  1   
 44  22  43  1   
 45  22  44  1   
 46  23  24  1   
 47  23  45  1   
 48  24  46  1   
 49  25  27  ar  
 50  25  47  1   
 51  26  27  ar  
 52  26  48  1   
 53  27  49  1   
@<TRIPOS>SUBSTRUCTURE
  1 ****   3 GROUP 4 **** **** 0

# MOE 2024.06 (io_trps.svl 2023.06)
