@<TRIPOS>MOLECULE
NONAME
53 56 1 0 0 
SMALL
USER_CHARGES


@<TRIPOS>ATOM
  1 S       -0.1580    -1.3510    -0.9310 S.o2  1 <1>   1.5760 
  2 O        0.1700    -2.6910    -0.5000 O.2   1 <1>  -0.6500 
  3 O       -0.3510    -1.0570    -2.3320 O.2   1 <1>  -0.6500 
  4 N       -1.5130    -0.8100    -0.0870 N.am  1 <1>  -0.8490 
  5 N        1.0080    -0.3080    -0.3060 N.am  1 <1>  -0.8490 
  6 C       -1.9070     0.5460    -0.5180 C.3   1 <1>   0.1960 
  7 C       -2.6310    -1.7410    -0.2330 C.3   1 <1>   0.1960 
  8 C        2.2100    -0.3740    -1.1330 C.3   1 <1>   0.3390 
  9 C        1.3120    -0.5950     1.1030 C.3   1 <1>   0.1160 
 10 C       -3.0430     1.1070     0.3580 C.3   1 <1>   0.1440 
 11 C       -3.8120    -1.2940     0.6400 C.3   1 <1>  -0.1600 
 12 C        3.2350     0.6630    -0.6910 C.ar  1 <1>  -0.1440 
 13 C       -3.3850     2.5020    -0.1330 C.ar  1 <1>   0.1670 
 14 C       -4.2470     0.1450     0.3120 C.3   1 <1>  -0.1600 
 15 C       -2.5600     1.3760     1.8100 C.3   1 <1>  -0.1600 
 16 C        2.9260     2.0130    -0.7530 C.ar  1 <1>  -0.1500 
 17 C        4.4820     0.2730    -0.2230 C.ar  1 <1>  -0.1500 
 18 N       -4.0440     2.7850    -1.2350 N.ar  1 <1>  -0.6200 
 19 C       -2.9040     3.4600     0.7080 C.ar  1 <1>  -0.1440 
 20 C       -2.1720     2.8620     1.8840 C.3   1 <1>  -0.0170 
 21 C        3.8480     2.9640    -0.3520 C.ar  1 <1>  -0.1500 
 22 C        5.4060     1.2230     0.1780 C.ar  1 <1>  -0.1500 
 23 C       -4.2110     4.0810    -1.4550 C.ar  1 <1>   0.4770 
 24 C       -3.1350     4.7730     0.3820 C.ar  1 <1>   0.1600 
 25 C        5.0900     2.5680     0.1140 C.ar  1 <1>  -0.1500 
 26 N       -3.7960     5.0970    -0.7100 N.ar  1 <1>  -0.6200 
 27 C       -4.9700     4.4520    -2.7060 C.3   1 <1>  -0.0970 
 28 H       -2.2300     0.5250    -1.5460 H     1 <1>   0.0800 
 29 H       -1.0620     1.2100    -0.4550 H     1 <1>   0.0800 
 30 H       -2.3240    -2.7270     0.0750 H     1 <1>   0.0800 
 31 H       -2.9340    -1.7900    -1.2670 H     1 <1>   0.0800 
 32 H        1.9560    -0.1700    -2.1600 H     1 <1>   0.0800 
 33 H        2.6330    -1.3640    -1.0870 H     1 <1>   0.0800 
 34 H        0.4070    -0.5840     1.6850 H     1 <1>   0.0800 
 35 H        1.9740     0.1530     1.5040 H     1 <1>   0.0800 
 36 H        1.7740    -1.5630     1.2030 H     1 <1>   0.0800 
 37 H       -3.5240    -1.3650     1.6740 H     1 <1>   0.0800 
 38 H       -4.6390    -1.9630     0.4860 H     1 <1>   0.0800 
 39 H       -4.6650     0.1600    -0.6800 H     1 <1>   0.0800 
 40 H       -5.0160     0.4710     0.9900 H     1 <1>   0.0800 
 41 H       -1.7430     0.7380     2.0970 H     1 <1>   0.0800 
 42 H       -3.3730     1.2080     2.4940 H     1 <1>   0.0800 
 43 H        1.9580     2.3230    -1.1110 H     1 <1>   0.1500 
 44 H        4.7410    -0.7700    -0.1680 H     1 <1>   0.1500 
 45 H       -1.1110     2.9850     1.7490 H     1 <1>   0.0800 
 46 H       -2.4790     3.3060     2.8150 H     1 <1>   0.0800 
 47 H        3.6000     4.0090    -0.4040 H     1 <1>   0.1500 
 48 H        6.3710     0.9150     0.5410 H     1 <1>   0.1500 
 49 H       -2.7750     5.5660     1.0150 H     1 <1>   0.1500 
 50 H        5.8080     3.3060     0.4260 H     1 <1>   0.1500 
 51 H       -5.0550     3.6050    -3.3600 H     1 <1>   0.0800 
 52 H       -4.4530     5.2400    -3.2210 H     1 <1>   0.0800 
 53 H       -5.9520     4.7910    -2.4370 H     1 <1>   0.0800 
@<TRIPOS>BOND
  1   1   2  2   
  2   1   3  2   
  3   1   4  am  
  4   1   5  am  
  5   4   6  1   
  6   4   7  1   
  7   5   8  1   
  8   5   9  1   
  9   6  10  1   
 10   6  28  1   
 11   6  29  1   
 12   7  11  1   
 13   7  30  1   
 14   7  31  1   
 15   8  12  1   
 16   8  32  1   
 17   8  33  1   
 18   9  34  1   
 19   9  35  1   
 20   9  36  1   
 21  10  13  1   
 22  10  14  1   
 23  10  15  1   
 24  11  14  1   
 25  11  37  1   
 26  11  38  1   
 27  12  16  ar  
 28  12  17  ar  
 29  13  18  ar  
 30  13  19  ar  
 31  14  39  1   
 32  14  40  1   
 33  15  20  1   
 34  15  41  1   
 35  15  42  1   
 36  16  21  ar  
 37  16  43  1   
 38  17  22  ar  
 39  17  44  1   
 40  18  23  ar  
 41  19  20  1   
 42  19  24  ar  
 43  20  45  1   
 44  20  46  1   
 45  21  25  ar  
 46  21  47  1   
 47  22  25  ar  
 48  22  48  1   
 49  23  26  ar  
 50  23  27  1   
 51  24  26  ar  
 52  24  49  1   
 53  25  50  1   
 54  27  51  1   
 55  27  52  1   
 56  27  53  1   
@<TRIPOS>SUBSTRUCTURE
  1 ****   6 GROUP 4 **** **** 0

# MOE 2024.06 (io_trps.svl 2023.06)
