@<TRIPOS>MOLECULE
NONAME
39 41 1 0 0 
SMALL
USER_CHARGES


@<TRIPOS>ATOM
  1 CL      -0.2240    -0.0320     0.1320 Cl    1 <1>  -0.1770 
  2 C        1.1990    -1.0600     0.1090 C.ar  1 <1>   0.1770 
  3 C        1.0940    -2.4270    -0.1160 C.ar  1 <1>   0.4100 
  4 C        2.4420    -0.5300     0.3160 C.ar  1 <1>   0.1600 
  5 N        2.1750    -3.1840    -0.1260 N.ar  1 <1>  -0.6200 
  6 N       -0.1210    -3.0430    -0.3260 N.pl3 1 <1>  -0.8690 
  7 N        3.5310    -1.2810     0.3080 N.ar  1 <1>  -0.6200 
  8 C        3.3250    -2.5700     0.0880 C.ar  1 <1>   0.4770 
  9 C       -0.3110    -4.4920    -0.6050 C.3   1 <1>   0.2090 
 10 C        4.5550    -3.4450     0.0730 C.3   1 <1>  -0.0970 
 11 C       -0.4560    -5.2610     0.7030 C.3   1 <1>  -0.0170 
 12 C       -0.7420    -6.7140     0.4020 C.ar  1 <1>   0.4770 
 13 N        0.2910    -7.5450     0.4730 N.ar  1 <1>  -0.6200 
 14 N       -1.9980    -7.0020     0.0870 N.ar  1 <1>  -0.6200 
 15 C        0.0420    -8.8090     0.2030 C.ar  1 <1>   0.1670 
 16 C       -2.2060    -8.2690    -0.1720 C.ar  1 <1>   0.1670 
 17 C       -1.2290    -9.2170    -0.1310 C.ar  1 <1>  -0.1430 
 18 C        1.2160    -9.7620     0.2790 C.3   1 <1>  -0.0970 
 19 C       -3.5410    -8.8510    -0.5520 C.3   1 <1>  -0.0170 
 20 C       -1.7750   -10.5830    -0.4830 C.3   1 <1>  -0.0170 
 21 C       -3.3010   -10.3720    -0.5090 C.3   1 <1>  -0.1600 
 22 H        2.5530     0.5250     0.4920 H     1 <1>   0.1500 
 23 H       -0.9700    -2.4720    -0.2810 H     1 <1>   0.4000 
 24 H        0.5310    -4.8770    -1.1560 H     1 <1>   0.0800 
 25 H       -1.1930    -4.6250    -1.2070 H     1 <1>   0.0800 
 26 H        4.2910    -4.4630     0.2920 H     1 <1>   0.0800 
 27 H        5.2580    -3.1020     0.8100 H     1 <1>   0.0800 
 28 H        5.0100    -3.4000    -0.8980 H     1 <1>   0.0800 
 29 H       -1.2660    -4.8560     1.2790 H     1 <1>   0.0800 
 30 H        0.4520    -5.1800     1.2720 H     1 <1>   0.0800 
 31 H        1.9940    -9.4230    -0.3810 H     1 <1>   0.0800 
 32 H        0.9340   -10.7590    -0.0020 H     1 <1>   0.0800 
 33 H        1.5980    -9.7770     1.2830 H     1 <1>   0.0800 
 34 H       -3.8000    -8.5240    -1.5430 H     1 <1>   0.0800 
 35 H       -4.3020    -8.5480     0.1450 H     1 <1>   0.0800 
 36 H       -1.4960   -11.3200     0.2500 H     1 <1>   0.0800 
 37 H       -1.4140   -10.8760    -1.4540 H     1 <1>   0.0800 
 38 H       -3.7560   -10.8680    -1.3490 H     1 <1>   0.0800 
 39 H       -3.7230   -10.7650     0.3990 H     1 <1>   0.0800 
@<TRIPOS>BOND
  1   1   2  1   
  2   2   3  ar  
  3   2   4  ar  
  4   3   5  ar  
  5   3   6  1   
  6   4   7  ar  
  7   4  22  1   
  8   5   8  ar  
  9   6   9  1   
 10   6  23  1   
 11   7   8  ar  
 12   8  10  1   
 13   9  11  1   
 14   9  24  1   
 15   9  25  1   
 16  10  26  1   
 17  10  27  1   
 18  10  28  1   
 19  11  12  1   
 20  11  29  1   
 21  11  30  1   
 22  12  13  ar  
 23  12  14  ar  
 24  13  15  ar  
 25  14  16  ar  
 26  15  17  ar  
 27  15  18  1   
 28  16  17  ar  
 29  16  19  1   
 30  17  20  1   
 31  18  31  1   
 32  18  32  1   
 33  18  33  1   
 34  19  21  1   
 35  19  34  1   
 36  19  35  1   
 37  20  21  1   
 38  20  36  1   
 39  20  37  1   
 40  21  38  1   
 41  21  39  1   
@<TRIPOS>SUBSTRUCTURE
  1 ****  11 GROUP 4 **** **** 0

# MOE 2024.06 (io_trps.svl 2023.06)
