@<TRIPOS>MOLECULE
NONAME
50 52 1 0 0 
SMALL
USER_CHARGES


@<TRIPOS>ATOM
  1 S        0.4110     0.0450    -1.0450 S.o2  1 <1>   1.3330 
  2 O        1.7860     0.4350    -1.2710 O.2   1 <1>  -0.6500 
  3 O       -0.1790    -1.0440    -1.7820 O.2   1 <1>  -0.6500 
  4 N        0.2410    -0.2650     0.6150 N.am  1 <1>  -0.8490 
  5 C       -0.5680     1.5320    -1.2750 C.3   1 <1>  -0.0550 
  6 C        1.3250    -1.1220     1.1140 C.3   1 <1>   0.1160 
  7 C       -1.0450    -0.8970     0.9460 C.3   1 <1>   0.1160 
  8 C       -0.1360     2.6970    -0.3570 C.3   1 <1>  -0.0800 
  9 C       -0.9190     3.9750    -0.6200 C.3   1 <1>   0.2000 
 10 C        1.3250     3.1220    -0.5260 C.3   1 <1>   0.3430 
 11 O       -2.1370     3.9320     0.0360 O.3   1 <1>  -0.6800 
 12 C       -0.0170     5.0990    -0.1050 C.3   1 <1>   0.3430 
 13 N        1.3850     4.5840    -0.2330 N.4   1 <1>  -0.9590 
 14 C        2.2310     4.9080     0.9470 C.3   1 <1>   0.4860 
 15 C        2.3940     6.4120     0.9970 C.ar  1 <1>  -0.1440 
 16 C        3.3010     7.0410     0.1700 C.ar  1 <1>  -0.1500 
 17 C        1.6080     7.1670     1.8820 C.ar  1 <1>  -0.1500 
 18 C        3.4140     8.4330     0.2110 C.ar  1 <1>  -0.1520 
 19 C        1.7170     8.5370     1.9230 C.ar  1 <1>  -0.1500 
 20 N        4.2210     9.2990    -0.4920 N.pl3 1 <1>   0.0480 
 21 C        2.6240     9.1800     1.0780 C.ar  1 <1>   0.0000 
 22 C        3.9340    10.5670    -0.0750 C.2   1 <1>  -0.3020 
 23 C        5.2380     8.9370    -1.4930 C.3   1 <1>   0.0160 
 24 C        2.9710    10.5300     0.8750 C.2   1 <1>  -0.1500 
 25 H       -0.4920     1.8360    -2.3020 H     1 <1>   0.0800 
 26 H       -1.6000     1.3060    -1.0870 H     1 <1>   0.0800 
 27 H        1.2060    -1.3000     2.1700 H     1 <1>   0.0800 
 28 H        2.2790    -0.6460     0.9600 H     1 <1>   0.0800 
 29 H        1.3250    -2.0670     0.5960 H     1 <1>   0.0800 
 30 H       -1.1310    -1.0260     2.0120 H     1 <1>   0.0800 
 31 H       -1.1250    -1.8640     0.4730 H     1 <1>   0.0800 
 32 H       -1.8640    -0.2840     0.6140 H     1 <1>   0.0800 
 33 H       -0.2630     2.4040     0.6710 H     1 <1>   0.0800 
 34 H       -1.1100     4.1180    -1.6710 H     1 <1>   0.0800 
 35 H        1.6370     2.9450    -1.5440 H     1 <1>   0.0800 
 36 H        1.9670     2.5510     0.1270 H     1 <1>   0.0800 
 37 H       -2.0610     3.6690     0.9760 H     1 <1>   0.4000 
 38 H       -0.2460     5.2920     0.9300 H     1 <1>   0.0800 
 39 H       -0.1540     6.0030    -0.6770 H     1 <1>   0.0800 
 40 H        1.8230     5.0700    -1.0290 H     1 <1>   0.4500 
 41 H        1.7720     4.5510     1.8550 H     1 <1>   0.0800 
 42 H        3.2010     4.4490     0.8470 H     1 <1>   0.0800 
 43 H        3.9310     6.4920    -0.5090 H     1 <1>   0.1500 
 44 H        0.9120     6.6800     2.5440 H     1 <1>   0.1500 
 45 H        1.1240     9.1310     2.5950 H     1 <1>   0.1500 
 46 H        4.4360    11.4290    -0.4780 H     1 <1>   0.1500 
 47 H        5.7210     9.8280    -1.8540 H     1 <1>   0.0800 
 48 H        4.7650     8.4300    -2.3140 H     1 <1>   0.0800 
 49 H        5.9700     8.2940    -1.0390 H     1 <1>   0.0800 
 50 H        2.5270    11.3560     1.4040 H     1 <1>   0.1500 
@<TRIPOS>BOND
  1   1   2  2   
  2   1   3  2   
  3   1   4  am  
  4   1   5  1   
  5   4   6  1   
  6   4   7  1   
  7   5   8  1   
  8   5  25  1   
  9   5  26  1   
 10   6  27  1   
 11   6  28  1   
 12   6  29  1   
 13   7  30  1   
 14   7  31  1   
 15   7  32  1   
 16   8   9  1   
 17   8  10  1   
 18   8  33  1   
 19   9  11  1   
 20   9  12  1   
 21   9  34  1   
 22  10  13  1   
 23  10  35  1   
 24  10  36  1   
 25  11  37  1   
 26  12  13  1   
 27  12  38  1   
 28  12  39  1   
 29  13  14  1   
 30  13  40  1   
 31  14  15  1   
 32  14  41  1   
 33  14  42  1   
 34  15  16  ar  
 35  15  17  ar  
 36  16  18  ar  
 37  16  43  1   
 38  17  19  ar  
 39  17  44  1   
 40  18  20  1   
 41  18  21  ar  
 42  19  21  ar  
 43  19  45  1   
 44  20  22  1   
 45  20  23  1   
 46  21  24  1   
 47  22  24  2   
 48  22  46  1   
 49  23  47  1   
 50  23  48  1   
 51  23  49  1   
 52  24  50  1   
@<TRIPOS>SUBSTRUCTURE
  1 ****  13 GROUP 4 **** **** 0

# MOE 2024.06 (io_trps.svl 2023.06)
