@<TRIPOS>MOLECULE
NONAME
47 49 1 0 0 
SMALL
USER_CHARGES


@<TRIPOS>ATOM
  1 O        2.3280    -1.0390    -2.4200 O.2   1 <1>  -0.5700 
  2 C        2.5540    -1.3210    -1.2670 C.2   1 <1>   0.5690 
  3 N        3.0360    -0.3690    -0.3940 N.am  1 <1>  -0.6600 
  4 C        2.1950    -2.7410    -0.7990 C.3   1 <1>   0.1710 
  5 C        3.0860    -0.5570     1.0850 C.3   1 <1>   0.1400 
  6 C        3.0670     1.0670    -0.7920 C.3   1 <1>   0.1400 
  7 N        1.1210    -2.7700     0.2370 N.3   1 <1>  -0.8100 
  8 C        1.8560     0.1240     1.7170 C.3   1 <1>   0.3430 
  9 C        1.8410     1.7790    -0.1860 C.3   1 <1>   0.3430 
 10 C       -0.1420    -2.2010    -0.2500 C.3   1 <1>   0.1100 
 11 C        0.7740    -4.1300     0.6770 C.3   1 <1>   0.1100 
 12 N        1.7400     1.5720     1.3060 N.4   1 <1>  -0.9060 
 13 C       -1.1530    -2.6480     0.7960 C.3   1 <1>   0.2000 
 14 C       -0.7140    -4.0860     1.0890 C.3   1 <1>  -0.0800 
 15 O       -0.9300    -1.8970     1.9400 O.3   1 <1>  -0.6800 
 16 C       -1.5610    -5.1040     0.3040 C.3   1 <1>   0.0200 
 17 C       -1.0530    -6.5190     0.5060 C.2   1 <1>  -0.0400 
 18 O       -0.9550    -7.0140     1.7110 O.3   1 <1>  -0.0190 
 19 C       -0.6390    -7.4560    -0.3600 C.2   1 <1>  -0.1500 
 20 N       -0.4900    -8.2290     1.6990 N.2   1 <1>  -0.4100 
 21 C       -0.2930    -8.5240     0.4640 C.2   1 <1>   0.1080 
 22 C        0.2410    -9.8550    -0.0170 C.3   1 <1>  -0.0590 
 23 H        3.0830    -3.2030    -0.4070 H     1 <1>   0.0800 
 24 H        1.8830    -3.3100    -1.6580 H     1 <1>   0.0800 
 25 H        3.1000    -1.6000     1.3460 H     1 <1>   0.0800 
 26 H        3.9900    -0.1210     1.4730 H     1 <1>   0.0800 
 27 H        3.9780     1.5220    -0.4440 H     1 <1>   0.0800 
 28 H        3.0460     1.1670    -1.8650 H     1 <1>   0.0800 
 29 H        1.9150     0.0470     2.7910 H     1 <1>   0.0800 
 30 H        0.9760    -0.4120     1.3990 H     1 <1>   0.0800 
 31 H        0.9600     1.3840    -0.6640 H     1 <1>   0.0800 
 32 H        1.8930     2.8320    -0.4110 H     1 <1>   0.0800 
 33 H       -0.1030    -1.1300    -0.3360 H     1 <1>   0.0800 
 34 H       -0.3960    -2.6240    -1.2080 H     1 <1>   0.0800 
 35 H        0.9220    -4.8300    -0.1290 H     1 <1>   0.0800 
 36 H        1.3960    -4.4260     1.5060 H     1 <1>   0.0800 
 37 H        2.4810     2.1100     1.7700 H     1 <1>   0.4500 
 38 H        0.8420     1.9430     1.6430 H     1 <1>   0.4500 
 39 H       -2.1800    -2.5350     0.4910 H     1 <1>   0.0800 
 40 H       -0.8170    -4.3090     2.1380 H     1 <1>   0.0800 
 41 H       -0.0850    -2.2160     2.3120 H     1 <1>   0.4000 
 42 H       -1.5450    -4.8730    -0.7460 H     1 <1>   0.0800 
 43 H       -2.5820    -5.0560     0.6420 H     1 <1>   0.0800 
 44 H       -0.5730    -7.4290    -1.4320 H     1 <1>   0.1500 
 45 H        1.1520    -9.7060    -0.5680 H     1 <1>   0.0800 
 46 H       -0.4840   -10.3320    -0.6500 H     1 <1>   0.0800 
 47 H        0.4430   -10.4940     0.8230 H     1 <1>   0.0800 
@<TRIPOS>BOND
  1   1   2  2   
  2   2   3  am  
  3   2   4  1   
  4   3   5  1   
  5   3   6  1   
  6   4   7  1   
  7   4  23  1   
  8   4  24  1   
  9   5   8  1   
 10   5  25  1   
 11   5  26  1   
 12   6   9  1   
 13   6  27  1   
 14   6  28  1   
 15   7  10  1   
 16   7  11  1   
 17   8  12  1   
 18   8  29  1   
 19   8  30  1   
 20   9  12  1   
 21   9  31  1   
 22   9  32  1   
 23  10  13  1   
 24  10  33  1   
 25  10  34  1   
 26  11  14  1   
 27  11  35  1   
 28  11  36  1   
 29  12  37  1   
 30  12  38  1   
 31  13  14  1   
 32  13  15  1   
 33  13  39  1   
 34  14  16  1   
 35  14  40  1   
 36  15  41  1   
 37  16  17  1   
 38  16  42  1   
 39  16  43  1   
 40  17  18  1   
 41  17  19  2   
 42  18  20  1   
 43  19  21  1   
 44  19  44  1   
 45  20  21  2   
 46  21  22  1   
 47  22  45  1   
 48  22  46  1   
 49  22  47  1   
@<TRIPOS>SUBSTRUCTURE
  1 ****   7 GROUP 4 **** **** 0

# MOE 2024.06 (io_trps.svl 2023.06)
