@<TRIPOS>MOLECULE
NONAME
58 62 1 0 0 
SMALL
USER_CHARGES


@<TRIPOS>ATOM
  1 O       -0.7760    -0.0480     2.2960 O.2   1 <1>  -0.5700 
  2 C       -1.6460    -0.0760     1.4450 C.2   1 <1>   0.5440 
  3 N       -2.2830    -1.2660     1.2010 N.am  1 <1>  -0.6600 
  4 C       -1.9940     1.1280     0.7170 C.ar  1 <1>   0.0860 
  5 C       -2.0060    -2.5530     1.8230 C.3   1 <1>   0.2200 
  6 C       -3.6410    -1.5030     0.7510 C.3   1 <1>   0.2200 
  7 C       -2.2080     1.1180    -0.6600 C.ar  1 <1>  -0.1500 
  8 C       -2.1190     2.3550     1.3650 C.ar  1 <1>  -0.1500 
  9 C       -2.2740    -3.5190     0.6360 C.3   1 <1>   0.0610 
 10 C       -3.1570    -2.5620     2.8490 C.3   1 <1>  -0.1600 
 11 C       -3.4440    -2.7730    -0.0880 C.3   1 <1>  -0.1600 
 12 C       -4.3050    -1.8790     2.0810 C.3   1 <1>  -0.1600 
 13 C       -2.5460     2.2660    -1.3500 C.ar  1 <1>  -0.1500 
 14 C       -2.4570     3.5040     0.6760 C.ar  1 <1>  -0.1500 
 15 C       -2.6250    -4.9260     1.1450 C.2   1 <1>   0.5690 
 16 C       -1.0200    -3.7120    -0.2680 C.3   1 <1>  -0.0160 
 17 C       -2.6840     3.4960    -0.7010 C.ar  1 <1>   0.0540 
 18 O       -2.0010    -5.3840     2.0730 O.2   1 <1>  -0.5700 
 19 N       -3.5830    -5.6650     0.5170 N.am  1 <1>  -0.7300 
 20 C       -0.5110    -2.5230    -1.0810 C.ar  1 <1>  -0.1440 
 21 C       -3.0420     4.7090    -1.4170 C.2   1 <1>   0.4620 
 22 C       -3.9910    -7.0420     0.8990 C.3   1 <1>   0.0600 
 23 C       -0.8740    -2.3690    -2.4120 C.ar  1 <1>  -0.1500 
 24 C        0.3500    -1.5980    -0.5100 C.ar  1 <1>  -0.1500 
 25 N       -3.2610     4.7340    -2.7390 N.2   1 <1>  -0.2270 
 26 N       -3.1880     5.8740    -0.8690 N.2   1 <1>  -0.7070 
 27 C       -0.4010    -1.2990    -3.1520 C.ar  1 <1>  -0.1500 
 28 C        0.8230    -0.5270    -1.2460 C.ar  1 <1>  -0.1500 
 29 N       -3.5500     5.9340    -3.0410 N.2   1 <1>  -0.4180 
 30 N       -3.5020     6.6070    -1.9090 N.pl3 1 <1>   0.5800 
 31 C        0.4470    -0.3750    -2.5690 C.ar  1 <1>  -0.1500 
 32 C       -3.7800     8.0420    -1.8160 C.3   1 <1>   0.0160 
 33 H       -1.0240    -2.6300     2.2590 H     1 <1>   0.0800 
 34 H       -4.1000    -0.6760     0.2350 H     1 <1>   0.0800 
 35 H       -2.0950     0.1880    -1.1930 H     1 <1>   0.1500 
 36 H       -1.9420     2.3950     2.4260 H     1 <1>   0.1500 
 37 H       -3.4180    -3.5420     3.2020 H     1 <1>   0.0800 
 38 H       -2.8690    -1.9650     3.6970 H     1 <1>   0.0800 
 39 H       -4.3630    -3.3260    -0.1260 H     1 <1>   0.0800 
 40 H       -3.1860    -2.4920    -1.0900 H     1 <1>   0.0800 
 41 H       -4.6270    -0.9920     2.5970 H     1 <1>   0.0800 
 42 H       -5.1490    -2.5310     1.9410 H     1 <1>   0.0800 
 43 H       -2.7000     2.2070    -2.4130 H     1 <1>   0.1500 
 44 H       -2.5450     4.4330     1.2150 H     1 <1>   0.1500 
 45 H       -0.2110    -4.0610     0.3510 H     1 <1>   0.0800 
 46 H       -1.2250    -4.5110    -0.9590 H     1 <1>   0.0800 
 47 H       -4.0560    -5.2750    -0.2990 H     1 <1>   0.3700 
 48 H       -3.4480    -7.3680     1.7700 H     1 <1>   0.0800 
 49 H       -3.7850    -7.7200     0.0890 H     1 <1>   0.0800 
 50 H       -5.0440    -7.0620     1.1210 H     1 <1>   0.0800 
 51 H       -1.5260    -3.0840    -2.8810 H     1 <1>   0.1500 
 52 H        0.6500    -1.7010     0.5190 H     1 <1>   0.1500 
 53 H       -0.6900    -1.1860    -4.1830 H     1 <1>   0.1500 
 54 H        1.4810     0.1880    -0.7840 H     1 <1>   0.1500 
 55 H        0.8150     0.4590    -3.1400 H     1 <1>   0.1500 
 56 H       -3.1220     8.4800    -1.0890 H     1 <1>   0.0800 
 57 H       -4.8000     8.1790    -1.5130 H     1 <1>   0.0800 
 58 H       -3.6180     8.4970    -2.7750 H     1 <1>   0.0800 
@<TRIPOS>BOND
  1   1   2  2   
  2   2   3  am  
  3   2   4  1   
  4   3   5  1   
  5   3   6  1   
  6   4   7  ar  
  7   4   8  ar  
  8   5   9  1   
  9   5  10  1   
 10   5  33  1   
 11   6  11  1   
 12   6  12  1   
 13   6  34  1   
 14   7  13  ar  
 15   7  35  1   
 16   8  14  ar  
 17   8  36  1   
 18   9  11  1   
 19   9  15  1   
 20   9  16  1   
 21  10  12  1   
 22  10  37  1   
 23  10  38  1   
 24  11  39  1   
 25  11  40  1   
 26  12  41  1   
 27  12  42  1   
 28  13  17  ar  
 29  13  43  1   
 30  14  17  ar  
 31  14  44  1   
 32  15  18  2   
 33  15  19  am  
 34  16  20  1   
 35  16  45  1   
 36  16  46  1   
 37  17  21  1   
 38  19  22  1   
 39  19  47  1   
 40  20  23  ar  
 41  20  24  ar  
 42  21  25  1   
 43  21  26  2   
 44  22  48  1   
 45  22  49  1   
 46  22  50  1   
 47  23  27  ar  
 48  23  51  1   
 49  24  28  ar  
 50  24  52  1   
 51  25  29  2   
 52  26  30  1   
 53  27  31  ar  
 54  27  53  1   
 55  28  31  ar  
 56  28  54  1   
 57  29  30  1   
 58  30  32  1   
 59  31  55  1   
 60  32  56  1   
 61  32  57  1   
 62  32  58  1   
@<TRIPOS>SUBSTRUCTURE
  1 ****   7 GROUP 4 **** **** 0

# MOE 2024.06 (io_trps.svl 2023.06)
