@<TRIPOS>MOLECULE
NONAME
22 22 1 0 0 
SMALL
USER_CHARGES


@<TRIPOS>ATOM
  1 S       -0.2440     0.0780     0.0060 S.3   1 <1>  -0.0800 
  2 C        0.5370    -1.4950     0.0580 C.2   1 <1>  -0.1400 
  3 C        1.3040     0.9080     0.0210 C.2   1 <1>  -0.1400 
  4 C        1.8750    -1.3490     0.0880 C.2   1 <1>  -0.1500 
  5 C       -0.3800    -2.7030     0.0620 C.3   1 <1>   0.3000 
  6 C        2.3100     0.0140     0.0660 C.2   1 <1>  -0.1500 
  7 C        1.2530     2.4260    -0.0150 C.3   1 <1>   0.0200 
  8 O        0.3720    -3.8360    -0.1850 O.3   1 <1>  -0.6800 
  9 C        2.6520     3.0560     0.0010 C.3   1 <1>  -0.1600 
 10 C        2.5830     4.5860    -0.0360 C.3   1 <1>  -0.2400 
 11 H        2.5910    -2.1520     0.1320 H     1 <1>   0.1500 
 12 H       -1.1210    -2.6170    -0.7140 H     1 <1>   0.0800 
 13 H       -0.8660    -2.8160     1.0160 H     1 <1>   0.0800 
 14 H        3.3600     0.2500     0.0850 H     1 <1>   0.1500 
 15 H        0.6940     2.7720     0.8360 H     1 <1>   0.0800 
 16 H        0.7320     2.7320    -0.9050 H     1 <1>   0.0800 
 17 H        0.9490    -3.6650    -0.9530 H     1 <1>   0.4000 
 18 H        3.2100     2.7050    -0.8510 H     1 <1>   0.0800 
 19 H        3.1710     2.7460     0.8920 H     1 <1>   0.0800 
 20 H        2.0860     4.9200    -0.9300 H     1 <1>   0.0800 
 21 H        3.5760     5.0000    -0.0240 H     1 <1>   0.0800 
 22 H        2.0470     4.9600     0.8190 H     1 <1>   0.0800 
@<TRIPOS>BOND
  1   1   2  1   
  2   1   3  1   
  3   2   4  2   
  4   2   5  1   
  5   3   6  2   
  6   3   7  1   
  7   4   6  1   
  8   4  11  1   
  9   5   8  1   
 10   5  12  1   
 11   5  13  1   
 12   6  14  1   
 13   7   9  1   
 14   7  15  1   
 15   7  16  1   
 16   8  17  1   
 17   9  10  1   
 18   9  18  1   
 19   9  19  1   
 20  10  20  1   
 21  10  21  1   
 22  10  22  1   
@<TRIPOS>SUBSTRUCTURE
  1 ****   3 GROUP 4 **** **** 0

# MOE 2024.06 (io_trps.svl 2023.06)
