@<TRIPOS>MOLECULE
NONAME
59 61 1 0 0 
SMALL
USER_CHARGES


@<TRIPOS>ATOM
  1 CL       0.5660     0.3720     3.2260 Cl    1 <1>  -0.1770 
  2 C        1.5940    -0.5350     2.1490 C.ar  1 <1>   0.1770 
  3 C        2.4810     0.1380     1.3330 C.ar  1 <1>  -0.1500 
  4 C        1.4870    -1.9120     2.1280 C.ar  1 <1>  -0.1500 
  5 C        3.2960    -0.5850     0.4680 C.ar  1 <1>   0.0830 
  6 C        2.2930    -2.6450     1.2700 C.ar  1 <1>  -0.1440 
  7 O        4.1570     0.0210    -0.3970 O.3   1 <1>  -0.3620 
  8 C        3.2150    -1.9840     0.4620 C.ar  1 <1>   0.0830 
  9 C        2.1610    -4.1530     1.1980 C.3   1 <1>   0.4870 
 10 C        4.2770     1.4260    -0.4680 C.3   1 <1>   0.0400 
 11 O        3.9890    -2.7450    -0.3600 O.3   1 <1>  -0.3630 
 12 N        1.8530    -4.5720    -0.2030 N.4   1 <1>  -0.9590 
 13 C        5.3930    -2.7140    -0.1870 C.3   1 <1>   0.2000 
 14 C        0.4770    -4.3380    -0.7380 C.3   1 <1>   0.4230 
 15 C        2.2660    -5.9870    -0.4210 C.3   1 <1>   0.2630 
 16 C        6.0230    -3.0140    -1.5440 C.3   1 <1>  -0.2400 
 17 C        5.7740    -3.7660     0.8550 C.3   1 <1>  -0.2400 
 18 C       -0.6660    -4.5420     0.2550 C.3   1 <1>  -0.1600 
 19 C        0.2530    -2.9340    -1.2850 C.3   1 <1>  -0.1600 
 20 C       -1.8680    -3.8710    -0.4240 C.3   1 <1>  -0.0800 
 21 C       -1.2740    -2.8030    -1.3750 C.3   1 <1>  -0.0800 
 22 C       -2.9160    -3.3440     0.5790 C.3   1 <1>   0.1400 
 23 C       -1.7800    -1.3760    -1.0920 C.3   1 <1>  -0.0990 
 24 N       -3.8030    -2.3590    -0.0830 N.am  1 <1>  -0.6600 
 25 C       -3.2820    -1.3840    -0.8890 C.2   1 <1>   0.5690 
 26 C       -5.2560    -2.4450     0.2280 C.3   1 <1>   0.0600 
 27 O       -3.9520    -0.5440    -1.4390 O.2   1 <1>  -0.5700 
 28 H        2.5090     1.2100     1.3890 H     1 <1>   0.1500 
 29 H        0.7730    -2.3830     2.7810 H     1 <1>   0.1500 
 30 H        1.4030    -4.5040     1.8770 H     1 <1>   0.0800 
 31 H        3.1030    -4.5820     1.5000 H     1 <1>   0.0800 
 32 H        5.0080     1.6610    -1.2220 H     1 <1>   0.0800 
 33 H        4.6070     1.8000     0.4850 H     1 <1>   0.0800 
 34 H        3.3260     1.8480    -0.7420 H     1 <1>   0.0800 
 35 H        2.4880    -3.9690    -0.7610 H     1 <1>   0.4500 
 36 H        5.6990    -1.7380     0.1470 H     1 <1>   0.0800 
 37 H        0.3100    -5.0130    -1.5630 H     1 <1>   0.0800 
 38 H        1.6520    -6.6530     0.1640 H     1 <1>   0.0800 
 39 H        3.2970    -6.1240    -0.1360 H     1 <1>   0.0800 
 40 H        2.1640    -6.2500    -1.4620 H     1 <1>   0.0800 
 41 H        5.7240    -3.9820    -1.9020 H     1 <1>   0.0800 
 42 H        7.0950    -2.9950    -1.4610 H     1 <1>   0.0800 
 43 H        5.7300    -2.2610    -2.2540 H     1 <1>   0.0800 
 44 H        5.4640    -4.7450     0.5410 H     1 <1>   0.0800 
 45 H        5.3340    -3.5250     1.8050 H     1 <1>   0.0800 
 46 H        6.8420    -3.7740     0.9800 H     1 <1>   0.0800 
 47 H       -0.8550    -5.5840     0.4420 H     1 <1>   0.0800 
 48 H       -0.4700    -4.0300     1.1780 H     1 <1>   0.0800 
 49 H        0.6290    -2.1870    -0.6140 H     1 <1>   0.0800 
 50 H        0.7100    -2.8060    -2.2500 H     1 <1>   0.0800 
 51 H       -2.3600    -4.6080    -1.0370 H     1 <1>   0.0800 
 52 H       -1.5830    -3.0590    -2.3760 H     1 <1>   0.0800 
 53 H       -2.4340    -2.8530     1.4070 H     1 <1>   0.0800 
 54 H       -3.4960    -4.1650     0.9650 H     1 <1>   0.0800 
 55 H       -1.5340    -0.7250    -1.9110 H     1 <1>   0.0800 
 56 H       -1.3330    -0.9780    -0.1990 H     1 <1>   0.0800 
 57 H       -5.6420    -3.3970    -0.0910 H     1 <1>   0.0800 
 58 H       -5.7990    -1.6660    -0.2810 H     1 <1>   0.0800 
 59 H       -5.4100    -2.3330     1.2870 H     1 <1>   0.0800 
@<TRIPOS>BOND
  1   1   2  1   
  2   2   3  ar  
  3   2   4  ar  
  4   3   5  ar  
  5   3  28  1   
  6   4   6  ar  
  7   4  29  1   
  8   5   7  1   
  9   5   8  ar  
 10   6   8  ar  
 11   6   9  1   
 12   7  10  1   
 13   8  11  1   
 14   9  12  1   
 15   9  30  1   
 16   9  31  1   
 17  10  32  1   
 18  10  33  1   
 19  10  34  1   
 20  11  13  1   
 21  12  14  1   
 22  12  15  1   
 23  12  35  1   
 24  13  16  1   
 25  13  17  1   
 26  13  36  1   
 27  14  18  1   
 28  14  19  1   
 29  14  37  1   
 30  15  38  1   
 31  15  39  1   
 32  15  40  1   
 33  16  41  1   
 34  16  42  1   
 35  16  43  1   
 36  17  44  1   
 37  17  45  1   
 38  17  46  1   
 39  18  20  1   
 40  18  47  1   
 41  18  48  1   
 42  19  21  1   
 43  19  49  1   
 44  19  50  1   
 45  20  21  1   
 46  20  22  1   
 47  20  51  1   
 48  21  23  1   
 49  21  52  1   
 50  22  24  1   
 51  22  53  1   
 52  22  54  1   
 53  23  25  1   
 54  23  55  1   
 55  23  56  1   
 56  24  25  am  
 57  24  26  1   
 58  25  27  2   
 59  26  57  1   
 60  26  58  1   
 61  26  59  1   
@<TRIPOS>SUBSTRUCTURE
  1 ****  19 GROUP 4 **** **** 0

# MOE 2024.06 (io_trps.svl 2023.06)
