@<TRIPOS>MOLECULE
NONAME
56 58 1 0 0 
SMALL
USER_CHARGES


@<TRIPOS>ATOM
  1 CL      -0.1930    -0.7690     1.2510 Cl    1 <1>  -0.1770 
  2 C       -1.2790    -1.0570    -0.0890 C.ar  1 <1>   0.1770 
  3 C       -1.9530    -0.0040    -0.6930 C.ar  1 <1>   0.0820 
  4 C       -1.5060    -2.3590    -0.4890 C.ar  1 <1>  -0.1500 
  5 O       -1.9200     1.2280    -0.1460 O.3   1 <1>  -0.3630 
  6 C       -2.7590    -0.2470    -1.7940 C.ar  1 <1>  -0.1500 
  7 C       -2.4130    -2.6090    -1.5110 C.ar  1 <1>  -0.1440 
  8 C       -3.1230     1.6120     0.5170 C.3   1 <1>   0.1810 
  9 C       -2.9910    -1.5480    -2.1990 C.ar  1 <1>  -0.1500 
 10 C       -2.8590    -4.0250    -1.8030 C.3   1 <1>   0.4870 
 11 C       -3.5810     0.5620     1.5410 C.2   1 <1>   0.5690 
 12 N       -3.7440    -4.4400    -0.6650 N.4   1 <1>  -0.9590 
 13 O       -4.3170    -0.3410     1.2100 O.2   1 <1>  -0.5700 
 14 N       -3.1470     0.6380     2.8150 N.am  1 <1>  -0.8000 
 15 C       -4.2020    -5.8710    -0.8020 C.3   1 <1>   0.3430 
 16 C       -4.9010    -3.4920    -0.5120 C.3   1 <1>   0.3430 
 17 C       -5.1620    -6.3380     0.3410 C.3   1 <1>   0.4230 
 18 C       -5.7610    -3.9060     0.6830 C.3   1 <1>  -0.1600 
 19 N       -5.6120    -7.7980     0.2670 N.4   1 <1>  -0.9590 
 20 C       -6.3360    -5.3440     0.5820 C.3   1 <1>   0.0000 
 21 C       -6.7850    -8.1160     1.1540 C.3   1 <1>   0.3430 
 22 C       -5.9080    -8.3020    -1.1180 C.3   1 <1>   0.2630 
 23 C       -7.0050    -5.6920     1.9420 C.3   1 <1>  -0.1600 
 24 C       -7.4330    -5.3810    -0.5230 C.3   1 <1>   0.1200 
 25 C       -6.8470    -7.1700     2.3530 C.3   1 <1>  -0.1600 
 26 O       -6.8850    -5.3520    -1.7980 O.3   1 <1>  -0.6800 
 27 H       -0.9920    -3.1490     0.0290 H     1 <1>   0.1500 
 28 H       -3.2280     0.5770    -2.3040 H     1 <1>   0.1500 
 29 H       -2.9390     2.5490     1.0070 H     1 <1>   0.0800 
 30 H       -3.8880     1.7530    -0.2240 H     1 <1>   0.0800 
 31 H       -3.6530    -1.7190    -3.0330 H     1 <1>   0.1500 
 32 H       -1.9980    -4.6700    -1.8750 H     1 <1>   0.0800 
 33 H       -3.4000    -4.0570    -2.7350 H     1 <1>   0.0800 
 34 H       -3.1700    -4.3150     0.1800 H     1 <1>   0.4500 
 35 H       -3.4380    -0.0620     3.4980 H     1 <1>   0.3700 
 36 H       -2.4400     1.3040     3.1330 H     1 <1>   0.3700 
 37 H       -4.7100    -5.9770    -1.7450 H     1 <1>   0.0800 
 38 H       -3.3390    -6.5160    -0.8130 H     1 <1>   0.0800 
 39 H       -4.5420    -2.4870    -0.3430 H     1 <1>   0.0800 
 40 H       -5.4980    -3.4850    -1.4100 H     1 <1>   0.0800 
 41 H       -4.5670    -6.2680     1.2360 H     1 <1>   0.0800 
 42 H       -5.1600    -3.7950     1.5700 H     1 <1>   0.0800 
 43 H       -6.5680    -3.1980     0.7750 H     1 <1>   0.0800 
 44 H       -4.8360    -8.3700     0.6350 H     1 <1>   0.4500 
 45 H       -7.7020    -8.0180     0.5960 H     1 <1>   0.0800 
 46 H       -6.7200    -9.1370     1.4970 H     1 <1>   0.0800 
 47 H       -6.7180    -7.7450    -1.5590 H     1 <1>   0.0800 
 48 H       -6.1910    -9.3420    -1.0840 H     1 <1>   0.0800 
 49 H       -5.0420    -8.2110    -1.7530 H     1 <1>   0.0800 
 50 H       -6.5920    -5.0960     2.7410 H     1 <1>   0.0800 
 51 H       -8.0540    -5.4440     1.9070 H     1 <1>   0.0800 
 52 H       -8.0920    -4.5330    -0.4240 H     1 <1>   0.0800 
 53 H       -8.0340    -6.2710    -0.4500 H     1 <1>   0.0800 
 54 H       -7.6770    -7.4510     2.9800 H     1 <1>   0.0800 
 55 H       -5.9570    -7.2980     2.9460 H     1 <1>   0.0800 
 56 H       -7.5930    -5.1970    -2.4660 H     1 <1>   0.4000 
@<TRIPOS>BOND
  1   1   2  1   
  2   2   3  ar  
  3   2   4  ar  
  4   3   5  1   
  5   3   6  ar  
  6   4   7  ar  
  7   4  27  1   
  8   5   8  1   
  9   6   9  ar  
 10   6  28  1   
 11   7   9  ar  
 12   7  10  1   
 13   8  11  1   
 14   8  29  1   
 15   8  30  1   
 16   9  31  1   
 17  10  12  1   
 18  10  32  1   
 19  10  33  1   
 20  11  13  2   
 21  11  14  am  
 22  12  15  1   
 23  12  16  1   
 24  12  34  1   
 25  14  35  1   
 26  14  36  1   
 27  15  17  1   
 28  15  37  1   
 29  15  38  1   
 30  16  18  1   
 31  16  39  1   
 32  16  40  1   
 33  17  19  1   
 34  17  20  1   
 35  17  41  1   
 36  18  20  1   
 37  18  42  1   
 38  18  43  1   
 39  19  21  1   
 40  19  22  1   
 41  19  44  1   
 42  20  23  1   
 43  20  24  1   
 44  21  25  1   
 45  21  45  1   
 46  21  46  1   
 47  22  47  1   
 48  22  48  1   
 49  22  49  1   
 50  23  25  1   
 51  23  50  1   
 52  23  51  1   
 53  24  26  1   
 54  24  52  1   
 55  24  53  1   
 56  25  54  1   
 57  25  55  1   
 58  26  56  1   
@<TRIPOS>SUBSTRUCTURE
  1 ****  16 GROUP 4 **** **** 0

# MOE 2024.06 (io_trps.svl 2023.06)
