@<TRIPOS>MOLECULE
NONAME
62 65 1 0 0 
SMALL
USER_CHARGES


@<TRIPOS>ATOM
  1 O        1.7030     1.9280    -1.3210 O.3   1 <1>  -0.0190 
  2 N        2.5090     0.9190    -1.1990 N.2   1 <1>  -0.4100 
  3 C        0.7950     1.9460    -0.3810 C.2   1 <1>  -0.0400 
  4 C        2.1010     0.2570    -0.1750 C.2   1 <1>   0.1080 
  5 C        0.9930     0.8740     0.4000 C.2   1 <1>  -0.1500 
  6 C       -0.2230     3.0690    -0.3360 C.3   1 <1>   0.0200 
  7 C        2.7460    -1.0160     0.3280 C.3   1 <1>  -0.0590 
  8 C        0.4640     4.4160    -0.0540 C.3   1 <1>  -0.0800 
  9 C       -0.5000     5.5960    -0.0560 C.3   1 <1>   0.2000 
 10 C        1.5020     4.8110    -1.1030 C.3   1 <1>   0.3430 
 11 O       -1.1130     5.7170     1.1800 O.3   1 <1>  -0.6800 
 12 C        0.3580     6.8200    -0.3950 C.3   1 <1>   0.3430 
 13 N        1.6100     6.2980    -1.0430 N.4   1 <1>  -0.9590 
 14 C        2.8450     6.7470    -0.3420 C.3   1 <1>   0.4860 
 15 C        2.9500     8.2530    -0.4810 C.ar  1 <1>  -0.1430 
 16 C        2.6080     9.0760     0.5840 C.ar  1 <1>  -0.1500 
 17 C        3.3800     8.8230    -1.6720 C.ar  1 <1>  -0.1500 
 18 C        2.6710    10.4530     0.4650 C.ar  1 <1>   0.0820 
 19 C        3.4640    10.1990    -1.7940 C.ar  1 <1>  -0.1500 
 20 O        2.2730    11.1700     1.5480 O.3   1 <1>  -0.3630 
 21 C        3.1260    11.0190    -0.7310 C.ar  1 <1>   0.0820 
 22 C        1.3680    12.2410     1.3600 C.3   1 <1>   0.0400 
 23 O        3.2630    12.3530    -0.9020 O.3   1 <1>  -0.3630 
 24 C        4.3460    12.9590    -0.2240 C.3   1 <1>   0.2640 
 25 C        4.1080    14.4590    -0.1440 C.ar  1 <1>  -0.1430 
 26 C        4.1530    15.1110     1.0790 C.ar  1 <1>  -0.1500 
 27 C        3.8470    15.1930    -1.2910 C.ar  1 <1>  -0.1500 
 28 C        3.9410    16.4770     1.1530 C.ar  1 <1>  -0.1500 
 29 C        3.6360    16.5590    -1.2160 C.ar  1 <1>  -0.1500 
 30 C        3.6800    17.2090     0.0060 C.ar  1 <1>  -0.1430 
 31 C        3.4500    18.7070     0.0870 C.3   1 <1>  -0.0970 
 32 H        0.4550     0.5360     1.2670 H     1 <1>   0.1500 
 33 H       -0.7530     3.0980    -1.2720 H     1 <1>   0.0800 
 34 H       -0.9400     2.8620     0.4410 H     1 <1>   0.0800 
 35 H        2.0330    -1.8190     0.3040 H     1 <1>   0.0800 
 36 H        3.0920    -0.8790     1.3360 H     1 <1>   0.0800 
 37 H        3.5820    -1.2760    -0.2950 H     1 <1>   0.0800 
 38 H        0.9720     4.3590     0.8930 H     1 <1>   0.0800 
 39 H       -1.2710     5.4800    -0.8000 H     1 <1>   0.0800 
 40 H        1.1490     4.5140    -2.0790 H     1 <1>   0.0800 
 41 H        2.4490     4.3260    -0.9200 H     1 <1>   0.0800 
 42 H       -0.4940     5.6130     1.9310 H     1 <1>   0.4000 
 43 H        0.5960     7.3560     0.5090 H     1 <1>   0.0800 
 44 H       -0.1750     7.4760    -1.0640 H     1 <1>   0.0800 
 45 H        1.6650     6.6800    -1.9970 H     1 <1>   0.4500 
 46 H        2.8080     6.4720     0.6990 H     1 <1>   0.0800 
 47 H        3.7130     6.2870    -0.7870 H     1 <1>   0.0800 
 48 H        2.2810     8.6690     1.5250 H     1 <1>   0.1500 
 49 H        3.6600     8.2120    -2.5140 H     1 <1>   0.1500 
 50 H        3.7990    10.6490    -2.7130 H     1 <1>   0.1500 
 51 H        0.8650    12.4230     2.2930 H     1 <1>   0.0800 
 52 H        0.6530    11.9750     0.6020 H     1 <1>   0.0800 
 53 H        1.9100    13.1220     1.0690 H     1 <1>   0.0800 
 54 H        4.4220    12.5360     0.7620 H     1 <1>   0.0800 
 55 H        5.2450    12.7480    -0.7740 H     1 <1>   0.0800 
 56 H        4.3530    14.5610     1.9820 H     1 <1>   0.1500 
 57 H        3.8050    14.7000    -2.2460 H     1 <1>   0.1500 
 58 H        3.9810    16.9690     2.1090 H     1 <1>   0.1500 
 59 H        3.4350    17.1130    -2.1160 H     1 <1>   0.1500 
 60 H        3.0180    18.9710     1.0350 H     1 <1>   0.0800 
 61 H        2.7790    19.0260    -0.6910 H     1 <1>   0.0800 
 62 H        4.3850    19.2250    -0.0260 H     1 <1>   0.0800 
@<TRIPOS>BOND
  1   1   2  1   
  2   1   3  1   
  3   2   4  2   
  4   3   5  2   
  5   3   6  1   
  6   4   5  1   
  7   4   7  1   
  8   5  32  1   
  9   6   8  1   
 10   6  33  1   
 11   6  34  1   
 12   7  35  1   
 13   7  36  1   
 14   7  37  1   
 15   8   9  1   
 16   8  10  1   
 17   8  38  1   
 18   9  11  1   
 19   9  12  1   
 20   9  39  1   
 21  10  13  1   
 22  10  40  1   
 23  10  41  1   
 24  11  42  1   
 25  12  13  1   
 26  12  43  1   
 27  12  44  1   
 28  13  14  1   
 29  13  45  1   
 30  14  15  1   
 31  14  46  1   
 32  14  47  1   
 33  15  16  ar  
 34  15  17  ar  
 35  16  18  ar  
 36  16  48  1   
 37  17  19  ar  
 38  17  49  1   
 39  18  20  1   
 40  18  21  ar  
 41  19  21  ar  
 42  19  50  1   
 43  20  22  1   
 44  21  23  1   
 45  22  51  1   
 46  22  52  1   
 47  22  53  1   
 48  23  24  1   
 49  24  25  1   
 50  24  54  1   
 51  24  55  1   
 52  25  26  ar  
 53  25  27  ar  
 54  26  28  ar  
 55  26  56  1   
 56  27  29  ar  
 57  27  57  1   
 58  28  30  ar  
 59  28  58  1   
 60  29  30  ar  
 61  29  59  1   
 62  30  31  1   
 63  31  60  1   
 64  31  61  1   
 65  31  62  1   
@<TRIPOS>SUBSTRUCTURE
  1 ****  15 GROUP 4 **** **** 0

# MOE 2024.06 (io_trps.svl 2023.06)
