@<TRIPOS>MOLECULE
NONAME
47 50 1 0 0 
SMALL
USER_CHARGES


@<TRIPOS>ATOM
  1 F       -1.7570     0.1830    -2.7260 F     1 <1>  -0.1900 
  2 C       -2.5370    -0.5710    -1.9780 C.ar  1 <1>   0.1900 
  3 C       -3.1400    -0.0900    -0.8140 C.ar  1 <1>   0.4100 
  4 C       -2.7650    -1.8610    -2.3670 C.ar  1 <1>   0.1600 
  5 N       -3.9310    -0.8920    -0.1230 N.ar  1 <1>  -0.6200 
  6 N       -2.9760     1.2020    -0.3180 N.pl3 1 <1>  -0.8380 
  7 N       -3.5440    -2.6660    -1.6710 N.ar  1 <1>  -0.6200 
  8 C       -4.0880    -2.1170    -0.5900 C.ar  1 <1>   0.7200 
  9 C       -1.7240     1.9790    -0.4780 C.3   1 <1>   0.2090 
 10 C       -3.7500     1.7010     0.8450 C.3   1 <1>   0.2090 
 11 N       -4.9070    -2.8810     0.1660 N.pl3 1 <1>  -0.8690 
 12 C       -1.6490     2.8710     0.7560 C.3   1 <1>  -0.1600 
 13 C       -3.0970     3.0290     1.2060 C.3   1 <1>  -0.1600 
 14 C       -4.8320    -4.3560     0.2320 C.3   1 <1>   0.2890 
 15 C       -6.2000    -4.9180     0.5870 C.3   1 <1>  -0.0800 
 16 C       -3.9250    -4.8430     1.3670 C.3   1 <1>   0.1200 
 17 C       -5.8750    -5.9920     1.6180 C.3   1 <1>   0.1200 
 18 C       -6.9720    -5.4300    -0.6370 C.3   1 <1>  -0.0170 
 19 O       -4.7390    -5.5290     2.2700 O.3   1 <1>  -0.5600 
 20 C       -8.3290    -5.9790    -0.2310 C.ar  1 <1>  -0.1430 
 21 C       -8.5810    -7.3330    -0.1370 C.ar  1 <1>  -0.1500 
 22 C       -9.3830    -5.1400     0.0690 C.ar  1 <1>  -0.1500 
 23 C       -9.8390    -7.7690     0.2460 C.ar  1 <1>   0.1600 
 24 C      -10.6020    -5.6790     0.4420 C.ar  1 <1>   0.1600 
 25 N      -10.8550    -6.9740     0.5400 N.ar  1 <1>  -0.6200 
 26 H       -2.3040    -2.2410    -3.2610 H     1 <1>   0.1500 
 27 H       -0.8670     1.3310    -0.5430 H     1 <1>   0.0800 
 28 H       -1.7970     2.5790    -1.3700 H     1 <1>   0.0800 
 29 H       -4.7890     1.8220     0.5890 H     1 <1>   0.0800 
 30 H       -3.6570     1.0070     1.6630 H     1 <1>   0.0800 
 31 H       -5.1350    -2.4220     1.0460 H     1 <1>   0.4000 
 32 H       -1.0840     2.3620     1.5170 H     1 <1>   0.0800 
 33 H       -1.1800     3.8130     0.5380 H     1 <1>   0.0800 
 34 H       -3.5730     3.8130     0.6440 H     1 <1>   0.0800 
 35 H       -3.1830     3.2430     2.2560 H     1 <1>   0.0800 
 36 H       -4.4770    -4.7630    -0.7000 H     1 <1>   0.0800 
 37 H       -6.7840    -4.1650     1.0860 H     1 <1>   0.0800 
 38 H       -3.4420    -4.0320     1.8820 H     1 <1>   0.0800 
 39 H       -3.1900    -5.5330     0.9930 H     1 <1>   0.0800 
 40 H       -5.6310    -6.9310     1.1510 H     1 <1>   0.0800 
 41 H       -6.6670    -6.1290     2.3340 H     1 <1>   0.0800 
 42 H       -6.4040    -6.1920    -1.1410 H     1 <1>   0.0800 
 43 H       -7.1120    -4.6180    -1.3300 H     1 <1>   0.0800 
 44 H       -7.8150    -8.0530    -0.3570 H     1 <1>   0.1500 
 45 H       -9.2650    -4.0730     0.0160 H     1 <1>   0.1500 
 46 H      -10.0190    -8.8280     0.3150 H     1 <1>   0.1500 
 47 H      -11.4120    -5.0080     0.6730 H     1 <1>   0.1500 
@<TRIPOS>BOND
  1   1   2  1   
  2   2   3  ar  
  3   2   4  ar  
  4   3   5  ar  
  5   3   6  1   
  6   4   7  ar  
  7   4  26  1   
  8   5   8  ar  
  9   6   9  1   
 10   6  10  1   
 11   7   8  ar  
 12   8  11  1   
 13   9  12  1   
 14   9  27  1   
 15   9  28  1   
 16  10  13  1   
 17  10  29  1   
 18  10  30  1   
 19  11  14  1   
 20  11  31  1   
 21  12  13  1   
 22  12  32  1   
 23  12  33  1   
 24  13  34  1   
 25  13  35  1   
 26  14  15  1   
 27  14  16  1   
 28  14  36  1   
 29  15  17  1   
 30  15  18  1   
 31  15  37  1   
 32  16  19  1   
 33  16  38  1   
 34  16  39  1   
 35  17  19  1   
 36  17  40  1   
 37  17  41  1   
 38  18  20  1   
 39  18  42  1   
 40  18  43  1   
 41  20  21  ar  
 42  20  22  ar  
 43  21  23  ar  
 44  21  44  1   
 45  22  24  ar  
 46  22  45  1   
 47  23  25  ar  
 48  23  46  1   
 49  24  25  ar  
 50  24  47  1   
@<TRIPOS>SUBSTRUCTURE
  1 ****  11 GROUP 4 **** **** 0

# MOE 2024.06 (io_trps.svl 2023.06)
