@<TRIPOS>MOLECULE
NONAME
48 52 1 0 0 
SMALL
USER_CHARGES


@<TRIPOS>ATOM
  1 O        0.3610    -0.1880    -0.0160 O.3   1 <1>  -0.6800 
  2 C        1.6450    -0.2690    -0.5390 C.3   1 <1>   0.2000 
  3 C        2.3840    -1.4770     0.0310 C.3   1 <1>  -0.0800 
  4 C        2.4950     0.9320    -0.1260 C.3   1 <1>   0.2090 
  5 C        3.8570    -1.0850    -0.1020 C.3   1 <1>   0.2090 
  6 C        2.0330    -2.8020    -0.6660 C.3   1 <1>  -0.0170 
  7 N        3.8760     0.3980     0.0120 N.pl3 1 <1>  -0.8380 
  8 C        2.9010    -3.9370    -0.1520 C.ar  1 <1>   0.1660 
  9 C        5.0080     1.1380    -0.2600 C.ar  1 <1>   0.4100 
 10 N        3.9380    -4.2610    -0.8620 N.ar  1 <1>  -0.6200 
 11 C        2.5580    -4.5650     1.0560 C.ar  1 <1>  -0.1500 
 12 N        6.0710     0.4970    -0.7040 N.ar  1 <1>  -0.6200 
 13 C        5.0440     2.5060    -0.0700 C.ar  1 <1>  -0.1500 
 14 C        4.7330    -5.2590    -0.4010 C.ar  1 <1>   0.3100 
 15 C        3.3370    -5.5700     1.5410 C.ar  1 <1>  -0.1500 
 16 C        7.1290     1.2400    -0.9550 C.ar  1 <1>   0.4700 
 17 C        6.2020     3.1730    -0.3640 C.ar  1 <1>   0.2780 
 18 C        4.4730    -5.9460     0.8050 C.ar  1 <1>   0.0000 
 19 C        5.8650    -5.6250    -1.1480 C.ar  1 <1>  -0.1500 
 20 N        7.2670     2.5470    -0.8210 N.ar  1 <1>  -0.6200 
 21 C        6.3120     4.6790    -0.1820 C.3   1 <1>  -0.0680 
 22 C        5.3540    -6.9660     1.2160 C.ar  1 <1>  -0.1500 
 23 C        6.7080    -6.6210    -0.7320 C.ar  1 <1>  -0.1500 
 24 C        7.1450     5.2380     0.9310 C.3   1 <1>  -0.2000 
 25 C        5.6550     5.3990     0.9600 C.3   1 <1>  -0.2000 
 26 C        6.4490    -7.2980     0.4640 C.ar  1 <1>  -0.1500 
 27 H       -0.1810    -0.9420    -0.3160 H     1 <1>   0.4000 
 28 H        1.5840    -0.3140    -1.6130 H     1 <1>   0.0800 
 29 H        2.1740    -1.5520     1.0840 H     1 <1>   0.0800 
 30 H        2.1680     1.3110     0.8270 H     1 <1>   0.0800 
 31 H        2.4530     1.7040    -0.8740 H     1 <1>   0.0800 
 32 H        4.2430    -1.3760    -1.0660 H     1 <1>   0.0800 
 33 H        4.4600    -1.5360     0.6680 H     1 <1>   0.0800 
 34 H        2.1790    -2.7040    -1.7280 H     1 <1>   0.0800 
 35 H        1.0000    -3.0420    -0.4980 H     1 <1>   0.0800 
 36 H        1.6820    -4.2400     1.5870 H     1 <1>   0.1500 
 37 H        4.1860     3.0230     0.3030 H     1 <1>   0.1500 
 38 H        3.1080    -6.0740     2.4630 H     1 <1>   0.1500 
 39 H        7.9940     0.7120    -1.3200 H     1 <1>   0.1500 
 40 H        6.0460    -5.0920    -2.0620 H     1 <1>   0.1500 
 41 H        6.3700     5.1870    -1.1280 H     1 <1>   0.1000 
 42 H        5.1490    -7.4830     2.1360 H     1 <1>   0.1500 
 43 H        7.5720    -6.8920    -1.3140 H     1 <1>   0.1500 
 44 H        7.6120     4.5450     1.6090 H     1 <1>   0.1000 
 45 H        7.7640     6.0930     0.7230 H     1 <1>   0.1000 
 46 H        5.2370     6.3740     0.7820 H     1 <1>   0.1000 
 47 H        5.1090     4.8450     1.7040 H     1 <1>   0.1000 
 48 H        7.1200    -8.0780     0.7800 H     1 <1>   0.1500 
@<TRIPOS>BOND
  1   1   2  1   
  2   1  27  1   
  3   2   3  1   
  4   2   4  1   
  5   2  28  1   
  6   3   5  1   
  7   3   6  1   
  8   3  29  1   
  9   4   7  1   
 10   4  30  1   
 11   4  31  1   
 12   5   7  1   
 13   5  32  1   
 14   5  33  1   
 15   6   8  1   
 16   6  34  1   
 17   6  35  1   
 18   7   9  1   
 19   8  10  ar  
 20   8  11  ar  
 21   9  12  ar  
 22   9  13  ar  
 23  10  14  ar  
 24  11  15  ar  
 25  11  36  1   
 26  12  16  ar  
 27  13  17  ar  
 28  13  37  1   
 29  14  18  ar  
 30  14  19  ar  
 31  15  18  ar  
 32  15  38  1   
 33  16  20  ar  
 34  16  39  1   
 35  17  20  ar  
 36  17  21  1   
 37  18  22  ar  
 38  19  23  ar  
 39  19  40  1   
 40  21  24  1   
 41  21  25  1   
 42  21  41  1   
 43  22  26  ar  
 44  22  42  1   
 45  23  26  ar  
 46  23  43  1   
 47  24  25  1   
 48  24  44  1   
 49  24  45  1   
 50  25  46  1   
 51  25  47  1   
 52  26  48  1   
@<TRIPOS>SUBSTRUCTURE
  1 ****   5 GROUP 4 **** **** 0

# MOE 2024.06 (io_trps.svl 2023.06)
