@<TRIPOS>MOLECULE
NONAME
46 48 1 0 0 
SMALL
USER_CHARGES


@<TRIPOS>ATOM
  1 O        0.9820     0.5890    -2.1840 O.2   1 <1>  -0.5700 
  2 C        1.5760     0.4950    -1.1260 C.2   1 <1>   0.5440 
  3 N        0.9120     0.8590     0.0240 N.am  1 <1>  -0.6600 
  4 C        2.9140    -0.0390    -1.1270 C.ar  1 <1>   0.0860 
  5 C        1.5150     1.1280     1.3480 C.3   1 <1>   0.1400 
  6 C       -0.5650     0.8120     0.1200 C.3   1 <1>   0.1400 
  7 C        3.2280    -1.2020    -0.4000 C.ar  1 <1>   0.4100 
  8 C        3.9140     0.5290    -1.9030 C.ar  1 <1>  -0.1500 
  9 C        0.4430     0.6770     2.3300 C.3   1 <1>  -0.1600 
 10 C       -0.8750     0.9560     1.6080 C.3   1 <1>  -0.1600 
 11 N        4.4080    -1.8110    -0.4420 N.ar  1 <1>  -0.6200 
 12 N        2.3010    -1.7840     0.4250 N.pl3 1 <1>  -0.8690 
 13 C        5.1450    -0.0860    -1.9260 C.ar  1 <1>  -0.1500 
 14 C        5.3330    -1.2430    -1.1890 C.ar  1 <1>   0.1600 
 15 C        1.9460    -3.1900     0.3330 C.3   1 <1>   0.4690 
 16 C        0.4280    -3.1810     0.3230 C.2   1 <1>  -0.3320 
 17 C        2.5560    -3.9300     1.5300 C.3   1 <1>  -0.1600 
 18 N       -0.3140    -2.8780    -0.7680 N.pl3 1 <1>   0.3140 
 19 C       -0.4470    -3.4200     1.3280 C.2   1 <1>  -0.1500 
 20 C        2.3120    -5.4470     1.4930 C.3   1 <1>  -0.2400 
 21 N       -1.6290    -2.9150    -0.4890 N.2   1 <1>  -0.7070 
 22 C        0.1340    -2.5300    -2.1270 C.3   1 <1>   0.0160 
 23 C       -1.7000    -3.2420     0.7630 C.2   1 <1>   0.1390 
 24 H        1.6820     2.1880     1.4440 H     1 <1>   0.0800 
 25 H        2.4430     0.6050     1.4990 H     1 <1>   0.0800 
 26 H       -0.9210    -0.1340    -0.2530 H     1 <1>   0.0800 
 27 H       -1.0040     1.6100    -0.4550 H     1 <1>   0.0800 
 28 H        3.7150     1.4180    -2.4780 H     1 <1>   0.1500 
 29 H        0.5150     1.1960     3.2690 H     1 <1>   0.0800 
 30 H        0.5490    -0.3800     2.5040 H     1 <1>   0.0800 
 31 H       -1.6560     0.2810     1.9130 H     1 <1>   0.0800 
 32 H       -1.1930     1.9660     1.8010 H     1 <1>   0.0800 
 33 H        1.4470    -1.2340     0.5770 H     1 <1>   0.4000 
 34 H        5.9510     0.3180    -2.5120 H     1 <1>   0.1500 
 35 H        6.2980    -1.7220    -1.2190 H     1 <1>   0.1500 
 36 H        2.3310    -3.6130    -0.5810 H     1 <1>   0.0800 
 37 H        2.1640    -3.5200     2.4430 H     1 <1>   0.0800 
 38 H        3.6180    -3.7570     1.5230 H     1 <1>   0.0800 
 39 H       -0.2550    -3.6850     2.3520 H     1 <1>   0.1500 
 40 H        1.2590    -5.6690     1.5140 H     1 <1>   0.0800 
 41 H        2.7750    -5.9130     2.3450 H     1 <1>   0.0800 
 42 H        2.7360    -5.8720     0.6000 H     1 <1>   0.0800 
 43 H        1.1790    -2.2920    -2.1300 H     1 <1>   0.0800 
 44 H       -0.4240    -1.6770    -2.4670 H     1 <1>   0.0800 
 45 H       -0.0540    -3.3610    -2.7790 H     1 <1>   0.0800 
 46 H       -2.6310    -3.3580     1.2920 H     1 <1>   0.1500 
@<TRIPOS>BOND
  1   1   2  2   
  2   2   3  am  
  3   2   4  1   
  4   3   5  1   
  5   3   6  1   
  6   4   7  ar  
  7   4   8  ar  
  8   5   9  1   
  9   5  24  1   
 10   5  25  1   
 11   6  10  1   
 12   6  26  1   
 13   6  27  1   
 14   7  11  ar  
 15   7  12  1   
 16   8  13  ar  
 17   8  28  1   
 18   9  10  1   
 19   9  29  1   
 20   9  30  1   
 21  10  31  1   
 22  10  32  1   
 23  11  14  ar  
 24  12  15  1   
 25  12  33  1   
 26  13  14  ar  
 27  13  34  1   
 28  14  35  1   
 29  15  16  1   
 30  15  17  1   
 31  15  36  1   
 32  16  18  1   
 33  16  19  2   
 34  17  20  1   
 35  17  37  1   
 36  17  38  1   
 37  18  21  1   
 38  18  22  1   
 39  19  23  1   
 40  19  39  1   
 41  20  40  1   
 42  20  41  1   
 43  20  42  1   
 44  21  23  2   
 45  22  43  1   
 46  22  44  1   
 47  22  45  1   
 48  23  46  1   
@<TRIPOS>SUBSTRUCTURE
  1 ****  12 GROUP 4 **** **** 0

# MOE 2024.06 (io_trps.svl 2023.06)
