@<TRIPOS>MOLECULE
NONAME
62 64 1 0 0 
SMALL
USER_CHARGES


@<TRIPOS>ATOM
  1 O       -0.6940     0.7790     0.9470 O.2   1 <1>  -0.5700 
  2 C       -1.5110     1.5700     0.5370 C.2   1 <1>   0.5690 
  3 N       -2.8540     1.2620     0.5020 N.am  1 <1>  -0.6600 
  4 C       -1.0110     2.9270     0.0570 C.3   1 <1>  -0.0990 
  5 C       -3.8800     2.1560    -0.1180 C.3   1 <1>   0.2200 
  6 C       -3.3120    -0.0390     1.0840 C.3   1 <1>   0.0600 
  7 C        0.4580     3.2130     0.4040 C.3   1 <1>  -0.0160 
  8 C       -4.7190     2.8870     0.9220 C.3   1 <1>  -0.1600 
  9 C       -4.9180     1.4460    -0.9860 C.3   1 <1>  -0.1600 
 10 C        0.8550     4.5940    -0.0940 C.ar  1 <1>  -0.1440 
 11 C       -5.9620     3.3590     0.1530 C.3   1 <1>  -0.0800 
 12 C       -6.0780     2.4480    -1.0820 C.3   1 <1>  -0.0800 
 13 C        0.7020     5.7040     0.7240 C.ar  1 <1>  -0.1500 
 14 C        1.3700     4.7560    -1.3710 C.ar  1 <1>  -0.1500 
 15 C       -7.2740     3.2090     0.9360 C.3   1 <1>  -0.1600 
 16 C       -7.4660     1.7980    -1.0180 C.3   1 <1>  -0.1600 
 17 C        1.0590     6.9650     0.2770 C.ar  1 <1>   0.0820 
 18 C        1.7160     6.0150    -1.8320 C.ar  1 <1>  -0.1500 
 19 C       -7.8620     1.8820     0.4540 C.3   1 <1>   0.4230 
 20 O        0.9170     7.9980     1.1440 O.3   1 <1>  -0.3630 
 21 C        1.5480     7.1270    -1.0240 C.ar  1 <1>   0.0820 
 22 N       -9.3350     1.7340     0.6740 N.4   1 <1>  -0.9590 
 23 C        2.1120     8.6090     1.5810 C.3   1 <1>   0.0400 
 24 O        1.8710     8.3350    -1.5490 O.3   1 <1>  -0.3630 
 25 C      -10.1900     2.8050     0.0620 C.3   1 <1>   0.2630 
 26 C       -9.6400     1.6090     2.1330 C.3   1 <1>   0.2630 
 27 C        0.8120     9.2520    -1.7110 C.3   1 <1>   0.0400 
 28 H       -1.1270     2.9740    -1.0090 H     1 <1>   0.0800 
 29 H       -1.6150     3.6960     0.5020 H     1 <1>   0.0800 
 30 H       -3.4050     2.8920    -0.7420 H     1 <1>   0.0800 
 31 H       -4.2520     0.0800     1.5900 H     1 <1>   0.0800 
 32 H       -2.5960    -0.4100     1.7980 H     1 <1>   0.0800 
 33 H       -3.4150    -0.7680     0.2990 H     1 <1>   0.0800 
 34 H        1.0910     2.4680    -0.0470 H     1 <1>   0.0800 
 35 H        0.5970     3.1550     1.4700 H     1 <1>   0.0800 
 36 H       -4.9920     2.2100     1.7110 H     1 <1>   0.0800 
 37 H       -4.1780     3.7180     1.3410 H     1 <1>   0.0800 
 38 H       -4.5160     1.2120    -1.9560 H     1 <1>   0.0800 
 39 H       -5.2580     0.5420    -0.5160 H     1 <1>   0.0800 
 40 H       -5.8220     4.3820    -0.1580 H     1 <1>   0.0800 
 41 H       -5.9720     3.0310    -1.9830 H     1 <1>   0.0800 
 42 H        0.3100     5.5990     1.7190 H     1 <1>   0.1500 
 43 H        1.5020     3.9020    -2.0130 H     1 <1>   0.1500 
 44 H       -7.9090     4.0340     0.6710 H     1 <1>   0.0800 
 45 H       -7.1080     3.2160     1.9980 H     1 <1>   0.0800 
 46 H       -7.4520     0.7830    -1.3740 H     1 <1>   0.0800 
 47 H       -8.1300     2.3790    -1.6310 H     1 <1>   0.0800 
 48 H        2.1120     6.1420    -2.8230 H     1 <1>   0.1500 
 49 H       -7.3450     1.0890     0.9710 H     1 <1>   0.0800 
 50 H       -9.5990     0.8430     0.2270 H     1 <1>   0.4500 
 51 H        1.8620     9.3420     2.3260 H     1 <1>   0.0800 
 52 H        2.5960     9.0830     0.7470 H     1 <1>   0.0800 
 53 H        2.7510     7.8540     2.0040 H     1 <1>   0.0800 
 54 H       -9.9760     3.7620     0.5090 H     1 <1>   0.0800 
 55 H      -11.2330     2.5830     0.2210 H     1 <1>   0.0800 
 56 H      -10.0180     2.8720    -0.9990 H     1 <1>   0.0800 
 57 H       -9.3860     2.5220     2.6480 H     1 <1>   0.0800 
 58 H       -9.0740     0.8000     2.5670 H     1 <1>   0.0800 
 59 H      -10.6890     1.4110     2.2820 H     1 <1>   0.0800 
 60 H        1.1810    10.0970    -2.2630 H     1 <1>   0.0800 
 61 H        0.4630     9.5700    -0.7460 H     1 <1>   0.0800 
 62 H        0.0170     8.7730    -2.2560 H     1 <1>   0.0800 
@<TRIPOS>BOND
  1   1   2  2   
  2   2   3  am  
  3   2   4  1   
  4   3   5  1   
  5   3   6  1   
  6   4   7  1   
  7   4  28  1   
  8   4  29  1   
  9   5   8  1   
 10   5   9  1   
 11   5  30  1   
 12   6  31  1   
 13   6  32  1   
 14   6  33  1   
 15   7  10  1   
 16   7  34  1   
 17   7  35  1   
 18   8  11  1   
 19   8  36  1   
 20   8  37  1   
 21   9  12  1   
 22   9  38  1   
 23   9  39  1   
 24  10  13  ar  
 25  10  14  ar  
 26  11  12  1   
 27  11  15  1   
 28  11  40  1   
 29  12  16  1   
 30  12  41  1   
 31  13  17  ar  
 32  13  42  1   
 33  14  18  ar  
 34  14  43  1   
 35  15  19  1   
 36  15  44  1   
 37  15  45  1   
 38  16  19  1   
 39  16  46  1   
 40  16  47  1   
 41  17  20  1   
 42  17  21  ar  
 43  18  21  ar  
 44  18  48  1   
 45  19  22  1   
 46  19  49  1   
 47  20  23  1   
 48  21  24  1   
 49  22  25  1   
 50  22  26  1   
 51  22  50  1   
 52  23  51  1   
 53  23  52  1   
 54  23  53  1   
 55  24  27  1   
 56  25  54  1   
 57  25  55  1   
 58  25  56  1   
 59  26  57  1   
 60  26  58  1   
 61  26  59  1   
 62  27  60  1   
 63  27  61  1   
 64  27  62  1   
@<TRIPOS>SUBSTRUCTURE
  1 ****   4 GROUP 4 **** **** 0

# MOE 2024.06 (io_trps.svl 2023.06)
