@<TRIPOS>MOLECULE
NONAME
35 37 1 0 0 
SMALL
USER_CHARGES


@<TRIPOS>ATOM
  1 CL       0.6740     0.5020     1.2520 Cl    1 <1>  -0.1770 
  2 C        1.4370    -0.8640     0.4520 C.ar  1 <1>   0.1770 
  3 C        0.9180    -2.1540     0.5320 C.ar  1 <1>   0.4100 
  4 C        2.5810    -0.6690    -0.2700 C.ar  1 <1>   0.1600 
  5 N        1.5350    -3.1530    -0.0790 N.ar  1 <1>  -0.6200 
  6 N       -0.2430    -2.4650     1.2180 N.pl3 1 <1>  -0.8380 
  7 N        3.1970    -1.6620    -0.8890 N.ar  1 <1>  -0.6200 
  8 C        2.6300    -2.8490    -0.7520 C.ar  1 <1>   0.4770 
  9 C       -0.3950    -3.8060     1.8760 C.3   1 <1>   0.2090 
 10 C       -1.5450    -1.9080     0.7320 C.3   1 <1>   0.2090 
 11 C        3.3210    -3.9980    -1.4450 C.3   1 <1>  -0.0960 
 12 C       -1.1780    -4.8000     0.9960 C.3   1 <1>   0.2090 
 13 C       -2.3150    -2.9210    -0.1410 C.3   1 <1>   0.2090 
 14 N       -2.4950    -4.2310     0.5560 N.pl3 1 <1>  -0.8380 
 15 C       -3.4660    -5.0920     0.0650 C.ar  1 <1>   0.4100 
 16 N       -3.0490    -6.2330    -0.4720 N.ar  1 <1>  -0.6200 
 17 C       -4.8280    -4.7520     0.1340 C.ar  1 <1>   0.1600 
 18 C       -4.0460    -6.9730    -0.9280 C.ar  1 <1>   0.1600 
 19 N       -5.8250    -5.4860    -0.3250 N.ar  1 <1>  -0.6200 
 20 C       -5.3850    -6.6160    -0.8610 C.ar  1 <1>   0.1600 
 21 H        3.0040     0.3170    -0.3460 H     1 <1>   0.1500 
 22 H       -0.9170    -3.6810     2.8080 H     1 <1>   0.0800 
 23 H        0.5750    -4.2160     2.0980 H     1 <1>   0.0800 
 24 H       -1.3730    -1.0160     0.1570 H     1 <1>   0.0800 
 25 H       -2.1510    -1.6420     1.5800 H     1 <1>   0.0800 
 26 H        2.6050    -4.7540    -1.7110 H     1 <1>   0.0800 
 27 H        4.0530    -4.4220    -0.7840 H     1 <1>   0.0800 
 28 H        3.8090    -3.6520    -2.3370 H     1 <1>   0.0800 
 29 H       -1.3460    -5.7070     1.5490 H     1 <1>   0.0800 
 30 H       -0.5870    -5.0430     0.1300 H     1 <1>   0.0800 
 31 H       -1.7640    -3.0820    -1.0520 H     1 <1>   0.0800 
 32 H       -3.2730    -2.5080    -0.4020 H     1 <1>   0.0800 
 33 H       -5.0750    -3.8190     0.6020 H     1 <1>   0.1500 
 34 H       -3.7870    -7.9140    -1.3790 H     1 <1>   0.1500 
 35 H       -6.1230    -7.2870    -1.2630 H     1 <1>   0.1500 
@<TRIPOS>BOND
  1   1   2  1   
  2   2   3  ar  
  3   2   4  ar  
  4   3   5  ar  
  5   3   6  1   
  6   4   7  ar  
  7   4  21  1   
  8   5   8  ar  
  9   6   9  1   
 10   6  10  1   
 11   7   8  ar  
 12   8  11  1   
 13   9  12  1   
 14   9  22  1   
 15   9  23  1   
 16  10  13  1   
 17  10  24  1   
 18  10  25  1   
 19  11  26  1   
 20  11  27  1   
 21  11  28  1   
 22  12  14  1   
 23  12  29  1   
 24  12  30  1   
 25  13  14  1   
 26  13  31  1   
 27  13  32  1   
 28  14  15  1   
 29  15  16  ar  
 30  15  17  ar  
 31  16  18  ar  
 32  17  19  ar  
 33  17  33  1   
 34  18  20  ar  
 35  18  34  1   
 36  19  20  ar  
 37  20  35  1   
@<TRIPOS>SUBSTRUCTURE
  1 ****  13 GROUP 4 **** **** 0

# MOE 2024.06 (io_trps.svl 2023.06)
