@<TRIPOS>MOLECULE
NONAME
47 49 1 0 0 
SMALL
USER_CHARGES


@<TRIPOS>ATOM
  1 F       -0.5580    -0.1780     1.3410 F     1 <1>  -0.1900 
  2 C       -1.4540    -0.4960     0.4390 C.ar  1 <1>   0.1900 
  3 C       -2.0190     0.4640    -0.4100 C.ar  1 <1>   0.0830 
  4 C       -1.8070    -1.8320     0.3740 C.ar  1 <1>  -0.1500 
  5 O       -1.7530     1.8000    -0.4380 O.3   1 <1>  -0.3630 
  6 C       -2.9590     0.0280    -1.3340 C.ar  1 <1>  -0.1500 
  7 C       -2.7480    -2.2390    -0.5570 C.ar  1 <1>  -0.1500 
  8 C       -0.8320     2.4210     0.4340 C.3   1 <1>   0.1200 
  9 C       -3.3210    -1.3080    -1.4090 C.ar  1 <1>  -0.1500 
 10 C       -0.7950     3.9280     0.1500 C.3   1 <1>  -0.0800 
 11 C        0.2410     4.5970     1.0660 C.3   1 <1>   0.2090 
 12 C       -2.1820     4.5800     0.3250 C.3   1 <1>  -0.1600 
 13 N        0.2730     6.0680     0.8130 N.pl3 1 <1>  -0.8380 
 14 C       -2.0960     6.1020     0.1330 C.3   1 <1>  -0.1600 
 15 C        1.3850     6.7310     0.3510 C.ar  1 <1>   0.7200 
 16 C       -1.0410     6.7340     1.0450 C.3   1 <1>   0.2090 
 17 N        1.2780     8.0400     0.1190 N.ar  1 <1>  -0.6200 
 18 N        2.4960     6.0210     0.1600 N.ar  1 <1>  -0.6200 
 19 C        2.3370     8.6740    -0.3140 C.ar  1 <1>   0.1670 
 20 C        3.5460     6.6760    -0.2630 C.ar  1 <1>   0.1600 
 21 C        3.5620     8.0390    -0.5020 C.ar  1 <1>   0.0860 
 22 C        2.1160    10.1470    -0.6190 C.3   1 <1>  -0.0970 
 23 C        4.7920     8.6600    -0.9070 C.2   1 <1>   0.4230 
 24 O        5.5340     8.1590    -1.7110 O.2   1 <1>  -0.5700 
 25 C        5.2540     9.9600    -0.2780 C.3   1 <1>  -0.1790 
 26 H       -1.3520    -2.5400     1.0420 H     1 <1>   0.1500 
 27 H       -3.4060     0.7460    -1.9970 H     1 <1>   0.1500 
 28 H       -3.0330    -3.2760    -0.6200 H     1 <1>   0.1500 
 29 H        0.1370     1.9840     0.2630 H     1 <1>   0.0800 
 30 H       -1.1490     2.2370     1.4450 H     1 <1>   0.0800 
 31 H       -4.0520    -1.6240    -2.1330 H     1 <1>   0.1500 
 32 H       -0.4630     4.0660    -0.8640 H     1 <1>   0.0800 
 33 H        1.2040     4.1450     0.9000 H     1 <1>   0.0800 
 34 H       -0.0210     4.4310     2.0960 H     1 <1>   0.0800 
 35 H       -2.5600     4.3660     1.3100 H     1 <1>   0.0800 
 36 H       -2.8730     4.1700    -0.3910 H     1 <1>   0.0800 
 37 H       -3.0540     6.5460     0.3370 H     1 <1>   0.0800 
 38 H       -1.8410     6.3240    -0.8880 H     1 <1>   0.0800 
 39 H       -0.9950     7.7910     0.8550 H     1 <1>   0.0800 
 40 H       -1.3220     6.6000     2.0760 H     1 <1>   0.0800 
 41 H        4.4520     6.1160    -0.4270 H     1 <1>   0.1500 
 42 H        1.0800    10.3210    -0.8510 H     1 <1>   0.0800 
 43 H        2.6970    10.4550    -1.4680 H     1 <1>   0.0800 
 44 H        2.3740    10.7430     0.2360 H     1 <1>   0.0800 
 45 H        4.7520    10.1340     0.6560 H     1 <1>   0.0800 
 46 H        5.0680    10.7770    -0.9490 H     1 <1>   0.0800 
 47 H        6.3110     9.9070    -0.0910 H     1 <1>   0.0800 
@<TRIPOS>BOND
  1   1   2  1   
  2   2   3  ar  
  3   2   4  ar  
  4   3   5  1   
  5   3   6  ar  
  6   4   7  ar  
  7   4  26  1   
  8   5   8  1   
  9   6   9  ar  
 10   6  27  1   
 11   7   9  ar  
 12   7  28  1   
 13   8  10  1   
 14   8  29  1   
 15   8  30  1   
 16   9  31  1   
 17  10  11  1   
 18  10  12  1   
 19  10  32  1   
 20  11  13  1   
 21  11  33  1   
 22  11  34  1   
 23  12  14  1   
 24  12  35  1   
 25  12  36  1   
 26  13  15  1   
 27  13  16  1   
 28  14  16  1   
 29  14  37  1   
 30  14  38  1   
 31  15  17  ar  
 32  15  18  ar  
 33  16  39  1   
 34  16  40  1   
 35  17  19  ar  
 36  18  20  ar  
 37  19  21  ar  
 38  19  22  1   
 39  20  21  ar  
 40  20  41  1   
 41  21  23  1   
 42  22  42  1   
 43  22  43  1   
 44  22  44  1   
 45  23  24  2   
 46  23  25  1   
 47  25  45  1   
 48  25  46  1   
 49  25  47  1   
@<TRIPOS>SUBSTRUCTURE
  1 ****  11 GROUP 4 **** **** 0

# MOE 2024.06 (io_trps.svl 2023.06)
