@<TRIPOS>MOLECULE
NONAME
39 41 1 0 0 
SMALL
USER_CHARGES


@<TRIPOS>ATOM
  1 O       -0.6790     0.2780     0.0140 O.2   1 <1>  -0.5700 
  2 C        0.3790    -0.2650    -0.1950 C.2   1 <1>   0.6300 
  3 N        1.5910     0.3590    -0.1280 N.am  1 <1>  -0.4940 
  4 C        0.3850    -1.7470    -0.5350 C.3   1 <1>  -0.1000 
  5 C        1.9340     1.6990     0.1710 C.2   1 <1>  -0.0880 
  6 C        1.6670    -2.5390    -0.3800 C.3   1 <1>   0.0000 
  7 C        1.0490    -2.2750    -1.7320 C.3   1 <1>  -0.2000 
  8 N        3.0240     2.0580     0.9020 N.pl3 1 <1>   0.3140 
  9 C        1.3170     2.8550    -0.1760 C.2   1 <1>  -0.1810 
 10 C        2.2610    -2.8570     0.9720 C.3   1 <1>  -0.2000 
 11 C        2.9760    -3.2790    -0.2320 C.3   1 <1>  -0.2000 
 12 N        3.1180     3.3990     1.0350 N.2   1 <1>  -0.7070 
 13 C        3.9760     1.1530     1.5830 C.3   1 <1>   0.0960 
 14 C        2.0930     3.8610     0.3890 C.2   1 <1>   0.1390 
 15 C        0.0620     3.0720    -1.0010 C.3   1 <1>  -0.0590 
 16 C        4.9430     0.4590     0.6000 C.3   1 <1>  -0.0800 
 17 C        5.8040    -0.5670     1.3470 C.3   1 <1>  -0.2400 
 18 C        5.8520     1.4710    -0.1130 C.3   1 <1>  -0.2400 
 19 H        2.3740    -0.2750    -0.2830 H     1 <1>   0.3700 
 20 H       -0.5110    -2.2270    -0.1850 H     1 <1>   0.1000 
 21 H        1.5700    -1.6110    -2.4000 H     1 <1>   0.1000 
 22 H        0.6360    -3.1200    -2.2540 H     1 <1>   0.1000 
 23 H        1.7350    -3.5760     1.5760 H     1 <1>   0.1000 
 24 H        2.6300    -2.0380     1.5630 H     1 <1>   0.1000 
 25 H        3.8690    -2.7700    -0.5500 H     1 <1>   0.1000 
 26 H        2.9870    -4.3180    -0.5130 H     1 <1>   0.1000 
 27 H        3.4050     0.4210     2.1220 H     1 <1>   0.0800 
 28 H        4.5340     1.7320     2.2960 H     1 <1>   0.0800 
 29 H        1.8760     4.9130     0.3040 H     1 <1>   0.1500 
 30 H       -0.0590     2.2720    -1.7090 H     1 <1>   0.0800 
 31 H        0.1220     4.0000    -1.5370 H     1 <1>   0.0800 
 32 H       -0.7970     3.0920    -0.3540 H     1 <1>   0.0800 
 33 H        4.3720    -0.0700    -0.1420 H     1 <1>   0.0800 
 34 H        6.4050    -0.0840     2.0980 H     1 <1>   0.0800 
 35 H        6.4600    -1.0740     0.6610 H     1 <1>   0.0800 
 36 H        5.1840    -1.3050     1.8260 H     1 <1>   0.0800 
 37 H        6.4310     2.0310     0.6000 H     1 <1>   0.0800 
 38 H        5.2660     2.1660    -0.6900 H     1 <1>   0.0800 
 39 H        6.5260     0.9660    -0.7830 H     1 <1>   0.0800 
@<TRIPOS>BOND
  1   1   2  2   
  2   2   3  am  
  3   2   4  1   
  4   3   5  1   
  5   3  19  1   
  6   4   6  1   
  7   4   7  1   
  8   4  20  1   
  9   5   8  1   
 10   5   9  2   
 11   6   7  1   
 12   6  10  1   
 13   6  11  1   
 14   7  21  1   
 15   7  22  1   
 16   8  12  1   
 17   8  13  1   
 18   9  14  1   
 19   9  15  1   
 20  10  11  1   
 21  10  23  1   
 22  10  24  1   
 23  11  25  1   
 24  11  26  1   
 25  12  14  2   
 26  13  16  1   
 27  13  27  1   
 28  13  28  1   
 29  14  29  1   
 30  15  30  1   
 31  15  31  1   
 32  15  32  1   
 33  16  17  1   
 34  16  18  1   
 35  16  33  1   
 36  17  34  1   
 37  17  35  1   
 38  17  36  1   
 39  18  37  1   
 40  18  38  1   
 41  18  39  1   
@<TRIPOS>SUBSTRUCTURE
  1 ****   3 GROUP 4 **** **** 0

# MOE 2024.06 (io_trps.svl 2023.06)
