@<TRIPOS>MOLECULE
NONAME
45 48 1 0 0 
SMALL
USER_CHARGES


@<TRIPOS>ATOM
  1 S        0.9010    -0.6930     0.5750 S.3   1 <1>  -0.0800 
  2 C        0.8280    -1.1960    -1.1220 C.2   1 <1>   0.2930 
  3 C        0.8470     0.9630     0.0820 C.2   1 <1>  -0.1400 
  4 N        0.7640    -0.1830    -1.9270 N.2   1 <1>  -0.5650 
  5 C        0.8390    -2.6270    -1.3910 C.2   1 <1>   0.7150 
  6 C        0.7710     1.0140    -1.2490 C.2   1 <1>   0.0460 
  7 C        0.8830     2.1120     1.0630 C.3   1 <1>   0.0200 
  8 O        0.8050    -3.0770    -2.5240 O.2   1 <1>  -0.5700 
  9 N        0.8610    -3.5370    -0.3660 N.am  1 <1>  -0.7300 
 10 C        0.6970     2.3280    -2.0010 C.3   1 <1>   0.0210 
 11 C        1.1550     3.4160     0.2850 C.3   1 <1>  -0.1600 
 12 C        0.8300    -5.0110    -0.5110 C.3   1 <1>   0.2200 
 13 C        0.3600     3.4890    -1.0380 C.3   1 <1>  -0.1600 
 14 C       -0.5630    -5.5610    -0.2300 C.3   1 <1>  -0.0800 
 15 C        1.6080    -5.6300     0.6410 C.3   1 <1>   0.1200 
 16 C       -0.5860    -5.6820     1.2980 C.3   1 <1>   0.1200 
 17 C       -1.7390    -4.7600    -0.8210 C.3   1 <1>  -0.0170 
 18 O        0.7400    -5.5750     1.7310 O.3   1 <1>  -0.5600 
 19 C       -3.0640    -5.4470    -0.5310 C.ar  1 <1>  -0.1430 
 20 C       -3.5080    -6.5150    -1.2830 C.ar  1 <1>  -0.1500 
 21 C       -3.8910    -5.0390     0.4970 C.ar  1 <1>  -0.1500 
 22 C       -4.7200    -7.1120    -0.9760 C.ar  1 <1>   0.1600 
 23 C       -5.0850    -5.7050     0.7200 C.ar  1 <1>   0.1600 
 24 N       -5.5180    -6.7340     0.0090 N.ar  1 <1>  -0.6200 
 25 H       -0.0660     2.1710     1.5670 H     1 <1>   0.0800 
 26 H        1.6540     1.9540     1.7960 H     1 <1>   0.0800 
 27 H        0.8550    -3.2100     0.6030 H     1 <1>   0.3700 
 28 H        1.6460     2.5010    -2.4750 H     1 <1>   0.0800 
 29 H       -0.0550     2.2610    -2.7670 H     1 <1>   0.0800 
 30 H        0.9120     4.2600     0.9070 H     1 <1>   0.0800 
 31 H        2.2060     3.4690     0.0570 H     1 <1>   0.0800 
 32 H        1.2120    -5.3120    -1.4720 H     1 <1>   0.0800 
 33 H        0.5570     4.4260    -1.5310 H     1 <1>   0.0800 
 34 H       -0.6910     3.4540    -0.8110 H     1 <1>   0.0800 
 35 H       -0.6070    -6.5590    -0.6300 H     1 <1>   0.0800 
 36 H        2.5150    -5.0980     0.8690 H     1 <1>   0.0800 
 37 H        1.8280    -6.6650     0.4440 H     1 <1>   0.0800 
 38 H       -0.9840    -6.6300     1.6170 H     1 <1>   0.0800 
 39 H       -1.1420    -4.8820     1.7550 H     1 <1>   0.0800 
 40 H       -1.6110    -4.6690    -1.8860 H     1 <1>   0.0800 
 41 H       -1.7620    -3.7650    -0.4130 H     1 <1>   0.0800 
 42 H       -2.9250    -6.8880    -2.1040 H     1 <1>   0.1500 
 43 H       -3.6210    -4.2110     1.1260 H     1 <1>   0.1500 
 44 H       -5.0510    -7.9440    -1.5730 H     1 <1>   0.1500 
 45 H       -5.7170    -5.3740     1.5260 H     1 <1>   0.1500 
@<TRIPOS>BOND
  1   1   2  1   
  2   1   3  1   
  3   2   4  2   
  4   2   5  1   
  5   3   6  2   
  6   3   7  1   
  7   4   6  1   
  8   5   8  2   
  9   5   9  am  
 10   6  10  1   
 11   7  11  1   
 12   7  25  1   
 13   7  26  1   
 14   9  12  1   
 15   9  27  1   
 16  10  13  1   
 17  10  28  1   
 18  10  29  1   
 19  11  13  1   
 20  11  30  1   
 21  11  31  1   
 22  12  14  1   
 23  12  15  1   
 24  12  32  1   
 25  13  33  1   
 26  13  34  1   
 27  14  16  1   
 28  14  17  1   
 29  14  35  1   
 30  15  18  1   
 31  15  36  1   
 32  15  37  1   
 33  16  18  1   
 34  16  38  1   
 35  16  39  1   
 36  17  19  1   
 37  17  40  1   
 38  17  41  1   
 39  19  20  ar  
 40  19  21  ar  
 41  20  22  ar  
 42  20  42  1   
 43  21  23  ar  
 44  21  43  1   
 45  22  24  ar  
 46  22  44  1   
 47  23  24  ar  
 48  23  45  1   
@<TRIPOS>SUBSTRUCTURE
  1 ****   9 GROUP 4 **** **** 0

# MOE 2024.06 (io_trps.svl 2023.06)
