@<TRIPOS>MOLECULE
NONAME
46 48 1 0 0 
SMALL
USER_CHARGES


@<TRIPOS>ATOM
  1 O        2.5210    -1.0660    -2.0200 O.2   1 <1>  -0.5700 
  2 C        1.8010    -1.3100    -1.0640 C.2   1 <1>   0.5440 
  3 N        1.1330    -0.2430    -0.4760 N.am  1 <1>  -0.6600 
  4 C        1.7170    -2.6920    -0.5880 C.ar  1 <1>   0.3960 
  5 C        1.0740     1.1020    -1.1170 C.3   1 <1>   0.0600 
  6 C        0.4500    -0.3240     0.8450 C.3   1 <1>   0.0600 
  7 N        0.5720    -3.1860    -0.0880 N.ar  1 <1>  -0.6200 
  8 C        2.8670    -3.4800    -0.6810 C.ar  1 <1>   0.1600 
  9 C        0.6450    -4.4500     0.2950 C.ar  1 <1>   0.4100 
 10 N        2.9750    -4.7420    -0.2890 N.ar  1 <1>  -0.6200 
 11 N       -0.5180    -5.0120     0.8130 N.pl3 1 <1>  -0.8380 
 12 C        1.8370    -5.1900     0.1980 C.ar  1 <1>   0.1600 
 13 C       -1.7870    -4.2240     0.8650 C.3   1 <1>   0.2090 
 14 C       -0.8620    -6.4350     0.5170 C.3   1 <1>   0.2090 
 15 C       -2.8690    -5.2540     1.1780 C.3   1 <1>   0.2000 
 16 C       -2.3900    -6.4880     0.4140 C.3   1 <1>  -0.0800 
 17 O       -2.8320    -5.5100     2.5420 O.3   1 <1>  -0.6800 
 18 C       -2.9970    -7.8320     0.8630 C.3   1 <1>   0.0210 
 19 C       -2.3930    -9.0080     0.1140 C.2   1 <1>   0.1080 
 20 N       -2.0410    -8.9630    -1.1340 N.2   1 <1>  -0.7070 
 21 C       -2.1520   -10.2560     0.6810 C.2   1 <1>  -0.1500 
 22 N       -1.5670   -10.1960    -1.4010 N.pl3 1 <1>   0.3000 
 23 C       -1.6210   -10.9960    -0.3150 C.2   1 <1>  -0.3320 
 24 C       -1.1600   -12.4410    -0.2980 C.3   1 <1>  -0.0600 
 25 H        0.0650     1.4750    -1.0910 H     1 <1>   0.0800 
 26 H        1.3910     1.0520    -2.1440 H     1 <1>   0.0800 
 27 H        1.7190     1.7820    -0.5890 H     1 <1>   0.0800 
 28 H        0.5120     0.6220     1.3540 H     1 <1>   0.0800 
 29 H        0.9140    -1.0720     1.4640 H     1 <1>   0.0800 
 30 H       -0.5840    -0.5820     0.7000 H     1 <1>   0.0800 
 31 H        3.7500    -3.0310    -1.1040 H     1 <1>   0.1500 
 32 H        1.8230    -6.2030     0.5530 H     1 <1>   0.1500 
 33 H       -1.7410    -3.4490     1.6100 H     1 <1>   0.0800 
 34 H       -1.9750    -3.7830    -0.1000 H     1 <1>   0.0800 
 35 H       -0.4130    -6.7670    -0.4050 H     1 <1>   0.0800 
 36 H       -0.5180    -7.0570     1.3250 H     1 <1>   0.0800 
 37 H       -3.8600    -4.9340     0.9070 H     1 <1>   0.0800 
 38 H       -2.6380    -6.3440    -0.6240 H     1 <1>   0.0800 
 39 H       -1.8890    -5.5530     2.8060 H     1 <1>   0.4000 
 40 H       -4.0570    -7.8200     0.6870 H     1 <1>   0.0800 
 41 H       -2.8380    -7.9820     1.9150 H     1 <1>   0.0800 
 42 H       -2.3560   -10.5410     1.6970 H     1 <1>   0.1500 
 43 H       -1.2190   -10.4590    -2.3300 H     1 <1>   0.2700 
 44 H       -1.3090   -12.8660     0.6790 H     1 <1>   0.0800 
 45 H       -0.1140   -12.5020    -0.5420 H     1 <1>   0.0800 
 46 H       -1.7210   -13.0200    -1.0110 H     1 <1>   0.0800 
@<TRIPOS>BOND
  1   1   2  2   
  2   2   3  am  
  3   2   4  1   
  4   3   5  1   
  5   3   6  1   
  6   4   7  ar  
  7   4   8  ar  
  8   5  25  1   
  9   5  26  1   
 10   5  27  1   
 11   6  28  1   
 12   6  29  1   
 13   6  30  1   
 14   7   9  ar  
 15   8  10  ar  
 16   8  31  1   
 17   9  11  1   
 18   9  12  ar  
 19  10  12  ar  
 20  11  13  1   
 21  11  14  1   
 22  12  32  1   
 23  13  15  1   
 24  13  33  1   
 25  13  34  1   
 26  14  16  1   
 27  14  35  1   
 28  14  36  1   
 29  15  16  1   
 30  15  17  1   
 31  15  37  1   
 32  16  18  1   
 33  16  38  1   
 34  17  39  1   
 35  18  19  1   
 36  18  40  1   
 37  18  41  1   
 38  19  20  2   
 39  19  21  1   
 40  20  22  1   
 41  21  23  2   
 42  21  42  1   
 43  22  23  1   
 44  22  43  1   
 45  23  24  1   
 46  24  44  1   
 47  24  45  1   
 48  24  46  1   
@<TRIPOS>SUBSTRUCTURE
  1 ****  11 GROUP 4 **** **** 0

# MOE 2024.06 (io_trps.svl 2023.06)
