@<TRIPOS>MOLECULE
NONAME
54 57 1 0 0 
SMALL
USER_CHARGES


@<TRIPOS>ATOM
  1 O       -2.7560    -0.2380    -1.6370 O.2   1 <1>  -0.5700 
  2 C       -2.6590     0.3720    -0.5880 C.2   1 <1>   0.5440 
  3 N       -3.0260    -0.2780     0.5730 N.am  1 <1>  -0.6600 
  4 C       -2.2200     1.7570    -0.5860 C.ar  1 <1>   0.0860 
  5 C       -3.8550     0.3860     1.6040 C.3   1 <1>   0.1400 
  6 C       -3.0430    -1.7590     0.6330 C.3   1 <1>   0.1400 
  7 C       -1.4150     2.2690     0.4330 C.ar  1 <1>  -0.1500 
  8 C       -2.5900     2.6290    -1.6110 C.ar  1 <1>  -0.1500 
  9 C       -5.3090    -0.0300     1.3710 C.3   1 <1>  -0.1600 
 10 C       -4.4720    -2.2310     0.3730 C.3   1 <1>  -0.1600 
 11 C       -1.0160     3.5940     0.4410 C.ar  1 <1>  -0.1500 
 12 C       -2.1950     3.9540    -1.6090 C.ar  1 <1>  -0.1500 
 13 C       -5.4560    -1.5590     1.3460 C.3   1 <1>   0.4230 
 14 C       -1.4090     4.4400    -0.5800 C.ar  1 <1>  -0.1500 
 15 N       -6.8720    -1.9130     1.0390 N.4   1 <1>  -0.9590 
 16 C       -7.3830    -1.5280    -0.3140 C.3   1 <1>   0.3430 
 17 C       -7.2040    -3.3620     1.2270 C.3   1 <1>   0.3430 
 18 C       -8.5400    -2.4910    -0.5760 C.3   1 <1>   0.2000 
 19 C       -8.0270    -3.8070     0.0050 C.3   1 <1>  -0.0800 
 20 O       -9.6250    -2.0770     0.1880 O.3   1 <1>  -0.6800 
 21 C       -7.1780    -4.5810    -1.0290 C.3   1 <1>  -0.0170 
 22 C       -6.6620    -5.9050    -0.4850 C.ar  1 <1>   0.1670 
 23 N       -5.6250    -5.8400     0.3360 N.ar  1 <1>  -0.6200 
 24 C       -7.2720    -7.1020    -0.8610 C.ar  1 <1>   0.1600 
 25 C       -5.2370    -7.0410     0.7420 C.ar  1 <1>   0.1600 
 26 N       -6.8940    -8.2970    -0.4450 N.ar  1 <1>  -0.6200 
 27 C       -5.8520    -8.2290     0.3650 C.ar  1 <1>   0.1600 
 28 H       -3.5200     0.0850     2.5830 H     1 <1>   0.0800 
 29 H       -3.7690     1.4570     1.5340 H     1 <1>   0.0800 
 30 H       -2.3770    -2.1680    -0.1100 H     1 <1>   0.0800 
 31 H       -2.7010    -2.0830     1.6010 H     1 <1>   0.0800 
 32 H       -1.0940     1.6160     1.2250 H     1 <1>   0.1500 
 33 H       -3.1940     2.2540    -2.4190 H     1 <1>   0.1500 
 34 H       -5.6220     0.3980     0.4360 H     1 <1>   0.0800 
 35 H       -5.9150     0.3840     2.1570 H     1 <1>   0.0800 
 36 H       -4.4930    -3.2980     0.4880 H     1 <1>   0.0800 
 37 H       -4.7010    -1.9910    -0.6480 H     1 <1>   0.0800 
 38 H       -0.3970     3.9670     1.2380 H     1 <1>   0.1500 
 39 H       -2.4960     4.6070    -2.4110 H     1 <1>   0.1500 
 40 H       -5.2220    -1.9180     2.3360 H     1 <1>   0.0800 
 41 H       -1.0990     5.4710    -0.5780 H     1 <1>   0.1500 
 42 H       -7.4820    -1.4080     1.6970 H     1 <1>   0.4500 
 43 H       -7.7150    -0.5030    -0.3450 H     1 <1>   0.0800 
 44 H       -6.6230    -1.6780    -1.0610 H     1 <1>   0.0800 
 45 H       -6.3120    -3.9500     1.3410 H     1 <1>   0.0800 
 46 H       -7.7990    -3.4780     2.1180 H     1 <1>   0.0800 
 47 H       -8.8300    -2.5340    -1.6120 H     1 <1>   0.0800 
 48 H       -8.8400    -4.4400     0.3150 H     1 <1>   0.0800 
 49 H      -10.4450    -2.5540    -0.0640 H     1 <1>   0.4000 
 50 H       -6.3330    -3.9950    -1.3470 H     1 <1>   0.0800 
 51 H       -7.7750    -4.7740    -1.9030 H     1 <1>   0.0800 
 52 H       -8.1100    -7.0740    -1.5350 H     1 <1>   0.1500 
 53 H       -4.3910    -7.0920     1.4050 H     1 <1>   0.1500 
 54 H       -5.4660    -9.1570     0.7490 H     1 <1>   0.1500 
@<TRIPOS>BOND
  1   1   2  2   
  2   2   3  am  
  3   2   4  1   
  4   3   5  1   
  5   3   6  1   
  6   4   7  ar  
  7   4   8  ar  
  8   5   9  1   
  9   5  28  1   
 10   5  29  1   
 11   6  10  1   
 12   6  30  1   
 13   6  31  1   
 14   7  11  ar  
 15   7  32  1   
 16   8  12  ar  
 17   8  33  1   
 18   9  13  1   
 19   9  34  1   
 20   9  35  1   
 21  10  13  1   
 22  10  36  1   
 23  10  37  1   
 24  11  14  ar  
 25  11  38  1   
 26  12  14  ar  
 27  12  39  1   
 28  13  15  1   
 29  13  40  1   
 30  14  41  1   
 31  15  16  1   
 32  15  17  1   
 33  15  42  1   
 34  16  18  1   
 35  16  43  1   
 36  16  44  1   
 37  17  19  1   
 38  17  45  1   
 39  17  46  1   
 40  18  19  1   
 41  18  20  1   
 42  18  47  1   
 43  19  21  1   
 44  19  48  1   
 45  20  49  1   
 46  21  22  1   
 47  21  50  1   
 48  21  51  1   
 49  22  23  ar  
 50  22  24  ar  
 51  23  25  ar  
 52  24  26  ar  
 53  24  52  1   
 54  25  27  ar  
 55  25  53  1   
 56  26  27  ar  
 57  27  54  1   
@<TRIPOS>SUBSTRUCTURE
  1 ****  10 GROUP 4 **** **** 0

# MOE 2024.06 (io_trps.svl 2023.06)
