@<TRIPOS>MOLECULE
NONAME
49 52 1 0 0 
SMALL
USER_CHARGES


@<TRIPOS>ATOM
  1 O       -0.6310    -0.0140    -1.0160 O.2   1 <1>  -0.5700 
  2 C       -1.3890     0.7050    -0.3950 C.2   1 <1>   0.5440 
  3 N       -2.4220     0.1240     0.3080 N.am  1 <1>  -0.6600 
  4 C       -1.2070     2.1430    -0.4270 C.ar  1 <1>   0.0860 
  5 C       -2.4880    -1.3560     0.5280 C.3   1 <1>   0.1400 
  6 C       -3.7510     0.7850     0.4860 C.3   1 <1>   0.1400 
  7 C       -0.9890     2.8120    -1.6290 C.ar  1 <1>  -0.1500 
  8 C       -1.2460     2.9100     0.7410 C.ar  1 <1>  -0.1500 
  9 C       -3.6360    -1.9800    -0.2870 C.3   1 <1>   0.3440 
 10 C       -4.8400     0.0440    -0.3170 C.3   1 <1>   0.2950 
 11 C       -0.8380     4.1830    -1.6590 C.ar  1 <1>   0.0820 
 12 C       -1.0900     4.2850     0.7170 C.ar  1 <1>  -0.1500 
 13 O       -4.8420    -1.3180    -0.0030 O.3   1 <1>  -0.5600 
 14 C       -3.7730    -3.4660     0.0320 C.ar  1 <1>  -0.1430 
 15 C       -6.2360     0.5910    -0.0060 C.3   1 <1>  -0.1950 
 16 O       -0.6420     4.8030    -2.8350 O.3   1 <1>  -0.5330 
 17 C       -0.8850     4.9410    -0.4920 C.ar  1 <1>   0.0830 
 18 C       -4.6080    -3.9200     1.0450 C.ar  1 <1>  -0.1500 
 19 C       -3.0370    -4.3900    -0.6960 C.ar  1 <1>  -0.1500 
 20 C       -7.3690     0.4110    -0.9660 C.3   1 <1>  -0.2000 
 21 C       -6.7830     1.7760    -0.7400 C.3   1 <1>  -0.2000 
 22 O       -0.7260     6.2880    -0.6070 O.3   1 <1>  -0.3630 
 23 C       -4.7040    -5.2720     1.3250 C.ar  1 <1>  -0.1500 
 24 C       -3.1320    -5.7430    -0.4180 C.ar  1 <1>  -0.1500 
 25 C       -0.7120     7.1260     0.5280 C.3   1 <1>   0.0400 
 26 C       -3.9660    -6.1850     0.5930 C.ar  1 <1>  -0.1500 
 27 H       -1.5610    -1.8250     0.2510 H     1 <1>   0.0800 
 28 H       -2.6520    -1.5540     1.5720 H     1 <1>   0.0800 
 29 H       -4.0130     0.7790     1.5300 H     1 <1>   0.0800 
 30 H       -3.7180     1.8080     0.1570 H     1 <1>   0.0800 
 31 H       -0.9350     2.2530    -2.5470 H     1 <1>   0.1500 
 32 H       -1.3980     2.4090     1.6820 H     1 <1>   0.1500 
 33 H       -3.4330    -1.8630    -1.3380 H     1 <1>   0.0800 
 34 H       -4.6430     0.1430    -1.3720 H     1 <1>   0.0800 
 35 H       -1.1290     4.8260     1.6440 H     1 <1>   0.1500 
 36 H       -6.4710     0.5140     1.0410 H     1 <1>   0.1000 
 37 H       -0.5390     5.7640    -2.6820 H     1 <1>   0.4500 
 38 H       -5.1900    -3.2190     1.6180 H     1 <1>   0.1500 
 39 H       -2.3820    -4.0610    -1.4850 H     1 <1>   0.1500 
 40 H       -7.1800    -0.0960    -1.8970 H     1 <1>   0.1000 
 41 H       -8.3430     0.1850    -0.5670 H     1 <1>   0.1000 
 42 H       -7.3660     2.5010    -0.1970 H     1 <1>   0.1000 
 43 H       -6.2140     2.2210    -1.5380 H     1 <1>   0.1000 
 44 H       -5.3560    -5.6120     2.1100 H     1 <1>   0.1500 
 45 H       -2.5570    -6.4510    -0.9880 H     1 <1>   0.1500 
 46 H       -0.5580     8.1370     0.1960 H     1 <1>   0.0800 
 47 H        0.0950     6.8270     1.1740 H     1 <1>   0.0800 
 48 H       -1.6590     7.0480     1.0320 H     1 <1>   0.0800 
 49 H       -4.0410    -7.2360     0.8100 H     1 <1>   0.1500 
@<TRIPOS>BOND
  1   1   2  2   
  2   2   3  am  
  3   2   4  1   
  4   3   5  1   
  5   3   6  1   
  6   4   7  ar  
  7   4   8  ar  
  8   5   9  1   
  9   5  27  1   
 10   5  28  1   
 11   6  10  1   
 12   6  29  1   
 13   6  30  1   
 14   7  11  ar  
 15   7  31  1   
 16   8  12  ar  
 17   8  32  1   
 18   9  13  1   
 19   9  14  1   
 20   9  33  1   
 21  10  13  1   
 22  10  15  1   
 23  10  34  1   
 24  11  16  1   
 25  11  17  ar  
 26  12  17  ar  
 27  12  35  1   
 28  14  18  ar  
 29  14  19  ar  
 30  15  20  1   
 31  15  21  1   
 32  15  36  1   
 33  16  37  1   
 34  17  22  1   
 35  18  23  ar  
 36  18  38  1   
 37  19  24  ar  
 38  19  39  1   
 39  20  21  1   
 40  20  40  1   
 41  20  41  1   
 42  21  42  1   
 43  21  43  1   
 44  22  25  1   
 45  23  26  ar  
 46  23  44  1   
 47  24  26  ar  
 48  24  45  1   
 49  25  46  1   
 50  25  47  1   
 51  25  48  1   
 52  26  49  1   
@<TRIPOS>SUBSTRUCTURE
  1 ****   3 GROUP 4 **** **** 0

# MOE 2024.06 (io_trps.svl 2023.06)
