@<TRIPOS>MOLECULE
NONAME
48 50 1 0 0 
SMALL
USER_CHARGES


@<TRIPOS>ATOM
  1 O       -1.6280    -0.2890     1.7140 O.2   1 <1>  -0.5700 
  2 C       -1.9820     0.5580     0.9260 C.2   1 <1>   0.5690 
  3 N       -2.7070     0.1890    -0.1820 N.am  1 <1>  -0.6600 
  4 C       -1.6890     2.0400     1.2230 C.3   1 <1>   0.1250 
  5 C       -2.6390    -1.2210    -0.6550 C.3   1 <1>   0.3200 
  6 C       -3.7940     1.0210    -0.7860 C.3   1 <1>   0.1400 
  7 C       -0.7120     2.7120     0.2750 C.ar  1 <1>  -0.1440 
  8 C       -1.0660     2.3380     2.6070 C.3   1 <1>  -0.1600 
  9 C       -3.8700    -1.9140    -0.1260 C.2   1 <1>  -0.3320 
 10 C       -5.0190     1.0580     0.1540 C.3   1 <1>   0.3430 
 11 C        0.0690     3.6160     0.9570 C.ar  1 <1>  -0.1440 
 12 C       -0.5380     2.5360    -1.0890 C.ar  1 <1>  -0.1500 
 13 C       -0.2500     3.6270     2.4310 C.3   1 <1>  -0.0160 
 14 N       -4.0430    -2.1600     1.1850 N.pl3 1 <1>   0.0330 
 15 C       -4.9740    -2.3640    -0.7560 C.2   1 <1>   0.0770 
 16 N       -6.3070     1.3950    -0.5380 N.4   1 <1>  -0.9590 
 17 C        1.0220     4.3750     0.3030 C.ar  1 <1>  -0.1500 
 18 C        0.4150     3.2910    -1.7540 C.ar  1 <1>  -0.1500 
 19 C       -5.2760    -2.7030     1.2740 C.2   1 <1>   0.0360 
 20 N       -5.8760    -2.8190     0.1310 N.2   1 <1>  -0.5650 
 21 C       -7.3280     1.8310     0.4640 C.3   1 <1>   0.2630 
 22 C       -6.8360     0.2080    -1.2870 C.3   1 <1>   0.2630 
 23 C        1.1900     4.2090    -1.0620 C.ar  1 <1>  -0.1500 
 24 H       -2.6100     2.5870     1.1690 H     1 <1>   0.0800 
 25 H       -1.7470    -1.7060    -0.2920 H     1 <1>   0.0800 
 26 H       -2.6170    -1.2460    -1.7310 H     1 <1>   0.0800 
 27 H       -4.0690     0.5920    -1.7340 H     1 <1>   0.0800 
 28 H       -3.4350     2.0200    -0.9610 H     1 <1>   0.0800 
 29 H       -0.3800     1.5510     2.8700 H     1 <1>   0.0800 
 30 H       -1.8070     2.4280     3.3800 H     1 <1>   0.0800 
 31 H       -4.8260     1.7820     0.9280 H     1 <1>   0.0800 
 32 H       -5.1260     0.0950     0.6250 H     1 <1>   0.0800 
 33 H       -1.1210     1.8230    -1.6400 H     1 <1>   0.1500 
 34 H        0.6430     3.6150     3.0310 H     1 <1>   0.0800 
 35 H       -0.8400     4.4960     2.6670 H     1 <1>   0.0800 
 36 H       -3.3670    -1.9640     1.9380 H     1 <1>   0.2700 
 37 H       -5.1810    -2.3750    -1.8150 H     1 <1>   0.1500 
 38 H       -6.1520     2.1720    -1.2000 H     1 <1>   0.4500 
 39 H        1.6260     5.0800     0.8460 H     1 <1>   0.1500 
 40 H        0.5600     3.1640    -2.8130 H     1 <1>   0.1500 
 41 H       -5.6990    -3.0060     2.2170 H     1 <1>   0.1500 
 42 H       -7.5230     1.0380     1.1690 H     1 <1>   0.0800 
 43 H       -8.2530     2.0850    -0.0290 H     1 <1>   0.0800 
 44 H       -6.9800     2.6960     1.0050 H     1 <1>   0.0800 
 45 H       -7.0040    -0.6170    -0.6110 H     1 <1>   0.0800 
 46 H       -6.1350    -0.1080    -2.0400 H     1 <1>   0.0800 
 47 H       -7.7700     0.4510    -1.7680 H     1 <1>   0.0800 
 48 H        1.9280     4.7920    -1.5850 H     1 <1>   0.1500 
@<TRIPOS>BOND
  1   1   2  2   
  2   2   3  am  
  3   2   4  1   
  4   3   5  1   
  5   3   6  1   
  6   4   7  1   
  7   4   8  1   
  8   4  24  1   
  9   5   9  1   
 10   5  25  1   
 11   5  26  1   
 12   6  10  1   
 13   6  27  1   
 14   6  28  1   
 15   7  11  ar  
 16   7  12  ar  
 17   8  13  1   
 18   8  29  1   
 19   8  30  1   
 20   9  14  1   
 21   9  15  2   
 22  10  16  1   
 23  10  31  1   
 24  10  32  1   
 25  11  13  1   
 26  11  17  ar  
 27  12  18  ar  
 28  12  33  1   
 29  13  34  1   
 30  13  35  1   
 31  14  19  1   
 32  14  36  1   
 33  15  20  1   
 34  15  37  1   
 35  16  21  1   
 36  16  22  1   
 37  16  38  1   
 38  17  23  ar  
 39  17  39  1   
 40  18  23  ar  
 41  18  40  1   
 42  19  20  2   
 43  19  41  1   
 44  21  42  1   
 45  21  43  1   
 46  21  44  1   
 47  22  45  1   
 48  22  46  1   
 49  22  47  1   
 50  23  48  1   
@<TRIPOS>SUBSTRUCTURE
  1 ****   3 GROUP 4 **** **** 0

# MOE 2024.06 (io_trps.svl 2023.06)
