@<TRIPOS>MOLECULE
NONAME
42 44 1 0 0 
SMALL
USER_CHARGES


@<TRIPOS>ATOM
  1 O        0.4110    -0.0730    -0.1190 O.co2 1 <1>  -0.9000 
  2 C        0.2750    -0.9880     0.7140 C.2   1 <1>   0.9790 
  3 O       -0.2790    -0.7220     1.8000 O.co2 1 <1>  -0.9000 
  4 C        0.7750    -2.3100     0.4520 C.ar  1 <1>  -0.1790 
  5 C        0.0350    -3.2470    -0.2880 C.ar  1 <1>   0.4100 
  6 C        2.0200    -2.6860     0.9310 C.ar  1 <1>  -0.1500 
  7 N        0.4790    -4.4680    -0.5810 N.ar  1 <1>  -0.6200 
  8 N       -1.2220    -2.9800    -0.7850 N.pl3 1 <1>  -0.8380 
  9 C        2.4710    -3.9520     0.6400 C.ar  1 <1>  -0.1500 
 10 C        1.6680    -4.7880    -0.1130 C.ar  1 <1>   0.1600 
 11 C       -2.2820    -2.6080     0.1920 C.3   1 <1>   0.2090 
 12 C       -1.2790    -2.1850    -2.0270 C.3   1 <1>   0.2090 
 13 C       -3.6970    -2.8200    -0.3810 C.3   1 <1>   0.0000 
 14 C       -2.6370    -2.4080    -2.6980 C.3   1 <1>  -0.1600 
 15 C       -4.7970    -2.3030     0.5730 C.3   1 <1>   0.2000 
 16 C       -3.8060    -2.0830    -1.7460 C.3   1 <1>  -0.1600 
 17 C       -4.0480    -4.3120    -0.5250 C.3   1 <1>  -0.1600 
 18 O       -4.5360    -2.6580     1.9030 O.3   1 <1>  -0.5600 
 19 C       -6.0550    -3.0680     0.1580 C.3   1 <1>  -0.1600 
 20 C       -5.5760    -4.4070    -0.4240 C.3   1 <1>  -0.1600 
 21 C       -4.0440    -1.6340     2.7160 C.3   1 <1>   0.0400 
 22 H        2.6040    -1.9910     1.5100 H     1 <1>   0.1500 
 23 H        3.4290    -4.2860     0.9890 H     1 <1>   0.1500 
 24 H        2.0240    -5.7750    -0.3420 H     1 <1>   0.1500 
 25 H       -2.1490    -3.1750     1.0970 H     1 <1>   0.0800 
 26 H       -2.1790    -1.5650     0.4300 H     1 <1>   0.0800 
 27 H       -1.1460    -1.1420    -1.7920 H     1 <1>   0.0800 
 28 H       -0.4820    -2.4900    -2.6840 H     1 <1>   0.0800 
 29 H       -2.6990    -1.7850    -3.5710 H     1 <1>   0.0800 
 30 H       -2.6900    -3.4310    -3.0220 H     1 <1>   0.0800 
 31 H       -4.9390    -1.2370     0.5070 H     1 <1>   0.0800 
 32 H       -4.7330    -2.3200    -2.2350 H     1 <1>   0.0800 
 33 H       -3.7930    -1.0230    -1.5630 H     1 <1>   0.0800 
 34 H       -3.6670    -4.7450    -1.4310 H     1 <1>   0.0800 
 35 H       -3.6160    -4.8480     0.3030 H     1 <1>   0.0800 
 36 H       -6.7240    -3.2030     0.9890 H     1 <1>   0.0800 
 37 H       -6.5640    -2.5130    -0.6090 H     1 <1>   0.0800 
 38 H       -5.8500    -5.2230     0.2220 H     1 <1>   0.0800 
 39 H       -6.0090    -4.5650    -1.3960 H     1 <1>   0.0800 
 40 H       -3.8710    -2.0400     3.6970 H     1 <1>   0.0800 
 41 H       -4.7720    -0.8450     2.7730 H     1 <1>   0.0800 
 42 H       -3.1150    -1.2560     2.3250 H     1 <1>   0.0800 
@<TRIPOS>BOND
  1   1   2  ar  
  2   2   3  ar  
  3   2   4  1   
  4   4   5  ar  
  5   4   6  ar  
  6   5   7  ar  
  7   5   8  1   
  8   6   9  ar  
  9   6  22  1   
 10   7  10  ar  
 11   8  11  1   
 12   8  12  1   
 13   9  10  ar  
 14   9  23  1   
 15  10  24  1   
 16  11  13  1   
 17  11  25  1   
 18  11  26  1   
 19  12  14  1   
 20  12  27  1   
 21  12  28  1   
 22  13  15  1   
 23  13  16  1   
 24  13  17  1   
 25  14  16  1   
 26  14  29  1   
 27  14  30  1   
 28  15  18  1   
 29  15  19  1   
 30  15  31  1   
 31  16  32  1   
 32  16  33  1   
 33  17  20  1   
 34  17  34  1   
 35  17  35  1   
 36  18  21  1   
 37  19  20  1   
 38  19  36  1   
 39  19  37  1   
 40  20  38  1   
 41  20  39  1   
 42  21  40  1   
 43  21  41  1   
 44  21  42  1   
@<TRIPOS>SUBSTRUCTURE
  1 ****  11 GROUP 4 **** **** 0

# MOE 2024.06 (io_trps.svl 2023.06)
