@<TRIPOS>MOLECULE
NONAME
52 54 1 0 0 
SMALL
USER_CHARGES


@<TRIPOS>ATOM
  1 O       -0.9660     0.3060     1.8240 O.2   1 <1>  -0.5700 
  2 C       -1.5720     0.6100     0.8240 C.2   1 <1>   0.5690 
  3 N       -2.1810    -0.3260     0.0350 N.am  1 <1>  -0.6600 
  4 C       -1.6280     2.0810     0.4330 C.3   1 <1>  -0.0990 
  5 C       -2.0700    -1.7870     0.3780 C.3   1 <1>   0.3640 
  6 C       -3.0160     0.0160    -1.1610 C.3   1 <1>   0.1400 
  7 C       -1.0360     3.0300     1.4940 C.3   1 <1>  -0.0990 
  8 C       -0.8920    -2.4610    -0.3440 C.ar  1 <1>  -0.1440 
  9 C       -3.4000    -2.5660     0.1190 C.3   1 <1>   0.2000 
 10 C       -3.6210    -1.2270    -1.8290 C.3   1 <1>   0.1200 
 11 C       -1.0050     4.4630     1.0060 C.2   1 <1>   0.5690 
 12 C       -0.4520    -3.6860     0.1420 C.ar  1 <1>  -0.1500 
 13 C       -0.2370    -1.9140    -1.4430 C.ar  1 <1>  -0.1500 
 14 O       -4.2480    -2.0050    -0.8600 O.3   1 <1>  -0.5600 
 15 C       -4.2330    -2.6820     1.4010 C.3   1 <1>   0.1200 
 16 O       -2.0460     4.9790     0.6820 O.2   1 <1>  -0.5700 
 17 N        0.2120     5.0830     0.9430 N.am  1 <1>  -0.5470 
 18 C        0.5980    -4.3570    -0.4600 C.ar  1 <1>  -0.1500 
 19 C        0.8130    -2.5830    -2.0480 C.ar  1 <1>  -0.1500 
 20 O       -3.6210    -3.5560     2.2950 O.3   1 <1>  -0.6800 
 21 C        0.5770     6.3790     0.5390 C.ar  1 <1>   0.1170 
 22 C        1.2300    -3.8060    -1.5590 C.ar  1 <1>  -0.1500 
 23 C       -0.3290     7.4300     0.4370 C.ar  1 <1>  -0.1500 
 24 C        1.9130     6.6260     0.2400 C.ar  1 <1>  -0.1500 
 25 C        0.0980     8.6850     0.0400 C.ar  1 <1>   0.0820 
 26 C        2.3390     7.8820    -0.1560 C.ar  1 <1>  -0.1500 
 27 O       -0.7810     9.6930    -0.0620 O.3   1 <1>  -0.5330 
 28 C        1.4280     8.9180    -0.2570 C.ar  1 <1>  -0.1500 
 29 H       -1.0880     2.2030    -0.4870 H     1 <1>   0.0800 
 30 H       -2.6520     2.3600     0.2650 H     1 <1>   0.0800 
 31 H       -1.8520    -1.8730     1.4290 H     1 <1>   0.0800 
 32 H       -3.8230     0.6590    -0.8550 H     1 <1>   0.0800 
 33 H       -2.4180     0.5480    -1.8800 H     1 <1>   0.0800 
 34 H       -0.0400     2.7120     1.7470 H     1 <1>   0.0800 
 35 H       -1.6330     2.9840     2.3870 H     1 <1>   0.0800 
 36 H       -3.1680    -3.5590    -0.2190 H     1 <1>   0.0800 
 37 H       -2.8720    -1.8200    -2.3240 H     1 <1>   0.0800 
 38 H       -4.3640    -0.9380    -2.5510 H     1 <1>   0.0800 
 39 H       -0.9260    -4.1270     1.0030 H     1 <1>   0.1500 
 40 H       -0.5270    -0.9610    -1.8400 H     1 <1>   0.1500 
 41 H       -5.2160    -3.0610     1.1840 H     1 <1>   0.0800 
 42 H       -4.3140    -1.7200     1.8780 H     1 <1>   0.0800 
 43 H        0.9980     4.4960     1.2110 H     1 <1>   0.3700 
 44 H        0.9250    -5.3050    -0.0710 H     1 <1>   0.1500 
 45 H        1.3090    -2.1480    -2.8990 H     1 <1>   0.1500 
 46 H       -3.8010    -4.4850     2.0480 H     1 <1>   0.4000 
 47 H        2.0470    -4.3260    -2.0280 H     1 <1>   0.1500 
 48 H       -1.3640     7.2750     0.6710 H     1 <1>   0.1500 
 49 H        2.6320     5.8300     0.3120 H     1 <1>   0.1500 
 50 H        3.3760     8.0570    -0.3850 H     1 <1>   0.1500 
 51 H       -1.6930     9.4190     0.1420 H     1 <1>   0.4500 
 52 H        1.7390     9.9010    -0.5640 H     1 <1>   0.1500 
@<TRIPOS>BOND
  1   1   2  2   
  2   2   3  am  
  3   2   4  1   
  4   3   5  1   
  5   3   6  1   
  6   4   7  1   
  7   4  29  1   
  8   4  30  1   
  9   5   8  1   
 10   5   9  1   
 11   5  31  1   
 12   6  10  1   
 13   6  32  1   
 14   6  33  1   
 15   7  11  1   
 16   7  34  1   
 17   7  35  1   
 18   8  12  ar  
 19   8  13  ar  
 20   9  14  1   
 21   9  15  1   
 22   9  36  1   
 23  10  14  1   
 24  10  37  1   
 25  10  38  1   
 26  11  16  2   
 27  11  17  am  
 28  12  18  ar  
 29  12  39  1   
 30  13  19  ar  
 31  13  40  1   
 32  15  20  1   
 33  15  41  1   
 34  15  42  1   
 35  17  21  1   
 36  17  43  1   
 37  18  22  ar  
 38  18  44  1   
 39  19  22  ar  
 40  19  45  1   
 41  20  46  1   
 42  21  23  ar  
 43  21  24  ar  
 44  22  47  1   
 45  23  25  ar  
 46  23  48  1   
 47  24  26  ar  
 48  24  49  1   
 49  25  27  1   
 50  25  28  ar  
 51  26  28  ar  
 52  26  50  1   
 53  27  51  1   
 54  28  52  1   
@<TRIPOS>SUBSTRUCTURE
  1 ****   4 GROUP 4 **** **** 0

# MOE 2024.06 (io_trps.svl 2023.06)
