@<TRIPOS>MOLECULE
NONAME
44 47 1 0 0 
SMALL
USER_CHARGES


@<TRIPOS>ATOM
  1 CL      -1.3670     0.4490     1.4970 Cl    1 <1>  -0.1770 
  2 C       -2.2970    -0.9400     1.0100 C.ar  1 <1>   0.1770 
  3 C       -2.8560    -1.7560     1.9730 C.ar  1 <1>  -0.1500 
  4 C       -2.4630    -1.2080    -0.3390 C.ar  1 <1>  -0.1500 
  5 C       -3.5930    -2.8460     1.5520 C.ar  1 <1>   0.1900 
  6 C       -3.2070    -2.3090    -0.7320 C.ar  1 <1>  -0.1500 
  7 F       -4.1150    -3.6090     2.4720 F     1 <1>  -0.1900 
  8 C       -3.8030    -3.1550     0.2070 C.ar  1 <1>   0.0860 
  9 C       -4.5860    -4.2920    -0.2190 C.2   1 <1>   0.5440 
 10 O       -4.0290    -5.1850    -0.8290 O.2   1 <1>  -0.5700 
 11 N       -5.9460    -4.3770    -0.0040 N.am  1 <1>  -0.6600 
 12 C       -6.7730    -3.2880     0.6030 C.3   1 <1>   0.1400 
 13 C       -6.7040    -5.5990    -0.4160 C.3   1 <1>   0.1400 
 14 C       -7.8630    -2.8080    -0.3800 C.3   1 <1>   0.1430 
 15 C       -8.2200    -5.3440    -0.4940 C.3   1 <1>  -0.1600 
 16 C       -8.8650    -1.9980     0.4250 C.ar  1 <1>   0.1670 
 17 C       -8.5180    -3.9870    -1.1510 C.3   1 <1>  -0.1600 
 18 C       -7.3020    -1.7410    -1.3590 C.3   1 <1>  -0.1600 
 19 N       -9.7730    -2.4940     1.2360 N.ar  1 <1>  -0.6200 
 20 C       -8.7040    -0.6590     0.2280 C.ar  1 <1>  -0.1430 
 21 C       -7.5810    -0.3640    -0.7330 C.3   1 <1>  -0.0170 
 22 C      -10.5280    -1.5860     1.8380 C.ar  1 <1>   0.4770 
 23 C       -9.5410     0.1940     0.9040 C.ar  1 <1>   0.1600 
 24 N      -10.4670    -0.2660     1.7190 N.ar  1 <1>  -0.6200 
 25 C      -11.5900    -2.1190     2.7680 C.3   1 <1>  -0.0970 
 26 H       -2.7200    -1.5490     3.0190 H     1 <1>   0.1500 
 27 H       -2.0090    -0.5600    -1.0680 H     1 <1>   0.1500 
 28 H       -3.3320    -2.5300    -1.7790 H     1 <1>   0.1500 
 29 H       -6.1700    -2.4540     0.9070 H     1 <1>   0.0800 
 30 H       -7.2430    -3.6810     1.4890 H     1 <1>   0.0800 
 31 H       -6.5000    -6.3940     0.2810 H     1 <1>   0.0800 
 32 H       -6.3530    -5.9110    -1.3850 H     1 <1>   0.0800 
 33 H       -8.6420    -5.3700     0.4960 H     1 <1>   0.0800 
 34 H       -8.6810    -6.1350    -1.0590 H     1 <1>   0.0800 
 35 H       -8.1310    -4.0260    -2.1540 H     1 <1>   0.0800 
 36 H       -9.5820    -3.8380    -1.2200 H     1 <1>   0.0800 
 37 H       -7.8420    -1.7880    -2.2890 H     1 <1>   0.0800 
 38 H       -6.2570    -1.8880    -1.5680 H     1 <1>   0.0800 
 39 H       -7.8710     0.3580    -1.4770 H     1 <1>   0.0800 
 40 H       -6.7220    -0.0080    -0.1910 H     1 <1>   0.0800 
 41 H       -9.4540     1.2600     0.7790 H     1 <1>   0.1500 
 42 H      -11.2720    -3.0500     3.1970 H     1 <1>   0.0800 
 43 H      -12.4970    -2.2750     2.2160 H     1 <1>   0.0800 
 44 H      -11.7740    -1.4150     3.5590 H     1 <1>   0.0800 
@<TRIPOS>BOND
  1   1   2  1   
  2   2   3  ar  
  3   2   4  ar  
  4   3   5  ar  
  5   3  26  1   
  6   4   6  ar  
  7   4  27  1   
  8   5   7  1   
  9   5   8  ar  
 10   6   8  ar  
 11   6  28  1   
 12   8   9  1   
 13   9  10  2   
 14   9  11  am  
 15  11  12  1   
 16  11  13  1   
 17  12  14  1   
 18  12  29  1   
 19  12  30  1   
 20  13  15  1   
 21  13  31  1   
 22  13  32  1   
 23  14  16  1   
 24  14  17  1   
 25  14  18  1   
 26  15  17  1   
 27  15  33  1   
 28  15  34  1   
 29  16  19  ar  
 30  16  20  ar  
 31  17  35  1   
 32  17  36  1   
 33  18  21  1   
 34  18  37  1   
 35  18  38  1   
 36  19  22  ar  
 37  20  21  1   
 38  20  23  ar  
 39  21  39  1   
 40  21  40  1   
 41  22  24  ar  
 42  22  25  1   
 43  23  24  ar  
 44  23  41  1   
 45  25  42  1   
 46  25  43  1   
 47  25  44  1   
@<TRIPOS>SUBSTRUCTURE
  1 ****  12 GROUP 4 **** **** 0

# MOE 2024.06 (io_trps.svl 2023.06)
