@<TRIPOS>MOLECULE
NONAME
45 48 1 0 0 
SMALL
USER_CHARGES


@<TRIPOS>ATOM
  1 O       -5.2510     3.2610     0.8230 O.2   1 <1>  -0.5700 
  2 C       -4.0780     3.2580     0.5000 C.2   1 <1>   0.7800 
  3 O       -3.1190     3.8180     1.2380 O.3   1 <1>  -0.2320 
  4 N       -3.5550     2.6750    -0.6150 N.am  1 <1>  -0.4770 
  5 C       -1.9520     3.5750     0.6070 C.ar  1 <1>   0.0830 
  6 C       -2.1910     2.8570    -0.5440 C.ar  1 <1>   0.1170 
  7 C       -4.3060     1.9130    -1.6460 C.3   1 <1>   0.2010 
  8 C       -0.6750     3.9450     0.9880 C.ar  1 <1>  -0.1500 
  9 C       -1.1380     2.4680    -1.3580 C.ar  1 <1>  -0.1500 
 10 C       -4.0400     0.4110    -1.5710 C.2   1 <1>   0.5690 
 11 C        0.3800     3.5650     0.1710 C.ar  1 <1>  -0.1500 
 12 C        0.1490     2.8310    -0.9910 C.ar  1 <1>  -0.1500 
 13 O       -3.3160    -0.0740    -2.4100 O.2   1 <1>  -0.5700 
 14 N       -4.6130    -0.3620    -0.5950 N.am  1 <1>  -0.6600 
 15 C       -5.5620     0.0850     0.4580 C.3   1 <1>   0.1400 
 16 C       -4.3480    -1.8160    -0.4800 C.3   1 <1>   0.1400 
 17 C       -6.1050    -1.2120     1.0540 C.3   1 <1>   0.2000 
 18 C       -4.9990    -2.2420     0.8380 C.3   1 <1>  -0.0800 
 19 O       -6.3880    -1.0870     2.4050 O.3   1 <1>  -0.6800 
 20 C       -5.5170    -3.6880     0.8310 C.3   1 <1>   0.0200 
 21 C       -4.3970    -4.6630     0.5260 C.2   1 <1>  -0.0400 
 22 O       -3.3760    -4.7590     1.3360 O.3   1 <1>  -0.0190 
 23 C       -4.2020    -5.5210    -0.4870 C.2   1 <1>  -0.1500 
 24 N       -2.5060    -5.6320     0.9170 N.2   1 <1>  -0.4100 
 25 C       -2.9780    -6.1080    -0.1790 C.2   1 <1>   0.1080 
 26 C       -2.2870    -7.1620    -1.0150 C.3   1 <1>  -0.0590 
 27 H       -5.3580     2.0940    -1.5330 H     1 <1>   0.0800 
 28 H       -4.0110     2.2660    -2.6170 H     1 <1>   0.0800 
 29 H       -0.5170     4.5090     1.8900 H     1 <1>   0.1500 
 30 H       -1.3220     1.8940    -2.2500 H     1 <1>   0.1500 
 31 H        1.3870     3.8380     0.4370 H     1 <1>   0.1500 
 32 H        0.9810     2.5410    -1.6100 H     1 <1>   0.1500 
 33 H       -5.0240     0.6450     1.2030 H     1 <1>   0.0800 
 34 H       -6.3550     0.6800     0.0420 H     1 <1>   0.0800 
 35 H       -4.8000    -2.3190    -1.3180 H     1 <1>   0.0800 
 36 H       -3.2880    -2.0140    -0.4780 H     1 <1>   0.0800 
 37 H       -7.0100    -1.4950     0.5440 H     1 <1>   0.0800 
 38 H       -4.2550    -2.1340     1.6080 H     1 <1>   0.0800 
 39 H       -5.5890    -0.8220     2.9010 H     1 <1>   0.4000 
 40 H       -6.2920    -3.7980     0.0930 H     1 <1>   0.0800 
 41 H       -5.9360    -3.9250     1.7930 H     1 <1>   0.0800 
 42 H       -4.8140    -5.7300    -1.3440 H     1 <1>   0.1500 
 43 H       -2.9120    -8.0320    -1.0940 H     1 <1>   0.0800 
 44 H       -1.3570    -7.4420    -0.5560 H     1 <1>   0.0800 
 45 H       -2.0880    -6.7760    -1.9980 H     1 <1>   0.0800 
@<TRIPOS>BOND
  1   1   2  2   
  2   2   3  1   
  3   2   4  am  
  4   3   5  1   
  5   4   6  1   
  6   4   7  1   
  7   5   6  ar  
  8   5   8  ar  
  9   6   9  ar  
 10   7  10  1   
 11   7  27  1   
 12   7  28  1   
 13   8  11  ar  
 14   8  29  1   
 15   9  12  ar  
 16   9  30  1   
 17  10  13  2   
 18  10  14  am  
 19  11  12  ar  
 20  11  31  1   
 21  12  32  1   
 22  14  15  1   
 23  14  16  1   
 24  15  17  1   
 25  15  33  1   
 26  15  34  1   
 27  16  18  1   
 28  16  35  1   
 29  16  36  1   
 30  17  18  1   
 31  17  19  1   
 32  17  37  1   
 33  18  20  1   
 34  18  38  1   
 35  19  39  1   
 36  20  21  1   
 37  20  40  1   
 38  20  41  1   
 39  21  22  1   
 40  21  23  2   
 41  22  24  1   
 42  23  25  1   
 43  23  42  1   
 44  24  25  2   
 45  25  26  1   
 46  26  43  1   
 47  26  44  1   
 48  26  45  1   
@<TRIPOS>SUBSTRUCTURE
  1 ****  14 GROUP 4 **** **** 0

# MOE 2024.06 (io_trps.svl 2023.06)
