@<TRIPOS>MOLECULE
NONAME
43 45 1 0 0 
SMALL
USER_CHARGES


@<TRIPOS>ATOM
  1 O        0.7240     0.4230     0.8550 O.co2 1 <1>  -0.9030 
  2 C        1.2530    -0.6940     0.9780 C.2   1 <1>   0.9770 
  3 O        0.5550    -1.6790     1.2600 O.co2 1 <1>  -0.9030 
  4 C        2.6890    -0.8320     0.7900 C.ar  1 <1>  -0.1880 
  5 C        3.4660     0.2770     0.4700 C.ar  1 <1>  -0.1180 
  6 C        3.3360    -2.0750     0.9240 C.ar  1 <1>  -0.1590 
  7 C        4.8300     0.1290     0.2930 C.ar  1 <1>   0.3010 
  8 C        4.6970    -2.2200     0.7470 C.ar  1 <1>  -0.1180 
  9 N        5.8150     1.0380    -0.0170 N.pl3 1 <1>  -0.7050 
 10 C        5.4500    -1.0960     0.4250 C.ar  1 <1>   0.3010 
 11 C        6.9860     0.4140    -0.0660 C.cat 1 <1>   1.0680 
 12 N        6.8090    -0.9000     0.1820 N.pl3 1 <1>  -0.7680 
 13 N        8.1390     1.0650    -0.3240 N.pl3 1 <1>  -0.5970 
 14 C        7.7790    -2.0220     0.1330 C.3   1 <1>   0.2660 
 15 C        8.1910     2.5140    -0.6560 C.3   1 <1>   0.1590 
 16 C        9.5190     0.5460    -0.1660 C.3   1 <1>   0.1590 
 17 C        9.6610     2.8380    -0.9180 C.3   1 <1>  -0.0290 
 18 C       10.4090     1.7820    -0.1020 C.3   1 <1>  -0.1690 
 19 C       10.0060     4.2810    -0.5750 C.2   1 <1>   0.5630 
 20 O        9.1090     5.0770    -0.4320 O.2   1 <1>  -0.5760 
 21 N       11.3110     4.6310    -0.4520 N.am  1 <1>  -0.7340 
 22 C       11.7990     5.9770    -0.1000 C.3   1 <1>   0.1310 
 23 C       12.9170     5.8320     0.9240 C.3   1 <1>  -0.2480 
 24 H        3.0020     1.2430     0.3620 H     1 <1>   0.1410 
 25 H        2.7280    -2.9320     1.1750 H     1 <1>   0.1410 
 26 H        5.1570    -3.1830     0.8610 H     1 <1>   0.1410 
 27 H        5.6620     2.0340    -0.1470 H     1 <1>   0.4430 
 28 H        7.2640    -2.9570    -0.0040 H     1 <1>   0.0710 
 29 H        8.3350    -2.0660     1.0550 H     1 <1>   0.0710 
 30 H        8.4580    -1.8960    -0.6920 H     1 <1>   0.0710 
 31 H        7.8300     3.0750     0.1900 H     1 <1>   0.0710 
 32 H        7.5910     2.7430    -1.5220 H     1 <1>   0.0710 
 33 H        9.7790    -0.0440    -1.0290 H     1 <1>   0.0710 
 34 H        9.6210    -0.0420     0.7300 H     1 <1>   0.0710 
 35 H        9.8590     2.6880    -1.9640 H     1 <1>   0.0710 
 36 H       11.3930     1.5850    -0.4900 H     1 <1>   0.0710 
 37 H       10.4970     2.1010     0.9230 H     1 <1>   0.0710 
 38 H       12.0460     3.9410    -0.6090 H     1 <1>   0.3630 
 39 H       10.9950     6.5660     0.3110 H     1 <1>   0.0710 
 40 H       12.1650     6.4670    -0.9850 H     1 <1>   0.0710 
 41 H       12.5510     5.3420     1.8090 H     1 <1>   0.0710 
 42 H       13.2760     6.8070     1.2020 H     1 <1>   0.0710 
 43 H       13.7380     5.2740     0.5130 H     1 <1>   0.0710 
@<TRIPOS>BOND
  1   1   2  ar  
  2   2   3  ar  
  3   2   4  1   
  4   4   5  ar  
  5   4   6  ar  
  6   5   7  ar  
  7   5  24  1   
  8   6   8  ar  
  9   6  25  1   
 10   7   9  1   
 11   7  10  ar  
 12   8  10  ar  
 13   8  26  1   
 14   9  11  ar  
 15   9  27  1   
 16  10  12  1   
 17  11  12  ar  
 18  11  13  ar  
 19  12  14  1   
 20  13  15  1   
 21  13  16  1   
 22  14  28  1   
 23  14  29  1   
 24  14  30  1   
 25  15  17  1   
 26  15  31  1   
 27  15  32  1   
 28  16  18  1   
 29  16  33  1   
 30  16  34  1   
 31  17  18  1   
 32  17  19  1   
 33  17  35  1   
 34  18  36  1   
 35  18  37  1   
 36  19  20  2   
 37  19  21  am  
 38  21  22  1   
 39  21  38  1   
 40  22  23  1   
 41  22  39  1   
 42  22  40  1   
 43  23  41  1   
 44  23  42  1   
 45  23  43  1   
@<TRIPOS>SUBSTRUCTURE
  1 ****  11 GROUP 4 **** **** 0

# MOE 2024.06 (io_trps.svl 2023.06)
