@<TRIPOS>MOLECULE
NONAME
55 56 1 0 0 
SMALL
USER_CHARGES


@<TRIPOS>ATOM
  1 O       -2.1020     1.8580    -2.1210 O.co2 1 <1>  -0.9000 
  2 C       -1.9180     1.8840    -0.8970 C.2   1 <1>   0.9060 
  3 O       -2.7880     1.4690    -0.1210 O.co2 1 <1>  -0.9000 
  4 C       -0.5800     2.3720    -0.3230 C.3   1 <1>  -0.1060 
  5 C       -0.9160     3.1660     0.9660 C.3   1 <1>   0.2000 
  6 C        0.1480     3.3110    -1.3400 C.3   1 <1>   0.1100 
  7 C        0.2190     1.0660    -0.0380 C.3   1 <1>  -0.0170 
  8 O        0.2500     3.6540     1.5250 O.3   1 <1>  -0.6800 
  9 C       -1.7770     4.4000     0.6450 C.3   1 <1>  -0.1600 
 10 N       -0.0340     4.7610    -1.0590 N.3   1 <1>  -0.8100 
 11 C        1.7360     1.1630     0.1300 C.ar  1 <1>  -0.1440 
 12 C       -1.4390     5.0320    -0.7150 C.3   1 <1>   0.1100 
 13 C        0.4100     5.5810    -2.2260 C.3   1 <1>   0.1710 
 14 C        2.3020     1.4330     1.3660 C.ar  1 <1>  -0.1500 
 15 C        2.5700     0.9550    -0.9590 C.ar  1 <1>  -0.1500 
 16 C        0.7320     7.0390    -1.8790 C.2   1 <1>   0.5690 
 17 C        3.6760     1.5070     1.5120 C.ar  1 <1>  -0.1500 
 18 C        3.9450     1.0270    -0.8180 C.ar  1 <1>  -0.1500 
 19 O        0.9260     7.8320    -2.7720 O.2   1 <1>  -0.5700 
 20 N        0.8000     7.3620    -0.5610 N.am  1 <1>  -0.7300 
 21 C        4.5000     1.3050     0.4190 C.ar  1 <1>  -0.1500 
 22 C        1.1870     8.6080     0.1010 C.3   1 <1>   0.3000 
 23 C        2.6350     8.9920    -0.2760 C.3   1 <1>  -0.1600 
 24 C        0.2120     9.7140    -0.3110 C.3   1 <1>  -0.2400 
 25 C        1.0460     8.3580     1.6040 C.3   1 <1>  -0.2400 
 26 C        3.7090     7.9290     0.0230 C.3   1 <1>  -0.2400 
 27 H       -1.4010     2.5440     1.7010 H     1 <1>   0.0800 
 28 H       -0.1660     3.0930    -2.3460 H     1 <1>   0.0800 
 29 H        1.2050     3.1290    -1.3080 H     1 <1>   0.0800 
 30 H       -0.1990     0.5950     0.8350 H     1 <1>   0.0800 
 31 H        0.0370     0.3830    -0.8510 H     1 <1>   0.0800 
 32 H        0.6900     4.1280     0.7840 H     1 <1>   0.4000 
 33 H       -2.8100     4.1020     0.6190 H     1 <1>   0.0800 
 34 H       -1.6830     5.1280     1.4300 H     1 <1>   0.0800 
 35 H       -1.6260     6.0920    -0.6720 H     1 <1>   0.0800 
 36 H       -2.0780     4.6120    -1.4770 H     1 <1>   0.0800 
 37 H        1.3100     5.1550    -2.6320 H     1 <1>   0.0800 
 38 H       -0.3400     5.5580    -2.9960 H     1 <1>   0.0800 
 39 H        1.6650     1.5930     2.2190 H     1 <1>   0.1500 
 40 H        2.1440     0.7370    -1.9230 H     1 <1>   0.1500 
 41 H        4.0990     1.7240     2.4760 H     1 <1>   0.1500 
 42 H        4.5810     0.8670    -1.6700 H     1 <1>   0.1500 
 43 H        0.6120     6.5750     0.0670 H     1 <1>   0.3700 
 44 H        5.5680     1.3630     0.5310 H     1 <1>   0.1500 
 45 H        2.6660     9.2220    -1.3270 H     1 <1>   0.0800 
 46 H        2.8970     9.8960     0.2450 H     1 <1>   0.0800 
 47 H        0.4280    10.6180     0.2280 H     1 <1>   0.0800 
 48 H       -0.8000     9.4210    -0.0990 H     1 <1>   0.0800 
 49 H        0.3010     9.9230    -1.3620 H     1 <1>   0.0800 
 50 H        1.3630     9.2250     2.1540 H     1 <1>   0.0800 
 51 H        1.6450     7.5210     1.9140 H     1 <1>   0.0800 
 52 H        0.0210     8.1540     1.8550 H     1 <1>   0.0800 
 53 H        3.4780     7.0060    -0.4800 H     1 <1>   0.0800 
 54 H        3.7860     7.7410     1.0780 H     1 <1>   0.0800 
 55 H        4.6650     8.2730    -0.3280 H     1 <1>   0.0800 
@<TRIPOS>BOND
  1   1   2  ar  
  2   2   3  ar  
  3   2   4  1   
  4   4   5  1   
  5   4   6  1   
  6   4   7  1   
  7   5   8  1   
  8   5   9  1   
  9   5  27  1   
 10   6  10  1   
 11   6  28  1   
 12   6  29  1   
 13   7  11  1   
 14   7  30  1   
 15   7  31  1   
 16   8  32  1   
 17   9  12  1   
 18   9  33  1   
 19   9  34  1   
 20  10  12  1   
 21  10  13  1   
 22  11  14  ar  
 23  11  15  ar  
 24  12  35  1   
 25  12  36  1   
 26  13  16  1   
 27  13  37  1   
 28  13  38  1   
 29  14  17  ar  
 30  14  39  1   
 31  15  18  ar  
 32  15  40  1   
 33  16  19  2   
 34  16  20  am  
 35  17  21  ar  
 36  17  41  1   
 37  18  21  ar  
 38  18  42  1   
 39  20  22  1   
 40  20  43  1   
 41  21  44  1   
 42  22  23  1   
 43  22  24  1   
 44  22  25  1   
 45  23  26  1   
 46  23  45  1   
 47  23  46  1   
 48  24  47  1   
 49  24  48  1   
 50  24  49  1   
 51  25  50  1   
 52  25  51  1   
 53  25  52  1   
 54  26  53  1   
 55  26  54  1   
 56  26  55  1   
@<TRIPOS>SUBSTRUCTURE
  1 ****  10 GROUP 4 **** **** 0

# MOE 2024.06 (io_trps.svl 2023.06)
