@<TRIPOS>MOLECULE
NONAME
51 53 1 0 0 
SMALL
USER_CHARGES


@<TRIPOS>ATOM
  1 F       -0.7380    -0.8440    -1.6340 F     1 <1>  -0.1900 
  2 C       -1.7800    -1.3520    -1.0320 C.ar  1 <1>   0.1900 
  3 C       -2.9980    -0.7130    -1.1560 C.ar  1 <1>  -0.1500 
  4 C       -1.6250    -2.5090    -0.2940 C.ar  1 <1>  -0.1500 
  5 C       -4.1010    -1.2560    -0.5160 C.ar  1 <1>  -0.1500 
  6 C       -2.7350    -3.0410     0.3400 C.ar  1 <1>  -0.1500 
  7 C       -3.9730    -2.4200     0.2330 C.ar  1 <1>  -0.1430 
  8 C       -5.1840    -3.0170     0.9420 C.3   1 <1>   0.2540 
  9 N       -5.3660    -4.4360     0.5920 N.3   1 <1>  -0.8100 
 10 C       -6.3910    -5.0810     1.4650 C.3   1 <1>   0.1710 
 11 C       -5.6290    -4.6280    -0.8420 C.3   1 <1>   0.0300 
 12 C       -6.5300    -6.6110     1.3410 C.2   1 <1>   0.5690 
 13 O       -5.7540    -7.3080     1.9540 O.2   1 <1>  -0.5700 
 14 N       -7.5320    -7.1740     0.5910 N.am  1 <1>  -0.6600 
 15 C       -8.5900    -6.4670    -0.1730 C.3   1 <1>   0.1400 
 16 C       -7.6810    -8.6440     0.4510 C.3   1 <1>   0.1400 
 17 C       -9.2410    -7.5530    -1.0260 C.3   1 <1>   0.2000 
 18 C       -9.0230    -8.8510    -0.2540 C.3   1 <1>  -0.0800 
 19 O      -10.5940    -7.3160    -1.2050 O.3   1 <1>  -0.6800 
 20 C       -9.0650   -10.1000    -1.1470 C.3   1 <1>   0.0210 
 21 C       -8.8130   -11.3540    -0.3340 C.2   1 <1>   0.1080 
 22 N       -9.6610   -11.8070     0.5360 N.2   1 <1>  -0.7070 
 23 C       -7.6700   -12.1430    -0.4160 C.2   1 <1>  -0.1500 
 24 N       -9.0750   -12.9110     1.0380 N.pl3 1 <1>   0.3000 
 25 C       -7.8680   -13.1340     0.4780 C.2   1 <1>  -0.3320 
 26 C       -6.9630   -14.2980     0.8380 C.3   1 <1>  -0.0600 
 27 H       -3.0780     0.1860    -1.7400 H     1 <1>   0.1500 
 28 H       -0.6630    -2.9820    -0.2210 H     1 <1>   0.1500 
 29 H       -5.0560    -0.7690    -0.6050 H     1 <1>   0.1500 
 30 H       -2.6440    -3.9480     0.9150 H     1 <1>   0.1500 
 31 H       -6.0730    -2.4650     0.6910 H     1 <1>   0.0800 
 32 H       -5.0230    -2.9320     2.0030 H     1 <1>   0.0800 
 33 H       -6.1280    -4.8890     2.4900 H     1 <1>   0.0800 
 34 H       -7.3470    -4.6230     1.2920 H     1 <1>   0.0800 
 35 H       -4.8100    -4.2380    -1.4230 H     1 <1>   0.0800 
 36 H       -6.5330    -4.1240    -1.1320 H     1 <1>   0.0800 
 37 H       -5.7140    -5.6780    -1.0640 H     1 <1>   0.0800 
 38 H       -9.3020    -6.0480     0.5160 H     1 <1>   0.0800 
 39 H       -8.1720    -5.6980    -0.7960 H     1 <1>   0.0800 
 40 H       -6.8660    -9.0200    -0.1440 H     1 <1>   0.0800 
 41 H       -7.6660    -9.1260     1.4150 H     1 <1>   0.0800 
 42 H       -8.7700    -7.5850    -1.9930 H     1 <1>   0.0800 
 43 H       -9.7710    -8.9450     0.5150 H     1 <1>   0.0800 
 44 H      -11.0870    -7.5260    -0.3870 H     1 <1>   0.4000 
 45 H       -8.3310   -10.0260    -1.9280 H     1 <1>   0.0800 
 46 H      -10.0350   -10.1800    -1.6060 H     1 <1>   0.0800 
 47 H       -6.8260   -11.9750    -1.0600 H     1 <1>   0.1500 
 48 H       -9.5250   -13.4880     1.7590 H     1 <1>   0.2700 
 49 H       -6.0590   -14.2570     0.2560 H     1 <1>   0.0800 
 50 H       -7.4580   -15.2310     0.6360 H     1 <1>   0.0800 
 51 H       -6.7010   -14.2560     1.8810 H     1 <1>   0.0800 
@<TRIPOS>BOND
  1   1   2  1   
  2   2   3  ar  
  3   2   4  ar  
  4   3   5  ar  
  5   3  27  1   
  6   4   6  ar  
  7   4  28  1   
  8   5   7  ar  
  9   5  29  1   
 10   6   7  ar  
 11   6  30  1   
 12   7   8  1   
 13   8   9  1   
 14   8  31  1   
 15   8  32  1   
 16   9  10  1   
 17   9  11  1   
 18  10  12  1   
 19  10  33  1   
 20  10  34  1   
 21  11  35  1   
 22  11  36  1   
 23  11  37  1   
 24  12  13  2   
 25  12  14  am  
 26  14  15  1   
 27  14  16  1   
 28  15  17  1   
 29  15  38  1   
 30  15  39  1   
 31  16  18  1   
 32  16  40  1   
 33  16  41  1   
 34  17  18  1   
 35  17  19  1   
 36  17  42  1   
 37  18  20  1   
 38  18  43  1   
 39  19  44  1   
 40  20  21  1   
 41  20  45  1   
 42  20  46  1   
 43  21  22  2   
 44  21  23  1   
 45  22  24  1   
 46  23  25  2   
 47  23  47  1   
 48  24  25  1   
 49  24  48  1   
 50  25  26  1   
 51  26  49  1   
 52  26  50  1   
 53  26  51  1   
@<TRIPOS>SUBSTRUCTURE
  1 ****  12 GROUP 4 **** **** 0

# MOE 2024.06 (io_trps.svl 2023.06)
