@<TRIPOS>MOLECULE
NONAME
48 50 1 0 0 
SMALL
USER_CHARGES


@<TRIPOS>ATOM
  1 O        2.6250    -0.0810    -4.0590 O.2   1 <1>  -0.5700 
  2 C        2.2910    -0.6780    -3.0640 C.2   1 <1>   0.5690 
  3 N        2.1440    -0.0970    -1.8410 N.am  1 <1>  -0.5470 
  4 C        2.0040    -2.1810    -3.1480 C.3   1 <1>   0.1710 
  5 C        2.3110     1.2200    -1.3770 C.ar  1 <1>   0.1170 
  6 N        1.5390    -2.7860    -1.8560 N.3   1 <1>  -0.8100 
  7 C        2.6980     1.4440    -0.0470 C.ar  1 <1>   0.1170 
  8 C        2.0870     2.3110    -2.2060 C.ar  1 <1>  -0.1500 
  9 C        0.7110    -3.9770    -2.0950 C.3   1 <1>   0.2900 
 10 C        2.6760    -3.1280    -0.9740 C.3   1 <1>   0.0300 
 11 N        2.9900     0.3790     0.8230 N.am  1 <1>  -0.5470 
 12 C        2.8390     2.7440     0.4150 C.ar  1 <1>  -0.1500 
 13 C        2.2320     3.6040    -1.7350 C.ar  1 <1>  -0.1500 
 14 C       -0.0600    -4.2890    -0.8340 C.2   1 <1>  -0.3320 
 15 C        2.1660    -0.5160     1.4200 C.2   1 <1>   0.5690 
 16 C        2.6070     3.8220    -0.4210 C.ar  1 <1>  -0.1500 
 17 N       -0.7860    -3.3560    -0.1940 N.pl3 1 <1>   0.3000 
 18 C       -0.1910    -5.4310    -0.1240 C.2   1 <1>  -0.1500 
 19 O        2.6320    -1.4590     2.0020 O.2   1 <1>  -0.5700 
 20 C        0.6670    -0.3480     1.3510 C.3   1 <1>  -0.1790 
 21 N       -1.3900    -3.8510     0.9010 N.2   1 <1>  -0.7070 
 22 C       -1.0270    -5.0970     0.9370 C.2   1 <1>   0.2030 
 23 C       -1.4740    -6.0560     2.0260 C.3   1 <1>  -0.0140 
 24 C       -1.8710    -7.4660     1.7010 C.3   1 <1>  -0.2000 
 25 C       -2.9120    -6.4680     2.1060 C.3   1 <1>  -0.2000 
 26 H        1.9370    -0.8000    -1.1250 H     1 <1>   0.3700 
 27 H        2.8860    -2.6870    -3.5000 H     1 <1>   0.0800 
 28 H        1.2410    -2.2980    -3.8980 H     1 <1>   0.0800 
 29 H        1.7950     2.1520    -3.2290 H     1 <1>   0.1500 
 30 H        1.3220    -4.8160    -2.3860 H     1 <1>   0.0800 
 31 H        0.0020    -3.7820    -2.8830 H     1 <1>   0.0800 
 32 H        3.3150    -2.2750    -0.8190 H     1 <1>   0.0800 
 33 H        3.2650    -3.9210    -1.4030 H     1 <1>   0.0800 
 34 H        2.3160    -3.4500    -0.0100 H     1 <1>   0.0800 
 35 H        3.9780     0.2050     1.0120 H     1 <1>   0.3700 
 36 H        3.1350     2.9150     1.4350 H     1 <1>   0.1500 
 37 H        2.0550     4.4390    -2.3920 H     1 <1>   0.1500 
 38 H        2.7200     4.8280    -0.0530 H     1 <1>   0.1500 
 39 H       -0.8660    -2.3740    -0.4820 H     1 <1>   0.2700 
 40 H        0.2370    -6.4000    -0.3030 H     1 <1>   0.1500 
 41 H        0.3360    -0.3620     0.3310 H     1 <1>   0.0800 
 42 H        0.3880     0.5860     1.8020 H     1 <1>   0.0800 
 43 H        0.1870    -1.1490     1.8840 H     1 <1>   0.0800 
 44 H       -0.9660    -5.8710     2.9560 H     1 <1>   0.1000 
 45 H       -1.6040    -8.2460     2.3910 H     1 <1>   0.1000 
 46 H       -1.8550    -7.7930     0.6770 H     1 <1>   0.1000 
 47 H       -3.5840    -6.0720     1.3650 H     1 <1>   0.1000 
 48 H       -3.3650    -6.5410     3.0790 H     1 <1>   0.1000 
@<TRIPOS>BOND
  1   1   2  2   
  2   2   3  am  
  3   2   4  1   
  4   3   5  1   
  5   3  26  1   
  6   4   6  1   
  7   4  27  1   
  8   4  28  1   
  9   5   7  ar  
 10   5   8  ar  
 11   6   9  1   
 12   6  10  1   
 13   7  11  1   
 14   7  12  ar  
 15   8  13  ar  
 16   8  29  1   
 17   9  14  1   
 18   9  30  1   
 19   9  31  1   
 20  10  32  1   
 21  10  33  1   
 22  10  34  1   
 23  11  15  am  
 24  11  35  1   
 25  12  16  ar  
 26  12  36  1   
 27  13  16  ar  
 28  13  37  1   
 29  14  17  1   
 30  14  18  2   
 31  15  19  2   
 32  15  20  1   
 33  16  38  1   
 34  17  21  1   
 35  17  39  1   
 36  18  22  1   
 37  18  40  1   
 38  20  41  1   
 39  20  42  1   
 40  20  43  1   
 41  21  22  2   
 42  22  23  1   
 43  23  24  1   
 44  23  25  1   
 45  23  44  1   
 46  24  25  1   
 47  24  45  1   
 48  24  46  1   
 49  25  47  1   
 50  25  48  1   
@<TRIPOS>SUBSTRUCTURE
  1 ****   6 GROUP 4 **** **** 0

# MOE 2024.06 (io_trps.svl 2023.06)
