@<TRIPOS>MOLECULE
NONAME
44 45 1 0 0 
SMALL
USER_CHARGES


@<TRIPOS>ATOM
  1 CL      -1.9720    -0.7950    -1.7230 Cl    1 <1>  -0.1770 
  2 C       -2.4320     0.3560    -0.4910 C.ar  1 <1>   0.1770 
  3 C       -3.3960     0.0510     0.4760 C.ar  1 <1>   0.0860 
  4 C       -1.7790     1.5750    -0.5180 C.ar  1 <1>  -0.1500 
  5 C       -4.1310    -1.2000     0.5240 C.2   1 <1>   0.5440 
  6 C       -3.6440     1.0340     1.4390 C.ar  1 <1>  -0.1500 
  7 C       -2.0620     2.5320     0.4380 C.ar  1 <1>  -0.1500 
  8 O       -4.5130    -1.6560     1.5840 O.2   1 <1>  -0.5700 
  9 N       -4.5560    -1.8650    -0.5910 N.am  1 <1>  -0.6600 
 10 C       -2.9940     2.2550     1.4210 C.ar  1 <1>  -0.1500 
 11 C       -4.1300    -3.2800    -0.8170 C.3   1 <1>   0.3210 
 12 C       -5.5060    -1.2510    -1.5670 C.3   1 <1>   0.1400 
 13 C       -5.2250    -4.2970    -0.4980 C.2   1 <1>   0.0460 
 14 C       -6.9720    -1.5840    -1.2170 C.3   1 <1>   0.3430 
 15 N       -6.1890    -4.5990    -1.3960 N.2   1 <1>  -0.5650 
 16 C       -5.3650    -5.0470     0.6210 C.2   1 <1>  -0.3320 
 17 N       -7.1840    -1.6230     0.2660 N.4   1 <1>  -0.9590 
 18 C       -6.8570    -5.5500    -0.8280 C.2   1 <1>   0.0360 
 19 N       -6.4100    -5.8660     0.4040 N.pl3 1 <1>   0.0330 
 20 C       -4.5530    -5.0780     1.9070 C.3   1 <1>  -0.0600 
 21 C       -8.2430    -2.5990     0.6360 C.3   1 <1>   0.2630 
 22 C       -7.4100    -0.2820     0.8740 C.3   1 <1>   0.2630 
 23 H       -1.0470     1.7710    -1.2820 H     1 <1>   0.1500 
 24 H       -4.3550     0.8340     2.2230 H     1 <1>   0.1500 
 25 H       -1.5550     3.4830     0.4230 H     1 <1>   0.1500 
 26 H       -3.2080     2.9930     2.1770 H     1 <1>   0.1500 
 27 H       -3.2740    -3.4890    -0.2010 H     1 <1>   0.0800 
 28 H       -3.8240    -3.4030    -1.8410 H     1 <1>   0.0800 
 29 H       -5.2850    -1.5990    -2.5610 H     1 <1>   0.0800 
 30 H       -5.3800    -0.1820    -1.5630 H     1 <1>   0.0800 
 31 H       -7.1990    -2.5500    -1.6340 H     1 <1>   0.0800 
 32 H       -7.6360    -0.8730    -1.6780 H     1 <1>   0.0800 
 33 H       -6.2790    -1.9950     0.6430 H     1 <1>   0.4500 
 34 H       -7.6910    -6.0610    -1.2800 H     1 <1>   0.1500 
 35 H       -6.7680    -6.6000     1.0250 H     1 <1>   0.2700 
 36 H       -3.7820    -4.3290     1.8930 H     1 <1>   0.0800 
 37 H       -4.0880    -6.0410     2.0310 H     1 <1>   0.0800 
 38 H       -5.1880    -4.8860     2.7530 H     1 <1>   0.0800 
 39 H       -9.1980    -2.2810     0.2540 H     1 <1>   0.0800 
 40 H       -8.3050    -2.6890     1.7080 H     1 <1>   0.0800 
 41 H       -8.0070    -3.5660     0.2250 H     1 <1>   0.0800 
 42 H       -8.3300     0.1450     0.5110 H     1 <1>   0.0800 
 43 H       -6.5950     0.3790     0.6280 H     1 <1>   0.0800 
 44 H       -7.4650    -0.3690     1.9470 H     1 <1>   0.0800 
@<TRIPOS>BOND
  1   1   2  1   
  2   2   3  ar  
  3   2   4  ar  
  4   3   5  1   
  5   3   6  ar  
  6   4   7  ar  
  7   4  23  1   
  8   5   8  2   
  9   5   9  am  
 10   6  10  ar  
 11   6  24  1   
 12   7  10  ar  
 13   7  25  1   
 14   9  11  1   
 15   9  12  1   
 16  10  26  1   
 17  11  13  1   
 18  11  27  1   
 19  11  28  1   
 20  12  14  1   
 21  12  29  1   
 22  12  30  1   
 23  13  15  1   
 24  13  16  2   
 25  14  17  1   
 26  14  31  1   
 27  14  32  1   
 28  15  18  2   
 29  16  19  1   
 30  16  20  1   
 31  17  21  1   
 32  17  22  1   
 33  17  33  1   
 34  18  19  1   
 35  18  34  1   
 36  19  35  1   
 37  20  36  1   
 38  20  37  1   
 39  20  38  1   
 40  21  39  1   
 41  21  40  1   
 42  21  41  1   
 43  22  42  1   
 44  22  43  1   
 45  22  44  1   
@<TRIPOS>SUBSTRUCTURE
  1 ****   9 GROUP 4 **** **** 0

# MOE 2024.06 (io_trps.svl 2023.06)
