@<TRIPOS>MOLECULE
NONAME
61 65 1 0 0 
SMALL
USER_CHARGES


@<TRIPOS>ATOM
  1 O       -0.8670     0.1400    -2.3190 O.2   1 <1>  -0.5700 
  2 C       -1.8930    -0.0570    -1.7050 C.2   1 <1>   0.5440 
  3 N       -2.2230    -1.3620    -1.5140 N.am  1 <1>  -0.7300 
  4 C       -2.6590     1.0580    -1.1910 C.ar  1 <1>   0.0860 
  5 C       -3.3600    -1.9930    -0.7410 C.3   1 <1>   0.2200 
  6 C       -3.9570     1.3380    -1.6100 C.ar  1 <1>  -0.1500 
  7 C       -2.0840     1.9230    -0.2660 C.ar  1 <1>  -0.1500 
  8 C       -3.7410    -1.6040     0.7020 C.3   1 <1>  -0.0800 
  9 C       -3.2120    -3.4470    -0.2520 C.3   1 <1>  -0.0800 
 10 C       -4.6640     2.4350    -1.1440 C.ar  1 <1>   0.0830 
 11 C       -2.7700     3.0160     0.2260 C.ar  1 <1>  -0.1500 
 12 C       -5.2620    -1.5590     0.3460 C.3   1 <1>   0.1400 
 13 C       -2.2490    -1.7250     1.1330 C.3   1 <1>  -0.1600 
 14 C       -4.5900    -3.8450    -0.8580 C.3   1 <1>   0.1400 
 15 C       -1.8670    -3.0820     0.4540 C.3   1 <1>  -0.1600 
 16 O       -5.9140     2.5690    -1.6810 O.3   1 <1>  -0.3630 
 17 C       -4.0680     3.2910    -0.1990 C.ar  1 <1>   0.0830 
 18 N       -5.6860    -2.9610    -0.1970 N.am  1 <1>  -0.6600 
 19 C       -6.6660     3.7690    -1.6210 C.3   1 <1>   0.1200 
 20 O       -4.7470     4.3630     0.2930 O.3   1 <1>  -0.3630 
 21 C       -6.9750    -3.4410    -0.1850 C.2   1 <1>   0.5690 
 22 C       -7.9790     3.5990    -2.3890 C.3   1 <1>   0.0960 
 23 C       -4.2430     5.1870     1.3230 C.3   1 <1>   0.0400 
 24 O       -7.2420    -4.5390    -0.6120 O.2   1 <1>  -0.5700 
 25 C       -8.1390    -2.6060     0.3280 C.3   1 <1>  -0.0990 
 26 N       -8.8240     2.6090    -1.7020 N.pl3 1 <1>   0.3140 
 27 C       -8.4920    -1.4830    -0.6590 C.3   1 <1>  -0.1600 
 28 N       -9.7790     2.9430    -0.8300 N.2   1 <1>  -0.4180 
 29 C       -8.6360     1.2940    -1.6700 C.2   1 <1>  -0.3020 
 30 C       -9.6160    -0.5590    -0.1590 C.3   1 <1>   0.0210 
 31 N      -10.1830     1.8700    -0.2400 N.2   1 <1>  -0.2270 
 32 C       -9.4730     0.8460    -0.7230 C.2   1 <1>   0.0460 
 33 H       -1.5640    -2.0240    -1.9260 H     1 <1>   0.3700 
 34 H       -4.1280    -1.8160    -1.4850 H     1 <1>   0.0800 
 35 H       -4.4180     0.6910    -2.3330 H     1 <1>   0.1500 
 36 H       -1.0750     1.7320     0.0600 H     1 <1>   0.1500 
 37 H       -3.9840    -1.2980     1.7040 H     1 <1>   0.0800 
 38 H       -3.0780    -4.4660     0.0640 H     1 <1>   0.0800 
 39 H       -2.2670     3.6430     0.9370 H     1 <1>   0.1500 
 40 H       -5.4710    -0.7860    -0.3770 H     1 <1>   0.0800 
 41 H       -5.8510    -1.3330     1.2200 H     1 <1>   0.0800 
 42 H       -1.6230    -0.8980     0.8450 H     1 <1>   0.0800 
 43 H       -2.1460    -1.8400     2.2010 H     1 <1>   0.0800 
 44 H       -4.8170    -4.8800    -0.6530 H     1 <1>   0.0800 
 45 H       -4.6150    -3.7360    -1.9310 H     1 <1>   0.0800 
 46 H       -1.6230    -3.7900     1.2310 H     1 <1>   0.0800 
 47 H       -1.0110    -3.0250    -0.1970 H     1 <1>   0.0800 
 48 H       -6.8920     3.9890    -0.5930 H     1 <1>   0.0800 
 49 H       -6.0720     4.5590    -2.0460 H     1 <1>   0.0800 
 50 H       -7.7890     3.2750    -3.3950 H     1 <1>   0.0800 
 51 H       -8.5080     4.5330    -2.4150 H     1 <1>   0.0800 
 52 H       -4.9920     5.9210     1.5590 H     1 <1>   0.0800 
 53 H       -3.3510     5.6760     0.9750 H     1 <1>   0.0800 
 54 H       -4.0410     4.5820     2.1890 H     1 <1>   0.0800 
 55 H       -8.9920    -3.2490     0.4550 H     1 <1>   0.0800 
 56 H       -7.8900    -2.2060     1.2920 H     1 <1>   0.0800 
 57 H       -7.6050    -0.9020    -0.8120 H     1 <1>   0.0800 
 58 H       -8.7700    -1.9030    -1.6100 H     1 <1>   0.0800 
 59 H       -7.9100     0.7920    -2.2800 H     1 <1>   0.1500 
 60 H       -9.5700    -0.4790     0.9120 H     1 <1>   0.0800 
 61 H      -10.5780    -0.9610    -0.4220 H     1 <1>   0.0800 
@<TRIPOS>BOND
  1   1   2  2   
  2   2   3  am  
  3   2   4  1   
  4   3   5  1   
  5   3  33  1   
  6   4   6  ar  
  7   4   7  ar  
  8   5   8  1   
  9   5   9  1   
 10   5  34  1   
 11   6  10  ar  
 12   6  35  1   
 13   7  11  ar  
 14   7  36  1   
 15   8  12  1   
 16   8  13  1   
 17   8  37  1   
 18   9  14  1   
 19   9  15  1   
 20   9  38  1   
 21  10  16  1   
 22  10  17  ar  
 23  11  17  ar  
 24  11  39  1   
 25  12  18  1   
 26  12  40  1   
 27  12  41  1   
 28  13  15  1   
 29  13  42  1   
 30  13  43  1   
 31  14  18  1   
 32  14  44  1   
 33  14  45  1   
 34  15  46  1   
 35  15  47  1   
 36  16  19  1   
 37  17  20  1   
 38  18  21  am  
 39  19  22  1   
 40  19  48  1   
 41  19  49  1   
 42  20  23  1   
 43  21  24  2   
 44  21  25  1   
 45  22  26  1   
 46  22  50  1   
 47  22  51  1   
 48  23  52  1   
 49  23  53  1   
 50  23  54  1   
 51  25  27  1   
 52  25  55  1   
 53  25  56  1   
 54  26  28  1   
 55  26  29  1   
 56  27  30  1   
 57  27  57  1   
 58  27  58  1   
 59  28  31  2   
 60  29  32  2   
 61  29  59  1   
 62  30  32  1   
 63  30  60  1   
 64  30  61  1   
 65  31  32  1   
@<TRIPOS>SUBSTRUCTURE
  1 ****   6 GROUP 4 **** **** 0

# MOE 2024.06 (io_trps.svl 2023.06)
