@<TRIPOS>MOLECULE
NONAME
50 52 1 0 0 
SMALL
USER_CHARGES


@<TRIPOS>ATOM
  1 O        0.8430    -0.3820     0.3400 O.2   1 <1>  -0.5750 
  2 C        2.0150    -0.1600     0.1470 C.2   1 <1>   0.6860 
  3 N        2.5330     1.1280     0.1430 N.am  1 <1>  -0.4420 
  4 N        2.8500    -1.2170    -0.0750 N.am  1 <1>  -0.4950 
  5 C        3.8900     1.2740    -0.1060 C.2   1 <1>   0.4200 
  6 C        1.6550     2.3110     0.3820 C.3   1 <1>   0.0520 
  7 C        4.1880    -1.0900    -0.3160 C.2   1 <1>   0.6990 
  8 N        4.6100     2.4260    -0.1700 N.pl3 1 <1>  -0.7040 
  9 C        4.7280     0.2380    -0.3320 C.2   1 <1>   0.2700 
 10 O        4.8550    -2.0880    -0.5040 O.2   1 <1>  -0.5750 
 11 C        5.8760     2.1160    -0.4300 C.cat 1 <1>   1.0690 
 12 N        6.0050     0.7920    -0.5400 N.pl3 1 <1>  -0.7670 
 13 N        6.8860     2.9710    -0.5660 N.pl3 1 <1>  -0.7180 
 14 C        7.1980    -0.0600    -0.8200 C.3   1 <1>   0.2670 
 15 C        7.0180     4.4520    -0.4840 C.3   1 <1>   0.2410 
 16 C        7.9820     4.8230     0.6520 C.3   1 <1>   0.1330 
 17 C        5.6980     5.2240    -0.3020 C.3   1 <1>  -0.1670 
 18 N        8.2500     6.2810     0.5740 N.am  1 <1>  -0.6640 
 19 C        5.9700     6.7410    -0.2380 C.3   1 <1>  -0.1670 
 20 C        9.4430     6.7310     0.0550 C.2   1 <1>   0.5640 
 21 C        7.0390     7.1160     0.8020 C.3   1 <1>   0.1330 
 22 O       10.2120     5.9500    -0.4610 O.2   1 <1>  -0.5750 
 23 C        9.8220     8.2220     0.0910 C.3   1 <1>  -0.0270 
 24 C        9.3770     8.9450    -1.1910 C.3   1 <1>  -0.2470 
 25 C       11.3300     8.4420     0.3060 C.3   1 <1>  -0.2470 
 26 H        2.4390    -2.1490    -0.0630 H     1 <1>   0.3640 
 27 H        0.6910     2.0030     0.7510 H     1 <1>   0.0720 
 28 H        1.5100     2.8490    -0.5390 H     1 <1>   0.0720 
 29 H        2.1010     2.9620     1.1130 H     1 <1>   0.0720 
 30 H        4.2660     3.3750    -0.0580 H     1 <1>   0.4440 
 31 H        7.7850     2.5470    -0.7910 H     1 <1>   0.4440 
 32 H        7.0370    -0.6300    -1.7210 H     1 <1>   0.0720 
 33 H        7.3560    -0.7480    -0.0060 H     1 <1>   0.0720 
 34 H        8.0840     0.5370    -0.9440 H     1 <1>   0.0720 
 35 H        7.4720     4.7810    -1.4050 H     1 <1>   0.0720 
 36 H        8.9000     4.2700     0.5610 H     1 <1>   0.0720 
 37 H        7.5450     4.5980     1.6090 H     1 <1>   0.0720 
 38 H        5.2290     4.9390     0.6230 H     1 <1>   0.0720 
 39 H        5.0380     5.0330    -1.1290 H     1 <1>   0.0720 
 40 H        5.0580     7.2650    -0.0080 H     1 <1>   0.0720 
 41 H        6.3020     7.0880    -1.2020 H     1 <1>   0.0720 
 42 H        7.2600     8.1640     0.7210 H     1 <1>   0.0720 
 43 H        6.6690     6.9320     1.7970 H     1 <1>   0.0720 
 44 H        9.3290     8.6750     0.9310 H     1 <1>   0.0720 
 45 H        9.8770     8.5210    -2.0450 H     1 <1>   0.0720 
 46 H        9.6160     9.9920    -1.1350 H     1 <1>   0.0720 
 47 H        8.3170     8.8440    -1.3340 H     1 <1>   0.0720 
 48 H       11.8900     8.0420    -0.5210 H     1 <1>   0.0720 
 49 H       11.6500     7.9450     1.2040 H     1 <1>   0.0720 
 50 H       11.5490     9.4910     0.3960 H     1 <1>   0.0720 
@<TRIPOS>BOND
  1   1   2  2   
  2   2   3  am  
  3   2   4  am  
  4   3   5  1   
  5   3   6  1   
  6   4   7  am  
  7   4  26  1   
  8   5   8  1   
  9   5   9  2   
 10   6  27  1   
 11   6  28  1   
 12   6  29  1   
 13   7   9  1   
 14   7  10  2   
 15   8  11  ar  
 16   8  30  1   
 17   9  12  1   
 18  11  12  ar  
 19  11  13  ar  
 20  12  14  1   
 21  13  15  1   
 22  13  31  1   
 23  14  32  1   
 24  14  33  1   
 25  14  34  1   
 26  15  16  1   
 27  15  17  1   
 28  15  35  1   
 29  16  18  1   
 30  16  36  1   
 31  16  37  1   
 32  17  19  1   
 33  17  38  1   
 34  17  39  1   
 35  18  20  am  
 36  18  21  1   
 37  19  21  1   
 38  19  40  1   
 39  19  41  1   
 40  20  22  2   
 41  20  23  1   
 42  21  42  1   
 43  21  43  1   
 44  23  24  1   
 45  23  25  1   
 46  23  44  1   
 47  24  45  1   
 48  24  46  1   
 49  24  47  1   
 50  25  48  1   
 51  25  49  1   
 52  25  50  1   
@<TRIPOS>SUBSTRUCTURE
  1 ****  13 GROUP 4 **** **** 0

# MOE 2024.06 (io_trps.svl 2023.06)
