@<TRIPOS>MOLECULE
NONAME
57 60 1 0 0 
SMALL
USER_CHARGES


@<TRIPOS>ATOM
  1 O        0.8820    -1.2750    -0.5070 O.3   1 <1>  -0.5600 
  2 C        0.3560    -2.3540     0.2370 C.3   1 <1>   0.4180 
  3 C        0.5750     0.0230    -0.0620 C.3   1 <1>   0.1200 
  4 C       -1.0730    -2.0650     0.6780 C.2   1 <1>  -0.2880 
  5 C        1.2820    -2.6290     1.4260 C.3   1 <1>  -0.1600 
  6 C        0.3810    -3.5650    -0.7050 C.3   1 <1>  -0.1600 
  7 C       -0.9380     0.2730    -0.1210 C.3   1 <1>  -0.0220 
  8 C       -1.6810    -0.8890     0.5110 C.2   1 <1>  -0.2760 
  9 C        2.7280    -2.9080     0.9960 C.3   1 <1>   0.3430 
 10 C        1.7840    -4.1430    -0.9340 C.3   1 <1>   0.3430 
 11 C       -3.1180    -0.6000     0.9080 C.3   1 <1>  -0.1020 
 12 N        2.8100    -3.1700    -0.4780 N.4   1 <1>  -0.9590 
 13 C        4.1830    -3.4520    -0.9770 C.3   1 <1>   0.4860 
 14 C        5.0910    -2.3080    -0.5940 C.ar  1 <1>  -0.1430 
 15 C        6.0610    -2.4540     0.3730 C.ar  1 <1>   0.1600 
 16 C        4.9770    -1.0660    -1.1780 C.ar  1 <1>   0.1600 
 17 N        6.8220    -1.4610     0.7490 N.ar  1 <1>  -0.6200 
 18 N        5.7280    -0.0560    -0.8190 N.ar  1 <1>  -0.6200 
 19 C        6.6100    -0.3010     0.1370 C.ar  1 <1>   0.7200 
 20 N        7.3570     0.7630     0.4960 N.pl3 1 <1>  -0.8690 
 21 C        8.6530     0.6840     1.2280 C.3   1 <1>   0.2090 
 22 C        9.7680     0.0840     0.3550 C.3   1 <1>   0.2000 
 23 O       10.9910     0.2110     1.0050 O.3   1 <1>  -0.5600 
 24 C        9.9890     0.7830    -0.9800 C.3   1 <1>  -0.1600 
 25 C       12.0350     0.1180     0.0900 C.3   1 <1>   0.1200 
 26 C       11.4550     0.5050    -1.2690 C.3   1 <1>  -0.1600 
 27 H        1.0910     0.7250    -0.6930 H     1 <1>   0.0800 
 28 H        0.9320     0.1370     0.9460 H     1 <1>   0.0800 
 29 H       -1.5590    -2.9090     1.1360 H     1 <1>   0.1500 
 30 H        0.9120    -3.4840     1.9620 H     1 <1>   0.0800 
 31 H        1.2580    -1.8060     2.1170 H     1 <1>   0.0800 
 32 H       -0.0600    -3.2840    -1.6460 H     1 <1>   0.0800 
 33 H       -0.2340    -4.3480    -0.3000 H     1 <1>   0.0800 
 34 H       -1.2510     0.3970    -1.1430 H     1 <1>   0.0800 
 35 H       -1.1530     1.1850     0.4070 H     1 <1>   0.0800 
 36 H        3.1140    -3.7480     1.5490 H     1 <1>   0.0800 
 37 H        3.3300    -2.0450     1.2350 H     1 <1>   0.0800 
 38 H        1.9100    -4.3580    -1.9830 H     1 <1>   0.0800 
 39 H        1.8900    -5.0640    -0.3830 H     1 <1>   0.0800 
 40 H       -3.6880    -0.3020     0.0460 H     1 <1>   0.0800 
 41 H       -3.1530     0.1890     1.6370 H     1 <1>   0.0800 
 42 H       -3.5780    -1.4750     1.3320 H     1 <1>   0.0800 
 43 H        2.4930    -2.2690    -0.8890 H     1 <1>   0.4500 
 44 H        4.1710    -3.5560    -2.0500 H     1 <1>   0.0800 
 45 H        4.5490    -4.3720    -0.5500 H     1 <1>   0.0800 
 46 H        6.2190    -3.4030     0.8600 H     1 <1>   0.1500 
 47 H        4.2520    -0.8840    -1.9540 H     1 <1>   0.1500 
 48 H        7.2380     1.5620    -0.1240 H     1 <1>   0.4000 
 49 H        8.5310     0.0750     2.1070 H     1 <1>   0.0800 
 50 H        8.9390     1.6740     1.5360 H     1 <1>   0.0800 
 51 H        9.5920    -0.9680     0.2060 H     1 <1>   0.0800 
 52 H        9.8270     1.8410    -0.8670 H     1 <1>   0.0800 
 53 H        9.3330     0.4010    -1.7420 H     1 <1>   0.0800 
 54 H       12.3940    -0.8970     0.0890 H     1 <1>   0.0800 
 55 H       12.8200     0.7870     0.4010 H     1 <1>   0.0800 
 56 H       11.9510     1.3680    -1.6760 H     1 <1>   0.0800 
 57 H       11.5630    -0.3170    -1.9540 H     1 <1>   0.0800 
@<TRIPOS>BOND
  1   1   2  1   
  2   1   3  1   
  3   2   4  1   
  4   2   5  1   
  5   2   6  1   
  6   3   7  1   
  7   3  27  1   
  8   3  28  1   
  9   4   8  2   
 10   4  29  1   
 11   5   9  1   
 12   5  30  1   
 13   5  31  1   
 14   6  10  1   
 15   6  32  1   
 16   6  33  1   
 17   7   8  1   
 18   7  34  1   
 19   7  35  1   
 20   8  11  1   
 21   9  12  1   
 22   9  36  1   
 23   9  37  1   
 24  10  12  1   
 25  10  38  1   
 26  10  39  1   
 27  11  40  1   
 28  11  41  1   
 29  11  42  1   
 30  12  13  1   
 31  12  43  1   
 32  13  14  1   
 33  13  44  1   
 34  13  45  1   
 35  14  15  ar  
 36  14  16  ar  
 37  15  17  ar  
 38  15  46  1   
 39  16  18  ar  
 40  16  47  1   
 41  17  19  ar  
 42  18  19  ar  
 43  19  20  1   
 44  20  21  1   
 45  20  48  1   
 46  21  22  1   
 47  21  49  1   
 48  21  50  1   
 49  22  23  1   
 50  22  24  1   
 51  22  51  1   
 52  23  25  1   
 53  24  26  1   
 54  24  52  1   
 55  24  53  1   
 56  25  26  1   
 57  25  54  1   
 58  25  55  1   
 59  26  56  1   
 60  26  57  1   
@<TRIPOS>SUBSTRUCTURE
  1 ****  16 GROUP 4 **** **** 0

# MOE 2024.06 (io_trps.svl 2023.06)
