@<TRIPOS>MOLECULE
NONAME
44 46 1 0 0 
SMALL
USER_CHARGES


@<TRIPOS>ATOM
  1 O       -0.4450     0.1330    -0.0310 O.2   1 <1>  -0.5700 
  2 C       -1.4740     0.7550    -0.2110 C.2   1 <1>   0.5440 
  3 N       -2.6700     0.0790    -0.1930 N.am  1 <1>  -0.6600 
  4 C       -1.4150     2.1900    -0.4180 C.ar  1 <1>   0.0860 
  5 C       -4.0000     0.7020    -0.0150 C.3   1 <1>   0.1400 
  6 C       -2.7560    -1.3890    -0.0380 C.3   1 <1>   0.1400 
  7 C       -0.6680     3.0000     0.4350 C.ar  1 <1>  -0.1500 
  8 C       -2.0900     2.8100    -1.4680 C.ar  1 <1>  -0.1500 
  9 C       -4.8600    -0.3750     0.6600 C.3   1 <1>  -0.0800 
 10 C       -4.2380    -1.7030     0.1880 C.3   1 <1>  -0.0800 
 11 C       -0.5980     4.3770     0.2760 C.ar  1 <1>   0.0730 
 12 C       -2.0360     4.1790    -1.6470 C.ar  1 <1>  -0.1500 
 13 C       -6.4010    -0.2540     0.4490 C.3   1 <1>   0.2800 
 14 C       -4.9340    -2.2130    -1.0830 C.3   1 <1>  -0.1600 
 15 C        0.1720     5.1840     1.1780 C.1   1 <1>   0.4840 
 16 C       -1.2950     4.9580    -0.7780 C.ar  1 <1>  -0.1500 
 17 O       -6.6730     0.4190    -0.7280 O.3   1 <1>  -0.6800 
 18 C       -7.0300    -1.6520     0.3090 C.3   1 <1>  -0.1600 
 19 C       -7.0980     0.5280     1.5840 C.3   1 <1>  -0.1600 
 20 C       -6.4300    -2.4890    -0.8420 C.3   1 <1>  -0.1600 
 21 N        0.7770     5.8330     1.8960 N.1   1 <1>  -0.5570 
 22 C       -6.6250     1.9790     1.7820 C.3   1 <1>  -0.2400 
 23 H       -3.9370     1.5910     0.5880 H     1 <1>   0.0800 
 24 H       -4.3780     0.9560    -0.9890 H     1 <1>   0.0800 
 25 H       -2.3670    -1.8810    -0.9140 H     1 <1>   0.0800 
 26 H       -2.1740    -1.6850     0.8190 H     1 <1>   0.0800 
 27 H       -0.1290     2.5280     1.2400 H     1 <1>   0.1500 
 28 H       -2.6600     2.2040    -2.1520 H     1 <1>   0.1500 
 29 H       -4.6640    -0.3170     1.7160 H     1 <1>   0.0800 
 30 H       -4.3270    -2.4570     0.9510 H     1 <1>   0.0800 
 31 H       -2.5680     4.6380    -2.4640 H     1 <1>   0.1500 
 32 H       -4.8380    -1.4640    -1.8530 H     1 <1>   0.0800 
 33 H       -4.4550    -3.1070    -1.4410 H     1 <1>   0.0800 
 34 H       -1.2550     6.0250    -0.9210 H     1 <1>   0.1500 
 35 H       -7.6330     0.4090    -0.8880 H     1 <1>   0.4000 
 36 H       -6.8630    -2.1820     1.2310 H     1 <1>   0.0800 
 37 H       -8.0960    -1.5770     0.1840 H     1 <1>   0.0800 
 38 H       -8.1580     0.5370     1.4000 H     1 <1>   0.0800 
 39 H       -6.9500    -0.0020     2.5080 H     1 <1>   0.0800 
 40 H       -6.5710    -3.5320    -0.6180 H     1 <1>   0.0800 
 41 H       -6.9640    -2.2800    -1.7530 H     1 <1>   0.0800 
 42 H       -6.7090     2.5370     0.8660 H     1 <1>   0.0800 
 43 H       -5.6040     2.0080     2.1150 H     1 <1>   0.0800 
 44 H       -7.2320     2.4620     2.5270 H     1 <1>   0.0800 
@<TRIPOS>BOND
  1   1   2  2   
  2   2   3  am  
  3   2   4  1   
  4   3   5  1   
  5   3   6  1   
  6   4   7  ar  
  7   4   8  ar  
  8   5   9  1   
  9   5  23  1   
 10   5  24  1   
 11   6  10  1   
 12   6  25  1   
 13   6  26  1   
 14   7  11  ar  
 15   7  27  1   
 16   8  12  ar  
 17   8  28  1   
 18   9  10  1   
 19   9  13  1   
 20   9  29  1   
 21  10  14  1   
 22  10  30  1   
 23  11  15  1   
 24  11  16  ar  
 25  12  16  ar  
 26  12  31  1   
 27  13  17  1   
 28  13  18  1   
 29  13  19  1   
 30  14  20  1   
 31  14  32  1   
 32  14  33  1   
 33  15  21  3   
 34  16  34  1   
 35  17  35  1   
 36  18  20  1   
 37  18  36  1   
 38  18  37  1   
 39  19  22  1   
 40  19  38  1   
 41  19  39  1   
 42  20  40  1   
 43  20  41  1   
 44  22  42  1   
 45  22  43  1   
 46  22  44  1   
@<TRIPOS>SUBSTRUCTURE
  1 ****   5 GROUP 4 **** **** 0

# MOE 2024.06 (io_trps.svl 2023.06)
