@<TRIPOS>MOLECULE
NONAME
46 48 1 0 0 
SMALL
USER_CHARGES


@<TRIPOS>ATOM
  1 O       -0.7170     4.8590    -1.8190 O.2   1 <1>  -0.5700 
  2 C        0.4370     4.6700    -1.5260 C.2   1 <1>   0.5690 
  3 N        0.9410     3.5620    -0.9360 N.am  1 <1>  -0.6600 
  4 C        1.5240     5.6770    -1.7770 C.3   1 <1>  -0.0990 
  5 C        2.3940     3.6570    -0.7100 C.3   1 <1>   0.1400 
  6 C        0.1860     2.3370    -0.5860 C.3   1 <1>   0.0600 
  7 C        2.7050     5.1480    -0.9380 C.3   1 <1>  -0.0800 
  8 C        2.7920     5.8980     0.4010 C.3   1 <1>   0.2090 
  9 N        3.9250     5.3820     1.2280 N.pl3 1 <1>  -0.8380 
 10 C        5.2390     5.5970     0.8270 C.ar  1 <1>   0.4100 
 11 C        3.6350     5.3250     2.6870 C.3   1 <1>   0.1290 
 12 N        5.4770     6.6860     0.1150 N.ar  1 <1>  -0.6200 
 13 C        6.2530     4.6890     1.1700 C.ar  1 <1>   0.1600 
 14 C        6.7630     6.8410    -0.2420 C.ar  1 <1>   0.3960 
 15 N        7.5220     4.8070     0.8410 N.ar  1 <1>  -0.6200 
 16 C        7.2010     7.9930    -1.0350 C.2   1 <1>   0.5440 
 17 C        7.7340     5.9040     0.1250 C.ar  1 <1>   0.1600 
 18 O        8.1410     7.8540    -1.8010 O.2   1 <1>  -0.5700 
 19 N        6.6370     9.2550    -0.9560 N.am  1 <1>  -0.6600 
 20 C        7.1840    10.4230    -1.6830 C.3   1 <1>   0.1400 
 21 C        5.5550     9.6710    -0.0330 C.3   1 <1>   0.1400 
 22 C        6.6640    11.6330    -0.9170 C.3   1 <1>  -0.1600 
 23 C        5.3520    11.1590    -0.2990 C.3   1 <1>  -0.1600 
 24 H        1.2080     6.6630    -1.4910 H     1 <1>   0.0800 
 25 H        1.7640     5.6630    -2.8240 H     1 <1>   0.0800 
 26 H        2.9070     3.0480    -1.4340 H     1 <1>   0.0800 
 27 H        2.6510     3.3310     0.2830 H     1 <1>   0.0800 
 28 H       -0.8520     2.4590    -0.8470 H     1 <1>   0.0800 
 29 H        0.2610     2.1510     0.4700 H     1 <1>   0.0800 
 30 H        0.5840     1.4960    -1.1270 H     1 <1>   0.0800 
 31 H        3.6300     5.2710    -1.4720 H     1 <1>   0.0800 
 32 H        1.8650     5.7710     0.9360 H     1 <1>   0.0800 
 33 H        2.9280     6.9520     0.2230 H     1 <1>   0.0800 
 34 H        2.9390     4.5290     2.8880 H     1 <1>   0.0800 
 35 H        3.2070     6.2580     3.0120 H     1 <1>   0.0800 
 36 H        4.5360     5.1490     3.2500 H     1 <1>   0.0800 
 37 H        5.9670     3.8260     1.7410 H     1 <1>   0.1500 
 38 H        8.7470     6.0770    -0.1960 H     1 <1>   0.1500 
 39 H        6.8030    10.4170    -2.6900 H     1 <1>   0.0800 
 40 H        8.2610    10.4000    -1.7050 H     1 <1>   0.0800 
 41 H        5.8710     9.5050     0.9830 H     1 <1>   0.0800 
 42 H        4.6510     9.1210    -0.2280 H     1 <1>   0.0800 
 43 H        6.5340    12.4860    -1.5590 H     1 <1>   0.0800 
 44 H        7.3670    11.8810    -0.1410 H     1 <1>   0.0800 
 45 H        5.1050    11.6960     0.6000 H     1 <1>   0.0800 
 46 H        4.5520    11.2790    -1.0080 H     1 <1>   0.0800 
@<TRIPOS>BOND
  1   1   2  2   
  2   2   3  am  
  3   2   4  1   
  4   3   5  1   
  5   3   6  1   
  6   4   7  1   
  7   4  24  1   
  8   4  25  1   
  9   5   7  1   
 10   5  26  1   
 11   5  27  1   
 12   6  28  1   
 13   6  29  1   
 14   6  30  1   
 15   7   8  1   
 16   7  31  1   
 17   8   9  1   
 18   8  32  1   
 19   8  33  1   
 20   9  10  1   
 21   9  11  1   
 22  10  12  ar  
 23  10  13  ar  
 24  11  34  1   
 25  11  35  1   
 26  11  36  1   
 27  12  14  ar  
 28  13  15  ar  
 29  13  37  1   
 30  14  16  1   
 31  14  17  ar  
 32  15  17  ar  
 33  16  18  2   
 34  16  19  am  
 35  17  38  1   
 36  19  20  1   
 37  19  21  1   
 38  20  22  1   
 39  20  39  1   
 40  20  40  1   
 41  21  23  1   
 42  21  41  1   
 43  21  42  1   
 44  22  23  1   
 45  22  43  1   
 46  22  44  1   
 47  23  45  1   
 48  23  46  1   
@<TRIPOS>SUBSTRUCTURE
  1 ****  12 GROUP 4 **** **** 0

# MOE 2024.06 (io_trps.svl 2023.06)
