@<TRIPOS>MOLECULE
NONAME
56 59 1 0 0 
SMALL
USER_CHARGES


@<TRIPOS>ATOM
  1 O        0.8030    -0.0200    -0.3000 O.2   1 <1>  -0.5700 
  2 C        1.5750    -0.7640    -0.8740 C.2   1 <1>   0.5440 
  3 N        2.8580    -0.3120    -1.0800 N.am  1 <1>  -0.6600 
  4 C        1.1710    -2.1050    -1.2490 C.ar  1 <1>   0.0860 
  5 C        3.1110     1.1590    -1.0830 C.3   1 <1>   0.1400 
  6 C        4.0030    -1.1010    -0.5420 C.3   1 <1>   0.1400 
  7 C        0.2760    -2.8380    -0.4940 C.ar  1 <1>  -0.1500 
  8 C        1.6590    -2.7540    -2.3760 C.ar  1 <1>  -0.1500 
  9 C        3.4140     1.6340     0.3500 C.3   1 <1>   0.3430 
 10 C        4.3450    -0.6210     0.8860 C.3   1 <1>   0.3430 
 11 C       -0.0710    -4.1350    -0.8460 C.ar  1 <1>   0.4100 
 12 C        1.2600    -4.0450    -2.6540 C.ar  1 <1>   0.1600 
 13 N        4.5660     0.8710     0.9640 N.4   1 <1>  -0.9590 
 14 N        0.4210    -4.7450    -1.9150 N.ar  1 <1>  -0.6200 
 15 N       -0.9620    -4.8330    -0.0520 N.pl3 1 <1>  -0.8380 
 16 C        4.7790     1.3010     2.3780 C.3   1 <1>   0.2630 
 17 C       -2.3070    -4.2440     0.1880 C.3   1 <1>   0.2090 
 18 C       -1.0980    -6.3120    -0.1890 C.3   1 <1>   0.2090 
 19 C       -3.2780    -5.4270     0.2600 C.3   1 <1>   0.2000 
 20 C       -2.4100    -6.6550     0.5120 C.3   1 <1>  -0.0800 
 21 O       -4.1970    -5.2810     1.2900 O.3   1 <1>  -0.6800 
 22 C       -3.0640    -7.9590     0.0240 C.3   1 <1>  -0.0170 
 23 C       -2.1930    -9.1680     0.3210 C.ar  1 <1>   0.1670 
 24 N       -1.2270    -9.4250    -0.5470 N.ar  1 <1>  -0.6200 
 25 C       -2.4380    -9.9280     1.4560 C.ar  1 <1>  -0.1500 
 26 C       -0.4740   -10.4780    -0.2730 C.ar  1 <1>   0.1600 
 27 C       -1.6450   -11.0220     1.7290 C.ar  1 <1>  -0.1500 
 28 C       -0.6360   -11.2960     0.8310 C.ar  1 <1>  -0.1500 
 29 H        3.9340     1.3870    -1.7380 H     1 <1>   0.0800 
 30 H        2.2430     1.6770    -1.4560 H     1 <1>   0.0800 
 31 H        3.7540    -2.1480    -0.5120 H     1 <1>   0.0800 
 32 H        4.8560    -0.9850    -1.1870 H     1 <1>   0.0800 
 33 H       -0.1580    -2.4080     0.3880 H     1 <1>   0.1500 
 34 H        2.3440    -2.2520    -3.0330 H     1 <1>   0.1500 
 35 H        2.5240     1.4900     0.9410 H     1 <1>   0.0800 
 36 H        3.6350     2.6880     0.3350 H     1 <1>   0.0800 
 37 H        5.2230    -1.1410     1.2330 H     1 <1>   0.0800 
 38 H        3.5260    -0.8940     1.5330 H     1 <1>   0.0800 
 39 H        1.6490    -4.5340    -3.5320 H     1 <1>   0.1500 
 40 H        5.4100     1.0920     0.4170 H     1 <1>   0.4500 
 41 H        3.9050     1.0840     2.9710 H     1 <1>   0.0800 
 42 H        4.9710     2.3610     2.4240 H     1 <1>   0.0800 
 43 H        5.6230     0.7820     2.8060 H     1 <1>   0.0800 
 44 H       -2.2940    -3.7020     1.1170 H     1 <1>   0.0800 
 45 H       -2.5790    -3.5860    -0.6190 H     1 <1>   0.0800 
 46 H       -1.1540    -6.5850    -1.2300 H     1 <1>   0.0800 
 47 H       -0.2620    -6.8180     0.2630 H     1 <1>   0.0800 
 48 H       -3.8150    -5.5100    -0.6700 H     1 <1>   0.0800 
 49 H       -2.1930    -6.7340     1.5630 H     1 <1>   0.0800 
 50 H       -3.7300    -5.2130     2.1450 H     1 <1>   0.4000 
 51 H       -3.2410    -7.9080    -1.0360 H     1 <1>   0.0800 
 52 H       -4.0180    -8.0770     0.5060 H     1 <1>   0.0800 
 53 H       -3.2390    -9.6660     2.1230 H     1 <1>   0.1500 
 54 H        0.3180   -10.7000    -0.9690 H     1 <1>   0.1500 
 55 H       -1.8060   -11.6330     2.6000 H     1 <1>   0.1500 
 56 H        0.0190   -12.1340     0.9830 H     1 <1>   0.1500 
@<TRIPOS>BOND
  1   1   2  2   
  2   2   3  am  
  3   2   4  1   
  4   3   5  1   
  5   3   6  1   
  6   4   7  ar  
  7   4   8  ar  
  8   5   9  1   
  9   5  29  1   
 10   5  30  1   
 11   6  10  1   
 12   6  31  1   
 13   6  32  1   
 14   7  11  ar  
 15   7  33  1   
 16   8  12  ar  
 17   8  34  1   
 18   9  13  1   
 19   9  35  1   
 20   9  36  1   
 21  10  13  1   
 22  10  37  1   
 23  10  38  1   
 24  11  14  ar  
 25  11  15  1   
 26  12  14  ar  
 27  12  39  1   
 28  13  16  1   
 29  13  40  1   
 30  15  17  1   
 31  15  18  1   
 32  16  41  1   
 33  16  42  1   
 34  16  43  1   
 35  17  19  1   
 36  17  44  1   
 37  17  45  1   
 38  18  20  1   
 39  18  46  1   
 40  18  47  1   
 41  19  20  1   
 42  19  21  1   
 43  19  48  1   
 44  20  22  1   
 45  20  49  1   
 46  21  50  1   
 47  22  23  1   
 48  22  51  1   
 49  22  52  1   
 50  23  24  ar  
 51  23  25  ar  
 52  24  26  ar  
 53  25  27  ar  
 54  25  53  1   
 55  26  28  ar  
 56  26  54  1   
 57  27  28  ar  
 58  27  55  1   
 59  28  56  1   
@<TRIPOS>SUBSTRUCTURE
  1 ****  11 GROUP 4 **** **** 0

# MOE 2024.06 (io_trps.svl 2023.06)
