@<TRIPOS>MOLECULE
NONAME
50 53 1 0 0 
SMALL
USER_CHARGES


@<TRIPOS>ATOM
  1 S        0.1960    -0.6630     1.2500 S.3   1 <1>  -0.3320 
  2 C       -0.5750    -1.9510     0.2520 C.ar  1 <1>   0.1020 
  3 C        0.9700     0.5310     0.0720 C.3   1 <1>  -0.0100 
  4 C       -1.2080    -2.9710     0.9330 C.ar  1 <1>  -0.1500 
  5 C       -0.5430    -1.9290    -1.1330 C.ar  1 <1>  -0.1500 
  6 C       -1.8320    -4.0010     0.2410 C.ar  1 <1>   0.1170 
  7 C       -1.1610    -2.9500    -1.8330 C.ar  1 <1>  -0.1500 
  8 N       -2.4810    -5.0020     0.9780 N.am  1 <1>  -0.5470 
  9 C       -1.8000    -3.9730    -1.1520 C.ar  1 <1>  -0.1500 
 10 C       -2.9570    -6.2280     0.6260 C.2   1 <1>   0.6900 
 11 O       -2.7060    -6.7540    -0.4410 O.2   1 <1>  -0.5700 
 12 N       -3.8060    -6.8620     1.4860 N.am  1 <1>  -0.6600 
 13 C       -5.1030    -6.2070     1.8320 C.3   1 <1>   0.1400 
 14 C       -3.9020    -8.3480     1.4100 C.3   1 <1>   0.1400 
 15 C       -6.2330    -6.6260     0.8560 C.3   1 <1>   0.4230 
 16 C       -4.9740    -8.7520     0.3820 C.3   1 <1>   0.3430 
 17 N       -6.3210    -8.1360     0.6950 N.4   1 <1>  -0.9590 
 18 C       -6.0780    -5.9270    -0.5180 C.3   1 <1>   0.1200 
 19 C       -7.3710    -8.4690    -0.3260 C.3   1 <1>   0.5180 
 20 O       -7.1200    -6.3050    -1.3720 O.3   1 <1>  -0.5600 
 21 C       -7.4140    -9.9840    -0.5600 C.3   1 <1>  -0.1950 
 22 C       -7.1790    -7.6780    -1.6390 C.3   1 <1>   0.1200 
 23 C       -8.7280   -10.6770    -0.7460 C.3   1 <1>  -0.2000 
 24 C       -7.9130   -10.9300     0.4900 C.3   1 <1>  -0.2000 
 25 H        1.4410     1.3020     0.6540 H     1 <1>   0.0800 
 26 H        0.1910     0.9410    -0.5450 H     1 <1>   0.0800 
 27 H        1.6970    -0.0040    -0.5130 H     1 <1>   0.0800 
 28 H       -1.2080    -2.9550     2.0070 H     1 <1>   0.1500 
 29 H       -0.0530    -1.1420    -1.6710 H     1 <1>   0.1500 
 30 H       -1.1460    -2.9500    -2.9090 H     1 <1>   0.1500 
 31 H       -2.5030    -4.8460     1.9820 H     1 <1>   0.3700 
 32 H       -2.2720    -4.7510    -1.7220 H     1 <1>   0.1500 
 33 H       -5.3770    -6.4810     2.8360 H     1 <1>   0.0800 
 34 H       -4.9950    -5.1350     1.8110 H     1 <1>   0.0800 
 35 H       -2.9510    -8.7580     1.1100 H     1 <1>   0.0800 
 36 H       -4.1400    -8.7500     2.3790 H     1 <1>   0.0800 
 37 H       -7.1600    -6.2690     1.2720 H     1 <1>   0.0800 
 38 H       -5.0540    -9.8260     0.3660 H     1 <1>   0.0800 
 39 H       -4.6410    -8.4300    -0.5930 H     1 <1>   0.0800 
 40 H       -6.6430    -8.5400     1.5800 H     1 <1>   0.4500 
 41 H       -5.1430    -6.1700    -0.9910 H     1 <1>   0.0800 
 42 H       -6.1280    -4.8580    -0.4000 H     1 <1>   0.0800 
 43 H       -8.3300    -8.1800     0.0720 H     1 <1>   0.0800 
 44 H       -6.6300   -10.3250    -1.2160 H     1 <1>   0.1000 
 45 H       -8.0160    -7.8470    -2.2950 H     1 <1>   0.0800 
 46 H       -6.2790    -7.9730    -2.1510 H     1 <1>   0.0800 
 47 H       -9.6520   -10.1320    -0.6410 H     1 <1>   0.1000 
 48 H       -8.8070   -11.4690    -1.4730 H     1 <1>   0.1000 
 49 H       -7.4490   -11.8970     0.5950 H     1 <1>   0.1000 
 50 H       -8.3120   -10.5680     1.4230 H     1 <1>   0.1000 
@<TRIPOS>BOND
  1   1   2  1   
  2   1   3  1   
  3   2   4  ar  
  4   2   5  ar  
  5   3  25  1   
  6   3  26  1   
  7   3  27  1   
  8   4   6  ar  
  9   4  28  1   
 10   5   7  ar  
 11   5  29  1   
 12   6   8  1   
 13   6   9  ar  
 14   7   9  ar  
 15   7  30  1   
 16   8  10  am  
 17   8  31  1   
 18   9  32  1   
 19  10  11  2   
 20  10  12  am  
 21  12  13  1   
 22  12  14  1   
 23  13  15  1   
 24  13  33  1   
 25  13  34  1   
 26  14  16  1   
 27  14  35  1   
 28  14  36  1   
 29  15  17  1   
 30  15  18  1   
 31  15  37  1   
 32  16  17  1   
 33  16  38  1   
 34  16  39  1   
 35  17  19  1   
 36  17  40  1   
 37  18  20  1   
 38  18  41  1   
 39  18  42  1   
 40  19  21  1   
 41  19  22  1   
 42  19  43  1   
 43  20  22  1   
 44  21  23  1   
 45  21  24  1   
 46  21  44  1   
 47  22  45  1   
 48  22  46  1   
 49  23  24  1   
 50  23  47  1   
 51  23  48  1   
 52  24  49  1   
 53  24  50  1   
@<TRIPOS>SUBSTRUCTURE
  1 ****  10 GROUP 4 **** **** 0

# MOE 2024.06 (io_trps.svl 2023.06)
