@<TRIPOS>MOLECULE
NONAME
50 52 1 0 0 
SMALL
USER_CHARGES


@<TRIPOS>ATOM
  1 O        1.3550     0.1130     2.1120 O.co2 1 <1>  -0.9000 
  2 C        1.4740    -0.1280     0.9060 C.2   1 <1>   0.9060 
  3 O        1.0190    -1.1700     0.4060 O.co2 1 <1>  -0.9000 
  4 C        2.2740     0.8060    -0.0080 C.3   1 <1>  -0.1060 
  5 C        3.5140    -0.0470    -0.3780 C.3   1 <1>   0.2000 
  6 C        2.7350     2.1230     0.6970 C.3   1 <1>  -0.1600 
  7 C        1.4240     1.1840    -1.2580 C.3   1 <1>  -0.0160 
  8 O        3.1780    -0.9830    -1.3460 O.3   1 <1>  -0.6800 
  9 C        4.7240     0.7920    -0.8100 C.3   1 <1>   0.2090 
 10 C        4.1160     2.0130     1.3470 C.3   1 <1>   0.2090 
 11 C        0.3070     2.1930    -0.9920 C.ar  1 <1>  -0.1440 
 12 N        5.1360     1.7400     0.2820 N.pl3 1 <1>  -0.8380 
 13 C       -0.8230     1.8160    -0.2830 C.ar  1 <1>  -0.1500 
 14 C        0.4050     3.4930    -1.4650 C.ar  1 <1>  -0.1500 
 15 C        6.3960     2.2970     0.3020 C.ar  1 <1>   0.7200 
 16 C       -1.8400     2.7260    -0.0470 C.ar  1 <1>  -0.1500 
 17 C       -0.6100     4.4050    -1.2310 C.ar  1 <1>  -0.1500 
 18 N        7.1230     2.1850    -0.8100 N.ar  1 <1>  -0.6200 
 19 N        6.7830     2.8990     1.4260 N.ar  1 <1>  -0.6200 
 20 C       -1.7350     4.0220    -0.5210 C.ar  1 <1>  -0.1500 
 21 C        8.3200     2.7150    -0.7800 C.ar  1 <1>   0.1600 
 22 C        7.9860     3.4180     1.4250 C.ar  1 <1>   0.1600 
 23 C        8.8170     3.3550     0.3310 C.ar  1 <1>  -0.1430 
 24 C       10.2100     3.9650     0.3470 C.3   1 <1>  -0.0170 
 25 C       10.1660     5.4200    -0.1310 C.3   1 <1>  -0.1600 
 26 C       11.5600     6.0560    -0.1250 C.3   1 <1>  -0.2400 
 27 H        3.8220    -0.6120     0.4870 H     1 <1>   0.0800 
 28 H        2.0110     2.4160     1.4360 H     1 <1>   0.0800 
 29 H        2.7950     2.9270    -0.0140 H     1 <1>   0.0800 
 30 H        2.0770     1.5810    -2.0130 H     1 <1>   0.0800 
 31 H        0.9740     0.3010    -1.6780 H     1 <1>   0.0800 
 32 H        2.3550    -1.4250    -1.0030 H     1 <1>   0.4000 
 33 H        4.4770     1.3590    -1.6900 H     1 <1>   0.0800 
 34 H        5.5410     0.1300    -1.0370 H     1 <1>   0.0800 
 35 H        4.1200     1.2160     2.0710 H     1 <1>   0.0800 
 36 H        4.3360     2.9350     1.8560 H     1 <1>   0.0800 
 37 H       -0.9110     0.8090     0.0920 H     1 <1>   0.1500 
 38 H        1.2770     3.7990    -2.0150 H     1 <1>   0.1500 
 39 H       -2.7060     2.4180     0.5100 H     1 <1>   0.1500 
 40 H       -0.5220     5.4110    -1.6000 H     1 <1>   0.1500 
 41 H       -2.5240     4.7270    -0.3360 H     1 <1>   0.1500 
 42 H        8.9220     2.6360    -1.6680 H     1 <1>   0.1500 
 43 H        8.3170     3.9090     2.3230 H     1 <1>   0.1500 
 44 H       10.6110     3.9220     1.3460 H     1 <1>   0.0800 
 45 H       10.8610     3.3920    -0.2900 H     1 <1>   0.0800 
 46 H        9.7630     5.4580    -1.1290 H     1 <1>   0.0800 
 47 H        9.5130     5.9890     0.5090 H     1 <1>   0.0800 
 48 H       12.2240     5.5180    -0.7800 H     1 <1>   0.0800 
 49 H       11.9730     6.0520     0.8680 H     1 <1>   0.0800 
 50 H       11.4990     7.0750    -0.4650 H     1 <1>   0.0800 
@<TRIPOS>BOND
  1   1   2  ar  
  2   2   3  ar  
  3   2   4  1   
  4   4   5  1   
  5   4   6  1   
  6   4   7  1   
  7   5   8  1   
  8   5   9  1   
  9   5  27  1   
 10   6  10  1   
 11   6  28  1   
 12   6  29  1   
 13   7  11  1   
 14   7  30  1   
 15   7  31  1   
 16   8  32  1   
 17   9  12  1   
 18   9  33  1   
 19   9  34  1   
 20  10  12  1   
 21  10  35  1   
 22  10  36  1   
 23  11  13  ar  
 24  11  14  ar  
 25  12  15  1   
 26  13  16  ar  
 27  13  37  1   
 28  14  17  ar  
 29  14  38  1   
 30  15  18  ar  
 31  15  19  ar  
 32  16  20  ar  
 33  16  39  1   
 34  17  20  ar  
 35  17  40  1   
 36  18  21  ar  
 37  19  22  ar  
 38  20  41  1   
 39  21  23  ar  
 40  21  42  1   
 41  22  23  ar  
 42  22  43  1   
 43  23  24  1   
 44  24  25  1   
 45  24  44  1   
 46  24  45  1   
 47  25  26  1   
 48  25  46  1   
 49  25  47  1   
 50  26  48  1   
 51  26  49  1   
 52  26  50  1   
@<TRIPOS>SUBSTRUCTURE
  1 ****  12 GROUP 4 **** **** 0

# MOE 2024.06 (io_trps.svl 2023.06)
