@<TRIPOS>MOLECULE
NONAME
51 53 1 0 0 
SMALL
USER_CHARGES


@<TRIPOS>ATOM
  1 S        0.1060     0.4490    -0.7640 S.3   1 <1>  -0.3320 
  2 C       -0.2130    -1.3270    -0.9610 C.ar  1 <1>   0.1020 
  3 C        1.5320     0.8670    -1.8830 C.3   1 <1>   0.1310 
  4 C       -1.1120    -1.9290    -0.0770 C.ar  1 <1>   0.1170 
  5 C        0.4200    -2.0520    -1.9590 C.ar  1 <1>  -0.1500 
  6 C        2.0030     2.2990    -1.6490 C.2   1 <1>   0.5690 
  7 N       -1.7470    -1.1420     0.9030 N.am  1 <1>  -0.5470 
  8 C       -1.3460    -3.2940    -0.2210 C.ar  1 <1>  -0.1500 
  9 C        0.1710    -3.4080    -2.0790 C.ar  1 <1>  -0.1500 
 10 O        2.0870     3.0220    -2.6130 O.2   1 <1>  -0.5700 
 11 N        2.3730     2.7610    -0.4080 N.am  1 <1>  -0.6600 
 12 C       -2.4690    -1.4580     2.0160 C.2   1 <1>   0.5690 
 13 C       -0.7100    -4.0260    -1.2080 C.ar  1 <1>  -0.1500 
 14 C        2.3380     4.2340    -0.1150 C.3   1 <1>   0.1400 
 15 C        2.7980     1.8950     0.7300 C.3   1 <1>   0.1400 
 16 O       -2.6950    -2.5810     2.3880 O.2   1 <1>  -0.5700 
 17 C       -3.0060    -0.3090     2.8320 C.3   1 <1>  -0.1790 
 18 C        3.7030     4.8830     0.2450 C.3   1 <1>   0.4230 
 19 C        4.2790     2.1410     1.0970 C.3   1 <1>  -0.0800 
 20 N        4.9280     4.2050    -0.3410 N.4   1 <1>  -0.9590 
 21 C        3.8500     5.1000     1.7670 C.3   1 <1>   0.1200 
 22 C        4.4610     2.8990     2.4200 C.3   1 <1>   0.1200 
 23 C        5.0950     2.7320    -0.0670 C.3   1 <1>   0.3430 
 24 C        4.9640     4.4310    -1.8220 C.3   1 <1>   0.2630 
 25 O        3.5650     3.9570     2.5110 O.3   1 <1>  -0.5600 
 26 H        2.3210     0.1680    -1.6840 H     1 <1>   0.0800 
 27 H        1.1810     0.7550    -2.8920 H     1 <1>   0.0800 
 28 H        1.0970    -1.5930    -2.6510 H     1 <1>   0.1500 
 29 H       -1.5980    -0.1430     0.7560 H     1 <1>   0.3700 
 30 H       -2.0310    -3.7970     0.4350 H     1 <1>   0.1500 
 31 H        0.6570    -3.9840    -2.8480 H     1 <1>   0.1500 
 32 H       -0.9050    -5.0810    -1.2990 H     1 <1>   0.1500 
 33 H        1.9390     4.7580    -0.9660 H     1 <1>   0.0800 
 34 H        1.6400     4.4050     0.6880 H     1 <1>   0.0800 
 35 H        2.1560     2.0750     1.5780 H     1 <1>   0.0800 
 36 H        2.6790     0.8590     0.4650 H     1 <1>   0.0800 
 37 H       -3.6830     0.2750     2.2370 H     1 <1>   0.0800 
 38 H       -2.1960     0.3090     3.1700 H     1 <1>   0.0800 
 39 H       -3.5350    -0.6880     3.6880 H     1 <1>   0.0800 
 40 H        3.6700     5.8770    -0.1670 H     1 <1>   0.0800 
 41 H        4.6990     1.1670     1.2740 H     1 <1>   0.0800 
 42 H        5.7430     4.6790     0.0660 H     1 <1>   0.4500 
 43 H        3.1380     5.8440     2.0800 H     1 <1>   0.0800 
 44 H        4.8310     5.4550     2.0260 H     1 <1>   0.0800 
 45 H        5.4660     3.2630     2.5530 H     1 <1>   0.0800 
 46 H        4.2340     2.2400     3.2420 H     1 <1>   0.0800 
 47 H        4.8240     2.1830    -0.9550 H     1 <1>   0.0800 
 48 H        6.1390     2.5350     0.1140 H     1 <1>   0.0800 
 49 H        4.1250     3.9490    -2.2960 H     1 <1>   0.0800 
 50 H        5.8710     4.0280    -2.2430 H     1 <1>   0.0800 
 51 H        4.9210     5.4850    -2.0450 H     1 <1>   0.0800 
@<TRIPOS>BOND
  1   1   2  1   
  2   1   3  1   
  3   2   4  ar  
  4   2   5  ar  
  5   3   6  1   
  6   3  26  1   
  7   3  27  1   
  8   4   7  1   
  9   4   8  ar  
 10   5   9  ar  
 11   5  28  1   
 12   6  10  2   
 13   6  11  am  
 14   7  12  am  
 15   7  29  1   
 16   8  13  ar  
 17   8  30  1   
 18   9  13  ar  
 19   9  31  1   
 20  11  14  1   
 21  11  15  1   
 22  12  16  2   
 23  12  17  1   
 24  13  32  1   
 25  14  18  1   
 26  14  33  1   
 27  14  34  1   
 28  15  19  1   
 29  15  35  1   
 30  15  36  1   
 31  17  37  1   
 32  17  38  1   
 33  17  39  1   
 34  18  20  1   
 35  18  21  1   
 36  18  40  1   
 37  19  22  1   
 38  19  23  1   
 39  19  41  1   
 40  20  23  1   
 41  20  24  1   
 42  20  42  1   
 43  21  25  1   
 44  21  43  1   
 45  21  44  1   
 46  22  25  1   
 47  22  45  1   
 48  22  46  1   
 49  23  47  1   
 50  23  48  1   
 51  24  49  1   
 52  24  50  1   
 53  24  51  1   
@<TRIPOS>SUBSTRUCTURE
  1 ****   1 GROUP 4 **** **** 0

# MOE 2024.06 (io_trps.svl 2023.06)
