@<TRIPOS>MOLECULE
NONAME
51 54 1 0 0 
SMALL
USER_CHARGES


@<TRIPOS>ATOM
  1 S       -0.6080     0.4140    -0.3220 S.3   1 <1>  -0.0800 
  2 C        0.0930    -0.9930    -1.1200 C.2   1 <1>  -0.0450 
  3 C       -1.6460    -0.5740     0.6670 C.2   1 <1>  -0.1100 
  4 C        1.1060    -0.7920    -2.1190 C.2   1 <1>   0.5940 
  5 C       -0.4910    -2.1070    -0.6080 C.2   1 <1>  -0.1500 
  6 C       -1.4900    -1.8930     0.3970 C.2   1 <1>  -0.0860 
  7 O        1.4910     0.2880    -2.4880 O.2   1 <1>  -0.5700 
  8 C        1.7340    -2.0100    -2.7600 C.3   1 <1>  -0.1790 
  9 C       -2.1890    -3.0040     1.0120 C.2   1 <1>   0.7160 
 10 O       -1.5370    -3.9520     1.4060 O.2   1 <1>  -0.5700 
 11 N       -3.5630    -3.0340     1.1340 N.am  1 <1>  -0.6600 
 12 C       -4.4820    -2.1980     0.2930 C.3   1 <1>   0.1400 
 13 C       -4.2460    -4.1580     1.8410 C.3   1 <1>   0.1400 
 14 C       -5.6580    -1.6390     1.1170 C.3   1 <1>   0.1430 
 15 C       -5.4270    -3.6380     2.6700 C.3   1 <1>  -0.1600 
 16 C       -6.5590    -0.8580     0.1800 C.ar  1 <1>   0.1670 
 17 C       -6.3950    -2.7970     1.8210 C.3   1 <1>  -0.1600 
 18 C       -5.2040    -0.5480     2.1240 C.3   1 <1>  -0.1600 
 19 N       -7.3580    -1.3820    -0.7150 N.ar  1 <1>  -0.6200 
 20 C       -6.4270     0.4860     0.3630 C.ar  1 <1>  -0.1430 
 21 C       -5.4230     0.8130     1.4390 C.3   1 <1>  -0.0170 
 22 C       -8.0610    -0.5040    -1.4350 C.ar  1 <1>   0.7200 
 23 C       -7.1840     1.3130    -0.4270 C.ar  1 <1>   0.1600 
 24 N       -8.0060     0.8280    -1.3280 N.ar  1 <1>  -0.6200 
 25 N       -8.9260    -1.0210    -2.3810 N.pl3 1 <1>  -0.8380 
 26 C       -9.9680    -0.1850    -3.0380 C.3   1 <1>   0.1290 
 27 C       -8.8900    -2.4520    -2.7920 C.3   1 <1>   0.1290 
 28 H       -2.2810    -0.0690     1.3700 H     1 <1>   0.1500 
 29 H       -0.2510    -3.1150    -0.9020 H     1 <1>   0.1500 
 30 H        2.1810    -2.6290    -2.0040 H     1 <1>   0.0800 
 31 H        2.4950    -1.7060    -3.4550 H     1 <1>   0.0800 
 32 H        0.9840    -2.5690    -3.2870 H     1 <1>   0.0800 
 33 H       -4.8790    -2.8180    -0.4930 H     1 <1>   0.0800 
 34 H       -3.9560    -1.3880    -0.1770 H     1 <1>   0.0800 
 35 H       -3.5570    -4.6690     2.4930 H     1 <1>   0.0800 
 36 H       -4.5980    -4.8650     1.1100 H     1 <1>   0.0800 
 37 H       -5.0480    -3.0540     3.4900 H     1 <1>   0.0800 
 38 H       -5.9560    -4.4760     3.0890 H     1 <1>   0.0800 
 39 H       -6.8430    -3.4300     1.0740 H     1 <1>   0.0800 
 40 H       -7.1920    -2.4120     2.4330 H     1 <1>   0.0800 
 41 H       -4.1890    -0.6830     2.4510 H     1 <1>   0.0800 
 42 H       -5.8380    -0.5830     2.9920 H     1 <1>   0.0800 
 43 H       -4.5130     1.1680     0.9890 H     1 <1>   0.0800 
 44 H       -5.8030     1.5460     2.1290 H     1 <1>   0.0800 
 45 H       -7.1160     2.3810    -0.3210 H     1 <1>   0.1500 
 46 H      -10.2870     0.6060    -2.3810 H     1 <1>   0.0800 
 47 H      -10.8260    -0.7860    -3.2840 H     1 <1>   0.0800 
 48 H       -9.5660     0.2480    -3.9370 H     1 <1>   0.0800 
 49 H       -7.8910    -2.8440    -2.7050 H     1 <1>   0.0800 
 50 H       -9.2040    -2.5520    -3.8160 H     1 <1>   0.0800 
 51 H       -9.5460    -3.0230    -2.1590 H     1 <1>   0.0800 
@<TRIPOS>BOND
  1   1   2  1   
  2   1   3  1   
  3   2   4  1   
  4   2   5  2   
  5   3   6  2   
  6   3  28  1   
  7   4   7  2   
  8   4   8  1   
  9   5   6  1   
 10   5  29  1   
 11   6   9  1   
 12   8  30  1   
 13   8  31  1   
 14   8  32  1   
 15   9  10  2   
 16   9  11  am  
 17  11  12  1   
 18  11  13  1   
 19  12  14  1   
 20  12  33  1   
 21  12  34  1   
 22  13  15  1   
 23  13  35  1   
 24  13  36  1   
 25  14  16  1   
 26  14  17  1   
 27  14  18  1   
 28  15  17  1   
 29  15  37  1   
 30  15  38  1   
 31  16  19  ar  
 32  16  20  ar  
 33  17  39  1   
 34  17  40  1   
 35  18  21  1   
 36  18  41  1   
 37  18  42  1   
 38  19  22  ar  
 39  20  21  1   
 40  20  23  ar  
 41  21  43  1   
 42  21  44  1   
 43  22  24  ar  
 44  22  25  1   
 45  23  24  ar  
 46  23  45  1   
 47  25  26  1   
 48  25  27  1   
 49  26  46  1   
 50  26  47  1   
 51  26  48  1   
 52  27  49  1   
 53  27  50  1   
 54  27  51  1   
@<TRIPOS>SUBSTRUCTURE
  1 ****  12 GROUP 4 **** **** 0

# MOE 2024.06 (io_trps.svl 2023.06)
