@<TRIPOS>MOLECULE
NONAME
53 56 1 0 0 
SMALL
USER_CHARGES


@<TRIPOS>ATOM
  1 O       -0.6440     1.3880     2.4110 O.2   1 <1>  -0.5700 
  2 C       -0.3910     0.3310     1.8780 C.2   1 <1>   0.5690 
  3 N        0.5490     0.1710     0.9070 N.am  1 <1>  -0.4930 
  4 C       -1.1620    -0.8900     2.3500 C.3   1 <1>   0.0820 
  5 C        1.5000     1.0320     0.3010 C.2   1 <1>   0.0630 
  6 C       -1.2180    -1.9980     1.3080 C.2   1 <1>   0.0460 
  7 C        2.6680     0.5370    -0.2920 C.2   1 <1>   0.3720 
  8 C        1.5610     2.3710     0.1200 C.2   1 <1>  -0.3320 
  9 N       -0.1070    -2.6860     0.9910 N.2   1 <1>  -0.5650 
 10 C       -2.2450    -2.4500     0.5740 C.2   1 <1>  -0.0400 
 11 N        3.4160     1.4750    -0.7810 N.2   1 <1>  -0.7070 
 12 N        2.9950    -0.8320    -0.3640 N.pl3 1 <1>  -0.8210 
 13 N        2.7360     2.6120    -0.5160 N.pl3 1 <1>   0.3140 
 14 C        0.5640     3.4560     0.4990 C.3   1 <1>  -0.0600 
 15 C       -0.5000    -3.5100     0.0690 C.2   1 <1>   0.4250 
 16 O       -1.7900    -3.3970    -0.1940 O.3   1 <1>  -0.2800 
 17 C       -3.7100    -2.0740     0.4800 C.3   1 <1>  -0.0600 
 18 C        4.2450    -1.1490     0.3720 C.3   1 <1>   0.2090 
 19 C        3.1440    -1.3030    -1.7670 C.3   1 <1>   0.2090 
 20 C        3.2810     3.9160    -0.9130 C.3   1 <1>   0.0160 
 21 C        0.3160    -4.4620    -0.6550 C.ar  1 <1>   0.0530 
 22 C        4.9850    -2.1660    -0.4830 C.3   1 <1>  -0.1600 
 23 C        4.5730    -1.8140    -1.9030 C.3   1 <1>  -0.1600 
 24 C       -0.2430    -5.4200    -1.5040 C.ar  1 <1>  -0.1500 
 25 C        1.7070    -4.4510    -0.5330 C.ar  1 <1>  -0.1500 
 26 C        0.5460    -6.3220    -2.1950 C.ar  1 <1>  -0.1500 
 27 C        2.5020    -5.3490    -1.2210 C.ar  1 <1>  -0.1500 
 28 C        1.9220    -6.2880    -2.0550 C.ar  1 <1>  -0.1500 
 29 H        0.7290    -0.8100     0.6480 H     1 <1>   0.3700 
 30 H       -2.1570    -0.5840     2.6070 H     1 <1>   0.0800 
 31 H       -0.6920    -1.2660     3.2390 H     1 <1>   0.0800 
 32 H       -0.4270     3.0450     0.5600 H     1 <1>   0.0800 
 33 H        0.5450     4.2370    -0.2390 H     1 <1>   0.0800 
 34 H        0.8220     3.8750     1.4550 H     1 <1>   0.0800 
 35 H       -3.9420    -1.2700     1.1530 H     1 <1>   0.0800 
 36 H       -4.3190    -2.9240     0.7290 H     1 <1>   0.0800 
 37 H       -3.9390    -1.7640    -0.5230 H     1 <1>   0.0800 
 38 H        4.0130    -1.5500     1.3440 H     1 <1>   0.0800 
 39 H        4.8460    -0.2630     0.4900 H     1 <1>   0.0800 
 40 H        2.9470    -0.5160    -2.4770 H     1 <1>   0.0800 
 41 H        2.4450    -2.1030    -1.9360 H     1 <1>   0.0800 
 42 H        3.2410     4.5850    -0.0750 H     1 <1>   0.0800 
 43 H        2.7000     4.3060    -1.7260 H     1 <1>   0.0800 
 44 H        4.3010     3.7900    -1.2250 H     1 <1>   0.0800 
 45 H        4.6430    -3.1530    -0.2300 H     1 <1>   0.0800 
 46 H        6.0490    -2.1090    -0.3370 H     1 <1>   0.0800 
 47 H        5.1870    -1.0120    -2.2730 H     1 <1>   0.0800 
 48 H        4.6360    -2.6500    -2.5750 H     1 <1>   0.0800 
 49 H       -1.3110    -5.4580    -1.6230 H     1 <1>   0.1500 
 50 H        2.1670    -3.7200     0.1110 H     1 <1>   0.1500 
 51 H        0.0910    -7.0520    -2.8420 H     1 <1>   0.1500 
 52 H        3.5720    -5.3180    -1.1080 H     1 <1>   0.1500 
 53 H        2.5380    -6.9890    -2.5910 H     1 <1>   0.1500 
@<TRIPOS>BOND
  1   1   2  2   
  2   2   3  am  
  3   2   4  1   
  4   3   5  1   
  5   3  29  1   
  6   4   6  1   
  7   4  30  1   
  8   4  31  1   
  9   5   7  1   
 10   5   8  2   
 11   6   9  1   
 12   6  10  2   
 13   7  11  2   
 14   7  12  1   
 15   8  13  1   
 16   8  14  1   
 17   9  15  2   
 18  10  16  1   
 19  10  17  1   
 20  11  13  1   
 21  12  18  1   
 22  12  19  1   
 23  13  20  1   
 24  14  32  1   
 25  14  33  1   
 26  14  34  1   
 27  15  16  1   
 28  15  21  1   
 29  17  35  1   
 30  17  36  1   
 31  17  37  1   
 32  18  22  1   
 33  18  38  1   
 34  18  39  1   
 35  19  23  1   
 36  19  40  1   
 37  19  41  1   
 38  20  42  1   
 39  20  43  1   
 40  20  44  1   
 41  21  24  ar  
 42  21  25  ar  
 43  22  23  1   
 44  22  45  1   
 45  22  46  1   
 46  23  47  1   
 47  23  48  1   
 48  24  26  ar  
 49  24  49  1   
 50  25  27  ar  
 51  25  50  1   
 52  26  28  ar  
 53  26  51  1   
 54  27  28  ar  
 55  27  52  1   
 56  28  53  1   
@<TRIPOS>SUBSTRUCTURE
  1 ****   3 GROUP 4 **** **** 0

# MOE 2024.06 (io_trps.svl 2023.06)
