@<TRIPOS>MOLECULE
NONAME
45 48 1 0 0 
SMALL
USER_CHARGES


@<TRIPOS>ATOM
  1 O       -2.0380     0.7660    -1.9780 O.2   1 <1>  -0.5700 
  2 C       -1.9120     0.9240    -0.7790 C.2   1 <1>   0.5440 
  3 N       -2.0480    -0.1690     0.0280 N.am  1 <1>  -0.7300 
  4 C       -1.6230     2.2330    -0.2220 C.ar  1 <1>   0.0860 
  5 C       -2.3360    -1.5430    -0.4400 C.3   1 <1>   0.2200 
  6 C       -0.9710     3.2040    -0.9850 C.ar  1 <1>  -0.1500 
  7 C       -1.9810     2.5770     1.0870 C.ar  1 <1>  -0.1500 
  8 C       -3.8050    -1.8490    -0.2070 C.3   1 <1>  -0.0800 
  9 C       -1.6600    -2.5510     0.4820 C.3   1 <1>   0.1200 
 10 C       -0.6790     4.4510    -0.4670 C.ar  1 <1>   0.0820 
 11 C       -1.6880     3.8210     1.6170 C.ar  1 <1>  -0.1500 
 12 C       -3.8140    -2.2950     1.2600 C.3   1 <1>   0.1200 
 13 C       -4.3120    -2.9490    -1.1580 C.3   1 <1>  -0.0160 
 14 O       -2.5150    -2.7100     1.5750 O.3   1 <1>  -0.5600 
 15 O       -0.0560     5.3620    -1.2570 O.3   1 <1>  -0.3630 
 16 C       -1.0280     4.7620     0.8480 C.ar  1 <1>   0.0820 
 17 C       -5.7920    -3.2270    -0.9470 C.ar  1 <1>  -0.1430 
 18 C       -0.0810     6.7090    -0.8240 C.3   1 <1>   0.1200 
 19 O       -0.7320     5.9660     1.3890 O.3   1 <1>  -0.3630 
 20 C       -6.2430    -4.3570    -0.2940 C.ar  1 <1>  -0.1500 
 21 C       -6.7630    -2.3580    -1.4020 C.ar  1 <1>  -0.1500 
 22 C        0.1830     6.7870     0.6860 C.3   1 <1>   0.1200 
 23 C       -7.6040    -4.5530    -0.1270 C.ar  1 <1>   0.1600 
 24 C       -8.0990    -2.6490    -1.1830 C.ar  1 <1>   0.1600 
 25 N       -8.5430    -3.7250    -0.5540 N.ar  1 <1>  -0.6200 
 26 H       -1.9120    -0.0890     1.0370 H     1 <1>   0.3700 
 27 H       -2.0330    -1.6630    -1.4670 H     1 <1>   0.0800 
 28 H       -0.6910     2.9810    -1.9990 H     1 <1>   0.1500 
 29 H       -2.5040     1.8650     1.7000 H     1 <1>   0.1500 
 30 H       -4.4090    -0.9690    -0.3460 H     1 <1>   0.0800 
 31 H       -0.6940    -2.2200     0.8220 H     1 <1>   0.0800 
 32 H       -1.5670    -3.5070    -0.0020 H     1 <1>   0.0800 
 33 H       -1.9660     4.0710     2.6260 H     1 <1>   0.1500 
 34 H       -4.4960    -3.1050     1.4520 H     1 <1>   0.0800 
 35 H       -4.0550    -1.4680     1.9050 H     1 <1>   0.0800 
 36 H       -3.7500    -3.8560    -1.0150 H     1 <1>   0.0800 
 37 H       -4.1640    -2.6340    -2.1770 H     1 <1>   0.0800 
 38 H        0.6690     7.2480    -1.3730 H     1 <1>   0.0800 
 39 H       -1.0500     7.1160    -1.0560 H     1 <1>   0.0800 
 40 H       -5.5520    -5.0860     0.0870 H     1 <1>   0.1500 
 41 H       -6.4930    -1.4580    -1.9240 H     1 <1>   0.1500 
 42 H        0.0670     7.7940     1.0440 H     1 <1>   0.0800 
 43 H        1.1780     6.4440     0.9090 H     1 <1>   0.0800 
 44 H       -7.9370    -5.4400     0.3850 H     1 <1>   0.1500 
 45 H       -8.8420    -1.9580    -1.5440 H     1 <1>   0.1500 
@<TRIPOS>BOND
  1   1   2  2   
  2   2   3  am  
  3   2   4  1   
  4   3   5  1   
  5   3  26  1   
  6   4   6  ar  
  7   4   7  ar  
  8   5   8  1   
  9   5   9  1   
 10   5  27  1   
 11   6  10  ar  
 12   6  28  1   
 13   7  11  ar  
 14   7  29  1   
 15   8  12  1   
 16   8  13  1   
 17   8  30  1   
 18   9  14  1   
 19   9  31  1   
 20   9  32  1   
 21  10  15  1   
 22  10  16  ar  
 23  11  16  ar  
 24  11  33  1   
 25  12  14  1   
 26  12  34  1   
 27  12  35  1   
 28  13  17  1   
 29  13  36  1   
 30  13  37  1   
 31  15  18  1   
 32  16  19  1   
 33  17  20  ar  
 34  17  21  ar  
 35  18  22  1   
 36  18  38  1   
 37  18  39  1   
 38  19  22  1   
 39  20  23  ar  
 40  20  40  1   
 41  21  24  ar  
 42  21  41  1   
 43  22  42  1   
 44  22  43  1   
 45  23  25  ar  
 46  23  44  1   
 47  24  25  ar  
 48  24  45  1   
@<TRIPOS>SUBSTRUCTURE
  1 ****   3 GROUP 4 **** **** 0

# MOE 2024.06 (io_trps.svl 2023.06)
