@<TRIPOS>MOLECULE
NONAME
52 55 1 0 0 
SMALL
USER_CHARGES


@<TRIPOS>ATOM
  1 O       -0.0850     0.1470    -0.3700 O.co2 1 <1>  -0.9000 
  2 C       -0.7420     1.0650    -0.8710 C.2   1 <1>   0.9060 
  3 O       -0.7590     1.2750    -2.0910 O.co2 1 <1>  -0.9000 
  4 C       -1.7910     1.7500     0.0490 C.3   1 <1>   0.4600 
  5 N       -3.2120     1.2530    -0.1830 N.4   1 <1>  -0.9590 
  6 C       -1.8340     3.2810     0.0990 C.ar  1 <1>  -0.1430 
  7 C       -3.1750    -0.2370    -0.0100 C.3   1 <1>   0.3430 
  8 C       -3.6240     1.6500    -1.5720 C.3   1 <1>   0.3430 
  9 C       -2.3950     3.8810     1.2170 C.ar  1 <1>  -0.1500 
 10 C       -1.3530     4.0930    -0.9220 C.ar  1 <1>  -0.1500 
 11 C       -4.5510    -0.8800     0.1730 C.3   1 <1>   0.0960 
 12 C       -5.1330     1.5470    -1.7690 C.3   1 <1>   0.0200 
 13 C       -2.4960     5.2580     1.3190 C.ar  1 <1>   0.0830 
 14 C       -1.4430     5.4710    -0.8260 C.ar  1 <1>  -0.1500 
 15 N       -5.3400    -0.8960    -1.0800 N.pl3 1 <1>   0.0480 
 16 C       -5.6050     0.1140    -1.9180 C.2   1 <1>   0.0070 
 17 O       -3.0730     5.7410     2.4460 O.3   1 <1>  -0.3630 
 18 C       -2.0150     6.0580     0.2880 C.ar  1 <1>  -0.1500 
 19 C       -6.0060    -1.9190    -1.6410 C.2   1 <1>   0.0060 
 20 N       -6.3420    -0.2650    -2.9000 N.2   1 <1>  -0.3380 
 21 C       -3.1250     7.1270     2.7050 C.3   1 <1>   0.0400 
 22 N       -6.5980    -1.5570    -2.7240 N.2   1 <1>  -0.3380 
 23 C       -6.1030    -3.3400    -1.0990 C.3   1 <1>   0.1630 
 24 C       -6.5080    -3.3670     0.3700 C.ar  1 <1>  -0.1430 
 25 C       -7.5080    -2.5260     0.8400 C.ar  1 <1>   0.1600 
 26 C       -5.8780    -4.2140     1.2620 C.ar  1 <1>  -0.1500 
 27 N       -7.8890    -2.4400     2.1040 N.ar  1 <1>  -0.6200 
 28 C       -6.2840    -4.1530     2.5770 C.ar  1 <1>  -0.1500 
 29 C       -7.2780    -3.2610     2.9410 C.ar  1 <1>   0.1600 
 30 H       -1.4970     1.4370     1.0350 H     1 <1>   0.0800 
 31 H       -3.8000     1.7270     0.5080 H     1 <1>   0.4500 
 32 H       -2.5860    -0.4650     0.8640 H     1 <1>   0.0800 
 33 H       -2.6710    -0.6920    -0.8510 H     1 <1>   0.0800 
 34 H       -3.1130     1.0400    -2.3030 H     1 <1>   0.0800 
 35 H       -3.3330     2.6720    -1.7520 H     1 <1>   0.0800 
 36 H       -2.7630     3.2930     2.0390 H     1 <1>   0.1500 
 37 H       -0.8980     3.6710    -1.8050 H     1 <1>   0.1500 
 38 H       -5.1100    -0.3740     0.9390 H     1 <1>   0.0800 
 39 H       -4.3920    -1.8910     0.4920 H     1 <1>   0.0800 
 40 H       -5.3820     2.0730    -2.6740 H     1 <1>   0.0800 
 41 H       -5.6540     2.0310    -0.9650 H     1 <1>   0.0800 
 42 H       -1.0630     6.0860    -1.6240 H     1 <1>   0.1500 
 43 H       -2.0740     7.1290     0.3350 H     1 <1>   0.1500 
 44 H       -3.5830     7.2710     3.6670 H     1 <1>   0.0800 
 45 H       -3.7170     7.6040     1.9440 H     1 <1>   0.0800 
 46 H       -2.1230     7.5180     2.7160 H     1 <1>   0.0800 
 47 H       -5.1550    -3.8270    -1.2370 H     1 <1>   0.0800 
 48 H       -6.8340    -3.8850    -1.6700 H     1 <1>   0.0800 
 49 H       -8.0190    -1.8820     0.1420 H     1 <1>   0.1500 
 50 H       -5.1060    -4.8990     0.9540 H     1 <1>   0.1500 
 51 H       -5.8390    -4.7930     3.3190 H     1 <1>   0.1500 
 52 H       -7.5870    -3.2230     3.9730 H     1 <1>   0.1500 
@<TRIPOS>BOND
  1   1   2  ar  
  2   2   3  ar  
  3   2   4  1   
  4   4   5  1   
  5   4   6  1   
  6   4  30  1   
  7   5   7  1   
  8   5   8  1   
  9   5  31  1   
 10   6   9  ar  
 11   6  10  ar  
 12   7  11  1   
 13   7  32  1   
 14   7  33  1   
 15   8  12  1   
 16   8  34  1   
 17   8  35  1   
 18   9  13  ar  
 19   9  36  1   
 20  10  14  ar  
 21  10  37  1   
 22  11  15  1   
 23  11  38  1   
 24  11  39  1   
 25  12  16  1   
 26  12  40  1   
 27  12  41  1   
 28  13  17  1   
 29  13  18  ar  
 30  14  18  ar  
 31  14  42  1   
 32  15  16  1   
 33  15  19  1   
 34  16  20  2   
 35  17  21  1   
 36  18  43  1   
 37  19  22  2   
 38  19  23  1   
 39  20  22  1   
 40  21  44  1   
 41  21  45  1   
 42  21  46  1   
 43  23  24  1   
 44  23  47  1   
 45  23  48  1   
 46  24  25  ar  
 47  24  26  ar  
 48  25  27  ar  
 49  25  49  1   
 50  26  28  ar  
 51  26  50  1   
 52  27  29  ar  
 53  28  29  ar  
 54  28  51  1   
 55  29  52  1   
@<TRIPOS>SUBSTRUCTURE
  1 ****   5 GROUP 4 **** **** 0

# MOE 2024.06 (io_trps.svl 2023.06)
