@<TRIPOS>MOLECULE
NONAME
48 50 1 0 0 
SMALL
USER_CHARGES


@<TRIPOS>ATOM
  1 S        1.8060     0.3000    -0.1960 S.o2  1 <1>   1.3330 
  2 O        2.8300     0.4470     0.8140 O.2   1 <1>  -0.6500 
  3 O        2.1630     0.3600    -1.5950 O.2   1 <1>  -0.6500 
  4 N        1.0010    -1.1720     0.0700 N.am  1 <1>  -0.8490 
  5 C        0.5290     1.5130     0.1300 C.3   1 <1>  -0.0550 
  6 C        0.2430    -1.6410    -1.0950 C.3   1 <1>   0.1160 
  7 C        1.9090    -2.2260     0.5310 C.3   1 <1>   0.1160 
  8 C        1.0510     2.9570     0.0890 C.3   1 <1>  -0.0800 
  9 C       -0.0040     3.9810     0.5140 C.3   1 <1>   0.2000 
 10 C        1.5260     3.4330    -1.2830 C.3   1 <1>   0.1400 
 11 O        0.1080     4.2150     1.8730 O.3   1 <1>  -0.6800 
 12 C        0.2830     5.2540    -0.2860 C.3   1 <1>   0.1400 
 13 N        1.4030     4.9040    -1.2010 N.am  1 <1>  -0.6600 
 14 C        2.4460     5.7360    -1.5320 C.2   1 <1>   0.5440 
 15 O        3.2500     5.3740    -2.3680 O.2   1 <1>  -0.5700 
 16 C        2.6260     7.0090    -0.8720 C.ar  1 <1>   0.0860 
 17 C        3.0550     7.0760     0.4600 C.ar  1 <1>  -0.0230 
 18 C        2.3650     8.1990    -1.5480 C.ar  1 <1>  -0.1500 
 19 N        3.3690     5.8900     1.1710 N.pl3 1 <1>   0.5930 
 20 C        3.1720     8.3120     1.0860 C.ar  1 <1>  -0.1500 
 21 C        2.4960     9.4240    -0.9210 C.ar  1 <1>  -0.1500 
 22 N        2.6720     5.4670     2.2610 N.2   1 <1>  -0.7070 
 23 C        4.3790     5.0260     0.9120 C.2   1 <1>  -0.3020 
 24 C        2.8950     9.4800     0.4020 C.ar  1 <1>  -0.1500 
 25 C        3.2720     4.3870     2.6590 C.2   1 <1>   0.1390 
 26 C        4.3470     4.0540     1.8450 C.2   1 <1>  -0.1500 
 27 H       -0.2690     1.3990    -0.5770 H     1 <1>   0.0800 
 28 H        0.1300     1.3300     1.1100 H     1 <1>   0.0800 
 29 H       -0.3160    -2.5250    -0.8400 H     1 <1>   0.0800 
 30 H        0.9090    -1.8710    -1.9110 H     1 <1>   0.0800 
 31 H       -0.4500    -0.8830    -1.4180 H     1 <1>   0.0800 
 32 H        1.3650    -3.1380     0.7050 H     1 <1>   0.0800 
 33 H        2.3760    -1.9330     1.4560 H     1 <1>   0.0800 
 34 H        2.6790    -2.4050    -0.2030 H     1 <1>   0.0800 
 35 H        1.8970     3.0280     0.7480 H     1 <1>   0.0800 
 36 H       -1.0040     3.6360     0.3140 H     1 <1>   0.0800 
 37 H        0.8890     3.0680    -2.0710 H     1 <1>   0.0800 
 38 H        2.5430     3.1310    -1.4770 H     1 <1>   0.0800 
 39 H        0.9750     4.6560     2.0730 H     1 <1>   0.4000 
 40 H        0.5340     6.0730     0.3640 H     1 <1>   0.0800 
 41 H       -0.5780     5.5180    -0.8750 H     1 <1>   0.0800 
 42 H        2.0560     8.1540    -2.5780 H     1 <1>   0.1500 
 43 H        3.4830     8.3580     2.1170 H     1 <1>   0.1500 
 44 H        2.2870    10.3330    -1.4600 H     1 <1>   0.1500 
 45 H        5.0460     5.1590     0.0790 H     1 <1>   0.1500 
 46 H        2.9920    10.4330     0.8960 H     1 <1>   0.1500 
 47 H        2.9640     3.8100     3.5170 H     1 <1>   0.1500 
 48 H        4.9880     3.1960     1.9590 H     1 <1>   0.1500 
@<TRIPOS>BOND
  1   1   2  2   
  2   1   3  2   
  3   1   4  am  
  4   1   5  1   
  5   4   6  1   
  6   4   7  1   
  7   5   8  1   
  8   5  27  1   
  9   5  28  1   
 10   6  29  1   
 11   6  30  1   
 12   6  31  1   
 13   7  32  1   
 14   7  33  1   
 15   7  34  1   
 16   8   9  1   
 17   8  10  1   
 18   8  35  1   
 19   9  11  1   
 20   9  12  1   
 21   9  36  1   
 22  10  13  1   
 23  10  37  1   
 24  10  38  1   
 25  11  39  1   
 26  12  13  1   
 27  12  40  1   
 28  12  41  1   
 29  13  14  am  
 30  14  15  2   
 31  14  16  1   
 32  16  17  ar  
 33  16  18  ar  
 34  17  19  1   
 35  17  20  ar  
 36  18  21  ar  
 37  18  42  1   
 38  19  22  1   
 39  19  23  1   
 40  20  24  ar  
 41  20  43  1   
 42  21  24  ar  
 43  21  44  1   
 44  22  25  2   
 45  23  26  2   
 46  23  45  1   
 47  24  46  1   
 48  25  26  1   
 49  25  47  1   
 50  26  48  1   
@<TRIPOS>SUBSTRUCTURE
  1 ****   8 GROUP 4 **** **** 0

# MOE 2024.06 (io_trps.svl 2023.06)
