@<TRIPOS>MOLECULE
NONAME
51 54 1 0 0 
SMALL
USER_CHARGES


@<TRIPOS>ATOM
  1 O       -1.4790     0.1870     2.4150 O.2   1 <1>  -0.5700 
  2 C       -1.8880     0.7830     1.4290 C.2   1 <1>   0.7160 
  3 N       -2.6930     0.0640     0.5610 N.am  1 <1>  -0.6600 
  4 C       -1.5170     2.1840     1.2260 C.2   1 <1>   0.2030 
  5 C       -3.3230     0.5840    -0.6790 C.3   1 <1>   0.1400 
  6 C       -2.9120    -1.3980     0.6800 C.3   1 <1>   0.1400 
  7 N       -1.7480     2.9430     0.1640 N.2   1 <1>  -0.7070 
  8 C       -0.8250     2.9290     2.1900 C.2   1 <1>  -0.1500 
  9 C       -4.2580    -0.5370    -1.1310 C.3   1 <1>   0.2000 
 10 C       -3.5530    -1.8120    -0.6510 C.3   1 <1>  -0.0800 
 11 N       -1.2190     4.1440     0.4430 N.pl3 1 <1>   0.3140 
 12 C       -0.6550     4.1570     1.6660 C.2   1 <1>  -0.3020 
 13 O       -5.4640    -0.3900    -0.4610 O.3   1 <1>  -0.6800 
 14 C       -4.4650    -3.0540    -0.5520 C.3   1 <1>  -0.0170 
 15 C       -1.2850     5.2760    -0.5230 C.3   1 <1>   0.1760 
 16 C       -3.7800    -4.3830    -0.2100 C.ar  1 <1>  -0.1430 
 17 C        0.1240     5.7400    -0.9200 C.3   1 <1>  -0.2400 
 18 C       -2.1040     6.4380     0.0560 C.3   1 <1>  -0.2400 
 19 C       -4.5700    -5.5170     0.1080 C.ar  1 <1>   0.0000 
 20 C       -2.4230    -4.5550    -0.2010 C.ar  1 <1>  -0.1500 
 21 C       -3.9020    -6.7230     0.4360 C.ar  1 <1>   0.3100 
 22 C       -5.9850    -5.5280     0.1130 C.ar  1 <1>  -0.1500 
 23 C       -1.8640    -5.7930     0.1330 C.ar  1 <1>   0.1600 
 24 N       -2.5520    -6.8440     0.4450 N.ar  1 <1>  -0.6200 
 25 C       -4.6620    -7.8570     0.7640 C.ar  1 <1>  -0.1500 
 26 C       -6.6970    -6.6520     0.4360 C.ar  1 <1>  -0.1500 
 27 C       -6.0300    -7.8330     0.7680 C.ar  1 <1>  -0.1500 
 28 H       -3.8580     1.5020    -0.5040 H     1 <1>   0.0800 
 29 H       -2.5570     0.7500    -1.4160 H     1 <1>   0.0800 
 30 H       -1.9810    -1.9070     0.8580 H     1 <1>   0.0800 
 31 H       -3.5790    -1.5850     1.5040 H     1 <1>   0.0800 
 32 H       -0.5100     2.5540     3.1480 H     1 <1>   0.1500 
 33 H       -4.4510    -0.5250    -2.1900 H     1 <1>   0.0800 
 34 H       -2.7660    -2.0130    -1.3560 H     1 <1>   0.0800 
 35 H       -0.1740     5.0210     2.0840 H     1 <1>   0.1500 
 36 H       -5.2770    -0.1820     0.4770 H     1 <1>   0.4000 
 37 H       -4.9790    -3.1740    -1.4890 H     1 <1>   0.0800 
 38 H       -5.2080    -2.8580     0.2010 H     1 <1>   0.0800 
 39 H       -1.7850     4.9110    -1.4040 H     1 <1>   0.0800 
 40 H        0.6520     6.1320    -0.0700 H     1 <1>   0.0800 
 41 H        0.0610     6.5090    -1.6680 H     1 <1>   0.0800 
 42 H        0.6790     4.9140    -1.3310 H     1 <1>   0.0800 
 43 H       -1.6280     6.8430     0.9310 H     1 <1>   0.0800 
 44 H       -3.0910     6.0960     0.3160 H     1 <1>   0.0800 
 45 H       -2.2000     7.2210    -0.6750 H     1 <1>   0.0800 
 46 H       -1.7340    -3.7700    -0.4450 H     1 <1>   0.1500 
 47 H       -6.5250    -4.6370    -0.1440 H     1 <1>   0.1500 
 48 H       -0.7910    -5.8770     0.1300 H     1 <1>   0.1500 
 49 H       -4.1260    -8.7540     1.0140 H     1 <1>   0.1500 
 50 H       -7.7730    -6.6420     0.4370 H     1 <1>   0.1500 
 51 H       -6.6000    -8.7100     1.0210 H     1 <1>   0.1500 
@<TRIPOS>BOND
  1   1   2  2   
  2   2   3  am  
  3   2   4  1   
  4   3   5  1   
  5   3   6  1   
  6   4   7  2   
  7   4   8  1   
  8   5   9  1   
  9   5  28  1   
 10   5  29  1   
 11   6  10  1   
 12   6  30  1   
 13   6  31  1   
 14   7  11  1   
 15   8  12  2   
 16   8  32  1   
 17   9  10  1   
 18   9  13  1   
 19   9  33  1   
 20  10  14  1   
 21  10  34  1   
 22  11  12  1   
 23  11  15  1   
 24  12  35  1   
 25  13  36  1   
 26  14  16  1   
 27  14  37  1   
 28  14  38  1   
 29  15  17  1   
 30  15  18  1   
 31  15  39  1   
 32  16  19  ar  
 33  16  20  ar  
 34  17  40  1   
 35  17  41  1   
 36  17  42  1   
 37  18  43  1   
 38  18  44  1   
 39  18  45  1   
 40  19  21  ar  
 41  19  22  ar  
 42  20  23  ar  
 43  20  46  1   
 44  21  24  ar  
 45  21  25  ar  
 46  22  26  ar  
 47  22  47  1   
 48  23  24  ar  
 49  23  48  1   
 50  25  27  ar  
 51  25  49  1   
 52  26  27  ar  
 53  26  50  1   
 54  27  51  1   
@<TRIPOS>SUBSTRUCTURE
  1 ****   6 GROUP 4 **** **** 0

# MOE 2024.06 (io_trps.svl 2023.06)
