@<TRIPOS>MOLECULE
NONAME
50 52 1 0 0 
SMALL
USER_CHARGES


@<TRIPOS>ATOM
  1 S        0.6630    -2.5220     2.1250 S.3   1 <1>  -0.0800 
  2 C       -0.5950    -1.7700     1.1650 C.2   1 <1>   0.1980 
  3 C        1.7970    -1.3590     1.5050 C.2   1 <1>  -0.1100 
  4 N       -0.2000    -0.7760     0.4690 N.2   1 <1>  -0.5650 
  5 C       -1.9870    -2.3750     1.2460 C.3   1 <1>   0.3200 
  6 C        1.1530    -0.5380     0.6610 C.2   1 <1>   0.0770 
  7 N       -2.0590    -3.6920     0.5320 N.am  1 <1>  -0.6600 
  8 C       -2.4720    -4.8200     1.2060 C.2   1 <1>   0.5690 
  9 C       -1.8380    -3.6140    -0.9510 C.3   1 <1>   0.1400 
 10 O       -2.8890    -4.7310     2.3400 O.2   1 <1>  -0.5700 
 11 C       -2.4330    -6.2180     0.5670 C.3   1 <1>   0.2610 
 12 C       -0.3730    -3.8450    -1.3640 C.3   1 <1>   0.1200 
 13 O       -1.5630    -7.0740     1.2780 O.3   1 <1>  -0.5600 
 14 C       -3.8610    -6.8030     0.4890 C.3   1 <1>   0.3640 
 15 O        0.1310    -4.9960    -0.7770 O.3   1 <1>  -0.6800 
 16 C       -1.3880    -8.3260     0.6620 C.3   1 <1>   0.1810 
 17 N       -3.8670    -8.2830     0.2370 N.am  1 <1>  -0.6600 
 18 C       -4.6350    -6.0760    -0.6220 C.ar  1 <1>  -0.1430 
 19 C       -2.7130    -9.0190     0.3250 C.2   1 <1>   0.5690 
 20 C       -5.2020    -8.9160     0.0320 C.3   1 <1>   0.0600 
 21 C       -5.6580    -5.1660    -0.3550 C.ar  1 <1>  -0.1430 
 22 C       -4.2850    -6.3260    -1.9450 C.ar  1 <1>  -0.1500 
 23 O       -2.6930   -10.2120     0.1260 O.2   1 <1>  -0.5700 
 24 C       -6.2890    -4.5190    -1.4070 C.ar  1 <1>  -0.1500 
 25 C       -6.1260    -4.8480     1.0600 C.3   1 <1>  -0.0970 
 26 C       -4.9210    -5.6790    -2.9870 C.ar  1 <1>  -0.1500 
 27 C       -5.9240    -4.7690    -2.7170 C.ar  1 <1>  -0.1500 
 28 H        2.8170    -1.4140     1.8380 H     1 <1>   0.1500 
 29 H       -2.6900    -1.6950     0.7990 H     1 <1>   0.0800 
 30 H       -2.2500    -2.4770     2.2840 H     1 <1>   0.0800 
 31 H        1.5970     0.2840     0.1250 H     1 <1>   0.1500 
 32 H       -2.4640    -4.3280    -1.4560 H     1 <1>   0.0800 
 33 H       -2.1430    -2.6440    -1.3050 H     1 <1>   0.0800 
 34 H       -2.0440    -6.1470    -0.4280 H     1 <1>   0.0800 
 35 H        0.2460    -3.0160    -1.0700 H     1 <1>   0.0800 
 36 H       -0.3030    -3.9590    -2.4320 H     1 <1>   0.0800 
 37 H       -4.3320    -6.6440     1.4410 H     1 <1>   0.0800 
 38 H        0.1290    -4.8950     0.1990 H     1 <1>   0.4000 
 39 H       -0.8160    -8.1860    -0.2360 H     1 <1>   0.0800 
 40 H       -0.8270    -8.9450     1.3370 H     1 <1>   0.0800 
 41 H       -5.8790    -8.6020     0.8070 H     1 <1>   0.0800 
 42 H       -5.1230    -9.9890     0.0610 H     1 <1>   0.0800 
 43 H       -5.6030    -8.6280    -0.9240 H     1 <1>   0.0800 
 44 H       -3.5100    -7.0390    -2.1740 H     1 <1>   0.1500 
 45 H       -7.0770    -3.8120    -1.2150 H     1 <1>   0.1500 
 46 H       -6.9900    -4.2090     1.0470 H     1 <1>   0.0800 
 47 H       -5.3510    -4.3430     1.6070 H     1 <1>   0.0800 
 48 H       -6.3940    -5.7500     1.5790 H     1 <1>   0.0800 
 49 H       -4.6390    -5.8850    -4.0050 H     1 <1>   0.1500 
 50 H       -6.4240    -4.2610    -3.5230 H     1 <1>   0.1500 
@<TRIPOS>BOND
  1   1   2  1   
  2   1   3  1   
  3   2   4  2   
  4   2   5  1   
  5   3   6  2   
  6   3  28  1   
  7   4   6  1   
  8   5   7  1   
  9   5  29  1   
 10   5  30  1   
 11   6  31  1   
 12   7   8  am  
 13   7   9  1   
 14   8  10  2   
 15   8  11  1   
 16   9  12  1   
 17   9  32  1   
 18   9  33  1   
 19  11  13  1   
 20  11  14  1   
 21  11  34  1   
 22  12  15  1   
 23  12  35  1   
 24  12  36  1   
 25  13  16  1   
 26  14  17  1   
 27  14  18  1   
 28  14  37  1   
 29  15  38  1   
 30  16  19  1   
 31  16  39  1   
 32  16  40  1   
 33  17  19  am  
 34  17  20  1   
 35  18  21  ar  
 36  18  22  ar  
 37  19  23  2   
 38  20  41  1   
 39  20  42  1   
 40  20  43  1   
 41  21  24  ar  
 42  21  25  1   
 43  22  26  ar  
 44  22  44  1   
 45  24  27  ar  
 46  24  45  1   
 47  25  46  1   
 48  25  47  1   
 49  25  48  1   
 50  26  27  ar  
 51  26  49  1   
 52  27  50  1   
@<TRIPOS>SUBSTRUCTURE
  1 ****   8 GROUP 4 **** **** 0

# MOE 2024.06 (io_trps.svl 2023.06)
