@<TRIPOS>MOLECULE
NONAME
59 62 1 0 0 
SMALL
USER_CHARGES


@<TRIPOS>ATOM
  1 O       -0.3120    -1.1140     0.9160 O.2   1 <1>  -0.5700 
  2 C       -0.3010    -2.2890     0.5810 C.2   1 <1>   0.5440 
  3 N       -1.1330    -3.1560     1.2750 N.am  1 <1>  -0.6600 
  4 C        0.5580    -2.6950    -0.5390 C.ar  1 <1>   0.3960 
  5 C       -1.6910    -2.8080     2.6100 C.3   1 <1>   0.1400 
  6 C       -1.5800    -4.4770     0.7550 C.3   1 <1>   0.1400 
  7 N        1.1980    -3.8800    -0.5190 N.ar  1 <1>  -0.6200 
  8 C        0.7040    -1.8200    -1.6180 C.ar  1 <1>  -0.1500 
  9 C       -3.2160    -2.7510     2.5180 C.3   1 <1>  -0.1600 
 10 C       -3.1070    -4.4920     0.6420 C.3   1 <1>  -0.1600 
 11 C        1.9610    -4.1720    -1.5560 C.ar  1 <1>   0.1600 
 12 C        1.4990    -2.1370    -2.6970 C.ar  1 <1>  -0.1500 
 13 C       -3.7870    -4.0730     1.9620 C.3   1 <1>  -0.0190 
 14 C        2.1420    -3.3520    -2.6550 C.ar  1 <1>  -0.1500 
 15 C       -5.3200    -4.1470     1.8940 C.2   1 <1>   0.5690 
 16 O       -5.8160    -5.0800     2.4850 O.2   1 <1>  -0.5700 
 17 N       -6.1120    -3.2480     1.2110 N.am  1 <1>  -0.6600 
 18 C       -7.5890    -3.4700     1.1180 C.3   1 <1>   0.1400 
 19 C       -5.6460    -2.0390     0.4620 C.3   1 <1>   0.1400 
 20 C       -8.0240    -3.7690    -0.3440 C.3   1 <1>   0.0000 
 21 C       -6.5800    -1.6850    -0.7080 C.3   1 <1>  -0.1600 
 22 C       -9.5480    -3.5280    -0.4460 C.3   1 <1>   0.2000 
 23 C       -7.1610    -2.9520    -1.3510 C.3   1 <1>  -0.1600 
 24 C       -7.9100    -5.2780    -0.6200 C.3   1 <1>  -0.1600 
 25 O       -9.9440    -3.4790    -1.7880 O.3   1 <1>  -0.5600 
 26 C      -10.1760    -4.7760     0.1850 C.3   1 <1>  -0.1600 
 27 C       -9.1790    -5.9200    -0.0450 C.3   1 <1>  -0.1600 
 28 C      -11.1240    -2.7820    -2.0310 C.3   1 <1>   0.0400 
 29 H       -1.3910    -3.5590     3.3210 H     1 <1>   0.0800 
 30 H       -1.3090    -1.8600     2.9510 H     1 <1>   0.0800 
 31 H       -1.1600    -4.6770    -0.2140 H     1 <1>   0.0800 
 32 H       -1.2490    -5.2490     1.4290 H     1 <1>   0.0800 
 33 H        0.1840    -0.8780    -1.5950 H     1 <1>   0.1500 
 34 H       -3.6240    -2.5680     3.4960 H     1 <1>   0.0800 
 35 H       -3.4680    -1.9140     1.8980 H     1 <1>   0.0800 
 36 H       -3.3930    -3.8440    -0.1640 H     1 <1>   0.0800 
 37 H       -3.4290    -5.4850     0.3800 H     1 <1>   0.0800 
 38 H        2.4750    -5.1190    -1.5320 H     1 <1>   0.1500 
 39 H        1.6140    -1.4650    -3.5300 H     1 <1>   0.1500 
 40 H       -3.5020    -4.8250     2.6790 H     1 <1>   0.0800 
 41 H        2.7810    -3.6630    -3.4620 H     1 <1>   0.1500 
 42 H       -7.9010    -4.2670     1.7700 H     1 <1>   0.0800 
 43 H       -8.0750    -2.5760     1.4650 H     1 <1>   0.0800 
 44 H       -5.5860    -1.2040     1.1380 H     1 <1>   0.0800 
 45 H       -4.6670    -2.2140     0.0620 H     1 <1>   0.0800 
 46 H       -7.3800    -1.0580    -0.3550 H     1 <1>   0.0800 
 47 H       -6.0290    -1.1210    -1.4390 H     1 <1>   0.0800 
 48 H       -9.8430    -2.6150     0.0430 H     1 <1>   0.0800 
 49 H       -6.3340    -3.5600    -1.6740 H     1 <1>   0.0800 
 50 H       -7.7170    -2.6910    -2.2330 H     1 <1>   0.0800 
 51 H       -7.8990    -5.4420    -1.6840 H     1 <1>   0.0800 
 52 H       -7.0160    -5.7020    -0.1950 H     1 <1>   0.0800 
 53 H      -10.2870    -4.6170     1.2430 H     1 <1>   0.0800 
 54 H      -11.1420    -5.0020    -0.2280 H     1 <1>   0.0800 
 55 H       -8.9600    -6.4170     0.8850 H     1 <1>   0.0800 
 56 H       -9.5760    -6.6400    -0.7410 H     1 <1>   0.0800 
 57 H      -11.3360    -2.8440    -3.0840 H     1 <1>   0.0800 
 58 H      -10.9900    -1.7520    -1.7490 H     1 <1>   0.0800 
 59 H      -11.9290    -3.2260    -1.4730 H     1 <1>   0.0800 
@<TRIPOS>BOND
  1   1   2  2   
  2   2   3  am  
  3   2   4  1   
  4   3   5  1   
  5   3   6  1   
  6   4   7  ar  
  7   4   8  ar  
  8   5   9  1   
  9   5  29  1   
 10   5  30  1   
 11   6  10  1   
 12   6  31  1   
 13   6  32  1   
 14   7  11  ar  
 15   8  12  ar  
 16   8  33  1   
 17   9  13  1   
 18   9  34  1   
 19   9  35  1   
 20  10  13  1   
 21  10  36  1   
 22  10  37  1   
 23  11  14  ar  
 24  11  38  1   
 25  12  14  ar  
 26  12  39  1   
 27  13  15  1   
 28  13  40  1   
 29  14  41  1   
 30  15  16  2   
 31  15  17  am  
 32  17  18  1   
 33  17  19  1   
 34  18  20  1   
 35  18  42  1   
 36  18  43  1   
 37  19  21  1   
 38  19  44  1   
 39  19  45  1   
 40  20  22  1   
 41  20  23  1   
 42  20  24  1   
 43  21  23  1   
 44  21  46  1   
 45  21  47  1   
 46  22  25  1   
 47  22  26  1   
 48  22  48  1   
 49  23  49  1   
 50  23  50  1   
 51  24  27  1   
 52  24  51  1   
 53  24  52  1   
 54  25  28  1   
 55  26  27  1   
 56  26  53  1   
 57  26  54  1   
 58  27  55  1   
 59  27  56  1   
 60  28  57  1   
 61  28  58  1   
 62  28  59  1   
@<TRIPOS>SUBSTRUCTURE
  1 ****  10 GROUP 4 **** **** 0

# MOE 2024.06 (io_trps.svl 2023.06)
