@<TRIPOS>MOLECULE
NONAME
44 46 1 0 0 
SMALL
USER_CHARGES


@<TRIPOS>ATOM
  1 O        2.5610    -2.3620     2.0450 O.2   1 <1>  -0.5700 
  2 C        1.8880    -1.5280     1.4890 C.2   1 <1>   0.5690 
  3 N        2.4460    -0.3360     1.0790 N.am  1 <1>  -0.6600 
  4 C        0.4620    -1.9200     1.1270 C.3   1 <1>   0.0440 
  5 C        3.9530    -0.2330     1.0760 C.3   1 <1>   0.2200 
  6 C        1.6840     0.7600     0.3970 C.3   1 <1>   0.1400 
  7 C        0.4170    -2.2650    -0.3600 C.ar  1 <1>  -0.1440 
  8 C        4.4900     1.1880     1.3160 C.3   1 <1>   0.1200 
  9 C        4.5100    -0.8230    -0.2430 C.3   1 <1>   0.3430 
 10 C        2.4150     1.4030    -0.8000 C.3   1 <1>  -0.0800 
 11 C        1.2300    -3.2790    -0.8430 C.ar  1 <1>  -0.1500 
 12 C       -0.3940    -1.5650    -1.2440 C.ar  1 <1>  -0.1500 
 13 O        4.5940     1.8900     0.1130 O.3   1 <1>  -0.5600 
 14 N        3.4840    -0.8870    -1.3500 N.4   1 <1>  -0.9590 
 15 C        3.4230     2.4710    -0.3480 C.3   1 <1>   0.1200 
 16 C        3.0210     0.4460    -1.8530 C.3   1 <1>   0.3430 
 17 C        1.2660    -3.5500    -2.2000 C.ar  1 <1>   0.0820 
 18 C       -0.3610    -1.8460    -2.6000 C.ar  1 <1>  -0.1500 
 19 C        3.9500    -1.7480    -2.4750 C.3   1 <1>   0.2630 
 20 O        2.0780    -4.5070    -2.6700 O.3   1 <1>  -0.5330 
 21 C        0.4780    -2.8340    -3.0820 C.ar  1 <1>  -0.1500 
 22 H        0.1780    -2.7850     1.7000 H     1 <1>   0.0800 
 23 H       -0.2190    -1.1290     1.3770 H     1 <1>   0.0800 
 24 H        4.3400    -0.8220     1.8890 H     1 <1>   0.0800 
 25 H        0.7400     0.3940     0.0460 H     1 <1>   0.0800 
 26 H        1.4630     1.5210     1.1270 H     1 <1>   0.0800 
 27 H        5.4880     1.1210     1.7140 H     1 <1>   0.0800 
 28 H        3.8870     1.7340     2.0220 H     1 <1>   0.0800 
 29 H        4.8530    -1.8220    -0.0280 H     1 <1>   0.0800 
 30 H        5.3660    -0.2490    -0.5600 H     1 <1>   0.0800 
 31 H        1.6620     1.9650    -1.3220 H     1 <1>   0.0800 
 32 H        1.8420    -3.8510    -0.1650 H     1 <1>   0.1500 
 33 H       -1.0620    -0.7990    -0.8860 H     1 <1>   0.1500 
 34 H        2.6540    -1.3350    -0.9240 H     1 <1>   0.4500 
 35 H        3.0190     3.1050     0.4240 H     1 <1>   0.0800 
 36 H        3.6940     3.0960    -1.1820 H     1 <1>   0.0800 
 37 H        3.8440     0.9480    -2.3370 H     1 <1>   0.0800 
 38 H        2.2680     0.2700    -2.6050 H     1 <1>   0.0800 
 39 H       -0.9950    -1.3020    -3.2810 H     1 <1>   0.1500 
 40 H        4.8180    -1.3170    -2.9450 H     1 <1>   0.0800 
 41 H        3.1700    -1.8530    -3.2120 H     1 <1>   0.0800 
 42 H        4.2010    -2.7320    -2.1120 H     1 <1>   0.0800 
 43 H        2.3030    -5.1850    -2.0050 H     1 <1>   0.4500 
 44 H        0.5110    -3.0640    -4.1330 H     1 <1>   0.1500 
@<TRIPOS>BOND
  1   1   2  2   
  2   2   3  am  
  3   2   4  1   
  4   3   5  1   
  5   3   6  1   
  6   4   7  1   
  7   4  22  1   
  8   4  23  1   
  9   5   8  1   
 10   5   9  1   
 11   5  24  1   
 12   6  10  1   
 13   6  25  1   
 14   6  26  1   
 15   7  11  ar  
 16   7  12  ar  
 17   8  13  1   
 18   8  27  1   
 19   8  28  1   
 20   9  14  1   
 21   9  29  1   
 22   9  30  1   
 23  10  15  1   
 24  10  16  1   
 25  10  31  1   
 26  11  17  ar  
 27  11  32  1   
 28  12  18  ar  
 29  12  33  1   
 30  13  15  1   
 31  14  16  1   
 32  14  19  1   
 33  14  34  1   
 34  15  35  1   
 35  15  36  1   
 36  16  37  1   
 37  16  38  1   
 38  17  20  1   
 39  17  21  ar  
 40  18  21  ar  
 41  18  39  1   
 42  19  40  1   
 43  19  41  1   
 44  19  42  1   
 45  20  43  1   
 46  21  44  1   
@<TRIPOS>SUBSTRUCTURE
  1 ****  14 GROUP 4 **** **** 0

# MOE 2024.06 (io_trps.svl 2023.06)
