@<TRIPOS>MOLECULE
NONAME
21 21 1 0 0 
SMALL
USER_CHARGES


@<TRIPOS>ATOM
  1 O       -0.5770     0.6410     1.5250 O.2   1 <1>  -0.5700 
  2 C       -1.3620     1.0790     0.7390 C.2   1 <1>   0.4480 
  3 C       -2.2960     0.1910    -0.0780 C.3   1 <1>   0.1810 
  4 C       -1.4820     2.5670     0.4810 C.3   1 <1>  -0.0990 
  5 O       -3.6030     0.7100    -0.1100 O.3   1 <1>  -0.5600 
  6 C       -2.9610     2.9730     0.3590 C.3   1 <1>  -0.0190 
  7 C       -3.7090     2.0190    -0.5860 C.3   1 <1>   0.1200 
  8 C       -3.0850     4.4070    -0.1230 C.2   1 <1>   0.6590 
  9 O       -3.0530     4.6860    -1.2930 O.2   1 <1>  -0.5700 
 10 O       -3.2130     5.3280     0.8220 O.3   1 <1>  -0.4300 
 11 C       -3.3240     6.7020     0.5100 C.3   1 <1>   0.0400 
 12 H       -2.3410    -0.7890     0.3630 H     1 <1>   0.0800 
 13 H       -1.9380     0.1050    -1.0880 H     1 <1>   0.0800 
 14 H       -0.9630     2.7940    -0.4330 H     1 <1>   0.0800 
 15 H       -1.0110     3.1100     1.2810 H     1 <1>   0.0800 
 16 H       -3.4270     2.9080     1.3260 H     1 <1>   0.0800 
 17 H       -4.7550     2.2700    -0.6220 H     1 <1>   0.0800 
 18 H       -3.3100     2.0590    -1.5870 H     1 <1>   0.0800 
 19 H       -3.4180     7.2550     1.4280 H     1 <1>   0.0800 
 20 H       -4.1970     6.8510    -0.1030 H     1 <1>   0.0800 
 21 H       -2.4410     7.0110    -0.0210 H     1 <1>   0.0800 
@<TRIPOS>BOND
  1   1   2  2   
  2   2   3  1   
  3   2   4  1   
  4   3   5  1   
  5   3  12  1   
  6   3  13  1   
  7   4   6  1   
  8   4  14  1   
  9   4  15  1   
 10   5   7  1   
 11   6   7  1   
 12   6   8  1   
 13   6  16  1   
 14   7  17  1   
 15   7  18  1   
 16   8   9  2   
 17   8  10  1   
 18  10  11  1   
 19  11  19  1   
 20  11  20  1   
 21  11  21  1   
@<TRIPOS>SUBSTRUCTURE
  1 ****   6 GROUP 4 **** **** 0

# MOE 2024.06 (io_trps.svl 2023.06)
