@<TRIPOS>MOLECULE
NONAME
54 57 1 0 0 
SMALL
USER_CHARGES


@<TRIPOS>ATOM
  1 S       -0.0290     0.1360     2.1740 S.o2  1 <1>   1.4470 
  2 O        0.4560     1.4510     2.5360 O.2   1 <1>  -0.6500 
  3 O       -0.4420    -0.7820     3.2130 O.2   1 <1>  -0.6500 
  4 N       -1.3610     0.3660     1.1480 N.am  1 <1>  -0.8490 
  5 C        1.1670    -0.6950     1.0930 C.ar  1 <1>  -0.0090 
  6 C       -1.1100     1.4080     0.1500 C.3   1 <1>   0.1960 
  7 C       -2.5720     0.6820     1.9110 C.3   1 <1>   0.1960 
  8 C        2.4670    -0.2220     0.9560 C.ar  1 <1>  -0.1500 
  9 C        0.8090    -1.8320     0.3770 C.ar  1 <1>  -0.1500 
 10 C       -2.2640     1.4470    -0.8550 C.3   1 <1>  -0.1600 
 11 C       -3.7820     0.7120     0.9750 C.3   1 <1>  -0.1600 
 12 C        3.3790    -0.8450     0.1220 C.ar  1 <1>   0.0830 
 13 C        1.7120    -2.4730    -0.4540 C.ar  1 <1>  -0.1500 
 14 C       -3.6040     1.7340    -0.1580 C.3   1 <1>   0.2800 
 15 O        4.6290    -0.3280     0.0740 O.3   1 <1>  -0.3630 
 16 C        2.9980    -1.9830    -0.5930 C.ar  1 <1>   0.0830 
 17 O       -3.5400     2.9930     0.4670 O.3   1 <1>  -0.5600 
 18 C       -4.7960     1.6790    -1.1480 C.3   1 <1>  -0.1600 
 19 C        5.1380     0.0830    -1.1720 C.3   1 <1>   0.1200 
 20 O        3.8420    -2.6680    -1.4000 O.3   1 <1>  -0.3630 
 21 C       -3.7150     4.1280    -0.3320 C.3   1 <1>   0.1200 
 22 C       -5.8210     2.7910    -0.9120 C.3   1 <1>   0.2800 
 23 C        5.6030    -1.1220    -1.9900 C.3   1 <1>  -0.1600 
 24 C        4.4420    -1.9890    -2.4760 C.3   1 <1>   0.1200 
 25 C       -5.1210     4.1520    -0.9560 C.3   1 <1>  -0.1600 
 26 O       -6.3230     2.6390     0.3530 O.3   1 <1>  -0.6800 
 27 C       -7.0060     2.7130    -1.8690 C.3   1 <1>  -0.2400 
 28 H       -0.1950     1.1970    -0.3770 H     1 <1>   0.0800 
 29 H       -1.0080     2.3680     0.6320 H     1 <1>   0.0800 
 30 H       -2.4580     1.6320     2.4090 H     1 <1>   0.0800 
 31 H       -2.7390    -0.0720     2.6620 H     1 <1>   0.0800 
 32 H        2.7820     0.6460     1.5090 H     1 <1>   0.1500 
 33 H       -0.1910    -2.2210     0.4770 H     1 <1>   0.1500 
 34 H       -2.3140     0.4930    -1.3470 H     1 <1>   0.0800 
 35 H       -2.0620     2.1830    -1.6090 H     1 <1>   0.0800 
 36 H       -4.6660     0.9370     1.5420 H     1 <1>   0.0800 
 37 H       -3.9090    -0.2720     0.5610 H     1 <1>   0.0800 
 38 H        1.4250    -3.3570    -0.9940 H     1 <1>   0.1500 
 39 H       -5.2790     0.7200    -1.1090 H     1 <1>   0.0800 
 40 H       -4.4230     1.7840    -2.1510 H     1 <1>   0.0800 
 41 H        5.9710     0.7330    -0.9710 H     1 <1>   0.0800 
 42 H        4.3760     0.6430    -1.6860 H     1 <1>   0.0800 
 43 H       -2.9570     4.1330    -1.0950 H     1 <1>   0.0800 
 44 H       -3.5710     4.9930     0.2930 H     1 <1>   0.0800 
 45 H        6.2970    -1.7130    -1.4200 H     1 <1>   0.0800 
 46 H        6.1240    -0.7530    -2.8540 H     1 <1>   0.0800 
 47 H        3.6890    -1.4030    -2.9750 H     1 <1>   0.0800 
 48 H        4.8050    -2.7400    -3.1560 H     1 <1>   0.0800 
 49 H       -5.0150     4.4660    -1.9780 H     1 <1>   0.0800 
 50 H       -5.7290     4.8930    -0.4680 H     1 <1>   0.0800 
 51 H       -5.5710     2.7750     0.9670 H     1 <1>   0.4000 
 52 H       -6.6740     2.8200    -2.8850 H     1 <1>   0.0800 
 53 H       -7.7080     3.4990    -1.6540 H     1 <1>   0.0800 
 54 H       -7.5020     1.7650    -1.7700 H     1 <1>   0.0800 
@<TRIPOS>BOND
  1   1   2  2   
  2   1   3  2   
  3   1   4  am  
  4   1   5  1   
  5   4   6  1   
  6   4   7  1   
  7   5   8  ar  
  8   5   9  ar  
  9   6  10  1   
 10   6  28  1   
 11   6  29  1   
 12   7  11  1   
 13   7  30  1   
 14   7  31  1   
 15   8  12  ar  
 16   8  32  1   
 17   9  13  ar  
 18   9  33  1   
 19  10  14  1   
 20  10  34  1   
 21  10  35  1   
 22  11  14  1   
 23  11  36  1   
 24  11  37  1   
 25  12  15  1   
 26  12  16  ar  
 27  13  16  ar  
 28  13  38  1   
 29  14  17  1   
 30  14  18  1   
 31  15  19  1   
 32  16  20  1   
 33  17  21  1   
 34  18  22  1   
 35  18  39  1   
 36  18  40  1   
 37  19  23  1   
 38  19  41  1   
 39  19  42  1   
 40  20  24  1   
 41  21  25  1   
 42  21  43  1   
 43  21  44  1   
 44  22  25  1   
 45  22  26  1   
 46  22  27  1   
 47  23  24  1   
 48  23  45  1   
 49  23  46  1   
 50  24  47  1   
 51  24  48  1   
 52  25  49  1   
 53  25  50  1   
 54  26  51  1   
 55  27  52  1   
 56  27  53  1   
 57  27  54  1   
@<TRIPOS>SUBSTRUCTURE
  1 ****   6 GROUP 4 **** **** 0

# MOE 2024.06 (io_trps.svl 2023.06)
