@<TRIPOS>MOLECULE
NONAME
47 49 1 0 0 
SMALL
USER_CHARGES


@<TRIPOS>ATOM
  1 CL      -0.6750    -0.9440    -2.3410 Cl    1 <1>  -0.1770 
  2 C       -0.4490    -2.3760    -1.3640 C.ar  1 <1>   0.1770 
  3 C        0.7470    -3.0720    -1.3830 C.ar  1 <1>   0.1900 
  4 C       -1.4870    -2.8150    -0.5640 C.ar  1 <1>  -0.1500 
  5 F        1.7320    -2.6660    -2.1380 F     1 <1>  -0.1900 
  6 C        0.9240    -4.2040    -0.6110 C.ar  1 <1>  -0.1500 
  7 C       -1.3450    -3.9590     0.2190 C.ar  1 <1>  -0.0090 
  8 C       -0.1260    -4.6370     0.1860 C.ar  1 <1>  -0.1500 
  9 S       -2.7070    -4.5350     1.2720 S.o2  1 <1>   1.4470 
 10 O       -2.5990    -5.9610     1.5130 O.2   1 <1>  -0.6500 
 11 O       -2.8830    -3.6330     2.3840 O.2   1 <1>  -0.6500 
 12 N       -4.0740    -4.3790     0.2730 N.am  1 <1>  -0.8490 
 13 C       -4.2350    -5.5210    -0.6550 C.3   1 <1>   0.1960 
 14 C       -5.2860    -4.0560     1.0690 C.3   1 <1>   0.1960 
 15 C       -5.1480    -6.5750     0.0020 C.3   1 <1>   0.4230 
 16 C       -6.5810    -4.5280     0.3860 C.3   1 <1>  -0.1600 
 17 N       -5.0060    -8.0140    -0.4400 N.4   1 <1>  -0.9590 
 18 C       -6.6070    -6.0570     0.0650 C.3   1 <1>   0.0000 
 19 C       -6.1170    -8.8870     0.0780 C.3   1 <1>   0.3430 
 20 C       -4.7910    -8.2230    -1.9090 C.3   1 <1>   0.2630 
 21 C       -7.3010    -6.8670     1.1950 C.3   1 <1>  -0.1600 
 22 C       -7.3510    -6.2550    -1.2850 C.3   1 <1>   0.1200 
 23 C       -6.7480    -8.3070     1.3550 C.3   1 <1>  -0.1600 
 24 O       -8.5850    -5.6270    -1.2760 O.3   1 <1>  -0.6800 
 25 H       -2.4100    -2.2610    -0.5530 H     1 <1>   0.1500 
 26 H        1.8630    -4.7300    -0.6350 H     1 <1>   0.1500 
 27 H        0.0080    -5.5160     0.7960 H     1 <1>   0.1500 
 28 H       -4.6810    -5.1640    -1.5680 H     1 <1>   0.0800 
 29 H       -3.2730    -5.9410    -0.8960 H     1 <1>   0.0800 
 30 H       -5.2290    -4.5260     2.0380 H     1 <1>   0.0800 
 31 H       -5.3240    -2.9900     1.2330 H     1 <1>   0.0800 
 32 H       -4.8220    -6.5810     1.0290 H     1 <1>   0.0800 
 33 H       -7.4250    -4.2620     0.9990 H     1 <1>   0.0800 
 34 H       -6.6790    -3.9510    -0.5190 H     1 <1>   0.0800 
 35 H       -4.1490    -8.3360     0.0400 H     1 <1>   0.4500 
 36 H       -6.8870    -8.9770    -0.6710 H     1 <1>   0.0800 
 37 H       -5.7410    -9.8780     0.2780 H     1 <1>   0.0800 
 38 H       -5.6470    -7.8860    -2.4700 H     1 <1>   0.0800 
 39 H       -4.6370    -9.2700    -2.1170 H     1 <1>   0.0800 
 40 H       -3.9220    -7.6810    -2.2450 H     1 <1>   0.0800 
 41 H       -7.1670    -6.3640     2.1380 H     1 <1>   0.0800 
 42 H       -8.3630    -6.9080     1.0230 H     1 <1>   0.0800 
 43 H       -7.5250    -7.2900    -1.5110 H     1 <1>   0.0800 
 44 H       -6.7920    -5.8180    -2.0940 H     1 <1>   0.0800 
 45 H       -7.5450    -8.9550     1.6780 H     1 <1>   0.0800 
 46 H       -6.0060    -8.3220     2.1350 H     1 <1>   0.0800 
 47 H       -9.1930    -6.0080    -0.6120 H     1 <1>   0.4000 
@<TRIPOS>BOND
  1   1   2  1   
  2   2   3  ar  
  3   2   4  ar  
  4   3   5  1   
  5   3   6  ar  
  6   4   7  ar  
  7   4  25  1   
  8   6   8  ar  
  9   6  26  1   
 10   7   8  ar  
 11   7   9  1   
 12   8  27  1   
 13   9  10  2   
 14   9  11  2   
 15   9  12  am  
 16  12  13  1   
 17  12  14  1   
 18  13  15  1   
 19  13  28  1   
 20  13  29  1   
 21  14  16  1   
 22  14  30  1   
 23  14  31  1   
 24  15  17  1   
 25  15  18  1   
 26  15  32  1   
 27  16  18  1   
 28  16  33  1   
 29  16  34  1   
 30  17  19  1   
 31  17  20  1   
 32  17  35  1   
 33  18  21  1   
 34  18  22  1   
 35  19  23  1   
 36  19  36  1   
 37  19  37  1   
 38  20  38  1   
 39  20  39  1   
 40  20  40  1   
 41  21  23  1   
 42  21  41  1   
 43  21  42  1   
 44  22  24  1   
 45  22  43  1   
 46  22  44  1   
 47  23  45  1   
 48  23  46  1   
 49  24  47  1   
@<TRIPOS>SUBSTRUCTURE
  1 ****  13 GROUP 4 **** **** 0

# MOE 2024.06 (io_trps.svl 2023.06)
