@<TRIPOS>MOLECULE
NONAME
62 65 1 0 0 
SMALL
USER_CHARGES


@<TRIPOS>ATOM
  1 O        0.4320    -0.1320    -1.4010 O.3   1 <1>  -0.5600 
  2 C        1.6750    -0.7860    -1.5200 C.3   1 <1>   0.2000 
  3 C        0.4640     1.2550    -1.5750 C.3   1 <1>   0.1200 
  4 C        2.7220    -0.1880    -0.5410 C.3   1 <1>   0.5660 
  5 C        1.4670    -2.2840    -1.2390 C.3   1 <1>   0.1200 
  6 C        1.3800     1.9020    -0.5230 C.3   1 <1>   0.3430 
  7 N        2.7530     1.3060    -0.5640 N.4   1 <1>  -0.9590 
  8 C        4.1230    -0.7020    -0.8460 C.ar  1 <1>  -0.1430 
  9 O        1.2960    -2.4990     0.1270 O.3   1 <1>  -0.6800 
 10 C        3.6490     1.8650     0.4780 C.3   1 <1>   0.4870 
 11 C        4.7710    -1.4850     0.0990 C.ar  1 <1>  -0.1500 
 12 C        4.7710    -0.4040    -2.0400 C.ar  1 <1>  -0.1500 
 13 C        3.7940     3.3510     0.2240 C.ar  1 <1>  -0.1430 
 14 C        6.0510    -1.9580    -0.1300 C.ar  1 <1>   0.0830 
 15 C        6.0560    -0.8650    -2.2700 C.ar  1 <1>  -0.1500 
 16 C        4.3360     3.8050    -0.9800 C.ar  1 <1>   0.0830 
 17 C        3.3810     4.2570     1.1910 C.ar  1 <1>  -0.1500 
 18 O        6.5990    -2.7370     0.8340 O.3   1 <1>  -0.3620 
 19 C        6.7110    -1.6240    -1.3170 C.ar  1 <1>   0.0830 
 20 O        4.7180     2.8730    -1.8940 O.3   1 <1>  -0.3630 
 21 C        4.4590     5.1740    -1.2120 C.ar  1 <1>  -0.1500 
 22 C        3.5100     5.6100     0.9430 C.ar  1 <1>  -0.1430 
 23 C        6.8900    -4.0730     0.4830 C.3   1 <1>   0.0400 
 24 O        7.9810    -2.0060    -1.5940 O.3   1 <1>  -0.3630 
 25 C        5.6310     3.2100    -2.9200 C.3   1 <1>   0.0400 
 26 C        4.0400     6.0600    -0.2390 C.ar  1 <1>  -0.1430 
 27 C        3.1320     6.7580     1.8470 C.3   1 <1>  -0.0170 
 28 C        8.9970    -1.4880    -0.7620 C.3   1 <1>   0.0400 
 29 C        4.0830     7.5680    -0.2820 C.3   1 <1>  -0.0170 
 30 C        3.2210     7.9840     0.9220 C.3   1 <1>  -0.1600 
 31 H        2.0030    -0.6690    -2.5370 H     1 <1>   0.0800 
 32 H        0.7990     1.4760    -2.5740 H     1 <1>   0.0800 
 33 H       -0.5430     1.6200    -1.4620 H     1 <1>   0.0800 
 34 H        2.4490    -0.5110     0.4500 H     1 <1>   0.0800 
 35 H        2.3260    -2.8510    -1.5550 H     1 <1>   0.0800 
 36 H        0.5960    -2.6410    -1.7600 H     1 <1>   0.0800 
 37 H        0.9440     1.7510     0.4500 H     1 <1>   0.0800 
 38 H        1.4360     2.9640    -0.7020 H     1 <1>   0.0800 
 39 H        3.2100     1.5970    -1.4400 H     1 <1>   0.4500 
 40 H        0.9350    -3.3960     0.2930 H     1 <1>   0.4000 
 41 H        3.2440     1.6880     1.4600 H     1 <1>   0.0800 
 42 H        4.6240     1.4050     0.4170 H     1 <1>   0.0800 
 43 H        4.2910    -1.7500     1.0260 H     1 <1>   0.1500 
 44 H        4.2960     0.1880    -2.8030 H     1 <1>   0.1500 
 45 H        6.5650    -0.6360    -3.1900 H     1 <1>   0.1500 
 46 H        2.9670     3.9310     2.1300 H     1 <1>   0.1500 
 47 H        4.8660     5.5640    -2.1250 H     1 <1>   0.1500 
 48 H        7.2080    -4.5910     1.3700 H     1 <1>   0.0800 
 49 H        7.6770    -4.0900    -0.2490 H     1 <1>   0.0800 
 50 H        6.0020    -4.5310     0.0870 H     1 <1>   0.0800 
 51 H        5.9340     2.3050    -3.4160 H     1 <1>   0.0800 
 52 H        6.4900     3.6880    -2.4830 H     1 <1>   0.0800 
 53 H        5.1460     3.8650    -3.6230 H     1 <1>   0.0800 
 54 H        2.1430     6.6410     2.2520 H     1 <1>   0.0800 
 55 H        3.8480     6.8360     2.6470 H     1 <1>   0.0800 
 56 H        9.9460    -1.7940    -1.1620 H     1 <1>   0.0800 
 57 H        8.8790    -1.8770     0.2330 H     1 <1>   0.0800 
 58 H        8.9280    -0.4150    -0.7550 H     1 <1>   0.0800 
 59 H        5.0980     7.9020    -0.1540 H     1 <1>   0.0800 
 60 H        3.6850     7.9520    -1.2040 H     1 <1>   0.0800 
 61 H        3.6310     8.8390     1.4300 H     1 <1>   0.0800 
 62 H        2.2330     8.2280     0.5720 H     1 <1>   0.0800 
@<TRIPOS>BOND
  1   1   2  1   
  2   1   3  1   
  3   2   4  1   
  4   2   5  1   
  5   2  31  1   
  6   3   6  1   
  7   3  32  1   
  8   3  33  1   
  9   4   7  1   
 10   4   8  1   
 11   4  34  1   
 12   5   9  1   
 13   5  35  1   
 14   5  36  1   
 15   6   7  1   
 16   6  37  1   
 17   6  38  1   
 18   7  10  1   
 19   7  39  1   
 20   8  11  ar  
 21   8  12  ar  
 22   9  40  1   
 23  10  13  1   
 24  10  41  1   
 25  10  42  1   
 26  11  14  ar  
 27  11  43  1   
 28  12  15  ar  
 29  12  44  1   
 30  13  16  ar  
 31  13  17  ar  
 32  14  18  1   
 33  14  19  ar  
 34  15  19  ar  
 35  15  45  1   
 36  16  20  1   
 37  16  21  ar  
 38  17  22  ar  
 39  17  46  1   
 40  18  23  1   
 41  19  24  1   
 42  20  25  1   
 43  21  26  ar  
 44  21  47  1   
 45  22  26  ar  
 46  22  27  1   
 47  23  48  1   
 48  23  49  1   
 49  23  50  1   
 50  24  28  1   
 51  25  51  1   
 52  25  52  1   
 53  25  53  1   
 54  26  29  1   
 55  27  30  1   
 56  27  54  1   
 57  27  55  1   
 58  28  56  1   
 59  28  57  1   
 60  28  58  1   
 61  29  30  1   
 62  29  59  1   
 63  29  60  1   
 64  30  61  1   
 65  30  62  1   
@<TRIPOS>SUBSTRUCTURE
  1 ****  10 GROUP 4 **** **** 0

# MOE 2024.06 (io_trps.svl 2023.06)
