@<TRIPOS>MOLECULE
NONAME
44 46 1 0 0 
SMALL
USER_CHARGES


@<TRIPOS>ATOM
  1 O        2.0530    -1.1910     1.4070 O.co2 1 <1>  -0.9000 
  2 C        2.4510    -0.6890     0.3600 C.2   1 <1>   0.9060 
  3 O        3.4160    -1.1730    -0.2560 O.co2 1 <1>  -0.9000 
  4 C        1.9310     0.7050    -0.0380 C.3   1 <1>  -0.1060 
  5 C        2.6200     1.2500    -1.3270 C.3   1 <1>   0.2000 
  6 C        2.3420     1.6670     1.1090 C.3   1 <1>  -0.1600 
  7 C        0.3930     0.6220    -0.2080 C.3   1 <1>  -0.0170 
  8 O        2.6910     0.2560    -2.2890 O.3   1 <1>  -0.6800 
  9 C        4.0470     1.7920    -1.0620 C.3   1 <1>   0.3430 
 10 C        3.8530     1.5780     1.4050 C.3   1 <1>   0.3430 
 11 C       -0.2770     1.9520    -0.5430 C.ar  1 <1>  -0.1440 
 12 N        4.6290     1.1960     0.1790 N.4   1 <1>  -0.9590 
 13 C       -0.5030     2.3090    -1.8640 C.ar  1 <1>  -0.1500 
 14 C       -0.6810     2.8110     0.4680 C.ar  1 <1>  -0.1500 
 15 C        6.0930     1.3340     0.3160 C.3   1 <1>   0.5240 
 16 C       -1.1060     3.5160    -2.1720 C.ar  1 <1>  -0.1500 
 17 C       -1.2840     4.0190     0.1620 C.ar  1 <1>  -0.1500 
 18 C        6.4590     2.7840     0.5730 C.2   1 <1>  -0.1810 
 19 C       -1.4940     4.3740    -1.1580 C.ar  1 <1>  -0.1500 
 20 C        6.7900     3.3620     1.7480 C.2   1 <1>  -0.0100 
 21 C        6.5290     3.8120    -0.3810 C.2   1 <1>  -0.1500 
 22 O        7.0390     4.6440     1.5830 O.3   1 <1>  -0.2800 
 23 C        6.8860     4.9190     0.3040 C.2   1 <1>  -0.0100 
 24 H        2.0550     2.0540    -1.7600 H     1 <1>   0.0800 
 25 H        1.8070     1.4160     2.0090 H     1 <1>   0.0800 
 26 H        2.0890     2.6820     0.8590 H     1 <1>   0.0800 
 27 H        0.1680    -0.0900    -0.9830 H     1 <1>   0.0800 
 28 H       -0.0430     0.2340     0.6970 H     1 <1>   0.0800 
 29 H        2.9990    -0.5750    -1.8210 H     1 <1>   0.4000 
 30 H        3.9950     2.8610    -0.9400 H     1 <1>   0.0800 
 31 H        4.6650     1.5740    -1.9170 H     1 <1>   0.0800 
 32 H        4.0110     0.8250     2.1620 H     1 <1>   0.0800 
 33 H        4.1960     2.5250     1.7900 H     1 <1>   0.0800 
 34 H        4.4400     0.1660     0.0570 H     1 <1>   0.4500 
 35 H       -0.2090     1.6440    -2.6590 H     1 <1>   0.1500 
 36 H       -0.5310     2.5390     1.4980 H     1 <1>   0.1500 
 37 H        6.4300     0.7290     1.1420 H     1 <1>   0.0800 
 38 H        6.5820     0.9840    -0.5780 H     1 <1>   0.0800 
 39 H       -1.2750     3.7850    -3.2000 H     1 <1>   0.1500 
 40 H       -1.5930     4.6810     0.9530 H     1 <1>   0.1500 
 41 H       -1.9630     5.3120    -1.3970 H     1 <1>   0.1500 
 42 H        6.8750     2.9510     2.7410 H     1 <1>   0.1500 
 43 H        6.3430     3.7240    -1.4380 H     1 <1>   0.1500 
 44 H        7.0550     5.9290    -0.0310 H     1 <1>   0.1500 
@<TRIPOS>BOND
  1   1   2  ar  
  2   2   3  ar  
  3   2   4  1   
  4   4   5  1   
  5   4   6  1   
  6   4   7  1   
  7   5   8  1   
  8   5   9  1   
  9   5  24  1   
 10   6  10  1   
 11   6  25  1   
 12   6  26  1   
 13   7  11  1   
 14   7  27  1   
 15   7  28  1   
 16   8  29  1   
 17   9  12  1   
 18   9  30  1   
 19   9  31  1   
 20  10  12  1   
 21  10  32  1   
 22  10  33  1   
 23  11  13  ar  
 24  11  14  ar  
 25  12  15  1   
 26  12  34  1   
 27  13  16  ar  
 28  13  35  1   
 29  14  17  ar  
 30  14  36  1   
 31  15  18  1   
 32  15  37  1   
 33  15  38  1   
 34  16  19  ar  
 35  16  39  1   
 36  17  19  ar  
 37  17  40  1   
 38  18  20  2   
 39  18  21  1   
 40  19  41  1   
 41  20  22  1   
 42  20  42  1   
 43  21  23  2   
 44  21  43  1   
 45  22  23  1   
 46  23  44  1   
@<TRIPOS>SUBSTRUCTURE
  1 ****   6 GROUP 4 **** **** 0

# MOE 2024.06 (io_trps.svl 2023.06)
