@<TRIPOS>MOLECULE
NONAME
34 35 1 0 0 
SMALL
USER_CHARGES


@<TRIPOS>ATOM
  1 O        1.3720     0.6000    -0.6140 O.2   1 <1>  -0.5700 
  2 C        2.0780    -0.2740    -0.1170 C.2   1 <1>   0.6160 
  3 N        1.5960    -1.5810    -0.1160 N.am  1 <1>  -0.4690 
  4 C        3.3670     0.0030     0.4590 C.2   1 <1>   0.0290 
  5 C        2.3310    -2.6010     0.4350 C.2   1 <1>  -0.0410 
  6 C        0.2650    -1.8740    -0.7130 C.3   1 <1>   0.0600 
  7 C        3.9100     1.3440     0.4710 C.2   1 <1>   0.6160 
  8 C        4.0670    -1.0510     1.0020 C.2   1 <1>  -0.1500 
  9 C        3.5480    -2.3590     0.9900 C.2   1 <1>  -0.1500 
 10 O        4.9220     1.5680     1.1100 O.2   1 <1>  -0.5700 
 11 N        3.3250     2.3840    -0.2080 N.am  1 <1>  -0.4940 
 12 C        3.6970     3.7250    -0.3490 C.2   1 <1>   0.2040 
 13 O        2.7480     4.6120    -0.5270 O.3   1 <1>  -0.0190 
 14 C        4.8740     4.3880    -0.3600 C.2   1 <1>  -0.1810 
 15 N        3.2190     5.8260    -0.6320 N.2   1 <1>  -0.4100 
 16 C        4.4960     5.7210    -0.5300 C.2   1 <1>   0.1080 
 17 C        6.2950     3.8610    -0.2360 C.3   1 <1>  -0.0590 
 18 C        5.4280     6.9180    -0.5960 C.3   1 <1>   0.0210 
 19 C        5.9280     7.3140     0.7970 C.3   1 <1>  -0.2400 
 20 H        1.9150    -3.5960     0.4150 H     1 <1>   0.1500 
 21 H       -0.4920    -1.3120    -0.1960 H     1 <1>   0.0800 
 22 H        0.0370    -2.9220    -0.6400 H     1 <1>   0.0800 
 23 H        0.2660    -1.5860    -1.7500 H     1 <1>   0.0800 
 24 H        5.0350    -0.8990     1.4520 H     1 <1>   0.1500 
 25 H        4.1310    -3.1520     1.4260 H     1 <1>   0.1500 
 26 H        2.3850     2.1660    -0.5630 H     1 <1>   0.3700 
 27 H        6.3470     2.8480    -0.5910 H     1 <1>   0.0800 
 28 H        6.6010     3.8810     0.7950 H     1 <1>   0.0800 
 29 H        6.9750     4.4530    -0.8180 H     1 <1>   0.0800 
 30 H        4.8980     7.7480    -1.0310 H     1 <1>   0.0800 
 31 H        6.2610     6.6920    -1.2360 H     1 <1>   0.0800 
 32 H        5.0920     7.5520     1.4310 H     1 <1>   0.0800 
 33 H        6.5690     8.1750     0.7310 H     1 <1>   0.0800 
 34 H        6.4780     6.5050     1.2440 H     1 <1>   0.0800 
@<TRIPOS>BOND
  1   1   2  2   
  2   2   3  am  
  3   2   4  1   
  4   3   5  1   
  5   3   6  1   
  6   4   7  1   
  7   4   8  2   
  8   5   9  2   
  9   5  20  1   
 10   6  21  1   
 11   6  22  1   
 12   6  23  1   
 13   7  10  2   
 14   7  11  am  
 15   8   9  1   
 16   8  24  1   
 17   9  25  1   
 18  11  12  1   
 19  11  26  1   
 20  12  13  1   
 21  12  14  2   
 22  13  15  1   
 23  14  16  1   
 24  14  17  1   
 25  15  16  2   
 26  16  18  1   
 27  17  27  1   
 28  17  28  1   
 29  17  29  1   
 30  18  19  1   
 31  18  30  1   
 32  18  31  1   
 33  19  32  1   
 34  19  33  1   
 35  19  34  1   
@<TRIPOS>SUBSTRUCTURE
  1 ****  11 GROUP 4 **** **** 0

# MOE 2024.06 (io_trps.svl 2023.06)
