@<TRIPOS>MOLECULE
NONAME
58 61 1 0 0 
SMALL
USER_CHARGES


@<TRIPOS>ATOM
  1 O       -1.0640     2.8820    -2.3530 O.2   1 <1>  -0.5700 
  2 C       -0.4180     2.7060    -1.3360 C.2   1 <1>   0.5440 
  3 N       -0.9660     2.3780    -0.1230 N.am  1 <1>  -0.6600 
  4 C        0.9970     2.8920    -1.2090 C.ar  1 <1>   0.0860 
  5 C       -2.4150     2.1340     0.1850 C.3   1 <1>   0.3000 
  6 C        0.1080     2.3640     0.9160 C.3   1 <1>   0.2840 
  7 C        1.3490     2.7070     0.1120 C.ar  1 <1>  -0.1440 
  8 C        1.9720     3.2170    -2.1430 C.ar  1 <1>  -0.1500 
  9 C       -2.8180     0.8240    -0.5130 C.3   1 <1>  -0.1600 
 10 C       -2.6330     1.9310     1.7040 C.3   1 <1>  -0.1600 
 11 C       -3.2770     3.3090    -0.3410 C.3   1 <1>  -0.0990 
 12 C        2.6590     2.8410     0.5330 C.ar  1 <1>  -0.1500 
 13 C        3.2880     3.3530    -1.7340 C.ar  1 <1>  -0.1500 
 14 C       -4.2070     0.3420    -0.0770 C.3   1 <1>   0.1200 
 15 C       -4.0300     1.3880     2.0250 C.3   1 <1>   0.1200 
 16 C       -2.7350     4.6670     0.0370 C.2   1 <1>   0.5690 
 17 C        3.6300     3.1660    -0.4010 C.ar  1 <1>  -0.1500 
 18 O       -4.2370     0.2110     1.3100 O.3   1 <1>  -0.5600 
 19 O       -2.9920     5.1250     1.1240 O.2   1 <1>  -0.5700 
 20 N       -1.9770     5.3240    -0.8770 N.am  1 <1>  -0.7300 
 21 C       -1.2270     6.5890    -0.6790 C.3   1 <1>   0.2200 
 22 C       -0.2530     6.4470     0.5090 C.3   1 <1>   0.1200 
 23 C       -2.2200     7.7580    -0.5340 C.3   1 <1>  -0.0160 
 24 O        0.7250     7.4350     0.4690 O.3   1 <1>  -0.6800 
 25 C       -1.5220     9.1040    -0.3910 C.ar  1 <1>  -0.1440 
 26 C       -1.4710     9.7390     0.8400 C.ar  1 <1>  -0.1500 
 27 C       -0.9160     9.6970    -1.4880 C.ar  1 <1>  -0.1500 
 28 C       -0.8160    10.9500     0.9750 C.ar  1 <1>  -0.1500 
 29 C       -0.2610    10.9080    -1.3540 C.ar  1 <1>  -0.1500 
 30 C       -0.2090    11.5350    -0.1220 C.ar  1 <1>  -0.1500 
 31 H       -0.0800     3.1110     1.6680 H     1 <1>   0.0800 
 32 H        0.2000     1.3860     1.3570 H     1 <1>   0.0800 
 33 H        1.6920     3.3610    -3.1720 H     1 <1>   0.1500 
 34 H       -2.1090     0.0530    -0.2700 H     1 <1>   0.0800 
 35 H       -2.8100     0.9510    -1.5800 H     1 <1>   0.0800 
 36 H       -2.4850     2.8510     2.2380 H     1 <1>   0.0800 
 37 H       -1.9410     1.2030     2.0860 H     1 <1>   0.0800 
 38 H       -4.2810     3.2450     0.0270 H     1 <1>   0.0800 
 39 H       -3.3550     3.2560    -1.4100 H     1 <1>   0.0800 
 40 H        2.9250     2.6980     1.5660 H     1 <1>   0.1500 
 41 H        4.0500     3.6070    -2.4510 H     1 <1>   0.1500 
 42 H       -4.4160    -0.6250    -0.5000 H     1 <1>   0.0800 
 43 H       -4.9820     1.0250    -0.3770 H     1 <1>   0.0800 
 44 H       -4.8110     2.0870     1.7820 H     1 <1>   0.0800 
 45 H       -4.1040     1.1480     3.0720 H     1 <1>   0.0800 
 46 H        4.6560     3.2770    -0.0920 H     1 <1>   0.1500 
 47 H       -1.7060     4.7870    -1.7140 H     1 <1>   0.3700 
 48 H       -0.6350     6.7480    -1.5640 H     1 <1>   0.0800 
 49 H        0.2530     5.4990     0.4630 H     1 <1>   0.0800 
 50 H       -0.7780     6.5280     1.4450 H     1 <1>   0.0800 
 51 H       -2.8540     7.7890    -1.4020 H     1 <1>   0.0800 
 52 H       -2.8480     7.5920     0.3230 H     1 <1>   0.0800 
 53 H        0.3040     8.3230     0.4020 H     1 <1>   0.4000 
 54 H       -1.9390     9.2930     1.7020 H     1 <1>   0.1500 
 55 H       -0.9500     9.2180    -2.4510 H     1 <1>   0.1500 
 56 H       -0.7780    11.4370     1.9340 H     1 <1>   0.1500 
 57 H        0.2090    11.3630    -2.2080 H     1 <1>   0.1500 
 58 H        0.3010    12.4770    -0.0170 H     1 <1>   0.1500 
@<TRIPOS>BOND
  1   1   2  2   
  2   2   3  am  
  3   2   4  1   
  4   3   5  1   
  5   3   6  1   
  6   4   7  ar  
  7   4   8  ar  
  8   5   9  1   
  9   5  10  1   
 10   5  11  1   
 11   6   7  1   
 12   6  31  1   
 13   6  32  1   
 14   7  12  ar  
 15   8  13  ar  
 16   8  33  1   
 17   9  14  1   
 18   9  34  1   
 19   9  35  1   
 20  10  15  1   
 21  10  36  1   
 22  10  37  1   
 23  11  16  1   
 24  11  38  1   
 25  11  39  1   
 26  12  17  ar  
 27  12  40  1   
 28  13  17  ar  
 29  13  41  1   
 30  14  18  1   
 31  14  42  1   
 32  14  43  1   
 33  15  18  1   
 34  15  44  1   
 35  15  45  1   
 36  16  19  2   
 37  16  20  am  
 38  17  46  1   
 39  20  21  1   
 40  20  47  1   
 41  21  22  1   
 42  21  23  1   
 43  21  48  1   
 44  22  24  1   
 45  22  49  1   
 46  22  50  1   
 47  23  25  1   
 48  23  51  1   
 49  23  52  1   
 50  24  53  1   
 51  25  26  ar  
 52  25  27  ar  
 53  26  28  ar  
 54  26  54  1   
 55  27  29  ar  
 56  27  55  1   
 57  28  30  ar  
 58  28  56  1   
 59  29  30  ar  
 60  29  57  1   
 61  30  58  1   
@<TRIPOS>SUBSTRUCTURE
  1 ****  20 GROUP 4 **** **** 0

# MOE 2024.06 (io_trps.svl 2023.06)
