@<TRIPOS>MOLECULE
NONAME
54 57 1 0 0 
SMALL
USER_CHARGES


@<TRIPOS>ATOM
  1 O       -0.8620     0.9400    -2.5010 O.2   1 <1>  -0.5700 
  2 C       -1.1530     1.4820    -1.4540 C.2   1 <1>   0.5440 
  3 N       -2.1400     0.9370    -0.6570 N.am  1 <1>  -0.6600 
  4 C       -0.4720     2.6980    -1.0950 C.ar  1 <1>   0.0860 
  5 C       -2.8250    -0.3390    -1.0340 C.3   1 <1>   0.1400 
  6 C       -2.7030     1.6420     0.5330 C.3   1 <1>   0.1400 
  7 C        0.5050     2.7900    -0.1170 C.ar  1 <1>   0.1660 
  8 C       -0.7860     3.8810    -1.7300 C.ar  1 <1>   0.1600 
  9 C       -4.3040    -0.1210    -1.3810 C.3   1 <1>   0.1400 
 10 C       -3.9380     2.4470     0.1130 C.3   1 <1>  -0.1600 
 11 N        1.0620     3.9330     0.2090 N.ar  1 <1>  -0.6200 
 12 C        0.9990     1.5750     0.6520 C.3   1 <1>  -0.0960 
 13 N       -0.2400     5.0340    -1.4220 N.ar  1 <1>  -0.6200 
 14 N       -5.1060     0.2100    -0.1610 N.am  1 <1>  -0.6600 
 15 C       -5.2590     1.6630     0.1480 C.3   1 <1>   0.1400 
 16 C        0.6790     5.0300    -0.4520 C.ar  1 <1>   0.6200 
 17 C       -5.7610    -0.7420     0.5960 C.2   1 <1>   0.5690 
 18 C        1.2950     6.2950    -0.0920 C.ar  1 <1>   0.0000 
 19 O       -6.4800    -0.4090     1.5150 O.2   1 <1>  -0.5700 
 20 C       -5.5750    -2.2580     0.3140 C.3   1 <1>   0.2610 
 21 C        2.5040     6.3420     0.6090 C.ar  1 <1>   0.1600 
 22 C        0.7270     7.5240    -0.4200 C.ar  1 <1>  -0.1500 
 23 O       -6.1930    -2.6340    -0.8860 O.3   1 <1>  -0.5600 
 24 C       -6.2040    -3.2070     1.3360 C.3   1 <1>  -0.1600 
 25 N        3.1500     7.4350     0.9860 N.ar  1 <1>  -0.6200 
 26 C        1.3810     8.6750    -0.0390 C.ar  1 <1>  -0.1500 
 27 C       -7.5330    -2.9300    -0.6490 C.3   1 <1>   0.1200 
 28 C       -7.6030    -3.4450     0.7860 C.3   1 <1>  -0.1600 
 29 C        2.5740     8.5780     0.6540 C.ar  1 <1>   0.1600 
 30 H       -2.3410    -0.7810    -1.8880 H     1 <1>   0.0800 
 31 H       -2.7400    -1.0420    -0.2250 H     1 <1>   0.0800 
 32 H       -2.9580     0.9300     1.3000 H     1 <1>   0.0800 
 33 H       -1.9710     2.3110     0.9480 H     1 <1>   0.0800 
 34 H       -1.5200     3.8630    -2.5180 H     1 <1>   0.1500 
 35 H       -4.6880    -1.0100    -1.8460 H     1 <1>   0.0800 
 36 H       -4.3910     0.6690    -2.1070 H     1 <1>   0.0800 
 37 H       -3.7880     2.8610    -0.8680 H     1 <1>   0.0800 
 38 H       -4.0450     3.2810     0.7830 H     1 <1>   0.0800 
 39 H        0.7680     0.6580     0.1420 H     1 <1>   0.0800 
 40 H        0.5490     1.5570     1.6270 H     1 <1>   0.0800 
 41 H        2.0660     1.6310     0.7680 H     1 <1>   0.0800 
 42 H       -5.9570     2.0970    -0.5470 H     1 <1>   0.0800 
 43 H       -5.6820     1.7750     1.1320 H     1 <1>   0.0800 
 44 H       -4.5250    -2.4640     0.2240 H     1 <1>   0.0800 
 45 H        2.9720     5.4090     0.8760 H     1 <1>   0.1500 
 46 H       -0.2020     7.5780    -0.9610 H     1 <1>   0.1500 
 47 H       -5.6500    -4.1280     1.3410 H     1 <1>   0.0800 
 48 H       -6.2110    -2.8010     2.3320 H     1 <1>   0.0800 
 49 H        0.9730     9.6410    -0.2750 H     1 <1>   0.1500 
 50 H       -8.1020    -2.0230    -0.7640 H     1 <1>   0.0800 
 51 H       -7.8580    -3.6650    -1.3660 H     1 <1>   0.0800 
 52 H       -8.3360    -2.8810     1.3370 H     1 <1>   0.0800 
 53 H       -7.8670    -4.4880     0.8140 H     1 <1>   0.0800 
 54 H        3.0790     9.4820     0.9490 H     1 <1>   0.1500 
@<TRIPOS>BOND
  1   1   2  2   
  2   2   3  am  
  3   2   4  1   
  4   3   5  1   
  5   3   6  1   
  6   4   7  ar  
  7   4   8  ar  
  8   5   9  1   
  9   5  30  1   
 10   5  31  1   
 11   6  10  1   
 12   6  32  1   
 13   6  33  1   
 14   7  11  ar  
 15   7  12  1   
 16   8  13  ar  
 17   8  34  1   
 18   9  14  1   
 19   9  35  1   
 20   9  36  1   
 21  10  15  1   
 22  10  37  1   
 23  10  38  1   
 24  11  16  ar  
 25  12  39  1   
 26  12  40  1   
 27  12  41  1   
 28  13  16  ar  
 29  14  15  1   
 30  14  17  am  
 31  15  42  1   
 32  15  43  1   
 33  16  18  1   
 34  17  19  2   
 35  17  20  1   
 36  18  21  ar  
 37  18  22  ar  
 38  20  23  1   
 39  20  24  1   
 40  20  44  1   
 41  21  25  ar  
 42  21  45  1   
 43  22  26  ar  
 44  22  46  1   
 45  23  27  1   
 46  24  28  1   
 47  24  47  1   
 48  24  48  1   
 49  25  29  ar  
 50  26  29  ar  
 51  26  49  1   
 52  27  28  1   
 53  27  50  1   
 54  27  51  1   
 55  28  52  1   
 56  28  53  1   
 57  29  54  1   
@<TRIPOS>SUBSTRUCTURE
  1 ****   6 GROUP 4 **** **** 0

# MOE 2024.06 (io_trps.svl 2023.06)
