@<TRIPOS>MOLECULE
NONAME
54 57 1 0 0 
SMALL
USER_CHARGES


@<TRIPOS>ATOM
  1 S        0.3470     0.6230     1.6500 S.o2  1 <1>   1.4470 
  2 O       -0.4680    -0.2040     2.5140 O.2   1 <1>  -0.6500 
  3 O        1.2410     1.5880     2.2520 O.2   1 <1>  -0.6500 
  4 N       -0.7330     1.4940     0.6720 N.am  1 <1>  -0.8490 
  5 C        1.2590    -0.4280     0.4700 C.ar  1 <1>  -0.0090 
  6 C       -1.6320     0.6220    -0.0990 C.3   1 <1>   0.1960 
  7 C       -1.3960     2.5960     1.3940 C.3   1 <1>   0.1960 
  8 C        2.0980     0.0820    -0.5240 C.ar  1 <1>  -0.1440 
  9 C        1.1020    -1.8070     0.5420 C.ar  1 <1>  -0.1500 
 10 C       -2.7500     1.4570    -0.7120 C.3   1 <1>  -0.1600 
 11 C       -2.8710     2.2950     1.6790 C.3   1 <1>  -0.1600 
 12 C        2.7380    -0.7820    -1.3990 C.ar  1 <1>  -0.1500 
 13 C        2.3450     1.5780    -0.6820 C.3   1 <1>  -0.0970 
 14 C        1.7340    -2.6930    -0.3250 C.ar  1 <1>   0.0530 
 15 C       -3.6830     2.0020     0.3950 C.3   1 <1>   0.2800 
 16 C        2.5570    -2.1460    -1.3020 C.ar  1 <1>  -0.1500 
 17 C        1.5370    -4.1220    -0.2120 C.2   1 <1>   0.0870 
 18 O       -4.6080     1.0220     0.8100 O.3   1 <1>  -0.5600 
 19 C       -4.4110     3.2950    -0.0580 C.3   1 <1>   0.1400 
 20 O        2.0380    -4.9510    -1.0960 O.3   1 <1>  -0.2800 
 21 C        0.8860    -4.8950     0.6850 C.2   1 <1>   0.0770 
 22 C       -5.5180     0.3900    -0.0510 C.3   1 <1>   0.1200 
 23 N       -5.1260     3.1580    -1.3530 N.am  1 <1>  -0.7300 
 24 C        1.6860    -6.1540    -0.7200 C.2   1 <1>   0.2980 
 25 N        0.9850    -6.1940     0.3520 N.2   1 <1>  -0.5650 
 26 C       -6.6020     1.3440    -0.5470 C.3   1 <1>  -0.0990 
 27 C       -6.0800     2.2500    -1.6330 C.2   1 <1>   0.5690 
 28 C        2.1210    -7.3380    -1.5500 C.3   1 <1>  -0.0600 
 29 O       -6.5080     2.1480    -2.7530 O.2   1 <1>  -0.5700 
 30 H       -2.0640    -0.1360     0.5360 H     1 <1>   0.0800 
 31 H       -1.0740     0.1340    -0.8810 H     1 <1>   0.0800 
 32 H       -1.3300     3.4840     0.7880 H     1 <1>   0.0800 
 33 H       -0.8890     2.8090     2.3210 H     1 <1>   0.0800 
 34 H        0.4610    -2.2110     1.3060 H     1 <1>   0.1500 
 35 H       -3.2810     0.8900    -1.4490 H     1 <1>   0.0800 
 36 H       -2.2940     2.2760    -1.2410 H     1 <1>   0.0800 
 37 H       -3.3010     3.1200     2.2160 H     1 <1>   0.0800 
 38 H       -2.8990     1.4430     2.3370 H     1 <1>   0.0800 
 39 H        3.3870    -0.3960    -2.1670 H     1 <1>   0.1500 
 40 H        1.4200     2.1000    -0.8450 H     1 <1>   0.0800 
 41 H        2.9890     1.7790    -1.5190 H     1 <1>   0.0800 
 42 H        2.8180     1.9720     0.2000 H     1 <1>   0.0800 
 43 H        3.0640    -2.7970    -1.9930 H     1 <1>   0.1500 
 44 H       -3.6840     4.0810    -0.1620 H     1 <1>   0.0800 
 45 H       -5.1090     3.5960     0.7040 H     1 <1>   0.0800 
 46 H        0.3460    -4.5850     1.5620 H     1 <1>   0.1500 
 47 H       -5.9850    -0.3880     0.5280 H     1 <1>   0.0800 
 48 H       -5.0010    -0.0830    -0.8650 H     1 <1>   0.0800 
 49 H       -4.8220     3.7470    -2.1320 H     1 <1>   0.3700 
 50 H       -6.9960     1.9210     0.2680 H     1 <1>   0.0800 
 51 H       -7.4070     0.7640    -0.9590 H     1 <1>   0.0800 
 52 H        1.7290    -7.2440    -2.5450 H     1 <1>   0.0800 
 53 H        1.7530    -8.2460    -1.1100 H     1 <1>   0.0800 
 54 H        3.1930    -7.3750    -1.5920 H     1 <1>   0.0800 
@<TRIPOS>BOND
  1   1   2  2   
  2   1   3  2   
  3   1   4  am  
  4   1   5  1   
  5   4   6  1   
  6   4   7  1   
  7   5   8  ar  
  8   5   9  ar  
  9   6  10  1   
 10   6  30  1   
 11   6  31  1   
 12   7  11  1   
 13   7  32  1   
 14   7  33  1   
 15   8  12  ar  
 16   8  13  1   
 17   9  14  ar  
 18   9  34  1   
 19  10  15  1   
 20  10  35  1   
 21  10  36  1   
 22  11  15  1   
 23  11  37  1   
 24  11  38  1   
 25  12  16  ar  
 26  12  39  1   
 27  13  40  1   
 28  13  41  1   
 29  13  42  1   
 30  14  16  ar  
 31  14  17  1   
 32  15  18  1   
 33  15  19  1   
 34  16  43  1   
 35  17  20  1   
 36  17  21  2   
 37  18  22  1   
 38  19  23  1   
 39  19  44  1   
 40  19  45  1   
 41  20  24  1   
 42  21  25  1   
 43  21  46  1   
 44  22  26  1   
 45  22  47  1   
 46  22  48  1   
 47  23  27  am  
 48  23  49  1   
 49  24  25  2   
 50  24  28  1   
 51  26  27  1   
 52  26  50  1   
 53  26  51  1   
 54  27  29  2   
 55  28  52  1   
 56  28  53  1   
 57  28  54  1   
@<TRIPOS>SUBSTRUCTURE
  1 ****   6 GROUP 4 **** **** 0

# MOE 2024.06 (io_trps.svl 2023.06)
