@<TRIPOS>MOLECULE
NONAME
53 56 1 0 0 
SMALL
USER_CHARGES


@<TRIPOS>ATOM
  1 O       -1.1380     0.1920     0.9300 O.2   1 <1>  -0.5700 
  2 C       -1.9160     0.7610     0.1870 C.2   1 <1>   0.5440 
  3 N       -1.6180     2.0380    -0.2470 N.am  1 <1>  -0.6600 
  4 C       -3.1260     0.0770    -0.1990 C.ar  1 <1>   0.0860 
  5 C       -0.2660     2.6340    -0.0450 C.3   1 <1>   0.1400 
  6 C       -2.6380     3.0020    -0.7500 C.3   1 <1>   0.1400 
  7 C       -3.9200    -0.5390     0.7650 C.ar  1 <1>   0.1600 
  8 C       -3.5530    -0.0190    -1.5210 C.ar  1 <1>  -0.1500 
  9 C       -0.3600     3.8120     0.9280 C.3   1 <1>  -0.1600 
 10 C       -2.7470     4.1900     0.2120 C.3   1 <1>  -0.1600 
 11 N       -5.0540    -1.1840     0.5460 N.ar  1 <1>  -0.6200 
 12 C       -4.7240    -0.6910    -1.7720 C.ar  1 <1>  -0.1500 
 13 C       -1.3840     4.8530     0.4570 C.3   1 <1>  -0.1600 
 14 C       -5.4440    -1.2530    -0.7230 C.ar  1 <1>   0.4100 
 15 N       -6.6110    -1.9270    -0.9770 N.pl3 1 <1>  -0.8380 
 16 C       -7.8590    -1.3520    -0.4030 C.3   1 <1>   0.2090 
 17 C       -6.6060    -3.3910    -0.6940 C.3   1 <1>   0.2090 
 18 C       -8.2540    -2.3130     0.7160 C.3   1 <1>   0.2000 
 19 C       -7.8510    -3.6780     0.1550 C.3   1 <1>  -0.0800 
 20 O       -7.4760    -2.0150     1.8250 O.3   1 <1>  -0.6800 
 21 C       -7.6410    -4.7850     1.2050 C.3   1 <1>  -0.0170 
 22 C       -7.2470    -6.0970     0.5430 C.ar  1 <1>  -0.1430 
 23 C       -8.1770    -6.9170    -0.0630 C.ar  1 <1>  -0.1500 
 24 C       -5.9370    -6.5320     0.5100 C.ar  1 <1>  -0.1500 
 25 C       -7.7630    -8.0960    -0.6600 C.ar  1 <1>   0.1600 
 26 C       -5.6290    -7.7290    -0.1140 C.ar  1 <1>   0.1600 
 27 N       -6.5110    -8.5210    -0.7020 N.ar  1 <1>  -0.6200 
 28 H        0.4220     1.8990     0.3390 H     1 <1>   0.0800 
 29 H        0.1110     2.9730    -0.9950 H     1 <1>   0.0800 
 30 H       -2.3420     3.3470    -1.7260 H     1 <1>   0.0800 
 31 H       -3.6030     2.5360    -0.8370 H     1 <1>   0.0800 
 32 H       -3.5810    -0.4850     1.7870 H     1 <1>   0.1500 
 33 H       -2.9720     0.4190    -2.3140 H     1 <1>   0.1500 
 34 H       -0.6410     3.4350     1.8970 H     1 <1>   0.0800 
 35 H        0.6080     4.2720     1.0240 H     1 <1>   0.0800 
 36 H       -3.4330     4.9130    -0.1920 H     1 <1>   0.0800 
 37 H       -3.1510     3.8420     1.1470 H     1 <1>   0.0800 
 38 H       -5.1070    -0.7990    -2.7690 H     1 <1>   0.1500 
 39 H       -1.0380     5.3070    -0.4560 H     1 <1>   0.0800 
 40 H       -1.4830     5.6280     1.1980 H     1 <1>   0.0800 
 41 H       -7.7110    -0.3520    -0.0300 H     1 <1>   0.0800 
 42 H       -8.6190    -1.3380    -1.1640 H     1 <1>   0.0800 
 43 H       -6.6310    -3.9510    -1.6140 H     1 <1>   0.0800 
 44 H       -5.7130    -3.6560    -0.1530 H     1 <1>   0.0800 
 45 H       -9.2910    -2.2480     0.9940 H     1 <1>   0.0800 
 46 H       -8.6270    -3.9940    -0.5190 H     1 <1>   0.0800 
 47 H       -6.5680    -1.7830     1.4900 H     1 <1>   0.4000 
 48 H       -8.5480    -4.9250     1.7660 H     1 <1>   0.0800 
 49 H       -6.8740    -4.4960     1.9030 H     1 <1>   0.0800 
 50 H       -9.2170    -6.6500    -0.0760 H     1 <1>   0.1500 
 51 H       -5.1530    -5.9520     0.9630 H     1 <1>   0.1500 
 52 H       -8.5020    -8.7230    -1.1280 H     1 <1>   0.1500 
 53 H       -4.6020    -8.0520    -0.1300 H     1 <1>   0.1500 
@<TRIPOS>BOND
  1   1   2  2   
  2   2   3  am  
  3   2   4  1   
  4   3   5  1   
  5   3   6  1   
  6   4   7  ar  
  7   4   8  ar  
  8   5   9  1   
  9   5  28  1   
 10   5  29  1   
 11   6  10  1   
 12   6  30  1   
 13   6  31  1   
 14   7  11  ar  
 15   7  32  1   
 16   8  12  ar  
 17   8  33  1   
 18   9  13  1   
 19   9  34  1   
 20   9  35  1   
 21  10  13  1   
 22  10  36  1   
 23  10  37  1   
 24  11  14  ar  
 25  12  14  ar  
 26  12  38  1   
 27  13  39  1   
 28  13  40  1   
 29  14  15  1   
 30  15  16  1   
 31  15  17  1   
 32  16  18  1   
 33  16  41  1   
 34  16  42  1   
 35  17  19  1   
 36  17  43  1   
 37  17  44  1   
 38  18  19  1   
 39  18  20  1   
 40  18  45  1   
 41  19  21  1   
 42  19  46  1   
 43  20  47  1   
 44  21  22  1   
 45  21  48  1   
 46  21  49  1   
 47  22  23  ar  
 48  22  24  ar  
 49  23  25  ar  
 50  23  50  1   
 51  24  26  ar  
 52  24  51  1   
 53  25  27  ar  
 54  25  52  1   
 55  26  27  ar  
 56  26  53  1   
@<TRIPOS>SUBSTRUCTURE
  1 ****  11 GROUP 4 **** **** 0

# MOE 2024.06 (io_trps.svl 2023.06)
