@<TRIPOS>MOLECULE
NONAME
53 56 1 0 0 
SMALL
USER_CHARGES


@<TRIPOS>ATOM
  1 O        0.9330     1.1690     0.1560 O.co2 1 <1>  -0.9020 
  2 C        1.3180     0.0480    -0.2130 C.2   1 <1>   0.9770 
  3 O        0.4890    -0.8400    -0.4600 O.co2 1 <1>  -0.9020 
  4 C        2.7430    -0.2090    -0.3510 C.ar  1 <1>  -0.1860 
  5 C        3.6670     0.7960    -0.0840 C.ar  1 <1>  -0.1160 
  6 C        3.2310    -1.4680    -0.7530 C.ar  1 <1>  -0.1570 
  7 C        5.0180     0.5380    -0.2210 C.ar  1 <1>   0.3030 
  8 C        4.5810    -1.7230    -0.8890 C.ar  1 <1>  -0.1160 
  9 N        6.1280     1.3290    -0.0250 N.pl3 1 <1>  -0.7030 
 10 C        5.4820    -0.6990    -0.6190 C.ar  1 <1>   0.3030 
 11 C        7.2230     0.6180    -0.2710 C.cat 1 <1>   1.0690 
 12 N        6.8730    -0.6240    -0.6660 N.pl3 1 <1>  -0.7670 
 13 N        8.4680     1.1220    -0.1200 N.pl3 1 <1>  -0.5960 
 14 C        7.6850    -1.6900    -1.3070 C.3   1 <1>   0.2680 
 15 C        8.7490     2.5950    -0.1490 C.3   1 <1>   0.1610 
 16 C        9.6880     0.3100     0.1690 C.3   1 <1>   0.1610 
 17 C        9.3440     3.0790     1.1850 C.3   1 <1>   0.0930 
 18 C       10.3250     0.7630     1.4890 C.3   1 <1>  -0.1670 
 19 C        9.6340     4.5720     1.1290 C.2   1 <1>   0.2920 
 20 C       10.6120     2.2720     1.5140 C.3   1 <1>  -0.1670 
 21 O       10.0740     5.1640     2.2110 O.3   1 <1>  -0.0270 
 22 N        9.4780     5.3260     0.1160 N.2   1 <1>  -0.5700 
 23 N       10.2180     6.4020     1.8540 N.2   1 <1>  -0.4150 
 24 C        9.8760     6.4840     0.6300 C.2   1 <1>   0.3290 
 25 C        9.8960     7.7610    -0.1930 C.3   1 <1>   0.0130 
 26 C       11.2930     8.0990    -0.7510 C.3   1 <1>  -0.0870 
 27 C       11.2700     9.4640    -1.4520 C.3   1 <1>  -0.2460 
 28 C       11.7990     7.0290    -1.7290 C.3   1 <1>  -0.2460 
 29 H        3.3240     1.7690     0.2270 H     1 <1>   0.1430 
 30 H        2.5080    -2.2440    -0.9560 H     1 <1>   0.1430 
 31 H        4.9220    -2.6940    -1.1940 H     1 <1>   0.1430 
 32 H        6.0920     2.2880     0.3050 H     1 <1>   0.4450 
 33 H        7.1130    -2.1780    -2.0770 H     1 <1>   0.0730 
 34 H        7.9740    -2.4230    -0.5730 H     1 <1>   0.0730 
 35 H        8.5650    -1.2720    -1.7650 H     1 <1>   0.0730 
 36 H        7.8600     3.1580    -0.3720 H     1 <1>   0.0730 
 37 H        9.4560     2.7950    -0.9380 H     1 <1>   0.0730 
 38 H       10.3940     0.4290    -0.6360 H     1 <1>   0.0730 
 39 H        9.4480    -0.7330     0.2630 H     1 <1>   0.0730 
 40 H        8.6170     2.9240     1.9620 H     1 <1>   0.0730 
 41 H       11.2460     0.2260     1.6370 H     1 <1>   0.0730 
 42 H        9.6710     0.5050     2.3040 H     1 <1>   0.0730 
 43 H       10.9810     2.5510     2.4870 H     1 <1>   0.0730 
 44 H       11.3790     2.5040     0.7950 H     1 <1>   0.0730 
 45 H        9.5670     8.5650     0.4400 H     1 <1>   0.0730 
 46 H        9.1920     7.6700    -1.0000 H     1 <1>   0.0730 
 47 H       11.9820     8.1570     0.0760 H     1 <1>   0.0730 
 48 H       10.5950     9.4500    -2.2890 H     1 <1>   0.0730 
 49 H       12.2540     9.7160    -1.8080 H     1 <1>   0.0730 
 50 H       10.9550    10.2320    -0.7670 H     1 <1>   0.0730 
 51 H       11.1170     6.9150    -2.5520 H     1 <1>   0.0730 
 52 H       11.9000     6.0800    -1.2320 H     1 <1>   0.0730 
 53 H       12.7640     7.3040    -2.1160 H     1 <1>   0.0730 
@<TRIPOS>BOND
  1   1   2  ar  
  2   2   3  ar  
  3   2   4  1   
  4   4   5  ar  
  5   4   6  ar  
  6   5   7  ar  
  7   5  29  1   
  8   6   8  ar  
  9   6  30  1   
 10   7   9  1   
 11   7  10  ar  
 12   8  10  ar  
 13   8  31  1   
 14   9  11  ar  
 15   9  32  1   
 16  10  12  1   
 17  11  12  ar  
 18  11  13  ar  
 19  12  14  1   
 20  13  15  1   
 21  13  16  1   
 22  14  33  1   
 23  14  34  1   
 24  14  35  1   
 25  15  17  1   
 26  15  36  1   
 27  15  37  1   
 28  16  18  1   
 29  16  38  1   
 30  16  39  1   
 31  17  19  1   
 32  17  20  1   
 33  17  40  1   
 34  18  20  1   
 35  18  41  1   
 36  18  42  1   
 37  19  21  1   
 38  19  22  2   
 39  20  43  1   
 40  20  44  1   
 41  21  23  1   
 42  22  24  1   
 43  23  24  2   
 44  24  25  1   
 45  25  26  1   
 46  25  45  1   
 47  25  46  1   
 48  26  27  1   
 49  26  28  1   
 50  26  47  1   
 51  27  48  1   
 52  27  49  1   
 53  27  50  1   
 54  28  51  1   
 55  28  52  1   
 56  28  53  1   
@<TRIPOS>SUBSTRUCTURE
  1 ****  15 GROUP 4 **** **** 0

# MOE 2024.06 (io_trps.svl 2023.06)
