@<TRIPOS>MOLECULE
NONAME
50 52 1 0 0 
SMALL
USER_CHARGES


@<TRIPOS>ATOM
  1 O       -3.7220     1.8360    -1.5050 O.2   1 <1>  -0.5700 
  2 C       -3.2470     1.0650    -0.7040 C.2   1 <1>   0.5690 
  3 N       -3.6370    -0.2520    -0.6770 N.am  1 <1>  -0.6600 
  4 C       -2.1950     1.6510     0.2490 C.3   1 <1>  -0.0190 
  5 C       -3.0800    -1.2850     0.2740 C.3   1 <1>   0.3640 
  6 C       -4.7360    -0.6760    -1.6030 C.3   1 <1>   0.1400 
  7 C       -2.6980     2.9420     0.9260 C.3   1 <1>  -0.1600 
  8 C       -0.8870     1.9390    -0.5100 C.3   1 <1>  -0.1600 
  9 C       -1.5840    -1.4730    -0.0040 C.ar  1 <1>  -0.1440 
 10 C       -3.7750    -2.6850     0.2800 C.3   1 <1>   0.2000 
 11 C       -4.8840    -2.1920    -1.7190 C.3   1 <1>   0.1200 
 12 C       -1.6170     3.5830     1.7940 C.3   1 <1>   0.3430 
 13 C        0.1580     2.5900     0.3900 C.3   1 <1>   0.3430 
 14 C       -1.1080    -1.6240    -1.3010 C.ar  1 <1>  -0.1500 
 15 C       -0.6780    -1.4960     1.0490 C.ar  1 <1>  -0.1500 
 16 O       -4.9740    -2.7320    -0.4430 O.3   1 <1>  -0.5600 
 17 C       -4.1140    -3.1530     1.7030 C.3   1 <1>   0.1200 
 18 N       -0.4030     3.8450     0.9690 N.4   1 <1>  -0.9590 
 19 C        0.2450    -1.7880    -1.5400 C.ar  1 <1>  -0.1500 
 20 C        0.6750    -1.6600     0.8110 C.ar  1 <1>  -0.1500 
 21 O       -2.9780    -3.1650     2.5090 O.3   1 <1>  -0.6800 
 22 C        0.6320     4.5850     1.7500 C.3   1 <1>   0.2630 
 23 C        1.1380    -1.8040    -0.4840 C.ar  1 <1>  -0.1500 
 24 H       -1.9830     0.9560     1.0350 H     1 <1>   0.0800 
 25 H       -3.1870    -0.8830     1.2650 H     1 <1>   0.0800 
 26 H       -5.6650    -0.2640    -1.2470 H     1 <1>   0.0800 
 27 H       -4.5570    -0.2680    -2.5840 H     1 <1>   0.0800 
 28 H       -3.5530     2.7120     1.5380 H     1 <1>   0.0800 
 29 H       -3.0200     3.6530     0.1840 H     1 <1>   0.0800 
 30 H       -1.0820     2.5780    -1.3540 H     1 <1>   0.0800 
 31 H       -0.4840     1.0210    -0.8960 H     1 <1>   0.0800 
 32 H       -3.1190    -3.4110    -0.1680 H     1 <1>   0.0800 
 33 H       -4.0510    -2.6330    -2.2390 H     1 <1>   0.0800 
 34 H       -5.7900    -2.4360    -2.2460 H     1 <1>   0.0800 
 35 H       -1.3700     2.9240     2.6110 H     1 <1>   0.0800 
 36 H       -1.9910     4.5080     2.2060 H     1 <1>   0.0800 
 37 H        1.0410     2.8090    -0.1890 H     1 <1>   0.0800 
 38 H        0.4290     1.9070     1.1800 H     1 <1>   0.0800 
 39 H       -1.7890    -1.6120    -2.1340 H     1 <1>   0.1500 
 40 H       -1.0230    -1.3980     2.0650 H     1 <1>   0.1500 
 41 H       -4.5270    -4.1470     1.6870 H     1 <1>   0.0800 
 42 H       -4.8240    -2.4790     2.1510 H     1 <1>   0.0800 
 43 H       -0.7020     4.4310     0.1750 H     1 <1>   0.4500 
 44 H        0.6030    -1.9060    -2.5490 H     1 <1>   0.1500 
 45 H        1.3690    -1.6860     1.6350 H     1 <1>   0.1500 
 46 H       -2.4110    -3.9340     2.2950 H     1 <1>   0.4000 
 47 H        0.9640     3.9940     2.5880 H     1 <1>   0.0800 
 48 H        0.2280     5.5130     2.1210 H     1 <1>   0.0800 
 49 H        1.4830     4.8080     1.1260 H     1 <1>   0.0800 
 50 H        2.1900    -1.9370    -0.6710 H     1 <1>   0.1500 
@<TRIPOS>BOND
  1   1   2  2   
  2   2   3  am  
  3   2   4  1   
  4   3   5  1   
  5   3   6  1   
  6   4   7  1   
  7   4   8  1   
  8   4  24  1   
  9   5   9  1   
 10   5  10  1   
 11   5  25  1   
 12   6  11  1   
 13   6  26  1   
 14   6  27  1   
 15   7  12  1   
 16   7  28  1   
 17   7  29  1   
 18   8  13  1   
 19   8  30  1   
 20   8  31  1   
 21   9  14  ar  
 22   9  15  ar  
 23  10  16  1   
 24  10  17  1   
 25  10  32  1   
 26  11  16  1   
 27  11  33  1   
 28  11  34  1   
 29  12  18  1   
 30  12  35  1   
 31  12  36  1   
 32  13  18  1   
 33  13  37  1   
 34  13  38  1   
 35  14  19  ar  
 36  14  39  1   
 37  15  20  ar  
 38  15  40  1   
 39  17  21  1   
 40  17  41  1   
 41  17  42  1   
 42  18  22  1   
 43  18  43  1   
 44  19  23  ar  
 45  19  44  1   
 46  20  23  ar  
 47  20  45  1   
 48  21  46  1   
 49  22  47  1   
 50  22  48  1   
 51  22  49  1   
 52  23  50  1   
@<TRIPOS>SUBSTRUCTURE
  1 ****   9 GROUP 4 **** **** 0

# MOE 2024.06 (io_trps.svl 2023.06)
