@<TRIPOS>MOLECULE
NONAME
49 51 1 0 0 
SMALL
USER_CHARGES


@<TRIPOS>ATOM
  1 S        1.2940     1.8220     1.6810 S.3   1 <1>  -0.0800 
  2 C        2.2150     0.4700     1.0420 C.2   1 <1>   0.4620 
  3 C        0.2310     1.7220     0.3150 C.2   1 <1>  -0.1100 
  4 N        1.7680     0.0270    -0.0730 N.2   1 <1>  -0.5650 
  5 N        3.3440     0.0340     1.7050 N.pl3 1 <1>  -0.8220 
  6 C        0.6230     0.7200    -0.5010 C.2   1 <1>   0.1410 
  7 C        4.0170     0.8320     2.7830 C.3   1 <1>   0.2090 
  8 C        4.1030    -1.1480     1.2120 C.3   1 <1>   0.2090 
  9 C       -0.0520     0.3500    -1.7390 C.2   1 <1>   0.7160 
 10 C        4.8940     1.9480     2.1700 C.3   1 <1>   0.3430 
 11 C        5.1380    -0.7290     0.1560 C.3   1 <1>  -0.1600 
 12 O       -0.9640     1.0080    -2.1920 O.2   1 <1>  -0.5700 
 13 N        0.3140    -0.7490    -2.4350 N.am  1 <1>  -0.8000 
 14 N        5.2040     1.6600     0.7250 N.4   1 <1>  -0.9590 
 15 C        6.0410     0.4440     0.5550 C.3   1 <1>   0.3430 
 16 C        5.6880     2.8250    -0.0620 C.3   1 <1>   0.3430 
 17 C        4.5860     3.8780    -0.1740 C.3   1 <1>  -0.1600 
 18 C        4.9590     4.9700    -1.1820 C.3   1 <1>  -0.0170 
 19 C        3.8780     6.0360    -1.2040 C.ar  1 <1>  -0.1430 
 20 C        4.0430     7.2170    -0.4960 C.ar  1 <1>  -0.1500 
 21 C        2.7140     5.8350    -1.9290 C.ar  1 <1>  -0.1500 
 22 C        3.0530     8.1860    -0.5120 C.ar  1 <1>  -0.1500 
 23 C        1.7230     6.8020    -1.9440 C.ar  1 <1>  -0.1500 
 24 C        1.8930     7.9780    -1.2360 C.ar  1 <1>  -0.1500 
 25 H       -0.5910     2.4140     0.2480 H     1 <1>   0.1500 
 26 H        4.6350     0.1820     3.3780 H     1 <1>   0.0800 
 27 H        3.2900     1.2610     3.4500 H     1 <1>   0.0800 
 28 H        3.4190    -1.8620     0.7820 H     1 <1>   0.0800 
 29 H        4.5910    -1.6340     2.0410 H     1 <1>   0.0800 
 30 H        5.7990     2.0650     2.7410 H     1 <1>   0.0800 
 31 H        4.3400     2.8690     2.2400 H     1 <1>   0.0800 
 32 H        4.6280    -0.4950    -0.7620 H     1 <1>   0.0800 
 33 H        5.7610    -1.5810    -0.0490 H     1 <1>   0.0800 
 34 H       -0.2090    -1.0240    -3.2650 H     1 <1>   0.3700 
 35 H        1.0170    -1.3910    -2.0700 H     1 <1>   0.3700 
 36 H        4.2810     1.3680     0.3500 H     1 <1>   0.4500 
 37 H        6.7680     0.6050    -0.2250 H     1 <1>   0.0800 
 38 H        6.5680     0.2170     1.4670 H     1 <1>   0.0800 
 39 H        5.9530     2.4970    -1.0540 H     1 <1>   0.0800 
 40 H        6.5650     3.2510     0.3990 H     1 <1>   0.0800 
 41 H        4.4200     4.3460     0.7800 H     1 <1>   0.0800 
 42 H        3.6690     3.4150    -0.4960 H     1 <1>   0.0800 
 43 H        5.0620     4.5500    -2.1690 H     1 <1>   0.0800 
 44 H        5.9000     5.4200    -0.9160 H     1 <1>   0.0800 
 45 H        4.9390     7.3960     0.0700 H     1 <1>   0.1500 
 46 H        2.5670     4.9270    -2.4880 H     1 <1>   0.1500 
 47 H        3.1870     9.1020     0.0370 H     1 <1>   0.1500 
 48 H        0.8210     6.6400    -2.5090 H     1 <1>   0.1500 
 49 H        1.1240     8.7310    -1.2490 H     1 <1>   0.1500 
@<TRIPOS>BOND
  1   1   2  1   
  2   1   3  1   
  3   2   4  2   
  4   2   5  1   
  5   3   6  2   
  6   3  25  1   
  7   4   6  1   
  8   5   7  1   
  9   5   8  1   
 10   6   9  1   
 11   7  10  1   
 12   7  26  1   
 13   7  27  1   
 14   8  11  1   
 15   8  28  1   
 16   8  29  1   
 17   9  12  2   
 18   9  13  am  
 19  10  14  1   
 20  10  30  1   
 21  10  31  1   
 22  11  15  1   
 23  11  32  1   
 24  11  33  1   
 25  13  34  1   
 26  13  35  1   
 27  14  15  1   
 28  14  16  1   
 29  14  36  1   
 30  15  37  1   
 31  15  38  1   
 32  16  17  1   
 33  16  39  1   
 34  16  40  1   
 35  17  18  1   
 36  17  41  1   
 37  17  42  1   
 38  18  19  1   
 39  18  43  1   
 40  18  44  1   
 41  19  20  ar  
 42  19  21  ar  
 43  20  22  ar  
 44  20  45  1   
 45  21  23  ar  
 46  21  46  1   
 47  22  24  ar  
 48  22  47  1   
 49  23  24  ar  
 50  23  48  1   
 51  24  49  1   
@<TRIPOS>SUBSTRUCTURE
  1 ****  17 GROUP 4 **** **** 0

# MOE 2024.06 (io_trps.svl 2023.06)
