@<TRIPOS>MOLECULE
NONAME
44 46 1 0 0 
SMALL
USER_CHARGES


@<TRIPOS>ATOM
  1 F        0.9210     0.6220    -0.7920 F     1 <1>  -0.1900 
  2 C        1.7890     1.3870    -0.1850 C.ar  1 <1>   0.1900 
  3 C        2.5690     0.8590     0.8310 C.ar  1 <1>   0.1600 
  4 C        1.9100     2.7000    -0.5720 C.ar  1 <1>  -0.1500 
  5 N        3.4710     1.5680     1.4990 N.ar  1 <1>  -0.6200 
  6 C        2.8540     3.4590     0.1060 C.ar  1 <1>   0.0860 
  7 C        3.5760     2.8380     1.1270 C.ar  1 <1>   0.1600 
  8 C        3.0960     4.8450    -0.2180 C.2   1 <1>   0.5440 
  9 O        2.2020     5.6500    -0.0490 O.2   1 <1>  -0.5700 
 10 N        4.3140     5.2700    -0.7020 N.am  1 <1>  -0.6600 
 11 C        5.4030     4.3590    -1.1830 C.3   1 <1>   0.1400 
 12 C        4.6000     6.7140    -0.9270 C.3   1 <1>   0.1400 
 13 C        6.6320     4.3770    -0.2610 C.3   1 <1>   0.1400 
 14 C        5.2310     7.3460     0.3180 C.3   1 <1>  -0.1600 
 15 N        7.1550     5.7630    -0.0480 N.am  1 <1>  -0.6600 
 16 C        6.3970     6.5690     0.9500 C.3   1 <1>   0.1400 
 17 C        8.2160     6.2590    -0.7900 C.2   1 <1>   0.5440 
 18 O        8.6990     5.5330    -1.6450 O.2   1 <1>  -0.5700 
 19 C        8.7890     7.5870    -0.5590 C.ar  1 <1>   0.3960 
 20 N        8.0680     8.6710    -0.9000 N.ar  1 <1>  -0.6200 
 21 C       10.0650     7.7040     0.0180 C.ar  1 <1>  -0.1430 
 22 C        8.6130     9.8510    -0.6830 C.ar  1 <1>   0.1600 
 23 C       10.6110     8.9520     0.2390 C.ar  1 <1>  -0.1500 
 24 C       10.8760     6.4720     0.4080 C.3   1 <1>  -0.0970 
 25 C        9.8610    10.0460    -0.1230 C.ar  1 <1>  -0.1500 
 26 H        2.4410    -0.1750     1.0990 H     1 <1>   0.1500 
 27 H        1.3070     3.1210    -1.3560 H     1 <1>   0.1500 
 28 H        4.2850     3.4410     1.6670 H     1 <1>   0.1500 
 29 H        5.7120     4.6640    -2.1680 H     1 <1>   0.0800 
 30 H        5.0420     3.3500    -1.2660 H     1 <1>   0.0800 
 31 H        3.6910     7.2370    -1.1750 H     1 <1>   0.0800 
 32 H        5.2720     6.8240    -1.7610 H     1 <1>   0.0800 
 33 H        7.3990     3.7600    -0.6960 H     1 <1>   0.0800 
 34 H        6.3800     3.9390     0.6880 H     1 <1>   0.0800 
 35 H        4.4660     7.4840     1.0610 H     1 <1>   0.0800 
 36 H        5.5740     8.3280     0.0500 H     1 <1>   0.0800 
 37 H        6.0030     5.9050     1.7000 H     1 <1>   0.0800 
 38 H        7.0580     7.2560     1.4490 H     1 <1>   0.0800 
 39 H        8.0350    10.7150    -0.9660 H     1 <1>   0.1500 
 40 H       11.5870     9.0760     0.6760 H     1 <1>   0.1500 
 41 H       10.2990     5.8330     1.0530 H     1 <1>   0.0800 
 42 H       11.7790     6.7460     0.9240 H     1 <1>   0.0800 
 43 H       11.1470     5.9170    -0.4740 H     1 <1>   0.0800 
 44 H       10.2380    11.0420     0.0230 H     1 <1>   0.1500 
@<TRIPOS>BOND
  1   1   2  1   
  2   2   3  ar  
  3   2   4  ar  
  4   3   5  ar  
  5   3  26  1   
  6   4   6  ar  
  7   4  27  1   
  8   5   7  ar  
  9   6   7  ar  
 10   6   8  1   
 11   7  28  1   
 12   8   9  2   
 13   8  10  am  
 14  10  11  1   
 15  10  12  1   
 16  11  13  1   
 17  11  29  1   
 18  11  30  1   
 19  12  14  1   
 20  12  31  1   
 21  12  32  1   
 22  13  15  1   
 23  13  33  1   
 24  13  34  1   
 25  14  16  1   
 26  14  35  1   
 27  14  36  1   
 28  15  16  1   
 29  15  17  am  
 30  16  37  1   
 31  16  38  1   
 32  17  18  2   
 33  17  19  1   
 34  19  20  ar  
 35  19  21  ar  
 36  20  22  ar  
 37  21  23  ar  
 38  21  24  1   
 39  22  25  ar  
 40  22  39  1   
 41  23  25  ar  
 42  23  40  1   
 43  24  41  1   
 44  24  42  1   
 45  24  43  1   
 46  25  44  1   
@<TRIPOS>SUBSTRUCTURE
  1 ****  13 GROUP 4 **** **** 0

# MOE 2024.06 (io_trps.svl 2023.06)
