@<TRIPOS>MOLECULE
NONAME
45 46 1 0 0 
SMALL
USER_CHARGES


@<TRIPOS>ATOM
  1 O       -0.0600    -0.2290     0.7480 O.2   1 <1>  -0.5700 
  2 C        0.9910    -0.8070     0.5430 C.2   1 <1>   0.5440 
  3 N        2.1330    -0.1010     0.2630 N.am  1 <1>  -0.4930 
  4 C        1.0520    -2.2540     0.6160 C.ar  1 <1>   0.0860 
  5 C        2.3180     1.2940     0.0770 C.2   1 <1>   0.0630 
  6 C        1.8590    -3.0030    -0.2430 C.ar  1 <1>  -0.1500 
  7 C        0.2990    -2.9540     1.5580 C.ar  1 <1>  -0.1500 
  8 C        3.5320     1.9640    -0.0950 C.2   1 <1>   0.1080 
  9 C        1.3900     2.2710     0.0170 C.2   1 <1>  -0.3020 
 10 C        1.9220    -4.3820    -0.1530 C.ar  1 <1>  -0.1500 
 11 C        0.3580    -4.3320     1.6510 C.ar  1 <1>  -0.1500 
 12 N        3.3750     3.2430    -0.2500 N.2   1 <1>  -0.7070 
 13 C        4.8990     1.3180    -0.1050 C.3   1 <1>  -0.0590 
 14 N        2.0460     3.4320    -0.1780 N.pl3 1 <1>   0.3140 
 15 C        1.1730    -5.0560     0.7970 C.ar  1 <1>  -0.1430 
 16 C        1.4410     4.7610    -0.3040 C.3   1 <1>   0.0160 
 17 C        1.2310    -6.5720     0.8930 C.3   1 <1>  -0.0170 
 18 C        0.1860    -7.2000    -0.0450 C.3   1 <1>  -0.1600 
 19 C        0.0790    -8.7340     0.0290 C.3   1 <1>   0.2800 
 20 O       -0.2150    -9.0850     1.3200 O.3   1 <1>  -0.6800 
 21 C       -1.0720    -9.2420    -0.8360 C.3   1 <1>  -0.2400 
 22 C        1.3800    -9.4460    -0.3360 C.3   1 <1>  -0.2400 
 23 H        2.9890    -0.6480     0.2280 H     1 <1>   0.3700 
 24 H        2.4380    -2.5050    -1.0010 H     1 <1>   0.1500 
 25 H       -0.3420    -2.4020     2.2240 H     1 <1>   0.1500 
 26 H        0.3230     2.1960     0.1020 H     1 <1>   0.1500 
 27 H        2.5520    -4.9330    -0.8290 H     1 <1>   0.1500 
 28 H       -0.2360    -4.8410     2.3910 H     1 <1>   0.1500 
 29 H        5.0470     0.7600     0.8000 H     1 <1>   0.0800 
 30 H        5.6580     2.0770    -0.1730 H     1 <1>   0.0800 
 31 H        4.9860     0.6650    -0.9530 H     1 <1>   0.0800 
 32 H        0.7520     4.9140     0.5050 H     1 <1>   0.0800 
 33 H        0.9250     4.8230    -1.2440 H     1 <1>   0.0800 
 34 H        2.2150     5.5050    -0.2660 H     1 <1>   0.0800 
 35 H        1.0460    -6.8730     1.9100 H     1 <1>   0.0800 
 36 H        2.2180    -6.9060     0.6310 H     1 <1>   0.0800 
 37 H        0.4260    -6.9220    -1.0550 H     1 <1>   0.0800 
 38 H       -0.7760    -6.7720     0.1750 H     1 <1>   0.0800 
 39 H       -1.0930    -8.7380     1.5570 H     1 <1>   0.4000 
 40 H       -1.9980    -8.7680    -0.5630 H     1 <1>   0.0800 
 41 H       -1.1760   -10.3070    -0.7340 H     1 <1>   0.0800 
 42 H       -0.8760    -9.0220    -1.8710 H     1 <1>   0.0800 
 43 H        2.1640    -9.1960     0.3550 H     1 <1>   0.0800 
 44 H        1.6910    -9.1670    -1.3260 H     1 <1>   0.0800 
 45 H        1.2380   -10.5110    -0.3150 H     1 <1>   0.0800 
@<TRIPOS>BOND
  1   1   2  2   
  2   2   3  am  
  3   2   4  1   
  4   3   5  1   
  5   3  23  1   
  6   4   6  ar  
  7   4   7  ar  
  8   5   8  1   
  9   5   9  2   
 10   6  10  ar  
 11   6  24  1   
 12   7  11  ar  
 13   7  25  1   
 14   8  12  2   
 15   8  13  1   
 16   9  14  1   
 17   9  26  1   
 18  10  15  ar  
 19  10  27  1   
 20  11  15  ar  
 21  11  28  1   
 22  12  14  1   
 23  13  29  1   
 24  13  30  1   
 25  13  31  1   
 26  14  16  1   
 27  15  17  1   
 28  16  32  1   
 29  16  33  1   
 30  16  34  1   
 31  17  18  1   
 32  17  35  1   
 33  17  36  1   
 34  18  19  1   
 35  18  37  1   
 36  18  38  1   
 37  19  20  1   
 38  19  21  1   
 39  19  22  1   
 40  20  39  1   
 41  21  40  1   
 42  21  41  1   
 43  21  42  1   
 44  22  43  1   
 45  22  44  1   
 46  22  45  1   
@<TRIPOS>SUBSTRUCTURE
  1 ****   4 GROUP 4 **** **** 0

# MOE 2024.06 (io_trps.svl 2023.06)
