@<TRIPOS>MOLECULE
NONAME
49 51 1 0 0 
SMALL
USER_CHARGES


@<TRIPOS>ATOM
  1 CL       0.1340     1.2370     1.4930 Cl    1 <1>  -0.1770 
  2 C       -1.0670     2.3400     0.8640 C.ar  1 <1>   0.1770 
  3 C       -0.8550     3.0070    -0.3360 C.ar  1 <1>  -0.1440 
  4 C       -2.2280     2.5190     1.5930 C.ar  1 <1>  -0.1500 
  5 C       -1.8470     3.8570    -0.8040 C.ar  1 <1>  -0.1500 
  6 C        0.4260     2.8170    -1.1340 C.3   1 <1>   0.2140 
  7 C       -3.2060     3.3760     1.1190 C.ar  1 <1>  -0.1500 
  8 C       -3.0140     4.0420    -0.0790 C.ar  1 <1>  -0.1500 
  9 S        1.7640     3.8080    -0.3970 S.3   1 <1>  -0.4600 
 10 C        1.0070     5.4370    -0.0380 C.3   1 <1>   0.1310 
 11 C        1.9870     6.4030     0.6290 C.2   1 <1>   0.5690 
 12 O        1.5500     7.1880     1.4390 O.2   1 <1>  -0.5700 
 13 N        3.3120     6.4740     0.2900 N.am  1 <1>  -0.6600 
 14 C        4.3240     6.9500     1.3040 C.3   1 <1>   0.1400 
 15 C        3.7800     6.4030    -1.1250 C.3   1 <1>   0.1400 
 16 C        4.6980     8.4440     1.1260 C.3   1 <1>   0.4230 
 17 C        4.2640     7.7650    -1.6920 C.3   1 <1>  -0.0800 
 18 N        3.5650     9.1170     0.3910 N.4   1 <1>  -0.9590 
 19 C        6.1070     8.5960     0.4940 C.3   1 <1>   0.1200 
 20 C        5.7950     7.8850    -1.7310 C.3   1 <1>   0.1200 
 21 C        3.6420     9.0500    -1.1020 C.3   1 <1>   0.3430 
 22 C        3.3980    10.5600     0.8470 C.3   1 <1>   0.2370 
 23 O        6.3540     7.6300    -0.4890 O.3   1 <1>  -0.5600 
 24 C        4.6160    11.4530     0.6060 C.2   1 <1>   0.9060 
 25 O        5.4550    11.5330     1.5070 O.co2 1 <1>  -0.9000 
 26 O        4.7850    11.9080    -0.5290 O.co2 1 <1>  -0.9000 
 27 H       -2.3610     1.9910     2.5200 H     1 <1>   0.1500 
 28 H       -1.7210     4.3810    -1.7360 H     1 <1>   0.1500 
 29 H        0.3100     3.1460    -2.1510 H     1 <1>   0.0800 
 30 H        0.7510     1.7910    -1.1260 H     1 <1>   0.0800 
 31 H       -4.1130     3.5230     1.6800 H     1 <1>   0.1500 
 32 H       -3.7770     4.7060    -0.4490 H     1 <1>   0.1500 
 33 H        0.6480     5.8410    -0.9650 H     1 <1>   0.0800 
 34 H        0.1810     5.2610     0.6270 H     1 <1>   0.0800 
 35 H        3.9120     6.8270     2.2910 H     1 <1>   0.0800 
 36 H        5.2010     6.3280     1.2610 H     1 <1>   0.0800 
 37 H        4.5700     5.6730    -1.1930 H     1 <1>   0.0800 
 38 H        2.9750     6.0490    -1.7440 H     1 <1>   0.0800 
 39 H        4.7620     8.8850     2.1070 H     1 <1>   0.0800 
 40 H        3.9810     7.7690    -2.7280 H     1 <1>   0.0800 
 41 H        2.7360     8.5680     0.6860 H     1 <1>   0.4500 
 42 H        6.8390     8.4360     1.2650 H     1 <1>   0.0800 
 43 H        6.2800     9.5780     0.0890 H     1 <1>   0.0800 
 44 H        6.1120     8.8620    -2.0610 H     1 <1>   0.0800 
 45 H        6.2020     7.1540    -2.4090 H     1 <1>   0.0800 
 46 H        2.6450     9.1620    -1.4950 H     1 <1>   0.0800 
 47 H        4.2160     9.8900    -1.4610 H     1 <1>   0.0800 
 48 H        2.5670    11.0100     0.3370 H     1 <1>   0.0800 
 49 H        3.1980    10.5840     1.9030 H     1 <1>   0.0800 
@<TRIPOS>BOND
  1   1   2  1   
  2   2   3  ar  
  3   2   4  ar  
  4   3   5  ar  
  5   3   6  1   
  6   4   7  ar  
  7   4  27  1   
  8   5   8  ar  
  9   5  28  1   
 10   6   9  1   
 11   6  29  1   
 12   6  30  1   
 13   7   8  ar  
 14   7  31  1   
 15   8  32  1   
 16   9  10  1   
 17  10  11  1   
 18  10  33  1   
 19  10  34  1   
 20  11  12  2   
 21  11  13  am  
 22  13  14  1   
 23  13  15  1   
 24  14  16  1   
 25  14  35  1   
 26  14  36  1   
 27  15  17  1   
 28  15  37  1   
 29  15  38  1   
 30  16  18  1   
 31  16  19  1   
 32  16  39  1   
 33  17  20  1   
 34  17  21  1   
 35  17  40  1   
 36  18  21  1   
 37  18  22  1   
 38  18  41  1   
 39  19  23  1   
 40  19  42  1   
 41  19  43  1   
 42  20  23  1   
 43  20  44  1   
 44  20  45  1   
 45  21  46  1   
 46  21  47  1   
 47  22  24  1   
 48  22  48  1   
 49  22  49  1   
 50  24  25  ar  
 51  24  26  ar  
@<TRIPOS>SUBSTRUCTURE
  1 ****  11 GROUP 4 **** **** 0

# MOE 2024.06 (io_trps.svl 2023.06)
