@<TRIPOS>MOLECULE
NONAME
40 41 1 0 0 
SMALL
USER_CHARGES


@<TRIPOS>ATOM
  1 O       -0.5130     0.0730    -0.1380 O.3   1 <1>  -0.3630 
  2 C       -0.3470     1.4130     0.0050 C.ar  1 <1>   0.0830 
  3 C       -1.7920    -0.5070    -0.1820 C.3   1 <1>   0.1200 
  4 C        0.9530     1.8860    -0.0230 C.ar  1 <1>  -0.1500 
  5 C       -1.4000     2.3100     0.1740 C.ar  1 <1>  -0.1500 
  6 C       -1.5960    -2.0150    -0.3710 C.3   1 <1>   0.3430 
  7 C        1.2200     3.2370     0.1120 C.ar  1 <1>   0.0830 
  8 C       -1.1380     3.6630     0.3090 C.ar  1 <1>  -0.1500 
  9 N       -2.8930    -2.7640    -0.4450 N.4   1 <1>  -0.9590 
 10 O        2.5240     3.6100     0.0710 O.3   1 <1>  -0.3630 
 11 C        0.1640     4.1300     0.2790 C.ar  1 <1>  -0.1500 
 12 C       -2.6950    -4.2420    -0.2890 C.3   1 <1>   0.4860 
 13 C       -3.7090    -2.4450    -1.6600 C.3   1 <1>   0.2630 
 14 C        2.9050     4.9620     0.2010 C.3   1 <1>   0.0400 
 15 C       -3.9680    -4.8650     0.2760 C.ar  1 <1>   0.1660 
 16 N       -4.6620    -4.1280     1.1380 N.ar  1 <1>  -0.6200 
 17 C       -4.3440    -6.1440    -0.1260 C.ar  1 <1>   0.1600 
 18 C       -5.7430    -4.7620     1.5730 C.ar  1 <1>   0.1600 
 19 N       -5.4270    -6.7650     0.3020 N.ar  1 <1>  -0.6200 
 20 C       -6.1140    -6.0390     1.1670 C.ar  1 <1>   0.1600 
 21 H       -2.3220    -0.0720    -1.0100 H     1 <1>   0.0800 
 22 H       -2.2870    -0.2980     0.7500 H     1 <1>   0.0800 
 23 H        1.7700     1.2010    -0.1510 H     1 <1>   0.1500 
 24 H       -2.4220     1.9860     0.2050 H     1 <1>   0.1500 
 25 H       -1.0200    -2.3790     0.4640 H     1 <1>   0.0800 
 26 H       -1.0300    -2.1800    -1.2730 H     1 <1>   0.0800 
 27 H       -1.9500     4.3570     0.4400 H     1 <1>   0.1500 
 28 H       -3.4750    -2.5400     0.3870 H     1 <1>   0.4500 
 29 H        0.3370     5.1840     0.3860 H     1 <1>   0.1500 
 30 H       -1.8980    -4.4270     0.4110 H     1 <1>   0.0800 
 31 H       -2.4370    -4.6940    -1.2320 H     1 <1>   0.0800 
 32 H       -3.1710    -2.7080    -2.5560 H     1 <1>   0.0800 
 33 H       -3.9400    -1.3930    -1.6920 H     1 <1>   0.0800 
 34 H       -4.6370    -2.9940    -1.6390 H     1 <1>   0.0800 
 35 H        3.9770     5.0130     0.1390 H     1 <1>   0.0800 
 36 H        2.5770     5.3270     1.1580 H     1 <1>   0.0800 
 37 H        2.4660     5.5270    -0.6010 H     1 <1>   0.0800 
 38 H       -3.7330    -6.6860    -0.8280 H     1 <1>   0.1500 
 39 H       -6.3700    -4.2510     2.2850 H     1 <1>   0.1500 
 40 H       -7.0110    -6.4740     1.5730 H     1 <1>   0.1500 
@<TRIPOS>BOND
  1   1   2  1   
  2   1   3  1   
  3   2   4  ar  
  4   2   5  ar  
  5   3   6  1   
  6   3  21  1   
  7   3  22  1   
  8   4   7  ar  
  9   4  23  1   
 10   5   8  ar  
 11   5  24  1   
 12   6   9  1   
 13   6  25  1   
 14   6  26  1   
 15   7  10  1   
 16   7  11  ar  
 17   8  11  ar  
 18   8  27  1   
 19   9  12  1   
 20   9  13  1   
 21   9  28  1   
 22  10  14  1   
 23  11  29  1   
 24  12  15  1   
 25  12  30  1   
 26  12  31  1   
 27  13  32  1   
 28  13  33  1   
 29  13  34  1   
 30  14  35  1   
 31  14  36  1   
 32  14  37  1   
 33  15  16  ar  
 34  15  17  ar  
 35  16  18  ar  
 36  17  19  ar  
 37  17  38  1   
 38  18  20  ar  
 39  18  39  1   
 40  19  20  ar  
 41  20  40  1   
@<TRIPOS>SUBSTRUCTURE
  1 ****   3 GROUP 4 **** **** 0

# MOE 2024.06 (io_trps.svl 2023.06)
