@<TRIPOS>MOLECULE
NONAME
46 49 1 0 0 
SMALL
USER_CHARGES


@<TRIPOS>ATOM
  1 N       -0.6000    -1.7250    -1.3610 N.ar  1 <1>  -0.6200 
  2 C       -0.2390    -2.0740    -0.1430 C.ar  1 <1>   0.4100 
  3 C        0.3710    -1.2810    -2.1320 C.ar  1 <1>   0.4700 
  4 N       -1.2390    -2.5780     0.6610 N.pl3 1 <1>  -0.8380 
  5 C        1.0800    -1.9630     0.2910 C.ar  1 <1>  -0.1440 
  6 N        1.6500    -1.1490    -1.8450 N.ar  1 <1>  -0.6200 
  7 C       -1.3510    -4.0620     0.7560 C.3   1 <1>   0.2090 
  8 C       -2.5400    -1.8520     0.7220 C.3   1 <1>   0.2090 
  9 C        1.9990    -1.4990    -0.6240 C.ar  1 <1>   0.1670 
 10 C        1.4730    -2.3340     1.7230 C.3   1 <1>  -0.0960 
 11 C       -2.3950    -4.6260    -0.2290 C.3   1 <1>   0.2090 
 12 C       -3.5770    -2.4510    -0.2540 C.3   1 <1>   0.2090 
 13 C        3.4780    -1.3460    -0.3120 C.3   1 <1>  -0.0960 
 14 N       -3.7380    -3.9460    -0.0890 N.pl3 1 <1>  -0.8380 
 15 C       -4.8920    -4.6060     0.1630 C.ar  1 <1>   0.4610 
 16 N       -5.7860    -3.9840     0.9400 N.ar  1 <1>  -0.1790 
 17 C       -5.2060    -5.9440    -0.2810 C.ar  1 <1>   0.0000 
 18 C       -6.8960    -4.5970     1.4720 C.ar  1 <1>   0.2110 
 19 C       -6.3070    -6.6130     0.2980 C.ar  1 <1>   0.0000 
 20 C       -4.5190    -6.6200    -1.3080 C.ar  1 <1>  -0.1500 
 21 C       -7.1500    -5.8930     1.1850 C.ar  1 <1>  -0.1500 
 22 C       -6.5800    -7.9430    -0.0460 C.ar  1 <1>  -0.1500 
 23 C       -4.8140    -7.9160    -1.6510 C.ar  1 <1>  -0.1500 
 24 C       -5.8400    -8.5910    -1.0010 C.ar  1 <1>  -0.1500 
 25 H        0.0840    -0.9890    -3.1280 H     1 <1>   0.1500 
 26 H       -1.6220    -4.3310     1.7620 H     1 <1>   0.0800 
 27 H       -0.3940    -4.5080     0.5450 H     1 <1>   0.0800 
 28 H       -2.3800    -0.8150     0.4760 H     1 <1>   0.0800 
 29 H       -2.9160    -1.8950     1.7280 H     1 <1>   0.0800 
 30 H        0.6360    -2.2330     2.3910 H     1 <1>   0.0800 
 31 H        2.2490    -1.6880     2.0890 H     1 <1>   0.0800 
 32 H        1.8180    -3.3510     1.7560 H     1 <1>   0.0800 
 33 H       -2.4800    -5.6810    -0.0390 H     1 <1>   0.0800 
 34 H       -2.0270    -4.4900    -1.2320 H     1 <1>   0.0800 
 35 H       -3.2360    -2.2530    -1.2570 H     1 <1>   0.0800 
 36 H       -4.5150    -1.9400    -0.1400 H     1 <1>   0.0800 
 37 H        3.8170    -2.1230     0.3470 H     1 <1>   0.0800 
 38 H        3.6520    -0.3890     0.1420 H     1 <1>   0.0800 
 39 H        4.0530    -1.4060    -1.2180 H     1 <1>   0.0800 
 40 H       -5.5410    -3.0400     1.2260 H     1 <1>   0.4570 
 41 H       -7.5300    -4.0170     2.1250 H     1 <1>   0.1500 
 42 H       -3.7470    -6.1150    -1.8570 H     1 <1>   0.1500 
 43 H       -8.0000    -6.4060     1.6040 H     1 <1>   0.1500 
 44 H       -7.3900    -8.4610     0.4380 H     1 <1>   0.1500 
 45 H       -4.2620    -8.4200    -2.4270 H     1 <1>   0.1500 
 46 H       -6.0550    -9.6140    -1.2660 H     1 <1>   0.1500 
@<TRIPOS>BOND
  1   1   2  ar  
  2   1   3  ar  
  3   2   4  1   
  4   2   5  ar  
  5   3   6  ar  
  6   3  25  1   
  7   4   7  1   
  8   4   8  1   
  9   5   9  ar  
 10   5  10  1   
 11   6   9  ar  
 12   7  11  1   
 13   7  26  1   
 14   7  27  1   
 15   8  12  1   
 16   8  28  1   
 17   8  29  1   
 18   9  13  1   
 19  10  30  1   
 20  10  31  1   
 21  10  32  1   
 22  11  14  1   
 23  11  33  1   
 24  11  34  1   
 25  12  14  1   
 26  12  35  1   
 27  12  36  1   
 28  13  37  1   
 29  13  38  1   
 30  13  39  1   
 31  14  15  1   
 32  15  16  ar  
 33  15  17  ar  
 34  16  18  ar  
 35  16  40  1   
 36  17  19  ar  
 37  17  20  ar  
 38  18  21  ar  
 39  18  41  1   
 40  19  21  ar  
 41  19  22  ar  
 42  20  23  ar  
 43  20  42  1   
 44  21  43  1   
 45  22  24  ar  
 46  22  44  1   
 47  23  24  ar  
 48  23  45  1   
 49  24  46  1   
@<TRIPOS>SUBSTRUCTURE
  1 ****  11 GROUP 4 **** **** 0

# MOE 2024.06 (io_trps.svl 2023.06)
