@<TRIPOS>MOLECULE
NONAME
50 52 1 0 0 
SMALL
USER_CHARGES


@<TRIPOS>ATOM
  1 O        0.6090    -0.1880    -0.6820 O.2   1 <1>  -0.5700 
  2 C        1.6830    -0.7090    -0.4200 C.2   1 <1>   0.5440 
  3 N        2.7060     0.1230     0.0220 N.am  1 <1>  -0.6600 
  4 C        1.8090    -2.1680    -0.5570 C.ar  1 <1>   0.3960 
  5 C        3.8850    -0.4350     0.7660 C.3   1 <1>   0.1400 
  6 C        2.6000     1.6010    -0.1780 C.3   1 <1>   0.1400 
  7 N        2.9730    -2.7220    -0.9470 N.ar  1 <1>  -0.6200 
  8 C        0.6970    -2.9630    -0.2830 C.ar  1 <1>  -0.1500 
  9 C        4.4820     0.5070     1.8200 C.3   1 <1>   0.1400 
 10 C        3.9140     2.2500    -0.6240 C.3   1 <1>  -0.1600 
 11 C        3.0150    -4.0370    -1.0550 C.ar  1 <1>   0.1600 
 12 C        0.7520    -4.3340    -0.3950 C.ar  1 <1>   0.0830 
 13 N        5.4280     1.4790     1.2000 N.am  1 <1>  -0.6600 
 14 C        4.8190     2.6610     0.5400 C.3   1 <1>   0.1400 
 15 C        1.9550    -4.8830    -0.7960 C.ar  1 <1>  -0.1500 
 16 O       -0.3610    -5.0440    -0.1110 O.3   1 <1>  -0.3630 
 17 C        6.7760     1.1820     1.1090 C.2   1 <1>   0.7160 
 18 C       -0.3980    -6.4480    -0.2420 C.3   1 <1>   0.0400 
 19 O        7.1340     0.0370     1.3310 O.2   1 <1>  -0.5700 
 20 C        7.7560     2.1900     0.7580 C.2   1 <1>  -0.0860 
 21 C        8.7370     2.1760    -0.2060 C.2   1 <1>  -0.3320 
 22 C        7.8840     3.4410     1.3940 C.2   1 <1>  -0.1500 
 23 N        9.4310     3.3410    -0.1840 N.pl3 1 <1>   0.0480 
 24 C        9.0470     1.0470    -1.1770 C.3   1 <1>  -0.0600 
 25 C        8.9000     4.1110     0.7990 C.2   1 <1>  -0.3020 
 26 C       10.5650     3.7190    -1.0440 C.3   1 <1>   0.0160 
 27 H        4.6530    -0.7170     0.0650 H     1 <1>   0.0800 
 28 H        3.5740    -1.3280     1.2780 H     1 <1>   0.0800 
 29 H        2.2390     2.0590     0.7270 H     1 <1>   0.0800 
 30 H        1.8690     1.7970    -0.9450 H     1 <1>   0.0800 
 31 H       -0.2240    -2.5000     0.0200 H     1 <1>   0.1500 
 32 H        5.0190    -0.0870     2.5380 H     1 <1>   0.0800 
 33 H        3.7010     1.0220     2.3500 H     1 <1>   0.0800 
 34 H        3.6600     3.1500    -1.1530 H     1 <1>   0.0800 
 35 H        4.4390     1.6140    -1.3150 H     1 <1>   0.0800 
 36 H        3.9510    -4.4670    -1.3700 H     1 <1>   0.1500 
 37 H        4.2600     3.2250     1.2670 H     1 <1>   0.0800 
 38 H        5.5860     3.3060     0.1490 H     1 <1>   0.0800 
 39 H        2.0850    -5.9410    -0.9120 H     1 <1>   0.1500 
 40 H       -1.3840    -6.7820     0.0240 H     1 <1>   0.0800 
 41 H        0.3260    -6.8800     0.4260 H     1 <1>   0.0800 
 42 H       -0.1860    -6.7090    -1.2640 H     1 <1>   0.0800 
 43 H        7.2670     3.7710     2.2110 H     1 <1>   0.1500 
 44 H        8.3680     0.2260    -1.0340 H     1 <1>   0.0800 
 45 H       10.0470     0.6880    -1.0180 H     1 <1>   0.0800 
 46 H        8.9510     1.3920    -2.1910 H     1 <1>   0.0800 
 47 H        9.2760     5.0920     1.0270 H     1 <1>   0.1500 
 48 H       11.3660     3.0170    -0.9010 H     1 <1>   0.0800 
 49 H       10.9020     4.7060    -0.7850 H     1 <1>   0.0800 
 50 H       10.2500     3.7060    -2.0710 H     1 <1>   0.0800 
@<TRIPOS>BOND
  1   1   2  2   
  2   2   3  am  
  3   2   4  1   
  4   3   5  1   
  5   3   6  1   
  6   4   7  ar  
  7   4   8  ar  
  8   5   9  1   
  9   5  27  1   
 10   5  28  1   
 11   6  10  1   
 12   6  29  1   
 13   6  30  1   
 14   7  11  ar  
 15   8  12  ar  
 16   8  31  1   
 17   9  13  1   
 18   9  32  1   
 19   9  33  1   
 20  10  14  1   
 21  10  34  1   
 22  10  35  1   
 23  11  15  ar  
 24  11  36  1   
 25  12  15  ar  
 26  12  16  1   
 27  13  14  1   
 28  13  17  am  
 29  14  37  1   
 30  14  38  1   
 31  15  39  1   
 32  16  18  1   
 33  17  19  2   
 34  17  20  1   
 35  18  40  1   
 36  18  41  1   
 37  18  42  1   
 38  20  21  2   
 39  20  22  1   
 40  21  23  1   
 41  21  24  1   
 42  22  25  2   
 43  22  43  1   
 44  23  25  1   
 45  23  26  1   
 46  24  44  1   
 47  24  45  1   
 48  24  46  1   
 49  25  47  1   
 50  26  48  1   
 51  26  49  1   
 52  26  50  1   
@<TRIPOS>SUBSTRUCTURE
  1 ****   5 GROUP 4 **** **** 0

# MOE 2024.06 (io_trps.svl 2023.06)
