@<TRIPOS>MOLECULE
NONAME
39 41 1 0 0 
SMALL
USER_CHARGES


@<TRIPOS>ATOM
  1 CL      -0.1030    -0.9030    -0.9260 Cl    1 <1>  -0.1770 
  2 C       -1.7050    -1.3260    -0.3710 C.ar  1 <1>   0.1770 
  3 C       -2.3810    -2.3890    -0.9470 C.ar  1 <1>   0.1600 
  4 C       -2.2860    -0.5910     0.6400 C.ar  1 <1>  -0.1500 
  5 N       -3.5990    -2.7920    -0.5970 N.ar  1 <1>  -0.6200 
  6 C       -3.5440    -1.0050     1.0030 C.ar  1 <1>   0.1900 
  7 C       -4.1790    -2.0980     0.3860 C.ar  1 <1>   0.4100 
  8 F       -4.1540    -0.3390     1.9560 F     1 <1>  -0.1900 
  9 N       -5.4520    -2.5100     0.7530 N.pl3 1 <1>  -0.8380 
 10 C       -6.5700    -2.0570    -0.1230 C.3   1 <1>   0.2090 
 11 C       -5.6570    -3.9540     1.0330 C.3   1 <1>   0.2090 
 12 C       -7.4470    -3.2890    -0.4110 C.3   1 <1>   0.2000 
 13 C       -6.5180    -4.4660    -0.1190 C.3   1 <1>  -0.0800 
 14 O       -8.5340    -3.3420     0.4720 O.3   1 <1>  -0.5600 
 15 C       -7.2240    -5.7980     0.1870 C.3   1 <1>   0.0200 
 16 C       -9.6380    -2.5780     0.1030 C.3   1 <1>   0.0400 
 17 C       -6.2530    -6.9630     0.2950 C.2   1 <1>  -0.0400 
 18 O       -6.6970    -8.1220     0.7010 O.3   1 <1>  -0.0190 
 19 C       -4.9390    -7.0930     0.0470 C.2   1 <1>  -0.1500 
 20 N       -5.7540    -9.0190     0.7410 N.2   1 <1>  -0.4100 
 21 C       -4.6830    -8.4270     0.3520 C.2   1 <1>   0.1080 
 22 C       -3.3320    -9.0960     0.2440 C.3   1 <1>  -0.0590 
 23 H       -1.8910    -2.9340    -1.7360 H     1 <1>   0.1500 
 24 H       -1.7930     0.2400     1.1070 H     1 <1>   0.1500 
 25 H       -7.1310    -1.2800     0.3640 H     1 <1>   0.0800 
 26 H       -6.1690    -1.6800    -1.0470 H     1 <1>   0.0800 
 27 H       -4.7210    -4.4810     1.1010 H     1 <1>   0.0800 
 28 H       -6.1840    -4.0510     1.9670 H     1 <1>   0.0800 
 29 H       -7.8110    -3.3080    -1.4240 H     1 <1>   0.0800 
 30 H       -5.8790    -4.5960    -0.9740 H     1 <1>   0.0800 
 31 H       -7.9310    -6.0160    -0.5930 H     1 <1>   0.0800 
 32 H       -7.7710    -5.7170     1.1100 H     1 <1>   0.0800 
 33 H      -10.3960    -2.7020     0.8570 H     1 <1>   0.0800 
 34 H      -10.0120    -2.9270    -0.8440 H     1 <1>   0.0800 
 35 H       -9.3580    -1.5410     0.0430 H     1 <1>   0.0800 
 36 H       -4.2230    -6.3740    -0.3050 H     1 <1>   0.1500 
 37 H       -2.6280    -8.6020     0.8890 H     1 <1>   0.0800 
 38 H       -2.9800    -9.0460    -0.7700 H     1 <1>   0.0800 
 39 H       -3.4090   -10.1270     0.5360 H     1 <1>   0.0800 
@<TRIPOS>BOND
  1   1   2  1   
  2   2   3  ar  
  3   2   4  ar  
  4   3   5  ar  
  5   3  23  1   
  6   4   6  ar  
  7   4  24  1   
  8   5   7  ar  
  9   6   7  ar  
 10   6   8  1   
 11   7   9  1   
 12   9  10  1   
 13   9  11  1   
 14  10  12  1   
 15  10  25  1   
 16  10  26  1   
 17  11  13  1   
 18  11  27  1   
 19  11  28  1   
 20  12  13  1   
 21  12  14  1   
 22  12  29  1   
 23  13  15  1   
 24  13  30  1   
 25  14  16  1   
 26  15  17  1   
 27  15  31  1   
 28  15  32  1   
 29  16  33  1   
 30  16  34  1   
 31  16  35  1   
 32  17  18  1   
 33  17  19  2   
 34  18  20  1   
 35  19  21  1   
 36  19  36  1   
 37  20  21  2   
 38  21  22  1   
 39  22  37  1   
 40  22  38  1   
 41  22  39  1   
@<TRIPOS>SUBSTRUCTURE
  1 ****  11 GROUP 4 **** **** 0

# MOE 2024.06 (io_trps.svl 2023.06)
