@<TRIPOS>MOLECULE
NONAME
50 53 1 0 0 
SMALL
USER_CHARGES


@<TRIPOS>ATOM
  1 O       -0.1910     1.1280     1.9260 O.2   1 <1>  -0.5700 
  2 C       -0.1970     2.2820     1.5820 C.2   1 <1>   0.5690 
  3 N       -1.3620     2.9470     1.4240 N.am  1 <1>  -0.7300 
  4 C        1.1220     3.0020     1.2880 C.3   1 <1>   0.1810 
  5 C       -1.4450     4.3820     1.0530 C.3   1 <1>   0.3640 
  6 O        1.0000     4.4090     1.3030 O.3   1 <1>  -0.5600 
  7 C       -2.5220     4.5470    -0.0130 C.ar  1 <1>  -0.1440 
  8 C       -0.0820     4.9270     0.5430 C.3   1 <1>   0.2610 
  9 C       -2.6000     3.6820    -1.0980 C.ar  1 <1>   0.1600 
 10 C       -3.4370     5.5780     0.0730 C.ar  1 <1>  -0.1500 
 11 C       -0.0470     6.4680     0.5280 C.2   1 <1>   0.5690 
 12 N       -3.4840     3.7690    -2.0780 N.ar  1 <1>  -0.6200 
 13 C       -4.3700     5.6800    -0.9360 C.ar  1 <1>  -0.1500 
 14 O       -0.8790     7.0680     1.1730 O.2   1 <1>  -0.5700 
 15 N        0.8970     7.1520    -0.2100 N.am  1 <1>  -0.6600 
 16 C       -4.3490     4.7640    -1.9730 C.ar  1 <1>   0.1600 
 17 C        0.9130     8.6430    -0.2470 C.3   1 <1>   0.1400 
 18 C        2.0540     6.5190    -0.9050 C.3   1 <1>   0.1400 
 19 C        2.2060     9.1570     0.3890 C.3   1 <1>  -0.1600 
 20 C        3.3560     7.0110    -0.2700 C.3   1 <1>  -0.1600 
 21 C        3.4320     8.5390    -0.2940 C.3   1 <1>   0.2000 
 22 O        4.5990     8.9150     0.4040 O.3   1 <1>  -0.3630 
 23 C        5.1640    10.1470     0.3040 C.ar  1 <1>   0.0830 
 24 C        6.2030    10.4480     1.1780 C.ar  1 <1>   0.1600 
 25 C        4.7720    11.1130    -0.6110 C.ar  1 <1>  -0.1500 
 26 N        6.8640    11.5960     1.2190 N.ar  1 <1>  -0.6200 
 27 C        5.4510    12.3130    -0.5820 C.ar  1 <1>  -0.1500 
 28 C        6.4710    12.5010     0.3370 C.ar  1 <1>   0.1600 
 29 H       -2.2340     2.4690     1.6580 H     1 <1>   0.3700 
 30 H        1.4840     2.7030     0.3220 H     1 <1>   0.0800 
 31 H        1.8480     2.7290     2.0310 H     1 <1>   0.0800 
 32 H       -1.7330     4.9270     1.9360 H     1 <1>   0.0800 
 33 H        0.0490     4.5920    -0.4680 H     1 <1>   0.0800 
 34 H       -1.8950     2.8710    -1.1700 H     1 <1>   0.1500 
 35 H       -3.4250     6.2850     0.8870 H     1 <1>   0.1500 
 36 H       -5.1060     6.4630    -0.9230 H     1 <1>   0.1500 
 37 H       -5.0820     4.8540    -2.7570 H     1 <1>   0.1500 
 38 H        0.8480     8.9700    -1.2700 H     1 <1>   0.0800 
 39 H        0.0670     9.0510     0.2820 H     1 <1>   0.0800 
 40 H        2.0180     5.4470    -0.8410 H     1 <1>   0.0800 
 41 H        2.0290     6.7900    -1.9470 H     1 <1>   0.0800 
 42 H        2.2010     8.8970     1.4330 H     1 <1>   0.0800 
 43 H        2.2330    10.2280     0.3080 H     1 <1>   0.0800 
 44 H        4.1910     6.6020    -0.8090 H     1 <1>   0.0800 
 45 H        3.3990     6.6590     0.7460 H     1 <1>   0.0800 
 46 H        3.5150     8.8660    -1.3150 H     1 <1>   0.0800 
 47 H        6.4970     9.6890     1.8810 H     1 <1>   0.1500 
 48 H        3.9830    10.9600    -1.3210 H     1 <1>   0.1500 
 49 H        5.1950    13.1030    -1.2650 H     1 <1>   0.1500 
 50 H        6.9900    13.4440     0.3470 H     1 <1>   0.1500 
@<TRIPOS>BOND
  1   1   2  2   
  2   2   3  am  
  3   2   4  1   
  4   3   5  1   
  5   3  29  1   
  6   4   6  1   
  7   4  30  1   
  8   4  31  1   
  9   5   7  1   
 10   5   8  1   
 11   5  32  1   
 12   6   8  1   
 13   7   9  ar  
 14   7  10  ar  
 15   8  11  1   
 16   8  33  1   
 17   9  12  ar  
 18   9  34  1   
 19  10  13  ar  
 20  10  35  1   
 21  11  14  2   
 22  11  15  am  
 23  12  16  ar  
 24  13  16  ar  
 25  13  36  1   
 26  15  17  1   
 27  15  18  1   
 28  16  37  1   
 29  17  19  1   
 30  17  38  1   
 31  17  39  1   
 32  18  20  1   
 33  18  40  1   
 34  18  41  1   
 35  19  21  1   
 36  19  42  1   
 37  19  43  1   
 38  20  21  1   
 39  20  44  1   
 40  20  45  1   
 41  21  22  1   
 42  21  46  1   
 43  22  23  1   
 44  23  24  ar  
 45  23  25  ar  
 46  24  26  ar  
 47  24  47  1   
 48  25  27  ar  
 49  25  48  1   
 50  26  28  ar  
 51  27  28  ar  
 52  27  49  1   
 53  28  50  1   
@<TRIPOS>SUBSTRUCTURE
  1 ****  15 GROUP 4 **** **** 0

# MOE 2024.06 (io_trps.svl 2023.06)
