@<TRIPOS>MOLECULE
NONAME
33 33 1 0 0 
SMALL
USER_CHARGES


@<TRIPOS>ATOM
  1 F       -3.2850    -1.1170     2.7750 F     1 <1>  -0.1900 
  2 C       -3.1730    -1.4070     1.5010 C.ar  1 <1>   0.1900 
  3 C       -2.9730    -0.3840     0.5800 C.ar  1 <1>   0.0820 
  4 C       -3.2620    -2.7330     1.1270 C.ar  1 <1>  -0.1500 
  5 O       -2.8980     0.9030     1.0260 O.3   1 <1>  -0.3630 
  6 C       -2.8590    -0.7340    -0.7640 C.ar  1 <1>  -0.1500 
  7 C       -3.1570    -3.0690    -0.2150 C.ar  1 <1>  -0.1440 
  8 C       -2.6180     1.9690     0.1480 C.3   1 <1>   0.0400 
  9 C       -2.9510    -2.0630    -1.1500 C.ar  1 <1>  -0.1500 
 10 C       -3.2720    -4.5330    -0.6550 C.3   1 <1>   0.2280 
 11 N       -4.5730    -5.1080    -0.1330 N.3   1 <1>  -0.8100 
 12 C       -1.9560    -5.3130    -0.3570 C.2   1 <1>   0.9060 
 13 C       -4.6450    -6.5960    -0.2810 C.3   1 <1>   0.1710 
 14 C       -5.7470    -4.4460    -0.7110 C.3   1 <1>   0.0300 
 15 O       -1.3330    -5.7890    -1.3180 O.co2 1 <1>  -0.9000 
 16 O       -1.5730    -5.5190     0.8080 O.co2 1 <1>  -0.9000 
 17 C       -4.5630    -7.3670     1.0450 C.2   1 <1>   0.5690 
 18 O       -5.4590    -8.1150     1.3600 O.2   1 <1>  -0.5700 
 19 N       -3.4870    -7.2290     1.8400 N.am  1 <1>  -0.8000 
 20 H       -3.4090    -3.5040     1.8630 H     1 <1>   0.1500 
 21 H       -2.6990     0.0070    -1.5230 H     1 <1>   0.1500 
 22 H       -2.5780     2.8740     0.7270 H     1 <1>   0.0800 
 23 H       -3.4050     2.0360    -0.5820 H     1 <1>   0.0800 
 24 H       -1.6670     1.7930    -0.3220 H     1 <1>   0.0800 
 25 H       -2.8570    -2.3210    -2.1910 H     1 <1>   0.1500 
 26 H       -3.3410    -4.5420    -1.7270 H     1 <1>   0.0800 
 27 H       -3.8620    -6.9510    -0.9260 H     1 <1>   0.0800 
 28 H       -5.5750    -6.8690    -0.7450 H     1 <1>   0.0800 
 29 H       -5.7230    -3.3930    -0.4950 H     1 <1>   0.0800 
 30 H       -6.6440    -4.8560    -0.2790 H     1 <1>   0.0800 
 31 H       -5.7690    -4.5880    -1.7780 H     1 <1>   0.0800 
 32 H       -3.4010    -7.7030     2.7310 H     1 <1>   0.3700 
 33 H       -2.7090    -6.5820     1.5820 H     1 <1>   0.3700 
@<TRIPOS>BOND
  1   1   2  1   
  2   2   3  ar  
  3   2   4  ar  
  4   3   5  1   
  5   3   6  ar  
  6   4   7  ar  
  7   4  20  1   
  8   5   8  1   
  9   6   9  ar  
 10   6  21  1   
 11   7   9  ar  
 12   7  10  1   
 13   8  22  1   
 14   8  23  1   
 15   8  24  1   
 16   9  25  1   
 17  10  11  1   
 18  10  12  1   
 19  10  26  1   
 20  11  13  1   
 21  11  14  1   
 22  12  15  ar  
 23  12  16  ar  
 24  13  17  1   
 25  13  27  1   
 26  13  28  1   
 27  14  29  1   
 28  14  30  1   
 29  14  31  1   
 30  17  18  2   
 31  17  19  am  
 32  19  32  1   
 33  19  33  1   
@<TRIPOS>SUBSTRUCTURE
  1 ****   7 GROUP 4 **** **** 0

# MOE 2024.06 (io_trps.svl 2023.06)
