@<TRIPOS>MOLECULE
NONAME
49 52 1 0 0 
SMALL
USER_CHARGES


@<TRIPOS>ATOM
  1 O        0.5660     4.7980    -2.9970 O.2   1 <1>  -0.5700 
  2 C        0.6950     4.0650    -2.0360 C.2   1 <1>   0.7800 
  3 O        1.0030     2.7720    -2.1500 O.3   1 <1>  -0.2320 
  4 N        0.5160     4.4090    -0.7280 N.am  1 <1>  -0.4770 
  5 C        0.9980     2.2600    -0.9040 C.ar  1 <1>   0.0830 
  6 C        0.6980     3.2530     0.0020 C.ar  1 <1>   0.1170 
  7 C       -0.0560     5.6930    -0.2340 C.3   1 <1>   0.2010 
  8 C        1.2350     0.9550    -0.5120 C.ar  1 <1>  -0.1500 
  9 C        0.6230     2.9620     1.3570 C.ar  1 <1>  -0.1500 
 10 C       -1.4100     5.5070     0.4510 C.2   1 <1>   0.5690 
 11 C        1.1610     0.6620     0.8420 C.ar  1 <1>  -0.1500 
 12 C        0.8570     1.6590     1.7670 C.ar  1 <1>  -0.1500 
 13 O       -1.4260     5.6230     1.6560 O.2   1 <1>  -0.5700 
 14 N       -2.5460     5.2030    -0.2620 N.am  1 <1>  -0.6600 
 15 C       -3.8010     4.7750     0.4290 C.3   1 <1>   0.1400 
 16 C       -2.6490     5.1250    -1.7450 C.3   1 <1>   0.1400 
 17 C       -4.1460     3.3060     0.0710 C.3   1 <1>   0.0000 
 18 C       -2.9570     3.6820    -2.1590 C.3   1 <1>  -0.1600 
 19 C       -5.4490     2.8570     0.7540 C.3   1 <1>   0.2000 
 20 C       -4.2250     3.1540    -1.4650 C.3   1 <1>  -0.1600 
 21 C       -3.1230     2.3410     0.6960 C.3   1 <1>  -0.1600 
 22 O       -6.4140     3.8680     0.7320 O.3   1 <1>  -0.5600 
 23 C       -5.0590     2.4870     2.1900 C.3   1 <1>  -0.1600 
 24 C       -3.5570     2.1740     2.1550 C.3   1 <1>  -0.1600 
 25 C       -7.7040     3.4550     1.0530 C.3   1 <1>   0.0400 
 26 H        0.6290     6.1200     0.4750 H     1 <1>   0.0800 
 27 H       -0.1580     6.3870    -1.0480 H     1 <1>   0.0800 
 28 H        1.4680     0.2000    -1.2410 H     1 <1>   0.1500 
 29 H        0.3840     3.7330     2.0680 H     1 <1>   0.1500 
 30 H        1.3400    -0.3440     1.1820 H     1 <1>   0.1500 
 31 H        0.8010     1.4130     2.8140 H     1 <1>   0.1500 
 32 H       -3.7050     4.8840     1.4950 H     1 <1>   0.0800 
 33 H       -4.6000     5.4240     0.1130 H     1 <1>   0.0800 
 34 H       -3.4500     5.7680    -2.0690 H     1 <1>   0.0800 
 35 H       -1.7500     5.4630    -2.2230 H     1 <1>   0.0800 
 36 H       -3.0880     3.6420    -3.2260 H     1 <1>   0.0800 
 37 H       -2.1160     3.0570    -1.9130 H     1 <1>   0.0800 
 38 H       -5.8350     1.9910     0.2430 H     1 <1>   0.0800 
 39 H       -4.3800     2.1240    -1.7310 H     1 <1>   0.0800 
 40 H       -5.0730     3.7140    -1.8210 H     1 <1>   0.0800 
 41 H       -3.1800     1.3850     0.2060 H     1 <1>   0.0800 
 42 H       -2.1130     2.6980     0.6230 H     1 <1>   0.0800 
 43 H       -5.2360     3.3180     2.8510 H     1 <1>   0.0800 
 44 H       -5.6200     1.6320     2.5230 H     1 <1>   0.0800 
 45 H       -3.0260     2.8810     2.7710 H     1 <1>   0.0800 
 46 H       -3.3470     1.1790     2.5090 H     1 <1>   0.0800 
 47 H       -8.3540     4.3090     0.9810 H     1 <1>   0.0800 
 48 H       -7.7200     3.0740     2.0590 H     1 <1>   0.0800 
 49 H       -8.0210     2.7000     0.3540 H     1 <1>   0.0800 
@<TRIPOS>BOND
  1   1   2  2   
  2   2   3  1   
  3   2   4  am  
  4   3   5  1   
  5   4   6  1   
  6   4   7  1   
  7   5   6  ar  
  8   5   8  ar  
  9   6   9  ar  
 10   7  10  1   
 11   7  26  1   
 12   7  27  1   
 13   8  11  ar  
 14   8  28  1   
 15   9  12  ar  
 16   9  29  1   
 17  10  13  2   
 18  10  14  am  
 19  11  12  ar  
 20  11  30  1   
 21  12  31  1   
 22  14  15  1   
 23  14  16  1   
 24  15  17  1   
 25  15  32  1   
 26  15  33  1   
 27  16  18  1   
 28  16  34  1   
 29  16  35  1   
 30  17  19  1   
 31  17  20  1   
 32  17  21  1   
 33  18  20  1   
 34  18  36  1   
 35  18  37  1   
 36  19  22  1   
 37  19  23  1   
 38  19  38  1   
 39  20  39  1   
 40  20  40  1   
 41  21  24  1   
 42  21  41  1   
 43  21  42  1   
 44  22  25  1   
 45  23  24  1   
 46  23  43  1   
 47  23  44  1   
 48  24  45  1   
 49  24  46  1   
 50  25  47  1   
 51  25  48  1   
 52  25  49  1   
@<TRIPOS>SUBSTRUCTURE
  1 ****  21 GROUP 4 **** **** 0

# MOE 2024.06 (io_trps.svl 2023.06)
