@<TRIPOS>MOLECULE
NONAME
59 61 1 0 0 
SMALL
USER_CHARGES


@<TRIPOS>ATOM
  1 O       -1.1040    -1.2110    -0.5970 O.2   1 <1>  -0.5700 
  2 C       -1.7370    -2.2120    -0.3790 C.2   1 <1>   0.5690 
  3 N       -2.9970    -2.4300    -0.7660 N.am  1 <1>  -0.7300 
  4 C       -1.2250    -3.3810     0.4140 C.3   1 <1>  -0.0990 
  5 C       -3.5840    -3.6770    -0.2720 C.3   1 <1>   0.2200 
  6 C       -2.3690    -4.4130     0.3240 C.3   1 <1>  -0.1600 
  7 C       -4.6740    -3.3660     0.7730 C.3   1 <1>   0.1100 
  8 N       -5.7640    -2.5550     0.1810 N.3   1 <1>  -0.8100 
  9 C       -6.0620    -1.3570     0.9850 C.3   1 <1>   0.2530 
 10 C       -6.9910    -3.3280    -0.1980 C.3   1 <1>   0.1710 
 11 C       -7.0980    -0.4710     0.3120 C.ar  1 <1>  -0.1430 
 12 C       -6.7870    -4.7390    -0.7710 C.2   1 <1>   0.5690 
 13 C       -6.8980    -0.0230    -0.9860 C.ar  1 <1>   0.1600 
 14 C       -8.2490    -0.0930     0.9760 C.ar  1 <1>  -0.1500 
 15 O       -6.3680    -4.8720    -1.8950 O.2   1 <1>  -0.5700 
 16 N       -7.1170    -5.8000     0.0310 N.am  1 <1>  -0.5470 
 17 N       -7.7350     0.7540    -1.6580 N.ar  1 <1>  -0.6200 
 18 C       -9.1310     0.7150     0.2900 C.ar  1 <1>  -0.1500 
 19 C       -7.1960    -7.1610    -0.2980 C.ar  1 <1>   0.1170 
 20 C       -8.8300     1.1040    -1.0040 C.ar  1 <1>   0.1600 
 21 C       -8.4380    -7.8150    -0.2800 C.ar  1 <1>  -0.1430 
 22 C       -6.0380    -7.8860    -0.6090 C.ar  1 <1>  -0.1430 
 23 C       -8.4890    -9.1680    -0.5870 C.ar  1 <1>  -0.1500 
 24 C       -9.7800    -7.1370     0.0460 C.3   1 <1>   0.0630 
 25 C       -6.1250    -9.2320    -0.9140 C.ar  1 <1>  -0.1500 
 26 C       -4.6560    -7.2460    -0.6190 C.3   1 <1>  -0.0970 
 27 C       -7.3460    -9.8740    -0.9030 C.ar  1 <1>  -0.1500 
 28 C      -10.1740    -6.0870    -0.9990 C.3   1 <1>  -0.2400 
 29 C       -9.8420    -6.5700     1.4710 C.3   1 <1>  -0.2400 
 30 H       -3.5880    -1.7320    -1.2220 H     1 <1>   0.3700 
 31 H       -0.3130    -3.7530    -0.0150 H     1 <1>   0.0800 
 32 H       -1.0570    -3.0680     1.4270 H     1 <1>   0.0800 
 33 H       -4.0000    -4.2360    -1.0930 H     1 <1>   0.0800 
 34 H       -2.5870    -4.8530     1.2810 H     1 <1>   0.0800 
 35 H       -2.0850    -5.2010    -0.3520 H     1 <1>   0.0800 
 36 H       -4.2070    -2.8290     1.5820 H     1 <1>   0.0800 
 37 H       -5.0610    -4.2820     1.1830 H     1 <1>   0.0800 
 38 H       -6.4090    -1.6550     1.9600 H     1 <1>   0.0800 
 39 H       -5.1570    -0.7860     1.1130 H     1 <1>   0.0800 
 40 H       -7.6310    -3.4060     0.6610 H     1 <1>   0.0800 
 41 H       -7.5270    -2.7680    -0.9440 H     1 <1>   0.0800 
 42 H       -6.0000    -0.3260    -1.4990 H     1 <1>   0.1500 
 43 H       -8.4560    -0.4080     1.9830 H     1 <1>   0.1500 
 44 H       -7.5710    -5.5730     0.9100 H     1 <1>   0.3700 
 45 H      -10.0440     1.0450     0.7510 H     1 <1>   0.1500 
 46 H       -9.5250     1.7360    -1.5290 H     1 <1>   0.1500 
 47 H       -9.4260    -9.6950    -0.5870 H     1 <1>   0.1500 
 48 H      -10.5440    -7.8950     0.0020 H     1 <1>   0.0800 
 49 H       -5.2420    -9.7940    -1.1630 H     1 <1>   0.1500 
 50 H       -3.8850    -7.9940    -0.5800 H     1 <1>   0.0800 
 51 H       -4.5370    -6.6000     0.2300 H     1 <1>   0.0800 
 52 H       -4.5290    -6.6750    -1.5210 H     1 <1>   0.0800 
 53 H       -7.4060   -10.9210    -1.1420 H     1 <1>   0.1500 
 54 H       -9.5330    -5.2280    -0.9620 H     1 <1>   0.0800 
 55 H      -11.1860    -5.7620    -0.8360 H     1 <1>   0.0800 
 56 H      -10.1080    -6.5140    -1.9840 H     1 <1>   0.0800 
 57 H       -9.2630    -5.6740     1.5720 H     1 <1>   0.0800 
 58 H       -9.4820    -7.3030     2.1710 H     1 <1>   0.0800 
 59 H      -10.8610    -6.3350     1.7220 H     1 <1>   0.0800 
@<TRIPOS>BOND
  1   1   2  2   
  2   2   3  am  
  3   2   4  1   
  4   3   5  1   
  5   3  30  1   
  6   4   6  1   
  7   4  31  1   
  8   4  32  1   
  9   5   6  1   
 10   5   7  1   
 11   5  33  1   
 12   6  34  1   
 13   6  35  1   
 14   7   8  1   
 15   7  36  1   
 16   7  37  1   
 17   8   9  1   
 18   8  10  1   
 19   9  11  1   
 20   9  38  1   
 21   9  39  1   
 22  10  12  1   
 23  10  40  1   
 24  10  41  1   
 25  11  13  ar  
 26  11  14  ar  
 27  12  15  2   
 28  12  16  am  
 29  13  17  ar  
 30  13  42  1   
 31  14  18  ar  
 32  14  43  1   
 33  16  19  1   
 34  16  44  1   
 35  17  20  ar  
 36  18  20  ar  
 37  18  45  1   
 38  19  21  ar  
 39  19  22  ar  
 40  20  46  1   
 41  21  23  ar  
 42  21  24  1   
 43  22  25  ar  
 44  22  26  1   
 45  23  27  ar  
 46  23  47  1   
 47  24  28  1   
 48  24  29  1   
 49  24  48  1   
 50  25  27  ar  
 51  25  49  1   
 52  26  50  1   
 53  26  51  1   
 54  26  52  1   
 55  27  53  1   
 56  28  54  1   
 57  28  55  1   
 58  28  56  1   
 59  29  57  1   
 60  29  58  1   
 61  29  59  1   
@<TRIPOS>SUBSTRUCTURE
  1 ****  12 GROUP 4 **** **** 0

# MOE 2024.06 (io_trps.svl 2023.06)
