@<TRIPOS>MOLECULE
NONAME
56 59 1 0 0 
SMALL
USER_CHARGES


@<TRIPOS>ATOM
  1 F        0.6400    -2.1050     2.4140 F     1 <1>  -0.1900 
  2 C        0.1230    -2.8930     1.5110 C.ar  1 <1>   0.1900 
  3 C       -1.2300    -3.1450     1.5460 C.ar  1 <1>  -0.1500 
  4 C        0.9510    -3.4420     0.5560 C.ar  1 <1>  -0.1500 
  5 C       -1.8150    -3.9780     0.5920 C.ar  1 <1>   0.0860 
  6 C        0.3880    -4.2730    -0.3950 C.ar  1 <1>  -0.1500 
  7 C       -0.9750    -4.5420    -0.3860 C.ar  1 <1>  -0.1440 
  8 C       -3.2520    -4.2040     0.6560 C.2   1 <1>   0.5440 
  9 C       -1.5200    -5.4670    -1.4690 C.3   1 <1>  -0.0960 
 10 O       -3.7490    -5.3010     0.4710 O.2   1 <1>  -0.5700 
 11 N       -4.1300    -3.1700     0.8790 N.am  1 <1>  -0.6600 
 12 C       -5.4040    -3.3960     1.6460 C.3   1 <1>   0.1400 
 13 C       -4.0540    -1.9170     0.0800 C.3   1 <1>   0.1400 
 14 C       -6.6230    -3.6740     0.7290 C.3   1 <1>   0.4230 
 15 C       -5.1320    -1.8470    -1.0290 C.3   1 <1>  -0.0800 
 16 N       -6.1420    -4.1920    -0.6050 N.4   1 <1>  -0.9590 
 17 C       -7.5700    -2.4600     0.6270 C.3   1 <1>   0.1200 
 18 C       -6.3070    -0.9230    -0.6740 C.3   1 <1>   0.1200 
 19 C       -5.6290    -3.1930    -1.5970 C.3   1 <1>   0.3430 
 20 C       -7.0330    -5.2060    -1.2240 C.3   1 <1>   0.5240 
 21 O       -6.8730    -1.2530     0.5480 O.3   1 <1>  -0.5600 
 22 C       -7.3510    -6.2660    -0.1970 C.2   1 <1>  -0.1810 
 23 C       -8.6030    -6.5620     0.3310 C.2   1 <1>   0.1080 
 24 C       -6.5050    -7.1110     0.4330 C.2   1 <1>  -0.3020 
 25 N       -8.5380    -7.4940     1.2240 N.2   1 <1>  -0.7070 
 26 C       -9.9230    -5.9200    -0.0400 C.3   1 <1>  -0.0590 
 27 N       -7.2440    -7.8460     1.2840 N.pl3 1 <1>   0.3140 
 28 C       -6.7730    -8.9060     2.1820 C.3   1 <1>   0.0160 
 29 H       -1.8280    -2.6950     2.3180 H     1 <1>   0.1500 
 30 H        2.0040    -3.2260     0.5600 H     1 <1>   0.1500 
 31 H        1.0270    -4.7110    -1.1430 H     1 <1>   0.1500 
 32 H       -0.7760    -5.6690    -2.2200 H     1 <1>   0.0800 
 33 H       -2.3700    -5.0230    -1.9520 H     1 <1>   0.0800 
 34 H       -1.8160    -6.4050    -1.0320 H     1 <1>   0.0800 
 35 H       -5.2720    -4.2490     2.2890 H     1 <1>   0.0800 
 36 H       -5.5970    -2.5530     2.2880 H     1 <1>   0.0800 
 37 H       -4.1440    -1.0700     0.7410 H     1 <1>   0.0800 
 38 H       -3.0820    -1.8550    -0.3810 H     1 <1>   0.0800 
 39 H       -7.1890    -4.4490     1.2170 H     1 <1>   0.0800 
 40 H       -4.6570    -1.3540    -1.8580 H     1 <1>   0.0800 
 41 H       -5.3000    -4.7290    -0.3020 H     1 <1>   0.4500 
 42 H       -8.1530    -2.4080     1.5300 H     1 <1>   0.0800 
 43 H       -8.2490    -2.5450    -0.2030 H     1 <1>   0.0800 
 44 H       -7.0750    -0.9370    -1.4300 H     1 <1>   0.0800 
 45 H       -5.9520     0.0900    -0.5830 H     1 <1>   0.0800 
 46 H       -4.8170    -3.6480    -2.1410 H     1 <1>   0.0800 
 47 H       -6.4080    -2.9780    -2.3100 H     1 <1>   0.0800 
 48 H       -7.9430    -4.7440    -1.5670 H     1 <1>   0.0800 
 49 H       -6.5410    -5.6660    -2.0650 H     1 <1>   0.0800 
 50 H       -5.4400    -7.2360     0.3380 H     1 <1>   0.1500 
 51 H       -9.8210    -4.8570    -0.1370 H     1 <1>   0.0800 
 52 H      -10.6500    -6.1260     0.7260 H     1 <1>   0.0800 
 53 H      -10.2800    -6.3350    -0.9640 H     1 <1>   0.0800 
 54 H       -5.7120    -8.8180     2.3210 H     1 <1>   0.0800 
 55 H       -7.0080    -9.8600     1.7480 H     1 <1>   0.0800 
 56 H       -7.2730    -8.8100     3.1280 H     1 <1>   0.0800 
@<TRIPOS>BOND
  1   1   2  1   
  2   2   3  ar  
  3   2   4  ar  
  4   3   5  ar  
  5   3  29  1   
  6   4   6  ar  
  7   4  30  1   
  8   5   7  ar  
  9   5   8  1   
 10   6   7  ar  
 11   6  31  1   
 12   7   9  1   
 13   8  10  2   
 14   8  11  am  
 15   9  32  1   
 16   9  33  1   
 17   9  34  1   
 18  11  12  1   
 19  11  13  1   
 20  12  14  1   
 21  12  35  1   
 22  12  36  1   
 23  13  15  1   
 24  13  37  1   
 25  13  38  1   
 26  14  16  1   
 27  14  17  1   
 28  14  39  1   
 29  15  18  1   
 30  15  19  1   
 31  15  40  1   
 32  16  19  1   
 33  16  20  1   
 34  16  41  1   
 35  17  21  1   
 36  17  42  1   
 37  17  43  1   
 38  18  21  1   
 39  18  44  1   
 40  18  45  1   
 41  19  46  1   
 42  19  47  1   
 43  20  22  1   
 44  20  48  1   
 45  20  49  1   
 46  22  23  1   
 47  22  24  2   
 48  23  25  2   
 49  23  26  1   
 50  24  27  1   
 51  24  50  1   
 52  25  27  1   
 53  26  51  1   
 54  26  52  1   
 55  26  53  1   
 56  27  28  1   
 57  28  54  1   
 58  28  55  1   
 59  28  56  1   
@<TRIPOS>SUBSTRUCTURE
  1 ****  10 GROUP 4 **** **** 0

# MOE 2024.06 (io_trps.svl 2023.06)
