@<TRIPOS>MOLECULE
NONAME
39 41 1 0 0 
SMALL
USER_CHARGES


@<TRIPOS>ATOM
  1 CL       1.1370     0.5850    -1.6070 Cl    1 <1>  -0.1770 
  2 C        0.5500     1.9000    -0.6110 C.ar  1 <1>   0.1770 
  3 C        1.3650     2.5230     0.3300 C.ar  1 <1>  -0.1440 
  4 C       -0.7620     2.2920    -0.8040 C.ar  1 <1>  -0.1500 
  5 C        0.8220     3.5640     1.0750 C.ar  1 <1>  -0.1500 
  6 C        2.8180     2.1260     0.5760 C.3   1 <1>   0.3640 
  7 C       -1.2850     3.3280    -0.0520 C.ar  1 <1>  -0.1500 
  8 C       -0.4910     3.9620     0.8860 C.ar  1 <1>  -0.1500 
  9 N        2.8810     0.7090     1.0080 N.am  1 <1>  -0.7300 
 10 C        3.7390     2.4290    -0.6350 C.3   1 <1>   0.2610 
 11 C        3.7520    -0.1880     0.4940 C.2   1 <1>   0.5690 
 12 O        4.9290     1.6510    -0.6070 O.3   1 <1>  -0.5600 
 13 C        4.0190     3.9380    -0.6860 C.2   1 <1>   0.5690 
 14 O        3.7790    -1.3210     0.9000 O.2   1 <1>  -0.5700 
 15 C        4.7020     0.2580    -0.6210 C.3   1 <1>   0.1810 
 16 O        3.4100     4.5670    -1.5210 O.2   1 <1>  -0.5700 
 17 N        4.8890     4.5750     0.1760 N.am  1 <1>  -0.6600 
 18 C        5.8140     3.8950     1.1360 C.3   1 <1>   0.1400 
 19 C        5.1790     6.0340     0.0170 C.3   1 <1>   0.1400 
 20 C        7.2250     3.8060     0.5450 C.3   1 <1>   0.0700 
 21 C        6.5100     6.2410    -0.7140 C.3   1 <1>   0.0700 
 22 S        7.8520     5.4870     0.2560 S.3   1 <1>  -0.4600 
 23 H       -1.3650     1.7910    -1.5390 H     1 <1>   0.1500 
 24 H        1.4160     4.0800     1.8100 H     1 <1>   0.1500 
 25 H        3.1790     2.7110     1.4030 H     1 <1>   0.0800 
 26 H       -2.3050     3.6410    -0.1980 H     1 <1>   0.1500 
 27 H       -0.8960     4.7710     1.4710 H     1 <1>   0.1500 
 28 H        2.2030     0.3880     1.7010 H     1 <1>   0.3700 
 29 H        3.2280     2.1770    -1.5450 H     1 <1>   0.0800 
 30 H        4.2880    -0.0120    -1.5760 H     1 <1>   0.0800 
 31 H        5.6500    -0.2320    -0.5000 H     1 <1>   0.0800 
 32 H        5.8510     4.4570     2.0530 H     1 <1>   0.0800 
 33 H        5.4670     2.9090     1.3780 H     1 <1>   0.0800 
 34 H        4.3930     6.5150    -0.5400 H     1 <1>   0.0800 
 35 H        5.2230     6.5010     0.9850 H     1 <1>   0.0800 
 36 H        7.2210     3.2870    -0.3980 H     1 <1>   0.0800 
 37 H        7.9050     3.3250     1.2240 H     1 <1>   0.0800 
 38 H        6.7410     7.2860    -0.8180 H     1 <1>   0.0800 
 39 H        6.4980     5.7700    -1.6810 H     1 <1>   0.0800 
@<TRIPOS>BOND
  1   1   2  1   
  2   2   3  ar  
  3   2   4  ar  
  4   3   5  ar  
  5   3   6  1   
  6   4   7  ar  
  7   4  23  1   
  8   5   8  ar  
  9   5  24  1   
 10   6   9  1   
 11   6  10  1   
 12   6  25  1   
 13   7   8  ar  
 14   7  26  1   
 15   8  27  1   
 16   9  11  am  
 17   9  28  1   
 18  10  12  1   
 19  10  13  1   
 20  10  29  1   
 21  11  14  2   
 22  11  15  1   
 23  12  15  1   
 24  13  16  2   
 25  13  17  am  
 26  15  30  1   
 27  15  31  1   
 28  17  18  1   
 29  17  19  1   
 30  18  20  1   
 31  18  32  1   
 32  18  33  1   
 33  19  21  1   
 34  19  34  1   
 35  19  35  1   
 36  20  22  1   
 37  20  36  1   
 38  20  37  1   
 39  21  22  1   
 40  21  38  1   
 41  21  39  1   
@<TRIPOS>SUBSTRUCTURE
  1 ****  10 GROUP 4 **** **** 0

# MOE 2024.06 (io_trps.svl 2023.06)
