@<TRIPOS>MOLECULE
NONAME
42 43 1 0 0 
SMALL
USER_CHARGES


@<TRIPOS>ATOM
  1 S        1.2660    -1.3970     1.5400 S.o2  1 <1>   1.5000 
  2 O        2.3850    -2.0560     0.9040 O.2   1 <1>  -0.6500 
  3 O        1.2880    -1.1710     2.9650 O.2   1 <1>  -0.6500 
  4 N       -0.0810    -2.3690     1.3060 N.am  1 <1>  -0.9140 
  5 C        0.8230     0.1310     0.6810 C.2   1 <1>  -0.0220 
  6 C        0.0250    -3.3120     0.1990 C.3   1 <1>   0.2760 
  7 S        0.5950     0.0650    -1.0660 S.3   1 <1>  -0.0800 
  8 C        0.5970     1.3900     1.1100 C.2   1 <1>  -0.1500 
  9 C       -1.3600    -3.8240    -0.1670 C.3   1 <1>  -0.0800 
 10 C        0.6710    -4.6080     0.6820 C.3   1 <1>   0.1200 
 11 C        0.2000     1.7720    -1.1470 C.2   1 <1>  -0.1400 
 12 C        0.2460     2.3200     0.0800 C.2   1 <1>  -0.1500 
 13 C       -1.5820    -4.9730     0.8270 C.3   1 <1>   0.1200 
 14 C       -2.4720    -2.7540    -0.1620 C.3   1 <1>  -0.0550 
 15 O       -0.3360    -5.2510     1.3990 O.3   1 <1>  -0.5600 
 16 C       -0.1180     2.3480    -2.5110 C.3   1 <1>  -0.0600 
 17 S       -4.0350    -3.3700    -0.7800 S.o2  1 <1>   1.3330 
 18 O       -3.8290    -3.7690    -2.1540 O.2   1 <1>  -0.6500 
 19 O       -4.5790    -4.3190     0.1650 O.2   1 <1>  -0.6500 
 20 N       -5.0280    -1.9930    -0.7690 N.am  1 <1>  -0.8490 
 21 C       -6.1130    -2.0890    -1.7510 C.3   1 <1>   0.1160 
 22 C       -5.5800    -1.6850     0.5540 C.3   1 <1>   0.1160 
 23 H       -0.1230    -2.9430     2.1510 H     1 <1>   0.4200 
 24 H        0.5320    -2.8800    -0.6490 H     1 <1>   0.0800 
 25 H        0.6630     1.7080     2.1370 H     1 <1>   0.1500 
 26 H       -1.3060    -4.2530    -1.1530 H     1 <1>   0.0800 
 27 H        1.5280    -4.4540     1.3150 H     1 <1>   0.0800 
 28 H        0.9420    -5.2360    -0.1490 H     1 <1>   0.0800 
 29 H        0.0470     3.3520     0.3120 H     1 <1>   0.1500 
 30 H       -1.9490    -5.8600     0.3390 H     1 <1>   0.0800 
 31 H       -2.2520    -4.6960     1.6240 H     1 <1>   0.0800 
 32 H       -2.1600    -1.9330    -0.7780 H     1 <1>   0.0800 
 33 H       -2.6090    -2.3800     0.8330 H     1 <1>   0.0800 
 34 H       -0.3410     3.3970    -2.4280 H     1 <1>   0.0800 
 35 H       -0.9680     1.8440    -2.9330 H     1 <1>   0.0800 
 36 H        0.7250     2.2230    -3.1670 H     1 <1>   0.0800 
 37 H       -6.7130    -1.1950    -1.7330 H     1 <1>   0.0800 
 38 H       -6.7370    -2.9410    -1.5380 H     1 <1>   0.0800 
 39 H       -5.7050    -2.1990    -2.7420 H     1 <1>   0.0800 
 40 H       -6.1330    -0.7620     0.5180 H     1 <1>   0.0800 
 41 H       -4.7870    -1.5760     1.2730 H     1 <1>   0.0800 
 42 H       -6.2380    -2.4740     0.8810 H     1 <1>   0.0800 
@<TRIPOS>BOND
  1   1   2  2   
  2   1   3  2   
  3   1   4  am  
  4   1   5  1   
  5   4   6  1   
  6   4  23  1   
  7   5   7  1   
  8   5   8  2   
  9   6   9  1   
 10   6  10  1   
 11   6  24  1   
 12   7  11  1   
 13   8  12  1   
 14   8  25  1   
 15   9  13  1   
 16   9  14  1   
 17   9  26  1   
 18  10  15  1   
 19  10  27  1   
 20  10  28  1   
 21  11  12  2   
 22  11  16  1   
 23  12  29  1   
 24  13  15  1   
 25  13  30  1   
 26  13  31  1   
 27  14  17  1   
 28  14  32  1   
 29  14  33  1   
 30  16  34  1   
 31  16  35  1   
 32  16  36  1   
 33  17  18  2   
 34  17  19  2   
 35  17  20  am  
 36  20  21  1   
 37  20  22  1   
 38  21  37  1   
 39  21  38  1   
 40  21  39  1   
 41  22  40  1   
 42  22  41  1   
 43  22  42  1   
@<TRIPOS>SUBSTRUCTURE
  1 ****  14 GROUP 4 **** **** 0

# MOE 2024.06 (io_trps.svl 2023.06)
