@<TRIPOS>MOLECULE
NONAME
42 44 1 0 0 
SMALL
USER_CHARGES


@<TRIPOS>ATOM
  1 F        2.0000    -1.0100     0.5250 F     1 <1>  -0.3400 
  2 C        1.3840    -1.5920    -0.5000 C.3   1 <1>   1.1640 
  3 F        2.2370    -1.5130    -1.5200 F     1 <1>  -0.3400 
  4 F        0.3680    -0.7970    -0.8240 F     1 <1>  -0.3400 
  5 C        0.9310    -3.0510    -0.1910 C.ar  1 <1>   0.1660 
  6 N        0.0920    -3.2650     0.8310 N.ar  1 <1>  -0.6200 
  7 C        1.4030    -4.1010    -0.9780 C.ar  1 <1>  -0.1500 
  8 C       -0.2660    -4.5180     1.0620 C.ar  1 <1>   0.1600 
  9 C        1.0080    -5.3980    -0.7250 C.ar  1 <1>  -0.1500 
 10 C        0.1330    -5.6250     0.3240 C.ar  1 <1>   0.0860 
 11 C       -0.3480    -6.9490     0.6530 C.2   1 <1>   0.5440 
 12 O        0.4640    -7.8230     0.8840 O.2   1 <1>  -0.5700 
 13 N       -1.6940    -7.2500     0.7080 N.am  1 <1>  -0.6600 
 14 C       -2.7220    -6.4240     0.0020 C.3   1 <1>   0.2200 
 15 C       -2.1260    -8.5420     1.3300 C.3   1 <1>   0.0600 
 16 C       -3.6000    -7.2190    -0.9620 C.3   1 <1>  -0.1600 
 17 C       -3.7080    -5.7580     0.9560 C.3   1 <1>  -0.1600 
 18 C       -4.8280    -6.3260    -1.1790 C.3   1 <1>  -0.0800 
 19 C       -4.9430    -5.4520     0.0960 C.3   1 <1>  -0.0800 
 20 C       -6.0890    -7.1280    -1.5670 C.3   1 <1>   0.1400 
 21 C       -6.2680    -5.6290     0.8630 C.3   1 <1>  -0.0990 
 22 N       -7.3030    -6.3550    -1.2340 N.am  1 <1>  -0.7300 
 23 C       -7.4380    -5.6430    -0.0960 C.2   1 <1>   0.5690 
 24 O       -8.4520    -5.0490     0.1600 O.2   1 <1>  -0.5700 
 25 H        2.0820    -3.9210    -1.7940 H     1 <1>   0.1500 
 26 H       -0.9240    -4.6880     1.8970 H     1 <1>   0.1500 
 27 H        1.3650    -6.2240    -1.3180 H     1 <1>   0.1500 
 28 H       -2.2420    -5.6510    -0.5740 H     1 <1>   0.0800 
 29 H       -3.1130    -8.4610     1.7450 H     1 <1>   0.0800 
 30 H       -1.4480    -8.8160     2.1210 H     1 <1>   0.0800 
 31 H       -2.1130    -9.3210     0.5880 H     1 <1>   0.0800 
 32 H       -3.0870    -7.4210    -1.8850 H     1 <1>   0.0800 
 33 H       -3.9130    -8.1450    -0.5150 H     1 <1>   0.0800 
 34 H       -3.9690    -6.4330     1.7510 H     1 <1>   0.0800 
 35 H       -3.3000    -4.8580     1.3780 H     1 <1>   0.0800 
 36 H       -4.6070    -5.6630    -1.9990 H     1 <1>   0.0800 
 37 H       -4.8900    -4.4230    -0.2210 H     1 <1>   0.0800 
 38 H       -6.1250    -8.0570    -1.0230 H     1 <1>   0.0800 
 39 H       -6.0730    -7.3500    -2.6200 H     1 <1>   0.0800 
 40 H       -6.3950    -4.8310     1.5730 H     1 <1>   0.0800 
 41 H       -6.2740    -6.5610     1.3970 H     1 <1>   0.0800 
 42 H       -8.1090    -6.3970    -1.8630 H     1 <1>   0.3700 
@<TRIPOS>BOND
  1   1   2  1   
  2   2   3  1   
  3   2   4  1   
  4   2   5  1   
  5   5   6  ar  
  6   5   7  ar  
  7   6   8  ar  
  8   7   9  ar  
  9   7  25  1   
 10   8  10  ar  
 11   8  26  1   
 12   9  10  ar  
 13   9  27  1   
 14  10  11  1   
 15  11  12  2   
 16  11  13  am  
 17  13  14  1   
 18  13  15  1   
 19  14  16  1   
 20  14  17  1   
 21  14  28  1   
 22  15  29  1   
 23  15  30  1   
 24  15  31  1   
 25  16  18  1   
 26  16  32  1   
 27  16  33  1   
 28  17  19  1   
 29  17  34  1   
 30  17  35  1   
 31  18  19  1   
 32  18  20  1   
 33  18  36  1   
 34  19  21  1   
 35  19  37  1   
 36  20  22  1   
 37  20  38  1   
 38  20  39  1   
 39  21  23  1   
 40  21  40  1   
 41  21  41  1   
 42  22  23  am  
 43  22  42  1   
 44  23  24  2   
@<TRIPOS>SUBSTRUCTURE
  1 ****  14 GROUP 4 **** **** 0

# MOE 2024.06 (io_trps.svl 2023.06)
