@<TRIPOS>MOLECULE
NONAME
46 49 1 0 0 
SMALL
USER_CHARGES


@<TRIPOS>ATOM
  1 F       -1.8620     0.4640     1.4150 F     1 <1>  -0.1900 
  2 C       -1.2350     1.5320     0.9970 C.ar  1 <1>   0.1900 
  3 C       -1.8970     2.7520     1.0450 C.ar  1 <1>  -0.1440 
  4 C        0.0560     1.3900     0.5150 C.ar  1 <1>  -0.1500 
  5 C       -1.2240     3.8780     0.5890 C.ar  1 <1>  -0.1500 
  6 C       -3.3090     2.8400     1.5860 C.3   1 <1>   0.4870 
  7 C        0.7200     2.5160     0.0570 C.ar  1 <1>  -0.1500 
  8 C        0.0650     3.7350     0.1030 C.ar  1 <1>   0.1900 
  9 N       -4.2610     2.9090     0.4440 N.4   1 <1>  -0.9590 
 10 F        0.6850     4.7980    -0.3300 F     1 <1>  -0.1900 
 11 C       -5.6180     3.3560     0.9090 C.3   1 <1>   0.3430 
 12 C       -4.3410     1.5990    -0.2720 C.3   1 <1>   0.3430 
 13 C       -6.6080     3.5180    -0.2570 C.3   1 <1>   0.1440 
 14 C       -5.2700     1.7210    -1.4840 C.3   1 <1>  -0.1600 
 15 C       -7.9670     3.8360     0.3180 C.ar  1 <1>   0.1670 
 16 C       -6.6710     2.2200    -1.0900 C.3   1 <1>  -0.1600 
 17 C       -6.3210     4.7630    -1.1400 C.3   1 <1>  -0.1600 
 18 N       -8.5130     3.1980     1.3270 N.ar  1 <1>  -0.6200 
 19 C       -8.5590     4.8800    -0.3230 C.ar  1 <1>  -0.1430 
 20 C       -7.6860     5.4230    -1.4270 C.3   1 <1>  -0.0170 
 21 C       -9.7160     3.6500     1.6620 C.ar  1 <1>   0.4770 
 22 C       -9.8020     5.2690     0.1110 C.ar  1 <1>   0.1600 
 23 N      -10.3900     4.6510     1.1140 N.ar  1 <1>  -0.6200 
 24 C      -10.4020     2.9480     2.8090 C.3   1 <1>  -0.0970 
 25 H        0.5290     0.4230     0.5000 H     1 <1>   0.1500 
 26 H       -1.6670     4.8600     0.6050 H     1 <1>   0.1500 
 27 H       -3.3960     3.7270     2.1930 H     1 <1>   0.0800 
 28 H       -3.5290     1.9850     2.2060 H     1 <1>   0.0800 
 29 H        1.7240     2.4570    -0.3270 H     1 <1>   0.1500 
 30 H       -3.8940     3.6020    -0.2200 H     1 <1>   0.4500 
 31 H       -5.5450     4.2930     1.4370 H     1 <1>   0.0800 
 32 H       -6.0220     2.6250     1.5920 H     1 <1>   0.0800 
 33 H       -4.7200     0.8410     0.3950 H     1 <1>   0.0800 
 34 H       -3.3610     1.2950    -0.6050 H     1 <1>   0.0800 
 35 H       -5.3610     0.7540    -1.9470 H     1 <1>   0.0800 
 36 H       -4.8250     2.3770    -2.2110 H     1 <1>   0.0800 
 37 H       -7.2730     2.3730    -1.9700 H     1 <1>   0.0800 
 38 H       -7.1580     1.4560    -0.5050 H     1 <1>   0.0800 
 39 H       -5.8100     4.5250    -2.0560 H     1 <1>   0.0800 
 40 H       -5.7240     5.4690    -0.5890 H     1 <1>   0.0800 
 41 H       -8.0730     5.1060    -2.3800 H     1 <1>   0.0800 
 42 H       -7.6260     6.4970    -1.3970 H     1 <1>   0.0800 
 43 H      -10.3190     6.0870    -0.3600 H     1 <1>   0.1500 
 44 H       -9.9420     1.9960     3.0000 H     1 <1>   0.0800 
 45 H      -11.4380     2.7910     2.5690 H     1 <1>   0.0800 
 46 H      -10.3350     3.5570     3.6900 H     1 <1>   0.0800 
@<TRIPOS>BOND
  1   1   2  1   
  2   2   3  ar  
  3   2   4  ar  
  4   3   5  ar  
  5   3   6  1   
  6   4   7  ar  
  7   4  25  1   
  8   5   8  ar  
  9   5  26  1   
 10   6   9  1   
 11   6  27  1   
 12   6  28  1   
 13   7   8  ar  
 14   7  29  1   
 15   8  10  1   
 16   9  11  1   
 17   9  12  1   
 18   9  30  1   
 19  11  13  1   
 20  11  31  1   
 21  11  32  1   
 22  12  14  1   
 23  12  33  1   
 24  12  34  1   
 25  13  15  1   
 26  13  16  1   
 27  13  17  1   
 28  14  16  1   
 29  14  35  1   
 30  14  36  1   
 31  15  18  ar  
 32  15  19  ar  
 33  16  37  1   
 34  16  38  1   
 35  17  20  1   
 36  17  39  1   
 37  17  40  1   
 38  18  21  ar  
 39  19  20  1   
 40  19  22  ar  
 41  20  41  1   
 42  20  42  1   
 43  21  23  ar  
 44  21  24  1   
 45  22  23  ar  
 46  22  43  1   
 47  24  44  1   
 48  24  45  1   
 49  24  46  1   
@<TRIPOS>SUBSTRUCTURE
  1 ****   9 GROUP 4 **** **** 0

# MOE 2024.06 (io_trps.svl 2023.06)
