@<TRIPOS>MOLECULE
NONAME
45 47 1 0 0 
SMALL
USER_CHARGES


@<TRIPOS>ATOM
  1 S        0.3190     0.4690    -0.8660 S.3   1 <1>  -0.0800 
  2 C       -1.1400    -0.0240    -0.0110 C.2   1 <1>  -0.0450 
  3 C        0.9830     1.3230     0.5260 C.2   1 <1>  -0.0450 
  4 C       -2.1310    -0.8070    -0.7070 C.2   1 <1>   0.7150 
  5 C       -1.0720     0.4670     1.2550 C.2   1 <1>  -0.1500 
  6 C        2.2540     1.9830     0.4390 C.2   1 <1>   0.5940 
  7 C        0.1000     1.2070     1.5510 C.2   1 <1>  -0.1500 
  8 O       -2.1370    -0.8560    -1.9250 O.2   1 <1>  -0.5700 
  9 N       -3.0900    -1.5170    -0.0110 N.am  1 <1>  -0.6600 
 10 O        2.7460     2.5650     1.3720 O.2   1 <1>  -0.5700 
 11 C        3.0370     1.9680    -0.8570 C.3   1 <1>  -0.1790 
 12 C       -4.3950    -1.8370    -0.6660 C.3   1 <1>   0.2200 
 13 C       -2.6750    -2.3680     1.1450 C.3   1 <1>   0.0600 
 14 C       -5.4380    -2.4350     0.2810 C.3   1 <1>  -0.1600 
 15 C       -5.0920    -0.5760    -1.1800 C.3   1 <1>  -0.1600 
 16 C       -6.7890    -2.1820    -0.4010 C.3   1 <1>  -0.0800 
 17 C       -6.5700    -0.9600    -1.3180 C.3   1 <1>  -0.0800 
 18 C       -7.9490    -2.0450     0.6040 C.3   1 <1>   0.1400 
 19 C       -7.5290     0.2100    -1.0350 C.3   1 <1>  -0.0990 
 20 N       -9.1160    -1.3980    -0.0460 N.am  1 <1>  -0.6600 
 21 C       -8.9430    -0.2970    -0.8390 C.2   1 <1>   0.5690 
 22 C      -10.4560    -1.9710     0.2520 C.3   1 <1>   0.0600 
 23 O       -9.8550     0.2850    -1.3760 O.2   1 <1>  -0.5700 
 24 H       -1.8390     0.3290     1.9980 H     1 <1>   0.1500 
 25 H        0.2590     1.6400     2.5250 H     1 <1>   0.1500 
 26 H        2.4590     2.4250    -1.6380 H     1 <1>   0.0800 
 27 H        3.2740     0.9560    -1.1290 H     1 <1>   0.0800 
 28 H        3.9530     2.5170    -0.7370 H     1 <1>   0.0800 
 29 H       -4.2270    -2.5120    -1.4900 H     1 <1>   0.0800 
 30 H       -3.1920    -2.0550     2.0350 H     1 <1>   0.0800 
 31 H       -1.6150    -2.2920     1.3150 H     1 <1>   0.0800 
 32 H       -2.9050    -3.4000     0.9420 H     1 <1>   0.0800 
 33 H       -5.2760    -3.4860     0.4430 H     1 <1>   0.0800 
 34 H       -5.4100    -1.9080     1.2180 H     1 <1>   0.0800 
 35 H       -4.9780     0.2100    -0.4540 H     1 <1>   0.0800 
 36 H       -4.6870    -0.2540    -2.1230 H     1 <1>   0.0800 
 37 H       -7.0050    -3.0270    -1.0340 H     1 <1>   0.0800 
 38 H       -6.7420    -1.2860    -2.3310 H     1 <1>   0.0800 
 39 H       -7.6490    -1.4340     1.4380 H     1 <1>   0.0800 
 40 H       -8.2220    -3.0180     0.9770 H     1 <1>   0.0800 
 41 H       -7.5070     0.9110    -1.8500 H     1 <1>   0.0800 
 42 H       -7.2410     0.7270    -0.1390 H     1 <1>   0.0800 
 43 H      -10.5000    -2.9900    -0.0880 H     1 <1>   0.0800 
 44 H      -11.2260    -1.4080    -0.2470 H     1 <1>   0.0800 
 45 H      -10.6380    -1.9390     1.3120 H     1 <1>   0.0800 
@<TRIPOS>BOND
  1   1   2  1   
  2   1   3  1   
  3   2   4  1   
  4   2   5  2   
  5   3   6  1   
  6   3   7  2   
  7   4   8  2   
  8   4   9  am  
  9   5   7  1   
 10   5  24  1   
 11   6  10  2   
 12   6  11  1   
 13   7  25  1   
 14   9  12  1   
 15   9  13  1   
 16  11  26  1   
 17  11  27  1   
 18  11  28  1   
 19  12  14  1   
 20  12  15  1   
 21  12  29  1   
 22  13  30  1   
 23  13  31  1   
 24  13  32  1   
 25  14  16  1   
 26  14  33  1   
 27  14  34  1   
 28  15  17  1   
 29  15  35  1   
 30  15  36  1   
 31  16  17  1   
 32  16  18  1   
 33  16  37  1   
 34  17  19  1   
 35  17  38  1   
 36  18  20  1   
 37  18  39  1   
 38  18  40  1   
 39  19  21  1   
 40  19  41  1   
 41  19  42  1   
 42  20  21  am  
 43  20  22  1   
 44  21  23  2   
 45  22  43  1   
 46  22  44  1   
 47  22  45  1   
@<TRIPOS>SUBSTRUCTURE
  1 ****   9 GROUP 4 **** **** 0

# MOE 2024.06 (io_trps.svl 2023.06)
