@<TRIPOS>MOLECULE
NONAME
45 48 1 0 0 
SMALL
USER_CHARGES


@<TRIPOS>ATOM
  1 S       -2.5700     1.3750     1.8710 S.3   1 <1>  -0.0800 
  2 C       -2.1660     1.3080     0.1560 C.ar  1 <1>   0.0400 
  3 C       -0.9950     2.0390     2.2630 C.2   1 <1>  -0.1100 
  4 C       -0.8750     1.7720    -0.0540 C.ar  1 <1>   0.0000 
  5 C       -2.9940     0.8620    -0.8570 C.ar  1 <1>  -0.1500 
  6 C       -0.2210     2.2070     1.1640 C.2   1 <1>  -0.0860 
  7 C       -0.3990     1.7650    -1.3650 C.ar  1 <1>  -0.1500 
  8 C       -2.5020     0.8750    -2.1490 C.ar  1 <1>  -0.1500 
  9 C        1.1060     2.7780     1.1580 C.2   1 <1>   0.7160 
 10 C       -1.2080     1.3220    -2.3980 C.ar  1 <1>  -0.1500 
 11 O        2.0170     2.2360     0.5610 O.2   1 <1>  -0.5700 
 12 N        1.3760     3.9800     1.7820 N.am  1 <1>  -0.6600 
 13 C        2.7910     4.3870     2.0290 C.3   1 <1>   0.1400 
 14 C        0.3390     5.0180     2.0180 C.3   1 <1>   0.1400 
 15 C        3.4630     4.8510     0.7250 C.3   1 <1>   0.3430 
 16 C        0.6740     6.3210     1.2810 C.3   1 <1>  -0.1600 
 17 N        2.8620     6.0930     0.1210 N.4   1 <1>  -0.9590 
 18 C        1.3820     6.1110    -0.0620 C.3   1 <1>   0.3430 
 19 C        3.5940     6.4500    -1.1210 C.3   1 <1>   0.5230 
 20 C        4.8510     7.2020    -0.7000 C.2   1 <1>   0.0060 
 21 N        5.0260     7.6740     0.4980 N.2   1 <1>  -0.5650 
 22 N        5.8910     7.4500    -1.5330 N.pl3 1 <1>   0.0330 
 23 C        6.2390     8.2570     0.4440 C.2   1 <1>   0.0770 
 24 C        6.7790     8.1280    -0.7870 C.2   1 <1>  -0.3020 
 25 H       -0.8020     2.2460     3.3010 H     1 <1>   0.1500 
 26 H       -3.9880     0.5160    -0.6370 H     1 <1>   0.1500 
 27 H        0.6020     2.0940    -1.5770 H     1 <1>   0.1500 
 28 H       -3.1170     0.5340    -2.9640 H     1 <1>   0.1500 
 29 H       -0.8350     1.3160    -3.4080 H     1 <1>   0.1500 
 30 H        3.3330     3.5360     2.4090 H     1 <1>   0.0800 
 31 H        2.8400     5.1610     2.7750 H     1 <1>   0.0800 
 32 H        0.2470     5.2030     3.0760 H     1 <1>   0.0800 
 33 H       -0.6170     4.6670     1.6670 H     1 <1>   0.0800 
 34 H        3.4120     4.0410     0.0160 H     1 <1>   0.0800 
 35 H        4.5050     5.0340     0.9320 H     1 <1>   0.0800 
 36 H        1.2530     6.9690     1.9150 H     1 <1>   0.0800 
 37 H       -0.2570     6.8280     1.0970 H     1 <1>   0.0800 
 38 H        3.1390     6.8710     0.7500 H     1 <1>   0.4500 
 39 H        1.1190     6.9320    -0.7100 H     1 <1>   0.0800 
 40 H        1.0460     5.1960    -0.5240 H     1 <1>   0.0800 
 41 H        2.9920     7.0990    -1.7350 H     1 <1>   0.0800 
 42 H        3.8430     5.5650    -1.6820 H     1 <1>   0.0800 
 43 H        6.0050     7.1950    -2.5210 H     1 <1>   0.2700 
 44 H        6.6700     8.7490     1.3030 H     1 <1>   0.1500 
 45 H        7.7270     8.4780    -1.1580 H     1 <1>   0.1500 
@<TRIPOS>BOND
  1   1   2  1   
  2   1   3  1   
  3   2   4  ar  
  4   2   5  ar  
  5   3   6  2   
  6   3  25  1   
  7   4   6  1   
  8   4   7  ar  
  9   5   8  ar  
 10   5  26  1   
 11   6   9  1   
 12   7  10  ar  
 13   7  27  1   
 14   8  10  ar  
 15   8  28  1   
 16   9  11  2   
 17   9  12  am  
 18  10  29  1   
 19  12  13  1   
 20  12  14  1   
 21  13  15  1   
 22  13  30  1   
 23  13  31  1   
 24  14  16  1   
 25  14  32  1   
 26  14  33  1   
 27  15  17  1   
 28  15  34  1   
 29  15  35  1   
 30  16  18  1   
 31  16  36  1   
 32  16  37  1   
 33  17  18  1   
 34  17  19  1   
 35  17  38  1   
 36  18  39  1   
 37  18  40  1   
 38  19  20  1   
 39  19  41  1   
 40  19  42  1   
 41  20  21  2   
 42  20  22  1   
 43  21  23  1   
 44  22  24  1   
 45  22  43  1   
 46  23  24  2   
 47  23  44  1   
 48  24  45  1   
@<TRIPOS>SUBSTRUCTURE
  1 ****  12 GROUP 4 **** **** 0

# MOE 2024.06 (io_trps.svl 2023.06)
