@<TRIPOS>MOLECULE
NONAME
44 45 1 0 0 
SMALL
USER_CHARGES


@<TRIPOS>ATOM
  1 F       -1.8780     2.4380     0.8710 F     1 <1>  -0.3400 
  2 C       -1.3520     3.6010     0.4960 C.3   1 <1>   1.1640 
  3 F       -2.0480     3.9630    -0.5770 F     1 <1>  -0.3400 
  4 F       -1.6660     4.4490     1.4700 F     1 <1>  -0.3400 
  5 C        0.1560     3.4910     0.2410 C.ar  1 <1>  -0.1440 
  6 C        0.8690     4.6570    -0.1160 C.ar  1 <1>   0.3100 
  7 C        0.8100     2.2840     0.3510 C.ar  1 <1>  -0.1500 
  8 N        0.1880     5.8150    -0.3040 N.ar  1 <1>  -0.6200 
  9 C        2.2740     4.5800    -0.2940 C.ar  1 <1>   0.0000 
 10 C        2.1800     2.1930     0.1100 C.ar  1 <1>  -0.1500 
 11 C        0.8620     6.8700    -0.6450 C.ar  1 <1>   0.1600 
 12 C        2.9930     5.7750    -0.5790 C.ar  1 <1>   0.1000 
 13 C        2.8880     3.3140    -0.2120 C.ar  1 <1>  -0.1500 
 14 C        2.2420     6.9010    -0.7940 C.ar  1 <1>  -0.1500 
 15 N        4.3860     5.8330    -0.6210 N.pl3 1 <1>  -0.8380 
 16 C        5.1190     6.5780    -1.7200 C.3   1 <1>   0.2700 
 17 C        5.2250     5.3460     0.5140 C.3   1 <1>   0.1290 
 18 C        5.5710     7.9990    -1.3470 C.2   1 <1>   0.5690 
 19 O        6.3080     8.6010    -2.0910 O.2   1 <1>  -0.5700 
 20 N        5.1130     8.5410    -0.1860 N.am  1 <1>  -0.7300 
 21 C        5.3640     9.9060     0.3110 C.3   1 <1>   0.1400 
 22 C        4.0210    10.5780     0.5940 C.3   1 <1>  -0.1600 
 23 C        4.2140    12.0020     1.1300 C.3   1 <1>  -0.1600 
 24 C        2.8650    12.6690     1.4130 C.3   1 <1>  -0.2400 
 25 H        0.2910     1.3770     0.6170 H     1 <1>   0.1500 
 26 H        2.6660     1.2340     0.1780 H     1 <1>   0.1500 
 27 H        0.3140     7.7810    -0.8140 H     1 <1>   0.1500 
 28 H        3.9390     3.2340    -0.4200 H     1 <1>   0.1500 
 29 H        2.6990     7.8320    -1.0650 H     1 <1>   0.1500 
 30 H        4.4810     6.6500    -2.5820 H     1 <1>   0.0800 
 31 H        5.9870     6.0140    -2.0090 H     1 <1>   0.0800 
 32 H        4.5990     4.9940     1.3160 H     1 <1>   0.0800 
 33 H        5.8480     6.1390     0.8890 H     1 <1>   0.0800 
 34 H        5.8550     4.5380     0.1820 H     1 <1>   0.0800 
 35 H        4.5010     7.9400     0.3760 H     1 <1>   0.3700 
 36 H        5.9130    10.4690    -0.4260 H     1 <1>   0.0800 
 37 H        5.9530     9.8530     1.2110 H     1 <1>   0.0800 
 38 H        3.4770     9.9980     1.3180 H     1 <1>   0.0800 
 39 H        3.4510    10.6180    -0.3180 H     1 <1>   0.0800 
 40 H        4.7550    12.5900     0.4080 H     1 <1>   0.0800 
 41 H        4.7920    11.9740     2.0380 H     1 <1>   0.0800 
 42 H        2.2790    12.7320     0.5120 H     1 <1>   0.0800 
 43 H        3.0190    13.6660     1.7880 H     1 <1>   0.0800 
 44 H        2.3130    12.1090     2.1470 H     1 <1>   0.0800 
@<TRIPOS>BOND
  1   1   2  1   
  2   2   3  1   
  3   2   4  1   
  4   2   5  1   
  5   5   6  ar  
  6   5   7  ar  
  7   6   8  ar  
  8   6   9  ar  
  9   7  10  ar  
 10   7  25  1   
 11   8  11  ar  
 12   9  12  ar  
 13   9  13  ar  
 14  10  13  ar  
 15  10  26  1   
 16  11  14  ar  
 17  11  27  1   
 18  12  14  ar  
 19  12  15  1   
 20  13  28  1   
 21  14  29  1   
 22  15  16  1   
 23  15  17  1   
 24  16  18  1   
 25  16  30  1   
 26  16  31  1   
 27  17  32  1   
 28  17  33  1   
 29  17  34  1   
 30  18  19  2   
 31  18  20  am  
 32  20  21  1   
 33  20  35  1   
 34  21  22  1   
 35  21  36  1   
 36  21  37  1   
 37  22  23  1   
 38  22  38  1   
 39  22  39  1   
 40  23  24  1   
 41  23  40  1   
 42  23  41  1   
 43  24  42  1   
 44  24  43  1   
 45  24  44  1   
@<TRIPOS>SUBSTRUCTURE
  1 ****  12 GROUP 4 **** **** 0

# MOE 2024.06 (io_trps.svl 2023.06)
