@<TRIPOS>MOLECULE
NONAME
57 59 1 0 0 
SMALL
USER_CHARGES


@<TRIPOS>ATOM
  1 O        0.9110    -0.8430     0.1110 O.2   1 <1>  -0.5700 
  2 C        1.7870    -0.0670    -0.2410 C.2   1 <1>   0.5440 
  3 N        1.8020     1.1530     0.3670 N.am  1 <1>  -0.5470 
  4 C        2.7140    -0.4560    -1.2740 C.ar  1 <1>   0.0860 
  5 C        2.7070     2.2270     0.2920 C.ar  1 <1>   0.1170 
  6 C        3.3250    -1.7230    -1.2330 C.ar  1 <1>   0.4100 
  7 C        2.9900     0.3600    -2.3640 C.ar  1 <1>  -0.1500 
  8 C        2.2160     3.5370     0.3280 C.ar  1 <1>   0.0820 
  9 C        4.0780     2.0220     0.2000 C.ar  1 <1>  -0.1500 
 10 N        4.0720    -2.2200    -2.2120 N.ar  1 <1>  -0.6200 
 11 N        3.1610    -2.5540    -0.1490 N.pl3 1 <1>  -0.8690 
 12 C        3.8120    -0.1340    -3.3510 C.ar  1 <1>  -0.1500 
 13 O        0.8630     3.6860     0.4450 O.3   1 <1>  -0.3620 
 14 C        3.0920     4.6150     0.2460 C.ar  1 <1>  -0.1500 
 15 C        4.9450     3.0960     0.1170 C.ar  1 <1>  -0.1500 
 16 C        4.3140    -1.4180    -3.2310 C.ar  1 <1>   0.1600 
 17 C        2.9970    -4.0200    -0.3030 C.3   1 <1>   0.2890 
 18 C        0.2590     4.9610     0.4720 C.3   1 <1>   0.0400 
 19 C        4.4620     4.3930     0.1360 C.ar  1 <1>   0.0830 
 20 C        1.7540    -4.2880    -1.1790 C.3   1 <1>   0.3430 
 21 C        2.8050    -4.6410     1.0920 C.3   1 <1>  -0.1600 
 22 O        5.3870     5.3850     0.0460 O.3   1 <1>  -0.3620 
 23 N        0.5340    -3.6310    -0.5760 N.4   1 <1>  -0.9590 
 24 C        1.3290    -4.9580     1.4260 C.3   1 <1>  -0.1600 
 25 C        5.0160     6.7440     0.1090 C.3   1 <1>   0.0400 
 26 C        0.3260    -3.9300     0.8810 C.3   1 <1>   0.3430 
 27 C       -0.6730    -3.8360    -1.4080 C.3   1 <1>   0.3430 
 28 C       -1.7250    -2.7900    -1.0570 C.3   1 <1>  -0.2400 
 29 H        0.9310     1.3890     0.8490 H     1 <1>   0.3700 
 30 H        2.5680     1.3480    -2.4370 H     1 <1>   0.1500 
 31 H        4.4800     1.0250     0.2000 H     1 <1>   0.1500 
 32 H        2.6560    -2.1590     0.6510 H     1 <1>   0.4000 
 33 H        4.0610     0.4650    -4.2100 H     1 <1>   0.1500 
 34 H        2.7180     5.6170     0.2670 H     1 <1>   0.1500 
 35 H        6.0050     2.9340     0.0420 H     1 <1>   0.1500 
 36 H        4.9470    -1.7980    -4.0160 H     1 <1>   0.1500 
 37 H        3.8790    -4.4270    -0.7700 H     1 <1>   0.0800 
 38 H       -0.8040     4.8250     0.5630 H     1 <1>   0.0800 
 39 H        0.4830     5.4730    -0.4470 H     1 <1>   0.0800 
 40 H        0.6300     5.5070     1.3210 H     1 <1>   0.0800 
 41 H        1.6000    -5.3510    -1.2580 H     1 <1>   0.0800 
 42 H        1.9380    -3.8970    -2.1660 H     1 <1>   0.0800 
 43 H        3.2270    -3.9910     1.8410 H     1 <1>   0.0800 
 44 H        3.3610    -5.5610     1.1350 H     1 <1>   0.0800 
 45 H        0.7400    -2.6100    -0.5900 H     1 <1>   0.4500 
 46 H        1.2140    -5.0290     2.4940 H     1 <1>   0.0800 
 47 H        1.0720    -5.9230     1.0240 H     1 <1>   0.0800 
 48 H        5.9100     7.3380     0.0380 H     1 <1>   0.0800 
 49 H        4.5290     6.9310     1.0500 H     1 <1>   0.0800 
 50 H        4.3640     6.9680    -0.7160 H     1 <1>   0.0800 
 51 H       -0.6760    -4.2930     1.0430 H     1 <1>   0.0800 
 52 H        0.4320    -3.0120     1.4380 H     1 <1>   0.0800 
 53 H       -1.0660    -4.8280    -1.2550 H     1 <1>   0.0800 
 54 H       -0.4140    -3.7300    -2.4500 H     1 <1>   0.0800 
 55 H       -2.0640    -2.8950    -0.0430 H     1 <1>   0.0800 
 56 H       -2.5750    -2.9130    -1.7040 H     1 <1>   0.0800 
 57 H       -1.3370    -1.7980    -1.2050 H     1 <1>   0.0800 
@<TRIPOS>BOND
  1   1   2  2   
  2   2   3  am  
  3   2   4  1   
  4   3   5  1   
  5   3  29  1   
  6   4   6  ar  
  7   4   7  ar  
  8   5   8  ar  
  9   5   9  ar  
 10   6  10  ar  
 11   6  11  1   
 12   7  12  ar  
 13   7  30  1   
 14   8  13  1   
 15   8  14  ar  
 16   9  15  ar  
 17   9  31  1   
 18  10  16  ar  
 19  11  17  1   
 20  11  32  1   
 21  12  16  ar  
 22  12  33  1   
 23  13  18  1   
 24  14  19  ar  
 25  14  34  1   
 26  15  19  ar  
 27  15  35  1   
 28  16  36  1   
 29  17  20  1   
 30  17  21  1   
 31  17  37  1   
 32  18  38  1   
 33  18  39  1   
 34  18  40  1   
 35  19  22  1   
 36  20  23  1   
 37  20  41  1   
 38  20  42  1   
 39  21  24  1   
 40  21  43  1   
 41  21  44  1   
 42  22  25  1   
 43  23  26  1   
 44  23  27  1   
 45  23  45  1   
 46  24  26  1   
 47  24  46  1   
 48  24  47  1   
 49  25  48  1   
 50  25  49  1   
 51  25  50  1   
 52  26  51  1   
 53  26  52  1   
 54  27  28  1   
 55  27  53  1   
 56  27  54  1   
 57  28  55  1   
 58  28  56  1   
 59  28  57  1   
@<TRIPOS>SUBSTRUCTURE
  1 ****   2 GROUP 4 **** **** 0

# MOE 2024.06 (io_trps.svl 2023.06)
