@<TRIPOS>MOLECULE
NONAME
60 63 1 0 0 
SMALL
USER_CHARGES


@<TRIPOS>ATOM
  1 O        2.1140    -0.2530    -3.1820 O.2   1 <1>  -0.5700 
  2 C        1.6460    -0.7440    -2.1840 C.2   1 <1>   0.5690 
  3 N        1.4410    -0.0260    -1.0490 N.am  1 <1>  -0.7300 
  4 C        1.2740    -2.2310    -2.1860 C.3   1 <1>   0.1710 
  5 C        1.7170     1.4170    -0.8690 C.3   1 <1>   0.1400 
  6 N        0.1810    -2.6080    -1.2400 N.3   1 <1>  -0.8100 
  7 C        2.9700     1.6040    -0.0150 C.3   1 <1>  -0.0170 
  8 C       -1.1180    -2.0280    -1.6200 C.3   1 <1>   0.1100 
  9 C       -0.0260    -4.0660    -1.1750 C.3   1 <1>   0.1100 
 10 C        3.2270     3.0830     0.2290 C.ar  1 <1>  -0.1430 
 11 C       -2.1350    -2.9040    -0.9020 C.3   1 <1>   0.2000 
 12 C       -1.5470    -4.3020    -1.1050 C.3   1 <1>  -0.0800 
 13 C        3.8920     3.8390    -0.7230 C.ar  1 <1>  -0.1500 
 14 C        2.7970     3.6890     1.4000 C.ar  1 <1>  -0.1500 
 15 O       -2.0870    -2.5660     0.4390 O.3   1 <1>  -0.6800 
 16 C       -1.9690    -5.3480    -0.0500 C.3   1 <1>  -0.0170 
 17 C        4.1240     5.1860    -0.5060 C.ar  1 <1>  -0.1500 
 18 C        3.0280     5.0360     1.6200 C.ar  1 <1>  -0.1500 
 19 C       -1.4810    -6.7850    -0.2810 C.ar  1 <1>  -0.1430 
 20 C        3.6960     5.7940     0.6620 C.ar  1 <1>   0.0820 
 21 C       -1.5890    -7.7410     0.7600 C.ar  1 <1>   0.0000 
 22 C       -0.9420    -7.2170    -1.4620 C.ar  1 <1>  -0.1500 
 23 O        3.9640     7.1180     0.7970 O.3   1 <1>  -0.3630 
 24 C       -1.1020    -9.0490     0.5160 C.ar  1 <1>   0.3100 
 25 C       -2.1590    -7.4800     2.0290 C.ar  1 <1>  -0.1500 
 26 C       -0.4990    -8.5370    -1.6020 C.ar  1 <1>   0.1600 
 27 C        3.5800     7.8280     1.9530 C.3   1 <1>   0.0400 
 28 N       -0.5590    -9.4290    -0.6670 N.ar  1 <1>  -0.6200 
 29 C       -1.1830   -10.0100     1.5360 C.ar  1 <1>  -0.1500 
 30 C       -2.2260    -8.4400     3.0020 C.ar  1 <1>  -0.1500 
 31 C       -1.7300    -9.7220     2.7570 C.ar  1 <1>  -0.1500 
 32 H        1.0010    -0.5250    -0.2700 H     1 <1>   0.3700 
 33 H        2.1620    -2.7790    -1.9270 H     1 <1>   0.0800 
 34 H        1.0000    -2.5080    -3.1890 H     1 <1>   0.0800 
 35 H        1.8640     1.8830    -1.8300 H     1 <1>   0.0800 
 36 H        0.8730     1.8860    -0.3940 H     1 <1>   0.0800 
 37 H        2.8480     1.0980     0.9250 H     1 <1>   0.0800 
 38 H        3.8150     1.1740    -0.5240 H     1 <1>   0.0800 
 39 H       -1.2020    -0.9950    -1.3270 H     1 <1>   0.0800 
 40 H       -1.2660    -2.1080    -2.6850 H     1 <1>   0.0800 
 41 H        0.3810    -4.5560    -2.0430 H     1 <1>   0.0800 
 42 H        0.4660    -4.4520    -0.2970 H     1 <1>   0.0800 
 43 H       -3.1440    -2.7930    -1.2600 H     1 <1>   0.0800 
 44 H       -1.8780    -4.6350    -2.0720 H     1 <1>   0.0800 
 45 H        4.2310     3.3840    -1.6380 H     1 <1>   0.1500 
 46 H        2.2800     3.1140     2.1480 H     1 <1>   0.1500 
 47 H       -1.1370    -2.4990     0.6700 H     1 <1>   0.4000 
 48 H       -3.0430    -5.3610     0.0110 H     1 <1>   0.0800 
 49 H       -1.5940    -5.0200     0.9030 H     1 <1>   0.0800 
 50 H        4.6390     5.7750    -1.2430 H     1 <1>   0.1500 
 51 H        2.6840     5.4750     2.5360 H     1 <1>   0.1500 
 52 H       -0.8350    -6.5830    -2.3200 H     1 <1>   0.1500 
 53 H       -2.5550    -6.5050     2.2440 H     1 <1>   0.1500 
 54 H       -0.0800    -8.8300    -2.5490 H     1 <1>   0.1500 
 55 H        3.8980     8.8490     1.8380 H     1 <1>   0.0800 
 56 H        4.0620     7.3880     2.8080 H     1 <1>   0.0800 
 57 H        2.5100     7.7870     2.0480 H     1 <1>   0.0800 
 58 H       -0.7980   -10.9900     1.3220 H     1 <1>   0.1500 
 59 H       -2.6600    -8.2220     3.9630 H     1 <1>   0.1500 
 60 H       -1.7870   -10.4690     3.5300 H     1 <1>   0.1500 
@<TRIPOS>BOND
  1   1   2  2   
  2   2   3  am  
  3   2   4  1   
  4   3   5  1   
  5   3  32  1   
  6   4   6  1   
  7   4  33  1   
  8   4  34  1   
  9   5   7  1   
 10   5  35  1   
 11   5  36  1   
 12   6   8  1   
 13   6   9  1   
 14   7  10  1   
 15   7  37  1   
 16   7  38  1   
 17   8  11  1   
 18   8  39  1   
 19   8  40  1   
 20   9  12  1   
 21   9  41  1   
 22   9  42  1   
 23  10  13  ar  
 24  10  14  ar  
 25  11  12  1   
 26  11  15  1   
 27  11  43  1   
 28  12  16  1   
 29  12  44  1   
 30  13  17  ar  
 31  13  45  1   
 32  14  18  ar  
 33  14  46  1   
 34  15  47  1   
 35  16  19  1   
 36  16  48  1   
 37  16  49  1   
 38  17  20  ar  
 39  17  50  1   
 40  18  20  ar  
 41  18  51  1   
 42  19  21  ar  
 43  19  22  ar  
 44  20  23  1   
 45  21  24  ar  
 46  21  25  ar  
 47  22  26  ar  
 48  22  52  1   
 49  23  27  1   
 50  24  28  ar  
 51  24  29  ar  
 52  25  30  ar  
 53  25  53  1   
 54  26  28  ar  
 55  26  54  1   
 56  27  55  1   
 57  27  56  1   
 58  27  57  1   
 59  29  31  ar  
 60  29  58  1   
 61  30  31  ar  
 62  30  59  1   
 63  31  60  1   
@<TRIPOS>SUBSTRUCTURE
  1 ****   6 GROUP 4 **** **** 0

# MOE 2024.06 (io_trps.svl 2023.06)
