@<TRIPOS>MOLECULE
NONAME
51 53 1 0 0 
SMALL
USER_CHARGES


@<TRIPOS>ATOM
  1 O        0.6970    -0.0360     1.5760 O.2   1 <1>  -0.5700 
  2 C        1.5910    -0.8090     1.2840 C.2   1 <1>   0.5440 
  3 N        2.9000    -0.3950     1.4200 N.am  1 <1>  -0.6600 
  4 C        1.2540    -2.1300     0.7890 C.ar  1 <1>   0.0860 
  5 C        4.0450    -0.9920     0.6710 C.3   1 <1>   0.1400 
  6 C        3.2630     0.8720     2.1220 C.3   1 <1>   0.1400 
  7 C        0.3400    -2.2930    -0.2500 C.ar  1 <1>  -0.1500 
  8 C        1.8210    -3.2820     1.3310 C.ar  1 <1>  -0.1500 
  9 C        4.6970     0.0520    -0.2540 C.3   1 <1>   0.1100 
 10 C        3.9270     1.8630     1.1530 C.3   1 <1>   0.1100 
 11 C        0.0120    -3.5410    -0.7530 C.ar  1 <1>  -0.1440 
 12 C        1.5060    -4.5370     0.8450 C.ar  1 <1>  -0.1500 
 13 N        5.1090     1.2680     0.4810 N.3   1 <1>  -0.8100 
 14 C        0.6010    -4.6780    -0.2040 C.ar  1 <1>   0.0820 
 15 C       -0.9990    -3.6340    -1.8910 C.3   1 <1>   0.1220 
 16 C        5.7590     2.2240    -0.4320 C.3   1 <1>   0.1100 
 17 O        0.2620    -5.8870    -0.7160 O.3   1 <1>  -0.3630 
 18 C       -2.4150    -3.6450    -1.3400 C.2   1 <1>  -0.2880 
 19 C        6.5810     3.2490     0.3530 C.3   1 <1>   0.0960 
 20 C        0.6720    -7.0990    -0.1230 C.3   1 <1>   0.0400 
 21 C       -3.3100    -4.6180    -1.5370 C.2   1 <1>  -0.3000 
 22 N        7.3750     4.0680    -0.5760 N.pl3 1 <1>   0.3140 
 23 N        6.8330     4.9490    -1.4060 N.2   1 <1>  -0.7070 
 24 C        8.6990     4.0760    -0.7530 C.2   1 <1>   0.0360 
 25 C        7.8660     5.4240    -2.0210 C.2   1 <1>   0.3660 
 26 N        9.0510     4.9170    -1.6570 N.2   1 <1>  -0.5650 
 27 H        3.7200    -1.8240     0.0740 H     1 <1>   0.0800 
 28 H        4.7790    -1.3490     1.3730 H     1 <1>   0.0800 
 29 H        3.9470     0.6470     2.9210 H     1 <1>   0.0800 
 30 H        2.3910     1.3290     2.5570 H     1 <1>   0.0800 
 31 H       -0.1200    -1.4100    -0.6600 H     1 <1>   0.1500 
 32 H        2.5150    -3.1840     2.1470 H     1 <1>   0.1500 
 33 H        3.9990     0.3130    -1.0310 H     1 <1>   0.0800 
 34 H        5.5600    -0.3950    -0.7170 H     1 <1>   0.0800 
 35 H        4.2210     2.7330     1.7110 H     1 <1>   0.0800 
 36 H        3.1990     2.1680     0.4190 H     1 <1>   0.0800 
 37 H        1.9720    -5.3920     1.2940 H     1 <1>   0.1500 
 38 H       -0.8250    -4.5150    -2.4820 H     1 <1>   0.0800 
 39 H       -0.8840    -2.7880    -2.5440 H     1 <1>   0.0800 
 40 H        5.0210     2.7240    -1.0380 H     1 <1>   0.0800 
 41 H        6.4280     1.6870    -1.0830 H     1 <1>   0.0800 
 42 H       -2.6340    -2.7690    -0.7530 H     1 <1>   0.1500 
 43 H        7.2460     2.7430     1.0270 H     1 <1>   0.0800 
 44 H        5.9360     3.9030     0.9060 H     1 <1>   0.0800 
 45 H        0.2220    -7.9070    -0.6720 H     1 <1>   0.0800 
 46 H        0.3340    -7.1190     0.8980 H     1 <1>   0.0800 
 47 H        1.7430    -7.1710    -0.1780 H     1 <1>   0.0800 
 48 H       -4.3080    -4.6060    -1.1330 H     1 <1>   0.1500 
 49 H       -3.1190    -5.5080    -2.1110 H     1 <1>   0.1500 
 50 H        9.3710     3.4460    -0.1980 H     1 <1>   0.1500 
 51 H        7.8030     6.1830    -2.7850 H     1 <1>   0.1500 
@<TRIPOS>BOND
  1   1   2  2   
  2   2   3  am  
  3   2   4  1   
  4   3   5  1   
  5   3   6  1   
  6   4   7  ar  
  7   4   8  ar  
  8   5   9  1   
  9   5  27  1   
 10   5  28  1   
 11   6  10  1   
 12   6  29  1   
 13   6  30  1   
 14   7  11  ar  
 15   7  31  1   
 16   8  12  ar  
 17   8  32  1   
 18   9  13  1   
 19   9  33  1   
 20   9  34  1   
 21  10  13  1   
 22  10  35  1   
 23  10  36  1   
 24  11  14  ar  
 25  11  15  1   
 26  12  14  ar  
 27  12  37  1   
 28  13  16  1   
 29  14  17  1   
 30  15  18  1   
 31  15  38  1   
 32  15  39  1   
 33  16  19  1   
 34  16  40  1   
 35  16  41  1   
 36  17  20  1   
 37  18  21  2   
 38  18  42  1   
 39  19  22  1   
 40  19  43  1   
 41  19  44  1   
 42  20  45  1   
 43  20  46  1   
 44  20  47  1   
 45  21  48  1   
 46  21  49  1   
 47  22  23  1   
 48  22  24  1   
 49  23  25  2   
 50  24  26  2   
 51  24  50  1   
 52  25  26  1   
 53  25  51  1   
@<TRIPOS>SUBSTRUCTURE
  1 ****   5 GROUP 4 **** **** 0

# MOE 2024.06 (io_trps.svl 2023.06)
