@<TRIPOS>MOLECULE
NONAME
45 46 1 0 0 
SMALL
USER_CHARGES


@<TRIPOS>ATOM
  1 O        0.4550     2.4700    -2.2400 O.co2 1 <1>  -0.9000 
  2 C       -0.3190     1.8660    -1.4960 C.2   1 <1>   0.9060 
  3 O       -0.7440     0.7220    -1.7440 O.co2 1 <1>  -0.9000 
  4 C       -0.7900     2.4610    -0.1420 C.3   1 <1>   0.4600 
  5 N       -1.7810     1.4990     0.5010 N.4   1 <1>  -0.9590 
  6 C       -1.3790     3.8780    -0.1850 C.ar  1 <1>  -0.1430 
  7 C       -3.1970     1.7920     0.1160 C.3   1 <1>   0.3430 
  8 C       -1.5340     1.2890     1.9480 C.3   1 <1>   0.2630 
  9 C       -1.9970     4.3720    -1.3260 C.ar  1 <1>  -0.1500 
 10 C       -1.3140     4.6860     0.9430 C.ar  1 <1>  -0.1500 
 11 C       -4.1030     0.5540     0.1910 C.3   1 <1>   0.0000 
 12 C       -2.5560     5.6370    -1.3360 C.ar  1 <1>   0.0830 
 13 C       -1.8690     5.9550     0.9400 C.ar  1 <1>  -0.1500 
 14 C       -4.7540     0.3350     1.5660 C.3   1 <1>   0.2580 
 15 C       -5.5430     0.9310    -0.1920 C.3   1 <1>   0.2580 
 16 C       -3.5780    -0.7140    -0.5120 C.3   1 <1>  -0.2400 
 17 O       -3.1630     6.0450    -2.4740 O.3   1 <1>  -0.3630 
 18 C       -2.5040     6.4450    -0.1970 C.ar  1 <1>   0.0830 
 19 O       -5.7270     1.2910     1.1720 O.3   1 <1>  -0.5160 
 20 C       -2.4340     6.9600    -3.2590 C.3   1 <1>   0.0400 
 21 O       -3.0820     7.6790    -0.2480 O.3   1 <1>  -0.3630 
 22 C       -3.1580     8.5090     0.8890 C.3   1 <1>   0.0400 
 23 H        0.0980     2.4970     0.4610 H     1 <1>   0.0800 
 24 H       -1.5350     0.6470    -0.0620 H     1 <1>   0.4500 
 25 H       -3.2100     2.1370    -0.9050 H     1 <1>   0.0800 
 26 H       -3.5960     2.5830     0.7320 H     1 <1>   0.0800 
 27 H       -1.8020     2.1740     2.5010 H     1 <1>   0.0800 
 28 H       -0.4920     1.0710     2.1180 H     1 <1>   0.0800 
 29 H       -2.1190     0.4600     2.3090 H     1 <1>   0.0800 
 30 H       -2.0500     3.7870    -2.2300 H     1 <1>   0.1500 
 31 H       -0.8260     4.3350     1.8350 H     1 <1>   0.1500 
 32 H       -1.7960     6.5480     1.8320 H     1 <1>   0.1500 
 33 H       -4.2010     0.6960     2.4130 H     1 <1>   0.0000 
 34 H       -5.2180    -0.6270     1.7080 H     1 <1>   0.0000 
 35 H       -6.1870     0.1050    -0.4460 H     1 <1>   0.0000 
 36 H       -5.6450     1.7930    -0.8270 H     1 <1>   0.0000 
 37 H       -2.7040    -1.0960    -0.0160 H     1 <1>   0.0800 
 38 H       -3.3140    -0.4910    -1.5330 H     1 <1>   0.0800 
 39 H       -4.3260    -1.4880    -0.5170 H     1 <1>   0.0800 
 40 H       -2.9990     7.1630    -4.1500 H     1 <1>   0.0800 
 41 H       -1.4860     6.5200    -3.5130 H     1 <1>   0.0800 
 42 H       -2.2910     7.8670    -2.6990 H     1 <1>   0.0800 
 43 H       -3.6900     9.4020     0.6140 H     1 <1>   0.0800 
 44 H       -2.1620     8.7610     1.2050 H     1 <1>   0.0800 
 45 H       -3.6930     7.9900     1.6640 H     1 <1>   0.0800 
@<TRIPOS>BOND
  1   1   2  ar  
  2   2   3  ar  
  3   2   4  1   
  4   4   5  1   
  5   4   6  1   
  6   4  23  1   
  7   5   7  1   
  8   5   8  1   
  9   5  24  1   
 10   6   9  ar  
 11   6  10  ar  
 12   7  11  1   
 13   7  25  1   
 14   7  26  1   
 15   8  27  1   
 16   8  28  1   
 17   8  29  1   
 18   9  12  ar  
 19   9  30  1   
 20  10  13  ar  
 21  10  31  1   
 22  11  14  1   
 23  11  15  1   
 24  11  16  1   
 25  12  17  1   
 26  12  18  ar  
 27  13  18  ar  
 28  13  32  1   
 29  14  19  1   
 30  14  33  1   
 31  14  34  1   
 32  15  19  1   
 33  15  35  1   
 34  15  36  1   
 35  16  37  1   
 36  16  38  1   
 37  16  39  1   
 38  17  20  1   
 39  18  21  1   
 40  20  40  1   
 41  20  41  1   
 42  20  42  1   
 43  21  22  1   
 44  22  43  1   
 45  22  44  1   
 46  22  45  1   
@<TRIPOS>SUBSTRUCTURE
  1 ****   6 GROUP 4 **** **** 0

# MOE 2024.06 (io_trps.svl 2023.06)
