@<TRIPOS>MOLECULE
NONAME
48 50 1 0 0 
SMALL
USER_CHARGES


@<TRIPOS>ATOM
  1 F       -1.5510    -0.9430     0.2280 F     1 <1>  -0.1900 
  2 C       -2.6840    -0.2970     0.1230 C.ar  1 <1>   0.1900 
  3 C       -3.0340     0.4000    -1.0380 C.ar  1 <1>   0.0830 
  4 C       -3.5260    -0.3470     1.2170 C.ar  1 <1>  -0.1500 
  5 O       -2.2900     0.5240    -2.1740 O.3   1 <1>  -0.3630 
  6 C       -4.2660     1.0330    -1.0630 C.ar  1 <1>  -0.1500 
  7 C       -4.7460     0.2990     1.1610 C.ar  1 <1>  -0.1500 
  8 C       -0.9350     0.1370    -2.2460 C.3   1 <1>   0.0400 
  9 C       -5.1500     0.9900     0.0160 C.ar  1 <1>   0.0530 
 10 C       -6.4460     1.6150    -0.0720 C.2   1 <1>   0.0870 
 11 O       -6.6380     2.6830    -0.8030 O.3   1 <1>  -0.0190 
 12 C       -7.6490     1.2840     0.4600 C.2   1 <1>  -0.0860 
 13 N       -7.8830     3.0840    -0.7990 N.2   1 <1>  -0.4100 
 14 C       -8.5160     2.2590    -0.0360 C.2   1 <1>   0.3720 
 15 C       -7.9890     0.1690     1.2780 C.2   1 <1>   0.7160 
 16 N       -9.8950     2.3210     0.2250 N.pl3 1 <1>  -0.8210 
 17 O       -7.9380     0.2770     2.4900 O.2   1 <1>  -0.5700 
 18 N       -8.3110    -1.0520     0.7290 N.am  1 <1>  -0.6600 
 19 C      -10.2680     2.3470     1.6700 C.3   1 <1>   0.1290 
 20 C      -10.6730     3.2940    -0.5940 C.3   1 <1>   0.1290 
 21 C       -8.0260    -2.3100     1.4960 C.3   1 <1>   0.2010 
 22 C       -8.7450    -1.2210    -0.6850 C.3   1 <1>   0.1400 
 23 C       -6.5990    -2.8240     1.2740 C.2   1 <1>   0.5690 
 24 C       -7.9480    -2.3070    -1.4240 C.3   1 <1>  -0.1600 
 25 O       -6.0040    -3.3030     2.2060 O.2   1 <1>  -0.5700 
 26 N       -5.9770    -2.7630     0.0660 N.am  1 <1>  -0.7300 
 27 C       -6.4300    -2.2130    -1.2370 C.3   1 <1>   0.1400 
 28 H       -3.2320    -0.8880     2.1000 H     1 <1>   0.1500 
 29 H       -4.5450     1.5700    -1.9520 H     1 <1>   0.1500 
 30 H       -5.3890     0.2600     2.0230 H     1 <1>   0.1500 
 31 H       -0.5480     0.4500    -3.1990 H     1 <1>   0.0800 
 32 H       -0.8710    -0.9330    -2.1630 H     1 <1>   0.0800 
 33 H       -0.3890     0.6190    -1.4540 H     1 <1>   0.0800 
 34 H      -10.5240     1.3530     1.9930 H     1 <1>   0.0800 
 35 H      -11.1130     2.9920     1.8390 H     1 <1>   0.0800 
 36 H       -9.4420     2.7020     2.2640 H     1 <1>   0.0800 
 37 H      -10.4280     3.1760    -1.6350 H     1 <1>   0.0800 
 38 H      -10.4370     4.3010    -0.2930 H     1 <1>   0.0800 
 39 H      -11.7280     3.1210    -0.4690 H     1 <1>   0.0800 
 40 H       -8.7220    -3.0760     1.2110 H     1 <1>   0.0800 
 41 H       -8.1580    -2.1340     2.5490 H     1 <1>   0.0800 
 42 H       -8.6420    -0.2920    -1.2190 H     1 <1>   0.0800 
 43 H       -9.7910    -1.4770    -0.6970 H     1 <1>   0.0800 
 44 H       -8.1610    -2.1970    -2.4720 H     1 <1>   0.0800 
 45 H       -8.2920    -3.2870    -1.1450 H     1 <1>   0.0800 
 46 H       -5.0060    -3.0830     0.0840 H     1 <1>   0.3700 
 47 H       -6.1050    -1.1920    -1.3300 H     1 <1>   0.0800 
 48 H       -5.9530    -2.7810    -2.0180 H     1 <1>   0.0800 
@<TRIPOS>BOND
  1   1   2  1   
  2   2   3  ar  
  3   2   4  ar  
  4   3   5  1   
  5   3   6  ar  
  6   4   7  ar  
  7   4  28  1   
  8   5   8  1   
  9   6   9  ar  
 10   6  29  1   
 11   7   9  ar  
 12   7  30  1   
 13   8  31  1   
 14   8  32  1   
 15   8  33  1   
 16   9  10  1   
 17  10  11  1   
 18  10  12  2   
 19  11  13  1   
 20  12  14  1   
 21  12  15  1   
 22  13  14  2   
 23  14  16  1   
 24  15  17  2   
 25  15  18  am  
 26  16  19  1   
 27  16  20  1   
 28  18  21  1   
 29  18  22  1   
 30  19  34  1   
 31  19  35  1   
 32  19  36  1   
 33  20  37  1   
 34  20  38  1   
 35  20  39  1   
 36  21  23  1   
 37  21  40  1   
 38  21  41  1   
 39  22  24  1   
 40  22  42  1   
 41  22  43  1   
 42  23  25  2   
 43  23  26  am  
 44  24  27  1   
 45  24  44  1   
 46  24  45  1   
 47  26  27  1   
 48  26  46  1   
 49  27  47  1   
 50  27  48  1   
@<TRIPOS>SUBSTRUCTURE
  1 ****   9 GROUP 4 **** **** 0

# MOE 2024.06 (io_trps.svl 2023.06)
