@<TRIPOS>MOLECULE
NONAME
47 48 1 0 0 
SMALL
USER_CHARGES


@<TRIPOS>ATOM
  1 O        0.1570    -0.0530     1.0720 O.2   1 <1>  -0.5700 
  2 C        1.0250    -0.5840     0.4040 C.2   1 <1>   0.7160 
  3 N        1.8970     0.1620    -0.3370 N.am  1 <1>  -0.4930 
  4 C        1.1720    -2.0220     0.3560 C.2   1 <1>  -0.0860 
  5 C        2.0370     1.5640    -0.4810 C.2   1 <1>   0.0630 
  6 C        2.3050    -2.7800     0.5500 C.2   1 <1>  -0.3320 
  7 C        0.1540    -2.9480     0.0710 C.2   1 <1>  -0.1810 
  8 C        1.0600     2.5580    -0.6120 C.2   1 <1>   0.1080 
  9 C        3.2130     2.2280    -0.5520 C.2   1 <1>  -0.3320 
 10 N        2.0100    -4.0820     0.3860 N.pl3 1 <1>   0.0330 
 11 C        3.7040    -2.3200     0.9280 C.3   1 <1>  -0.0600 
 12 C        0.6800    -4.2180     0.0870 C.2   1 <1>  -0.2370 
 13 C       -1.2850    -2.5270    -0.1980 C.3   1 <1>  -0.0590 
 14 N        1.5790     3.7380    -0.7480 N.2   1 <1>  -0.7070 
 15 C       -0.4380     2.3550    -0.6250 C.3   1 <1>  -0.0590 
 16 N        2.9070     3.5420    -0.7040 N.pl3 1 <1>   0.3140 
 17 C        4.6330     1.6850    -0.4760 C.3   1 <1>  -0.0600 
 18 C        0.0720    -5.5030    -0.1420 C.2   1 <1>   0.5940 
 19 C        3.8420     4.6810    -0.8130 C.3   1 <1>   0.0960 
 20 O       -1.0710    -5.6630    -0.4830 O.2   1 <1>  -0.5700 
 21 C        0.9020    -6.7550     0.0450 C.3   1 <1>  -0.1790 
 22 C        4.1930     5.2390     0.5740 C.3   1 <1>  -0.1600 
 23 C        5.1730     6.4130     0.4740 C.3   1 <1>  -0.2400 
 24 H        2.5960    -0.3920    -0.8210 H     1 <1>   0.3700 
 25 H        2.6730    -4.8590     0.4840 H     1 <1>   0.2700 
 26 H        3.7020    -1.2830     1.2150 H     1 <1>   0.0800 
 27 H        4.3770    -2.4510     0.0990 H     1 <1>   0.0800 
 28 H        4.0660    -2.8910     1.7640 H     1 <1>   0.0800 
 29 H       -1.3120    -1.7980    -0.9860 H     1 <1>   0.0800 
 30 H       -1.7040    -2.0890     0.6900 H     1 <1>   0.0800 
 31 H       -1.8990    -3.3570    -0.4870 H     1 <1>   0.0800 
 32 H       -0.6830     1.4180    -1.0880 H     1 <1>   0.0800 
 33 H       -0.9090     3.1500    -1.1730 H     1 <1>   0.0800 
 34 H       -0.8080     2.3600     0.3840 H     1 <1>   0.0800 
 35 H        4.6270     0.6210    -0.3350 H     1 <1>   0.0800 
 36 H        5.1550     2.1320     0.3510 H     1 <1>   0.0800 
 37 H        5.1630     1.9060    -1.3850 H     1 <1>   0.0800 
 38 H        3.3670     5.4430    -1.4040 H     1 <1>   0.0800 
 39 H        4.7270     4.3550    -1.3250 H     1 <1>   0.0800 
 40 H        1.3000    -6.7860     1.0420 H     1 <1>   0.0800 
 41 H        1.7010    -6.7750    -0.6720 H     1 <1>   0.0800 
 42 H        0.2860    -7.6240    -0.1040 H     1 <1>   0.0800 
 43 H        4.6300     4.4610     1.1760 H     1 <1>   0.0800 
 44 H        3.2880     5.5710     1.0560 H     1 <1>   0.0800 
 45 H        6.0930     6.1010     0.0110 H     1 <1>   0.0800 
 46 H        5.3960     6.7890     1.4570 H     1 <1>   0.0800 
 47 H        4.7440     7.2120    -0.1050 H     1 <1>   0.0800 
@<TRIPOS>BOND
  1   1   2  2   
  2   2   3  am  
  3   2   4  1   
  4   3   5  1   
  5   3  24  1   
  6   4   6  2   
  7   4   7  1   
  8   5   8  1   
  9   5   9  2   
 10   6  10  1   
 11   6  11  1   
 12   7  12  2   
 13   7  13  1   
 14   8  14  2   
 15   8  15  1   
 16   9  16  1   
 17   9  17  1   
 18  10  12  1   
 19  10  25  1   
 20  11  26  1   
 21  11  27  1   
 22  11  28  1   
 23  12  18  1   
 24  13  29  1   
 25  13  30  1   
 26  13  31  1   
 27  14  16  1   
 28  15  32  1   
 29  15  33  1   
 30  15  34  1   
 31  16  19  1   
 32  17  35  1   
 33  17  36  1   
 34  17  37  1   
 35  18  20  2   
 36  18  21  1   
 37  19  22  1   
 38  19  38  1   
 39  19  39  1   
 40  21  40  1   
 41  21  41  1   
 42  21  42  1   
 43  22  23  1   
 44  22  43  1   
 45  22  44  1   
 46  23  45  1   
 47  23  46  1   
 48  23  47  1   
@<TRIPOS>SUBSTRUCTURE
  1 ****   3 GROUP 4 **** **** 0

# MOE 2024.06 (io_trps.svl 2023.06)
