@<TRIPOS>MOLECULE
NONAME
42 44 1 0 0 
SMALL
USER_CHARGES


@<TRIPOS>ATOM
  1 O       -0.6350    -1.3530    -0.3770 O.2   1 <1>  -0.5700 
  2 C        0.4550    -1.6440     0.0850 C.2   1 <1>   0.8410 
  3 N        0.8670    -1.0300     1.2380 N.2   1 <1>  -0.6610 
  4 N        1.2530    -2.5890    -0.5410 N.am  1 <1>  -0.4690 
  5 C        2.0090    -1.3650     1.7210 C.2   1 <1>   0.3760 
  6 C        2.4650    -2.9400    -0.0040 C.2   1 <1>  -0.0410 
  7 C        0.7830    -3.2710    -1.7880 C.3   1 <1>   0.2010 
  8 C        2.8590    -2.3290     1.1360 C.2   1 <1>  -0.1360 
  9 C        0.4900    -4.7520    -1.5650 C.2   1 <1>   0.5690 
 10 O        1.3260    -5.5480    -1.9270 O.2   1 <1>  -0.5700 
 11 N       -0.6780    -5.1660    -0.9800 N.am  1 <1>  -0.6600 
 12 C       -1.7730    -4.2990    -0.4690 C.3   1 <1>   0.1400 
 13 C       -0.9760    -6.5940    -0.7170 C.3   1 <1>   0.1400 
 14 C       -2.8920    -5.2710    -0.0980 C.3   1 <1>   0.2000 
 15 C       -2.1870    -6.5870     0.2170 C.3   1 <1>  -0.0800 
 16 O       -3.6140    -4.8360     1.0010 O.3   1 <1>  -0.6800 
 17 C       -3.0950    -7.8160     0.0600 C.3   1 <1>   0.0210 
 18 C       -2.3100    -9.1010     0.2420 C.2   1 <1>   0.1080 
 19 N       -1.6920    -9.3990     1.3420 N.2   1 <1>  -0.7070 
 20 C       -2.1530   -10.0820    -0.7320 C.2   1 <1>  -0.1500 
 21 N       -1.1180   -10.5920     1.0970 N.pl3 1 <1>   0.3000 
 22 C       -1.3820   -11.0260    -0.1540 C.2   1 <1>  -0.3320 
 23 C       -0.8720   -12.3350    -0.7280 C.3   1 <1>  -0.0600 
 24 H        2.3480    -0.8920     2.6260 H     1 <1>   0.0600 
 25 H        3.0570    -3.6920    -0.5050 H     1 <1>   0.1500 
 26 H       -0.0940    -2.7940    -2.1840 H     1 <1>   0.0800 
 27 H        1.5540    -3.1880    -2.5330 H     1 <1>   0.0800 
 28 H        3.7940    -2.5510     1.6160 H     1 <1>   0.1500 
 29 H       -1.4290    -3.7710     0.4040 H     1 <1>   0.0800 
 30 H       -2.1010    -3.6030    -1.2210 H     1 <1>   0.0800 
 31 H       -1.2090    -7.0800    -1.6490 H     1 <1>   0.0800 
 32 H       -0.1330    -7.0880    -0.2610 H     1 <1>   0.0800 
 33 H       -3.5690    -5.3770    -0.9280 H     1 <1>   0.0800 
 34 H       -1.8060    -6.5610     1.2240 H     1 <1>   0.0800 
 35 H       -3.0340    -4.7720     1.7850 H     1 <1>   0.4000 
 36 H       -3.5530    -7.8150    -0.9120 H     1 <1>   0.0800 
 37 H       -3.8760    -7.7810     0.7980 H     1 <1>   0.0800 
 38 H       -2.5670   -10.0650    -1.7240 H     1 <1>   0.1500 
 39 H       -0.5540   -11.0820     1.8020 H     1 <1>   0.2700 
 40 H       -1.2160   -12.4540    -1.7400 H     1 <1>   0.0800 
 41 H       -1.2330   -13.1630    -0.1440 H     1 <1>   0.0800 
 42 H        0.2030   -12.3470    -0.7290 H     1 <1>   0.0800 
@<TRIPOS>BOND
  1   1   2  2   
  2   2   3  1   
  3   2   4  am  
  4   3   5  2   
  5   4   6  1   
  6   4   7  1   
  7   5   8  1   
  8   5  24  1   
  9   6   8  2   
 10   6  25  1   
 11   7   9  1   
 12   7  26  1   
 13   7  27  1   
 14   8  28  1   
 15   9  10  2   
 16   9  11  am  
 17  11  12  1   
 18  11  13  1   
 19  12  14  1   
 20  12  29  1   
 21  12  30  1   
 22  13  15  1   
 23  13  31  1   
 24  13  32  1   
 25  14  15  1   
 26  14  16  1   
 27  14  33  1   
 28  15  17  1   
 29  15  34  1   
 30  16  35  1   
 31  17  18  1   
 32  17  36  1   
 33  17  37  1   
 34  18  19  2   
 35  18  20  1   
 36  19  21  1   
 37  20  22  2   
 38  20  38  1   
 39  21  22  1   
 40  21  39  1   
 41  22  23  1   
 42  23  40  1   
 43  23  41  1   
 44  23  42  1   
@<TRIPOS>SUBSTRUCTURE
  1 ****  11 GROUP 4 **** **** 0

# MOE 2024.06 (io_trps.svl 2023.06)
