@<TRIPOS>MOLECULE
NONAME
36 37 1 0 0 
SMALL
USER_CHARGES


@<TRIPOS>ATOM
  1 S        0.5510     0.9230    -1.3020 S.3   1 <1>   0.1810 
  2 N       -0.0630    -0.4650    -2.0390 N.2   1 <1>  -0.2210 
  3 C       -1.0170     1.5410    -0.8930 C.2   1 <1>  -0.0450 
  4 N       -1.3200    -0.4710    -1.9870 N.2   1 <1>  -0.2270 
  5 C       -1.8790     0.6180    -1.3630 C.2   1 <1>   0.0460 
  6 C       -1.1210     2.7970    -0.1980 C.2   1 <1>   0.7150 
  7 C       -3.3960     0.6360    -1.2880 C.3   1 <1>  -0.0590 
  8 O       -2.2130     3.2390     0.1020 O.2   1 <1>  -0.5700 
  9 N        0.0170     3.4990     0.1300 N.am  1 <1>  -0.4940 
 10 C        0.1740     4.7430     0.7900 C.2   1 <1>  -0.0880 
 11 N        1.3710     5.3340     1.0830 N.pl3 1 <1>   0.3140 
 12 C       -0.7820     5.5840     1.2510 C.2   1 <1>  -0.1500 
 13 N        1.1890     6.5170     1.7170 N.2   1 <1>  -0.7070 
 14 C        2.7560     4.8350     0.8260 C.3   1 <1>   0.1760 
 15 C       -0.0960     6.6530     1.8090 C.2   1 <1>   0.1390 
 16 C        3.0310     4.5890    -0.6770 C.3   1 <1>  -0.1600 
 17 C        3.0390     3.5960     1.7040 C.3   1 <1>  -0.1600 
 18 C        2.6550     5.7800    -1.5710 C.3   1 <1>  -0.2400 
 19 C        4.5060     3.1430     1.6750 C.3   1 <1>  -0.2400 
 20 H       -3.7620     1.5130    -0.7890 H     1 <1>   0.0800 
 21 H       -3.7400    -0.2300    -0.7510 H     1 <1>   0.0800 
 22 H       -3.8070     0.6110    -2.2810 H     1 <1>   0.0800 
 23 H        0.8820     3.0530    -0.1650 H     1 <1>   0.3700 
 24 H       -1.8500     5.4750     1.2100 H     1 <1>   0.1500 
 25 H        3.4180     5.6200     1.1490 H     1 <1>   0.0800 
 26 H       -0.5700     7.5040     2.2690 H     1 <1>   0.1500 
 27 H        2.5160     3.7100    -1.0170 H     1 <1>   0.0800 
 28 H        4.0830     4.4070    -0.8050 H     1 <1>   0.0800 
 29 H        2.4150     2.7740     1.4030 H     1 <1>   0.0800 
 30 H        2.7880     3.8440     2.7220 H     1 <1>   0.0800 
 31 H        1.5930     5.9550    -1.5600 H     1 <1>   0.0800 
 32 H        2.9540     5.5900    -2.5860 H     1 <1>   0.0800 
 33 H        3.1500     6.6750    -1.2320 H     1 <1>   0.0800 
 34 H        4.7820     2.7760     0.7030 H     1 <1>   0.0800 
 35 H        4.6550     2.3490     2.3860 H     1 <1>   0.0800 
 36 H        5.1570     3.9580     1.9390 H     1 <1>   0.0800 
@<TRIPOS>BOND
  1   1   2  1   
  2   1   3  1   
  3   2   4  2   
  4   3   5  2   
  5   3   6  1   
  6   4   5  1   
  7   5   7  1   
  8   6   8  2   
  9   6   9  am  
 10   7  20  1   
 11   7  21  1   
 12   7  22  1   
 13   9  10  1   
 14   9  23  1   
 15  10  11  1   
 16  10  12  2   
 17  11  13  1   
 18  11  14  1   
 19  12  15  1   
 20  12  24  1   
 21  13  15  2   
 22  14  16  1   
 23  14  17  1   
 24  14  25  1   
 25  15  26  1   
 26  16  18  1   
 27  16  27  1   
 28  16  28  1   
 29  17  19  1   
 30  17  29  1   
 31  17  30  1   
 32  18  31  1   
 33  18  32  1   
 34  18  33  1   
 35  19  34  1   
 36  19  35  1   
 37  19  36  1   
@<TRIPOS>SUBSTRUCTURE
  1 ****   9 GROUP 4 **** **** 0

# MOE 2024.06 (io_trps.svl 2023.06)
