@<TRIPOS>MOLECULE
NONAME
59 61 1 0 0 
SMALL
USER_CHARGES


@<TRIPOS>ATOM
  1 F       -0.4380    -0.1090     0.5110 F     1 <1>  -0.1900 
  2 C       -1.6870     0.1680     0.2350 C.ar  1 <1>   0.1900 
  3 C       -2.1670     1.4830     0.2110 C.ar  1 <1>   0.0830 
  4 C       -2.5100    -0.9080    -0.0370 C.ar  1 <1>  -0.1500 
  5 O       -1.4580     2.6220     0.4590 O.3   1 <1>  -0.3630 
  6 C       -3.5050     1.6720    -0.0950 C.ar  1 <1>  -0.1500 
  7 C       -3.8400    -0.6830    -0.3400 C.ar  1 <1>  -0.1500 
  8 C       -0.0970     2.6150     0.8270 C.3   1 <1>   0.0400 
  9 C       -4.3670     0.6090    -0.3700 C.ar  1 <1>   0.0530 
 10 C       -5.7490     0.8570    -0.6940 C.2   1 <1>   0.0870 
 11 O       -6.0410     1.8110    -1.5420 O.3   1 <1>  -0.0190 
 12 C       -6.9280     0.2940    -0.3070 C.2   1 <1>  -0.0860 
 13 N       -7.3220     1.9210    -1.7680 N.2   1 <1>  -0.4100 
 14 C       -7.8780     1.0180    -1.0420 C.2   1 <1>   0.3720 
 15 C       -7.2050    -0.7640     0.6210 C.2   1 <1>   0.7160 
 16 N       -9.2680     0.8200    -1.0220 N.pl3 1 <1>  -0.8210 
 17 O       -6.3180    -1.3600     1.2020 O.2   1 <1>  -0.5700 
 18 N       -8.4890    -1.1360     0.8580 N.am  1 <1>  -0.7300 
 19 C      -10.0020     1.9560    -0.3990 C.3   1 <1>   0.1290 
 20 C       -9.8290     0.4840    -2.3600 C.3   1 <1>   0.1290 
 21 C       -8.9570    -2.3620     1.5370 C.3   1 <1>   0.1400 
 22 C      -10.2170    -2.9030     0.8370 C.3   1 <1>   0.0000 
 23 C      -10.9500    -3.9900     1.6810 C.3   1 <1>   0.0000 
 24 C      -11.4520    -1.9820     1.0860 C.3   1 <1>   0.0000 
 25 C      -10.0540    -3.2740    -0.6630 C.3   1 <1>  -0.1600 
 26 C      -12.2840    -3.2540     1.3910 C.3   1 <1>   0.0000 
 27 C       -9.0520    -4.4120    -0.9690 C.3   1 <1>  -0.0800 
 28 C       -7.6380    -3.8850    -1.2540 C.3   1 <1>  -0.2400 
 29 C       -9.5260    -5.2100    -2.1900 C.3   1 <1>  -0.2400 
 30 H       -2.1140    -1.9070    -0.0100 H     1 <1>   0.1500 
 31 H       -3.8880     2.6760    -0.1180 H     1 <1>   0.1500 
 32 H       -4.4810    -1.5200    -0.5540 H     1 <1>   0.1500 
 33 H        0.2110     3.6330     0.9860 H     1 <1>   0.0800 
 34 H        0.4800     2.1810     0.0300 H     1 <1>   0.0800 
 35 H        0.0170     2.0540     1.7380 H     1 <1>   0.0800 
 36 H       -9.1910    -0.6160     0.3110 H     1 <1>   0.3700 
 37 H       -9.5690     2.1880     0.5600 H     1 <1>   0.0800 
 38 H      -11.0360     1.6950    -0.2570 H     1 <1>   0.0800 
 39 H       -9.9380     2.8290    -1.0270 H     1 <1>   0.0800 
 40 H       -9.2400    -0.2940    -2.8170 H     1 <1>   0.0800 
 41 H       -9.8120     1.3500    -2.9990 H     1 <1>   0.0800 
 42 H      -10.8420     0.1360    -2.2570 H     1 <1>   0.0800 
 43 H       -9.1790    -2.1210     2.5620 H     1 <1>   0.0800 
 44 H       -8.1810    -3.1070     1.5400 H     1 <1>   0.0800 
 45 H      -10.6950    -3.9590     2.7270 H     1 <1>   0.0000 
 46 H      -10.9160    -4.9820     1.2700 H     1 <1>   0.0000 
 47 H      -11.7870    -1.4440     0.2160 H     1 <1>   0.0000 
 48 H      -11.3490    -1.3540     1.9540 H     1 <1>   0.0000 
 49 H       -9.7760    -2.3960    -1.2200 H     1 <1>   0.0800 
 50 H      -11.0200    -3.5660    -1.0360 H     1 <1>   0.0800 
 51 H      -12.9200    -3.1570     2.2530 H     1 <1>   0.0000 
 52 H      -12.7930    -3.6380     0.5240 H     1 <1>   0.0000 
 53 H       -9.0060    -5.0900    -0.1330 H     1 <1>   0.0800 
 54 H       -7.6510    -3.1730    -2.0600 H     1 <1>   0.0800 
 55 H       -6.9880    -4.6970    -1.5300 H     1 <1>   0.0800 
 56 H       -7.2140    -3.4150    -0.3900 H     1 <1>   0.0800 
 57 H       -9.5970    -4.5740    -3.0550 H     1 <1>   0.0800 
 58 H      -10.4920    -5.6460    -2.0020 H     1 <1>   0.0800 
 59 H       -8.8380    -6.0080    -2.4070 H     1 <1>   0.0800 
@<TRIPOS>BOND
  1   1   2  1   
  2   2   3  ar  
  3   2   4  ar  
  4   3   5  1   
  5   3   6  ar  
  6   4   7  ar  
  7   4  30  1   
  8   5   8  1   
  9   6   9  ar  
 10   6  31  1   
 11   7   9  ar  
 12   7  32  1   
 13   8  33  1   
 14   8  34  1   
 15   8  35  1   
 16   9  10  1   
 17  10  11  1   
 18  10  12  2   
 19  11  13  1   
 20  12  14  1   
 21  12  15  1   
 22  13  14  2   
 23  14  16  1   
 24  15  17  2   
 25  15  18  am  
 26  16  19  1   
 27  16  20  1   
 28  18  21  1   
 29  18  36  1   
 30  19  37  1   
 31  19  38  1   
 32  19  39  1   
 33  20  40  1   
 34  20  41  1   
 35  20  42  1   
 36  21  22  1   
 37  21  43  1   
 38  21  44  1   
 39  22  23  1   
 40  22  24  1   
 41  22  25  1   
 42  23  26  1   
 43  23  45  1   
 44  23  46  1   
 45  24  26  1   
 46  24  47  1   
 47  24  48  1   
 48  25  27  1   
 49  25  49  1   
 50  25  50  1   
 51  26  51  1   
 52  26  52  1   
 53  27  28  1   
 54  27  29  1   
 55  27  53  1   
 56  28  54  1   
 57  28  55  1   
 58  28  56  1   
 59  29  57  1   
 60  29  58  1   
 61  29  59  1   
@<TRIPOS>SUBSTRUCTURE
  1 ****  15 GROUP 4 **** **** 0

# MOE 2024.06 (io_trps.svl 2023.06)
