@<TRIPOS>MOLECULE
NONAME
50 53 1 0 0 
SMALL
USER_CHARGES


@<TRIPOS>ATOM
  1 O       -1.2050     0.8040     1.7550 O.2   1 <1>  -0.5700 
  2 C       -1.8660     1.1770     0.7970 C.2   1 <1>   0.7160 
  3 N       -3.0480     0.4960     0.5410 N.am  1 <1>  -0.6600 
  4 C       -1.3690     2.2900    -0.0140 C.2   1 <1>   0.2030 
  5 C       -3.3630    -0.7870     1.2560 C.3   1 <1>   0.1400 
  6 C       -4.0340     0.9530    -0.4920 C.3   1 <1>   0.1400 
  7 N       -1.6610     2.5670    -1.2760 N.2   1 <1>  -0.7070 
  8 C       -0.4570     3.2300     0.4730 C.2   1 <1>  -0.1500 
  9 C       -4.1390    -1.7040     0.2940 C.3   1 <1>   0.4230 
 10 C       -5.4470     0.4180    -0.2130 C.3   1 <1>  -0.1600 
 11 N       -0.9460     3.6640    -1.5670 N.pl3 1 <1>   0.3000 
 12 C       -0.2000     4.1040    -0.5330 C.2   1 <1>  -0.2050 
 13 N       -4.2280    -3.1580     0.6540 N.4   1 <1>  -0.9590 
 14 C       -5.5430    -1.1180     0.0500 C.3   1 <1>  -0.1060 
 15 C        0.6380     5.2670    -0.6450 C.ar  1 <1>   0.3630 
 16 C       -4.8090    -3.9520    -0.4640 C.3   1 <1>   0.3430 
 17 C       -2.9890    -3.7620     1.2090 C.3   1 <1>   0.2630 
 18 C       -6.4460    -1.3500     1.2760 C.2   1 <1>   0.9060 
 19 C       -6.1260    -1.8600    -1.1750 C.3   1 <1>  -0.1600 
 20 N        0.6180     5.9140    -1.8130 N.ar  1 <1>  -0.6200 
 21 C        1.4270     5.6850     0.4250 C.ar  1 <1>  -0.1500 
 22 C       -6.1580    -3.3800    -0.9200 C.3   1 <1>  -0.1600 
 23 O       -7.5740    -0.8640     1.2800 O.co2 1 <1>  -0.9000 
 24 O       -6.0450    -2.0710     2.2040 O.co2 1 <1>  -0.9000 
 25 C        1.3900     6.9830    -1.9090 C.ar  1 <1>   0.1600 
 26 C        2.2270     6.8000     0.3130 C.ar  1 <1>  -0.1500 
 27 C        2.2010     7.4620    -0.8950 C.ar  1 <1>  -0.1500 
 28 H       -2.4430    -1.2520     1.5560 H     1 <1>   0.0800 
 29 H       -3.9460    -0.5730     2.1350 H     1 <1>   0.0800 
 30 H       -4.0720     2.0300    -0.5050 H     1 <1>   0.0800 
 31 H       -3.7030     0.6230    -1.4630 H     1 <1>   0.0800 
 32 H       -0.0560     3.2220     1.4720 H     1 <1>   0.1500 
 33 H       -3.6040    -1.6520    -0.6380 H     1 <1>   0.0800 
 34 H       -5.8070     0.9490     0.6540 H     1 <1>   0.0800 
 35 H       -6.1030     0.7000    -1.0180 H     1 <1>   0.0800 
 36 H       -0.9510     4.1350    -2.4820 H     1 <1>   0.2700 
 37 H       -4.9510    -3.1220     1.4240 H     1 <1>   0.4500 
 38 H       -4.1240    -3.9450    -1.2960 H     1 <1>   0.0800 
 39 H       -4.9480    -4.9740    -0.1490 H     1 <1>   0.0800 
 40 H       -2.1880    -3.7030     0.4900 H     1 <1>   0.0800 
 41 H       -3.1620    -4.7950     1.4600 H     1 <1>   0.0800 
 42 H       -2.6940    -3.2430     2.1060 H     1 <1>   0.0800 
 43 H       -7.1300    -1.5130    -1.3600 H     1 <1>   0.0800 
 44 H       -5.5350    -1.6490    -2.0500 H     1 <1>   0.0800 
 45 H        1.4100     5.1300     1.3440 H     1 <1>   0.1500 
 46 H       -6.4690    -3.8850    -1.8170 H     1 <1>   0.0800 
 47 H       -6.8960    -3.6000    -0.1660 H     1 <1>   0.0800 
 48 H        1.3790     7.5090    -2.8480 H     1 <1>   0.1500 
 49 H        2.8440     7.1380     1.1280 H     1 <1>   0.1500 
 50 H        2.8010     8.3410    -1.0510 H     1 <1>   0.1500 
@<TRIPOS>BOND
  1   1   2  2   
  2   2   3  am  
  3   2   4  1   
  4   3   5  1   
  5   3   6  1   
  6   4   7  2   
  7   4   8  1   
  8   5   9  1   
  9   5  28  1   
 10   5  29  1   
 11   6  10  1   
 12   6  30  1   
 13   6  31  1   
 14   7  11  1   
 15   8  12  2   
 16   8  32  1   
 17   9  13  1   
 18   9  14  1   
 19   9  33  1   
 20  10  14  1   
 21  10  34  1   
 22  10  35  1   
 23  11  12  1   
 24  11  36  1   
 25  12  15  1   
 26  13  16  1   
 27  13  17  1   
 28  13  37  1   
 29  14  18  1   
 30  14  19  1   
 31  15  20  ar  
 32  15  21  ar  
 33  16  22  1   
 34  16  38  1   
 35  16  39  1   
 36  17  40  1   
 37  17  41  1   
 38  17  42  1   
 39  18  23  ar  
 40  18  24  ar  
 41  19  22  1   
 42  19  43  1   
 43  19  44  1   
 44  20  25  ar  
 45  21  26  ar  
 46  21  45  1   
 47  22  46  1   
 48  22  47  1   
 49  25  27  ar  
 50  25  48  1   
 51  26  27  ar  
 52  26  49  1   
 53  27  50  1   
@<TRIPOS>SUBSTRUCTURE
  1 ****   3 GROUP 4 **** **** 0

# MOE 2024.06 (io_trps.svl 2023.06)
