@<TRIPOS>MOLECULE
NONAME
46 50 1 0 0 
SMALL
USER_CHARGES


@<TRIPOS>ATOM
  1 S       -4.3330     1.3470     0.8190 S.3   1 <1>  -0.0800 
  2 C       -3.1740     0.1300     0.3150 C.2   1 <1>   0.1980 
  3 C       -4.5970     0.4490     2.2850 C.2   1 <1>  -0.1100 
  4 N       -2.9940    -0.8030     1.1630 N.2   1 <1>  -0.5650 
  5 C       -2.5170     0.2880    -1.0500 C.3   1 <1>   0.3200 
  6 C       -3.8070    -0.6340     2.2740 C.2   1 <1>   0.0770 
  7 N       -3.4960     0.4540    -2.1680 N.am  1 <1>  -0.5090 
  8 C       -4.6920    -0.2370    -2.2100 C.2   1 <1>   0.5440 
  9 C       -3.2690     1.6470    -3.0130 C.3   1 <1>   0.0490 
 10 O       -5.6620     0.3000    -2.7200 O.2   1 <1>  -0.5700 
 11 C       -4.8310    -1.5540    -1.6230 C.ar  1 <1>   0.0860 
 12 C       -3.3070     1.4860    -4.4990 C.3   1 <1>  -0.2000 
 13 C       -2.0040     1.7340    -3.8090 C.3   1 <1>  -0.2000 
 14 C       -5.9030    -1.8350    -0.7590 C.ar  1 <1>  -0.1520 
 15 C       -3.9280    -2.5850    -1.8440 C.ar  1 <1>  -0.1500 
 16 N       -6.9460    -1.0270    -0.3870 N.pl3 1 <1>   0.0330 
 17 C       -6.0370    -3.0590    -0.1110 C.ar  1 <1>   0.0000 
 18 C       -4.0570    -3.8260    -1.2140 C.ar  1 <1>  -0.1500 
 19 C       -7.7160    -1.7180     0.5040 C.2   1 <1>  -0.3320 
 20 C       -7.1970    -2.9510     0.6880 C.2   1 <1>  -0.1810 
 21 C       -5.1000    -4.0660    -0.3470 C.ar  1 <1>  -0.1500 
 22 C       -8.9690    -1.1910     1.1740 C.3   1 <1>   0.0200 
 23 C       -7.7970    -3.9960     1.6060 C.3   1 <1>   0.0210 
 24 C       -9.3550    -2.1070     2.3500 C.3   1 <1>  -0.1600 
 25 C       -9.2380    -3.6020     1.9860 C.3   1 <1>  -0.1600 
 26 H       -5.3140     0.8240     2.9910 H     1 <1>   0.1500 
 27 H       -1.9080    -0.5750    -1.2450 H     1 <1>   0.0800 
 28 H       -1.8710     1.1460    -1.0090 H     1 <1>   0.0800 
 29 H       -3.7560    -1.3820     3.0470 H     1 <1>   0.1500 
 30 H       -3.7010     2.5430    -2.5950 H     1 <1>   0.1000 
 31 H       -3.7420     2.2760    -5.0850 H     1 <1>   0.1000 
 32 H       -3.5260     0.5100    -4.8950 H     1 <1>   0.1000 
 33 H       -1.2940     0.9270    -3.7710 H     1 <1>   0.1000 
 34 H       -1.5380     2.6940    -3.9460 H     1 <1>   0.1000 
 35 H       -3.1030    -2.4280    -2.5150 H     1 <1>   0.1500 
 36 H       -7.1080    -0.0880    -0.7700 H     1 <1>   0.2700 
 37 H       -3.3310    -4.5950    -1.4090 H     1 <1>   0.1500 
 38 H       -5.2080    -5.0110     0.1510 H     1 <1>   0.1500 
 39 H       -9.7660    -1.1700     0.4510 H     1 <1>   0.0800 
 40 H       -8.8060    -0.1900     1.5330 H     1 <1>   0.0800 
 41 H       -7.1900    -4.0620     2.4910 H     1 <1>   0.0800 
 42 H       -7.7970    -4.9540     1.1190 H     1 <1>   0.0800 
 43 H      -10.3590    -1.8830     2.6620 H     1 <1>   0.0800 
 44 H       -8.6970    -1.9020     3.1770 H     1 <1>   0.0800 
 45 H       -9.5680    -4.2090     2.8110 H     1 <1>   0.0800 
 46 H       -9.8820    -3.8040     1.1470 H     1 <1>   0.0800 
@<TRIPOS>BOND
  1   1   2  1   
  2   1   3  1   
  3   2   4  2   
  4   2   5  1   
  5   3   6  2   
  6   3  26  1   
  7   4   6  1   
  8   5   7  1   
  9   5  27  1   
 10   5  28  1   
 11   6  29  1   
 12   7   8  am  
 13   7   9  1   
 14   8  10  2   
 15   8  11  1   
 16   9  12  1   
 17   9  13  1   
 18   9  30  1   
 19  11  14  ar  
 20  11  15  ar  
 21  12  13  1   
 22  12  31  1   
 23  12  32  1   
 24  13  33  1   
 25  13  34  1   
 26  14  16  1   
 27  14  17  ar  
 28  15  18  ar  
 29  15  35  1   
 30  16  19  1   
 31  16  36  1   
 32  17  20  1   
 33  17  21  ar  
 34  18  21  ar  
 35  18  37  1   
 36  19  20  2   
 37  19  22  1   
 38  20  23  1   
 39  21  38  1   
 40  22  24  1   
 41  22  39  1   
 42  22  40  1   
 43  23  25  1   
 44  23  41  1   
 45  23  42  1   
 46  24  25  1   
 47  24  43  1   
 48  24  44  1   
 49  25  45  1   
 50  25  46  1   
@<TRIPOS>SUBSTRUCTURE
  1 ****  14 GROUP 4 **** **** 0

# MOE 2024.06 (io_trps.svl 2023.06)
