@<TRIPOS>MOLECULE
NONAME
52 54 1 0 0 
SMALL
USER_CHARGES


@<TRIPOS>ATOM
  1 S        0.0270     0.9730     1.7100 S.o2  1 <1>   1.0900 
  2 O        0.5080     0.3080     2.8940 O.2   1 <1>  -0.6500 
  3 O       -0.9940     1.9860     1.8120 O.2   1 <1>  -0.6500 
  4 C        1.4730     1.7020     0.9190 C.3   1 <1>  -0.0550 
  5 C       -0.5450    -0.2830     0.5800 C.3   1 <1>  -0.1350 
  6 C        1.2810     2.3050    -0.4940 C.3   1 <1>  -0.0800 
  7 C        2.6400     2.7650    -1.0670 C.3   1 <1>   0.3430 
  8 C        0.2330     3.4440    -0.5060 C.3   1 <1>  -0.1600 
  9 N        2.8720     4.2050    -0.7620 N.4   1 <1>  -0.9590 
 10 C        0.5240     4.4620    -1.6180 C.3   1 <1>  -0.1600 
 11 C        1.9090     5.1100    -1.4740 C.3   1 <1>   0.3430 
 12 C        4.2880     4.6270    -0.9810 C.3   1 <1>   0.5230 
 13 C        4.4750     6.0290    -0.4460 C.2   1 <1>  -0.0400 
 14 O        4.1270     6.2780     0.7860 O.3   1 <1>  -0.0190 
 15 C        4.9350     7.1690    -0.9860 C.2   1 <1>  -0.1500 
 16 N        4.3180     7.5220     1.0980 N.2   1 <1>  -0.4100 
 17 C        4.8120     8.0910     0.0530 C.2   1 <1>   0.1080 
 18 C        5.2040     9.5620    -0.0400 C.3   1 <1>   0.1010 
 19 C        6.2880     9.9120     0.9930 C.3   1 <1>  -0.1600 
 20 C        3.9740    10.4700     0.1340 C.3   1 <1>  -0.1600 
 21 C        6.6740    11.3970     0.9260 C.3   1 <1>  -0.1600 
 22 C        4.3560    11.9570     0.0660 C.3   1 <1>  -0.1600 
 23 C        5.4430    12.2970     1.0940 C.3   1 <1>  -0.1600 
 24 H        2.2320     0.9440     0.8650 H     1 <1>   0.0800 
 25 H        1.8500     2.4670     1.5720 H     1 <1>   0.0800 
 26 H       -1.3780    -0.8040     1.0130 H     1 <1>   0.0800 
 27 H        0.2290    -1.0000     0.3830 H     1 <1>   0.0800 
 28 H       -0.8700     0.1510    -0.3450 H     1 <1>   0.0800 
 29 H        0.9320     1.5200    -1.1420 H     1 <1>   0.0800 
 30 H        2.6340     2.6300    -2.1380 H     1 <1>   0.0800 
 31 H        3.4310     2.1570    -0.6580 H     1 <1>   0.0800 
 32 H        0.2350     3.9660     0.4380 H     1 <1>   0.0800 
 33 H       -0.7550     3.0360    -0.6400 H     1 <1>   0.0800 
 34 H        2.6920     4.3490     0.2430 H     1 <1>   0.4500 
 35 H       -0.2250     5.2360    -1.6100 H     1 <1>   0.0800 
 36 H        0.4600     3.9760    -2.5770 H     1 <1>   0.0800 
 37 H        2.2810     5.3590    -2.4540 H     1 <1>   0.0800 
 38 H        1.8140     6.0280    -0.9140 H     1 <1>   0.0800 
 39 H        4.5310     4.6000    -2.0300 H     1 <1>   0.0800 
 40 H        4.9550     3.9640    -0.4550 H     1 <1>   0.0800 
 41 H        5.3160     7.3800    -1.9690 H     1 <1>   0.1500 
 42 H        5.6120     9.7390    -1.0200 H     1 <1>   0.0800 
 43 H        7.1600     9.3050     0.8220 H     1 <1>   0.0800 
 44 H        5.9220     9.6880     1.9810 H     1 <1>   0.0800 
 45 H        3.5180    10.2680     1.0880 H     1 <1>   0.0800 
 46 H        3.2500    10.2500    -0.6300 H     1 <1>   0.0800 
 47 H        7.1420    11.6050    -0.0210 H     1 <1>   0.0800 
 48 H        7.3890    11.6190     1.7010 H     1 <1>   0.0800 
 49 H        3.4850    12.5610     0.2510 H     1 <1>   0.0800 
 50 H        4.7140    12.1910    -0.9220 H     1 <1>   0.0800 
 51 H        5.7320    13.3280     0.9860 H     1 <1>   0.0800 
 52 H        5.0440    12.1700     2.0870 H     1 <1>   0.0800 
@<TRIPOS>BOND
  1   1   2  2   
  2   1   3  2   
  3   1   4  1   
  4   1   5  1   
  5   4   6  1   
  6   4  24  1   
  7   4  25  1   
  8   5  26  1   
  9   5  27  1   
 10   5  28  1   
 11   6   7  1   
 12   6   8  1   
 13   6  29  1   
 14   7   9  1   
 15   7  30  1   
 16   7  31  1   
 17   8  10  1   
 18   8  32  1   
 19   8  33  1   
 20   9  11  1   
 21   9  12  1   
 22   9  34  1   
 23  10  11  1   
 24  10  35  1   
 25  10  36  1   
 26  11  37  1   
 27  11  38  1   
 28  12  13  1   
 29  12  39  1   
 30  12  40  1   
 31  13  14  1   
 32  13  15  2   
 33  14  16  1   
 34  15  17  1   
 35  15  41  1   
 36  16  17  2   
 37  17  18  1   
 38  18  19  1   
 39  18  20  1   
 40  18  42  1   
 41  19  21  1   
 42  19  43  1   
 43  19  44  1   
 44  20  22  1   
 45  20  45  1   
 46  20  46  1   
 47  21  23  1   
 48  21  47  1   
 49  21  48  1   
 50  22  23  1   
 51  22  49  1   
 52  22  50  1   
 53  23  51  1   
 54  23  52  1   
@<TRIPOS>SUBSTRUCTURE
  1 ****  14 GROUP 4 **** **** 0

# MOE 2024.06 (io_trps.svl 2023.06)
