@<TRIPOS>MOLECULE
NONAME
53 56 1 0 0 
SMALL
USER_CHARGES


@<TRIPOS>ATOM
  1 O       -0.5550    -5.1990    -0.0940 O.2   1 <1>  -0.5700 
  2 C        0.6390    -5.0450    -0.0950 C.2   1 <1>   0.5690 
  3 N        1.4860    -6.0950    -0.1030 N.am  1 <1>  -0.7300 
  4 C        1.2440    -3.6580    -0.0740 C.3   1 <1>  -0.0990 
  5 C        2.9560    -5.9500    -0.0690 C.3   1 <1>   0.1400 
  6 C        2.4360    -3.5730    -1.0460 C.3   1 <1>  -0.0800 
  7 C        3.3920    -4.7910    -0.9880 C.3   1 <1>  -0.0800 
  8 C        3.3020    -2.3230    -0.8290 C.3   1 <1>  -0.1600 
  9 C        4.7680    -4.2260    -0.6150 C.3   1 <1>  -0.1600 
 10 C        4.7240    -2.7860    -1.1200 C.3   1 <1>   0.2200 
 11 N        5.7670    -1.9010    -0.5220 N.am  1 <1>  -0.6600 
 12 C        6.6030    -1.1790    -1.3490 C.2   1 <1>   0.5440 
 13 C        5.9490    -1.9090     0.9600 C.3   1 <1>   0.0600 
 14 O        6.2450    -0.9350    -2.4880 O.2   1 <1>  -0.5700 
 15 C        7.8950    -0.6920    -0.9080 C.ar  1 <1>   0.0860 
 16 C        8.9550    -1.5650    -0.6040 C.ar  1 <1>   0.0000 
 17 C        8.1040     0.6810    -0.7990 C.ar  1 <1>  -0.1500 
 18 C        8.8140    -3.0040    -0.7030 C.ar  1 <1>   0.0000 
 19 C       10.1780    -1.0230    -0.2170 C.ar  1 <1>  -0.1500 
 20 C        9.3200     1.1990    -0.3990 C.ar  1 <1>  -0.1500 
 21 C        8.9440    -3.8610     0.3970 C.ar  1 <1>  -0.1440 
 22 C        8.5400    -3.5720    -1.9460 C.ar  1 <1>  -0.1500 
 23 C       10.3630     0.3420    -0.1070 C.ar  1 <1>  -0.1500 
 24 C        8.7980    -5.2300     0.2350 C.ar  1 <1>  -0.1500 
 25 C        9.2520    -3.3340     1.7940 C.3   1 <1>  -0.0970 
 26 C        8.3940    -4.9370    -2.1020 C.ar  1 <1>  -0.1500 
 27 C        8.5230    -5.7700    -1.0080 C.ar  1 <1>  -0.1500 
 28 H        1.0790    -7.0320    -0.0850 H     1 <1>   0.3700 
 29 H        0.4950    -2.9350    -0.3410 H     1 <1>   0.0800 
 30 H        1.5630    -3.4590     0.9320 H     1 <1>   0.0800 
 31 H        3.2500    -5.7520     0.9480 H     1 <1>   0.0800 
 32 H        3.4230    -6.8670    -0.3860 H     1 <1>   0.0800 
 33 H        2.0350    -3.5340    -2.0470 H     1 <1>   0.0800 
 34 H        3.4660    -5.1850    -1.9880 H     1 <1>   0.0800 
 35 H        3.2200    -1.9870     0.1880 H     1 <1>   0.0800 
 36 H        3.0180    -1.5240    -1.4910 H     1 <1>   0.0800 
 37 H        5.5680    -4.7760    -1.0780 H     1 <1>   0.0800 
 38 H        4.8830    -4.2490     0.4520 H     1 <1>   0.0800 
 39 H        4.8470    -2.8200    -2.1900 H     1 <1>   0.0800 
 40 H        4.9970    -1.8640     1.4560 H     1 <1>   0.0800 
 41 H        6.5310    -1.0600     1.2740 H     1 <1>   0.0800 
 42 H        6.4580    -2.8080     1.2570 H     1 <1>   0.0800 
 43 H        7.2930     1.3470    -1.0420 H     1 <1>   0.1500 
 44 H       10.9980    -1.6860    -0.0030 H     1 <1>   0.1500 
 45 H        9.4570     2.2650    -0.3210 H     1 <1>   0.1500 
 46 H        8.4380    -2.9300    -2.8040 H     1 <1>   0.1500 
 47 H       11.3170     0.7370     0.1970 H     1 <1>   0.1500 
 48 H        8.9030    -5.8900     1.0780 H     1 <1>   0.1500 
 49 H        8.8990    -4.0180     2.5450 H     1 <1>   0.0800 
 50 H        8.7790    -2.3840     1.9620 H     1 <1>   0.0800 
 51 H       10.3140    -3.2170     1.9110 H     1 <1>   0.0800 
 52 H        8.1820    -5.3470    -3.0740 H     1 <1>   0.1500 
 53 H        8.4150    -6.8340    -1.1240 H     1 <1>   0.1500 
@<TRIPOS>BOND
  1   1   2  2   
  2   2   3  am  
  3   2   4  1   
  4   3   5  1   
  5   3  28  1   
  6   4   6  1   
  7   4  29  1   
  8   4  30  1   
  9   5   7  1   
 10   5  31  1   
 11   5  32  1   
 12   6   7  1   
 13   6   8  1   
 14   6  33  1   
 15   7   9  1   
 16   7  34  1   
 17   8  10  1   
 18   8  35  1   
 19   8  36  1   
 20   9  10  1   
 21   9  37  1   
 22   9  38  1   
 23  10  11  1   
 24  10  39  1   
 25  11  12  am  
 26  11  13  1   
 27  12  14  2   
 28  12  15  1   
 29  13  40  1   
 30  13  41  1   
 31  13  42  1   
 32  15  16  ar  
 33  15  17  ar  
 34  16  18  1   
 35  16  19  ar  
 36  17  20  ar  
 37  17  43  1   
 38  18  21  ar  
 39  18  22  ar  
 40  19  23  ar  
 41  19  44  1   
 42  20  23  ar  
 43  20  45  1   
 44  21  24  ar  
 45  21  25  1   
 46  22  26  ar  
 47  22  46  1   
 48  23  47  1   
 49  24  27  ar  
 50  24  48  1   
 51  25  49  1   
 52  25  50  1   
 53  25  51  1   
 54  26  27  ar  
 55  26  52  1   
 56  27  53  1   
@<TRIPOS>SUBSTRUCTURE
  1 ****  11 GROUP 4 **** **** 0

# MOE 2024.06 (io_trps.svl 2023.06)
