@<TRIPOS>MOLECULE
NONAME
50 53 1 0 0 
SMALL
USER_CHARGES


@<TRIPOS>ATOM
  1 S       -0.2390    -0.1050     1.1570 S.o2  1 <1>   1.4470 
  2 O       -0.5300     0.7070     2.3170 O.2   1 <1>  -0.6500 
  3 O        0.0030    -1.5210     1.3310 O.2   1 <1>  -0.6500 
  4 N       -1.5290     0.1000     0.0690 N.am  1 <1>  -0.8490 
  5 C        1.1490     0.6560     0.2670 C.ar  1 <1>  -0.0090 
  6 C       -1.4710    -0.6650    -1.1840 C.3   1 <1>   0.1960 
  7 C       -2.8620     0.0620     0.6770 C.3   1 <1>   0.1960 
  8 C        1.0760     1.9760    -0.1620 C.ar  1 <1>  -0.1500 
  9 C        2.3110    -0.0540    -0.0090 C.ar  1 <1>  -0.1500 
 10 C       -1.9340    -2.1180    -1.0190 C.3   1 <1>  -0.1600 
 11 C       -3.3060    -1.3760     0.9520 C.3   1 <1>  -0.1600 
 12 C        2.1160     2.5890    -0.8510 C.ar  1 <1>   0.0730 
 13 C        3.3610     0.5330    -0.6920 C.ar  1 <1>  -0.1500 
 14 C       -3.3020    -2.2140    -0.3340 C.3   1 <1>   0.4240 
 15 C        2.0090     3.9530    -1.2860 C.1   1 <1>   0.4840 
 16 C        3.2620     1.8470    -1.1100 C.ar  1 <1>  -0.1500 
 17 O       -4.2020    -1.6230    -1.2420 O.3   1 <1>  -0.5600 
 18 C       -3.6550    -3.6890    -0.0440 C.ar  1 <1>  -0.1430 
 19 N        1.9250     5.0340    -1.6370 N.1   1 <1>  -0.5570 
 20 C       -5.5480    -1.9730    -1.1340 C.3   1 <1>   0.1200 
 21 C       -4.7910    -4.2780    -0.5880 C.ar  1 <1>  -0.1430 
 22 C       -2.8380    -4.4560     0.7790 C.ar  1 <1>  -0.1500 
 23 C       -5.7030    -3.4520    -1.4740 C.3   1 <1>  -0.0170 
 24 C       -5.0960    -5.6040    -0.3250 C.ar  1 <1>  -0.1500 
 25 C       -3.1420    -5.7780     1.0460 C.ar  1 <1>  -0.1500 
 26 C       -4.2690    -6.3630     0.4970 C.ar  1 <1>   0.0830 
 27 O       -4.4940    -7.6650     0.8050 O.3   1 <1>  -0.3630 
 28 C       -5.6000    -8.3620     0.2780 C.3   1 <1>   0.0400 
 29 H       -0.4710    -0.6460    -1.5840 H     1 <1>   0.0800 
 30 H       -2.1130    -0.1840    -1.9030 H     1 <1>   0.0800 
 31 H       -3.5630     0.5270     0.0040 H     1 <1>   0.0800 
 32 H       -2.8730     0.6320     1.5920 H     1 <1>   0.0800 
 33 H        0.1800     2.5370     0.0490 H     1 <1>   0.1500 
 34 H        2.3960    -1.0790     0.3160 H     1 <1>   0.1500 
 35 H       -1.1990    -2.6660    -0.4670 H     1 <1>   0.0800 
 36 H       -2.0000    -2.5850    -1.9850 H     1 <1>   0.0800 
 37 H       -4.2880    -1.3780     1.3860 H     1 <1>   0.0800 
 38 H       -2.6470    -1.8120     1.6780 H     1 <1>   0.0800 
 39 H        4.2540    -0.0340    -0.8970 H     1 <1>   0.1500 
 40 H        4.0830     2.2990    -1.6420 H     1 <1>   0.1500 
 41 H       -6.1030    -1.3670    -1.8280 H     1 <1>   0.0800 
 42 H       -5.8890    -1.7680    -0.1340 H     1 <1>   0.0800 
 43 H       -1.9540    -4.0310     1.2240 H     1 <1>   0.1500 
 44 H       -5.4480    -3.6120    -2.5060 H     1 <1>   0.0800 
 45 H       -6.7270    -3.7430    -1.3280 H     1 <1>   0.0800 
 46 H       -5.9760    -6.0320    -0.7630 H     1 <1>   0.1500 
 47 H       -2.5050    -6.3650     1.6820 H     1 <1>   0.1500 
 48 H       -5.5660    -9.3700     0.6490 H     1 <1>   0.0800 
 49 H       -5.5310    -8.3650    -0.7950 H     1 <1>   0.0800 
 50 H       -6.5040    -7.8810     0.6070 H     1 <1>   0.0800 
@<TRIPOS>BOND
  1   1   2  2   
  2   1   3  2   
  3   1   4  am  
  4   1   5  1   
  5   4   6  1   
  6   4   7  1   
  7   5   8  ar  
  8   5   9  ar  
  9   6  10  1   
 10   6  29  1   
 11   6  30  1   
 12   7  11  1   
 13   7  31  1   
 14   7  32  1   
 15   8  12  ar  
 16   8  33  1   
 17   9  13  ar  
 18   9  34  1   
 19  10  14  1   
 20  10  35  1   
 21  10  36  1   
 22  11  14  1   
 23  11  37  1   
 24  11  38  1   
 25  12  15  1   
 26  12  16  ar  
 27  13  16  ar  
 28  13  39  1   
 29  14  17  1   
 30  14  18  1   
 31  15  19  3   
 32  16  40  1   
 33  17  20  1   
 34  18  21  ar  
 35  18  22  ar  
 36  20  23  1   
 37  20  41  1   
 38  20  42  1   
 39  21  23  1   
 40  21  24  ar  
 41  22  25  ar  
 42  22  43  1   
 43  23  44  1   
 44  23  45  1   
 45  24  26  ar  
 46  24  46  1   
 47  25  26  ar  
 48  25  47  1   
 49  26  27  1   
 50  27  28  1   
 51  28  48  1   
 52  28  49  1   
 53  28  50  1   
@<TRIPOS>SUBSTRUCTURE
  1 ****  10 GROUP 4 **** **** 0

# MOE 2024.06 (io_trps.svl 2023.06)
