@<TRIPOS>MOLECULE
NONAME
47 48 1 0 0 
SMALL
USER_CHARGES


@<TRIPOS>ATOM
  1 S        0.7550     0.1900     0.7280 S.o2  1 <1>   1.3330 
  2 O        0.7380     0.9070     1.9830 O.2   1 <1>  -0.6500 
  3 O        0.8170    -1.2550     0.7360 O.2   1 <1>  -0.6500 
  4 N       -0.6240     0.6370    -0.1570 N.am  1 <1>  -0.8490 
  5 C        2.1060     0.8280    -0.2590 C.3   1 <1>  -0.0550 
  6 C       -0.9170    -0.2630    -1.2770 C.3   1 <1>   0.1160 
  7 C       -1.8070     0.7760     0.6960 C.3   1 <1>   0.1160 
  8 C        3.4850     0.6290     0.3930 C.3   1 <1>  -0.0800 
  9 C        4.6140     1.1420    -0.4760 C.3   1 <1>   0.2200 
 10 C        3.8870    -0.8280     0.6030 C.3   1 <1>   0.1200 
 11 N        4.8090     2.5950    -0.2890 N.am  1 <1>  -0.7300 
 12 C        5.8030     0.3140    -0.0060 C.3   1 <1>   0.1200 
 13 O        5.2790    -0.8730     0.5150 O.3   1 <1>  -0.5600 
 14 C        4.3000     3.5860    -1.0760 C.2   1 <1>   0.6160 
 15 O        3.6120     3.2340    -2.0180 O.2   1 <1>  -0.5700 
 16 C        4.5320     4.9930    -0.8290 C.2   1 <1>   0.0290 
 17 C        5.3240     5.4400     0.2870 C.2   1 <1>   0.6160 
 18 C        3.9950     5.9480    -1.6580 C.2   1 <1>  -0.1500 
 19 O        5.8160     4.6550     1.0960 O.2   1 <1>  -0.5700 
 20 N        5.5440     6.8090     0.4740 N.am  1 <1>  -0.4690 
 21 C        4.2120     7.3170    -1.4270 C.2   1 <1>  -0.1500 
 22 C        4.9710     7.7340    -0.3780 C.2   1 <1>  -0.0290 
 23 C        6.3840     7.2640     1.6280 C.3   1 <1>   0.0600 
 24 C        5.1860     9.2230    -0.1400 C.3   1 <1>  -0.1020 
 25 H        2.0970     0.3580    -1.2230 H     1 <1>   0.0800 
 26 H        1.9490     1.8780    -0.4120 H     1 <1>   0.0800 
 27 H       -1.7470     0.1170    -1.8480 H     1 <1>   0.0800 
 28 H       -1.1630    -1.2480    -0.9150 H     1 <1>   0.0800 
 29 H       -0.0640    -0.3370    -1.9280 H     1 <1>   0.0800 
 30 H       -2.6580     1.0770     0.1090 H     1 <1>   0.0800 
 31 H       -1.6340     1.5300     1.4460 H     1 <1>   0.0800 
 32 H       -2.0260    -0.1570     1.1880 H     1 <1>   0.0800 
 33 H        3.5090     1.1200     1.3510 H     1 <1>   0.0800 
 34 H        4.4270     0.9220    -1.5140 H     1 <1>   0.0800 
 35 H        3.4920    -1.4630    -0.1720 H     1 <1>   0.0800 
 36 H        3.5820    -1.2020     1.5670 H     1 <1>   0.0800 
 37 H        5.3350     2.8930     0.5470 H     1 <1>   0.3700 
 38 H        6.3350     0.8080     0.7880 H     1 <1>   0.0800 
 39 H        6.4700     0.0740    -0.8150 H     1 <1>   0.0800 
 40 H        3.3920     5.6700    -2.5060 H     1 <1>   0.1500 
 41 H        3.7570     8.0190    -2.1040 H     1 <1>   0.1500 
 42 H        7.0790     8.0170     1.3060 H     1 <1>   0.0800 
 43 H        6.9560     6.4550     2.0470 H     1 <1>   0.0800 
 44 H        5.7480     7.6680     2.3950 H     1 <1>   0.0800 
 45 H        4.8550     9.4940     0.8460 H     1 <1>   0.0800 
 46 H        4.6300     9.8060    -0.8500 H     1 <1>   0.0800 
 47 H        6.2260     9.4710    -0.2470 H     1 <1>   0.0800 
@<TRIPOS>BOND
  1   1   2  2   
  2   1   3  2   
  3   1   4  am  
  4   1   5  1   
  5   4   6  1   
  6   4   7  1   
  7   5   8  1   
  8   5  25  1   
  9   5  26  1   
 10   6  27  1   
 11   6  28  1   
 12   6  29  1   
 13   7  30  1   
 14   7  31  1   
 15   7  32  1   
 16   8   9  1   
 17   8  10  1   
 18   8  33  1   
 19   9  11  1   
 20   9  12  1   
 21   9  34  1   
 22  10  13  1   
 23  10  35  1   
 24  10  36  1   
 25  11  14  am  
 26  11  37  1   
 27  12  13  1   
 28  12  38  1   
 29  12  39  1   
 30  14  15  2   
 31  14  16  1   
 32  16  17  1   
 33  16  18  2   
 34  17  19  2   
 35  17  20  am  
 36  18  21  1   
 37  18  40  1   
 38  20  22  1   
 39  20  23  1   
 40  21  22  2   
 41  21  41  1   
 42  22  24  1   
 43  23  42  1   
 44  23  43  1   
 45  23  44  1   
 46  24  45  1   
 47  24  46  1   
 48  24  47  1   
@<TRIPOS>SUBSTRUCTURE
  1 ****  11 GROUP 4 **** **** 0

# MOE 2024.06 (io_trps.svl 2023.06)
