@<TRIPOS>MOLECULE
NONAME
41 42 1 0 0 
SMALL
USER_CHARGES


@<TRIPOS>ATOM
  1 F        0.7280     0.7240    -1.2450 F     1 <1>  -0.1900 
  2 C        1.8740     1.2610    -0.8760 C.ar  1 <1>   0.1900 
  3 C        2.9050     0.4960    -0.3300 C.ar  1 <1>   0.4100 
  4 C        2.0560     2.6050    -1.0450 C.ar  1 <1>   0.1600 
  5 N        4.0400     1.0840     0.0030 N.ar  1 <1>  -0.6200 
  6 N        2.8220    -0.8770    -0.1050 N.pl3 1 <1>  -0.8380 
  7 N        3.1850     3.1980    -0.7060 N.ar  1 <1>  -0.6200 
  8 C        4.1120     2.3860    -0.2060 C.ar  1 <1>   0.7200 
  9 C        1.6130    -1.4880     0.5100 C.3   1 <1>   0.1290 
 10 C        4.0520    -1.7170    -0.0600 C.3   1 <1>   0.1290 
 11 N        5.2990     2.9270     0.1540 N.pl3 1 <1>  -0.8690 
 12 C        5.4330     4.3330     0.6120 C.3   1 <1>   0.2090 
 13 C        5.6380     5.2730    -0.5830 C.3   1 <1>   0.2090 
 14 N        6.0050     6.6480    -0.1250 N.pl3 1 <1>  -0.8690 
 15 C        7.2350     7.2130    -0.0390 C.ar  1 <1>   0.1000 
 16 C        7.3790     8.5850     0.2430 C.ar  1 <1>  -0.1440 
 17 C        8.4090     6.4690    -0.2220 C.ar  1 <1>  -0.1500 
 18 C        8.6330     9.1410     0.3180 C.ar  1 <1>   0.2110 
 19 C        6.1440     9.4550     0.4600 C.3   1 <1>  -0.0970 
 20 C        9.6400     7.0620    -0.1400 C.ar  1 <1>   0.2110 
 21 N        9.7440     8.3870     0.1260 N.ar  1 <1>  -0.1790 
 22 H        1.2680     3.2040    -1.4650 H     1 <1>   0.1500 
 23 H        0.9420    -0.7260     0.8650 H     1 <1>   0.0800 
 24 H        1.8950    -2.1060     1.3450 H     1 <1>   0.0800 
 25 H        1.1030    -2.0920    -0.2210 H     1 <1>   0.0800 
 26 H        4.8040    -1.3080    -0.7120 H     1 <1>   0.0800 
 27 H        3.8260    -2.7180    -0.3840 H     1 <1>   0.0800 
 28 H        4.4380    -1.7430     0.9440 H     1 <1>   0.0800 
 29 H        5.8380     2.2400     0.6820 H     1 <1>   0.4000 
 30 H        6.2810     4.4040     1.2690 H     1 <1>   0.0800 
 31 H        4.5490     4.6240     1.1550 H     1 <1>   0.0800 
 32 H        4.7280     5.3250    -1.1560 H     1 <1>   0.0800 
 33 H        6.4050     4.8770    -1.2230 H     1 <1>   0.0800 
 34 H        5.1740     7.2220     0.0680 H     1 <1>   0.4000 
 35 H        8.3400     5.4170    -0.4270 H     1 <1>   0.1500 
 36 H        8.7600    10.1910     0.5300 H     1 <1>   0.1500 
 37 H        5.5780     9.0900     1.2990 H     1 <1>   0.0800 
 38 H        5.5180     9.4320    -0.4150 H     1 <1>   0.0800 
 39 H        6.4100    10.4790     0.6550 H     1 <1>   0.0800 
 40 H       10.5420     6.4870    -0.2840 H     1 <1>   0.1500 
 41 H       10.6710     8.8240     0.1850 H     1 <1>   0.4570 
@<TRIPOS>BOND
  1   1   2  1   
  2   2   3  ar  
  3   2   4  ar  
  4   3   5  ar  
  5   3   6  1   
  6   4   7  ar  
  7   4  22  1   
  8   5   8  ar  
  9   6   9  1   
 10   6  10  1   
 11   7   8  ar  
 12   8  11  1   
 13   9  23  1   
 14   9  24  1   
 15   9  25  1   
 16  10  26  1   
 17  10  27  1   
 18  10  28  1   
 19  11  12  1   
 20  11  29  1   
 21  12  13  1   
 22  12  30  1   
 23  12  31  1   
 24  13  14  1   
 25  13  32  1   
 26  13  33  1   
 27  14  15  1   
 28  14  34  1   
 29  15  16  ar  
 30  15  17  ar  
 31  16  18  ar  
 32  16  19  1   
 33  17  20  ar  
 34  17  35  1   
 35  18  21  ar  
 36  18  36  1   
 37  19  37  1   
 38  19  38  1   
 39  19  39  1   
 40  20  21  ar  
 41  20  40  1   
 42  21  41  1   
@<TRIPOS>SUBSTRUCTURE
  1 ****  12 GROUP 4 **** **** 0

# MOE 2024.06 (io_trps.svl 2023.06)
