@<TRIPOS>MOLECULE
NONAME
37 38 1 0 0 
SMALL
USER_CHARGES


@<TRIPOS>ATOM
  1 O        2.4840    -0.7860     1.9500 O.2   1 <1>  -0.5700 
  2 C        2.1950    -0.9180     0.7870 C.2   1 <1>   0.5690 
  3 N        2.0220     0.1420    -0.0420 N.am  1 <1>  -0.7300 
  4 C        2.0180    -2.3160     0.2320 C.3   1 <1>  -0.0990 
  5 C        2.1430     1.5540     0.3750 C.3   1 <1>   0.1400 
  6 C        0.5390    -2.7360     0.2170 C.3   1 <1>  -0.1600 
  7 C        3.4790     2.1030    -0.1190 C.3   1 <1>  -0.1600 
  8 C        0.3710    -4.1860    -0.2550 C.3   1 <1>   0.0960 
  9 C        3.7070     3.5290     0.3970 C.3   1 <1>   0.0960 
 10 N       -1.0590    -4.5450    -0.3060 N.pl3 1 <1>   0.0480 
 11 N        4.9710     4.0760    -0.1280 N.pl3 1 <1>   0.3140 
 12 C       -1.8340    -5.0100     0.6990 C.2   1 <1>   0.0360 
 13 C       -1.8820    -4.4770    -1.3670 C.2   1 <1>  -0.3020 
 14 N        5.0280     4.8420    -1.2210 N.2   1 <1>  -0.4180 
 15 C        6.2010     3.9060     0.3600 C.2   1 <1>  -0.3020 
 16 N       -3.0610    -5.2360     0.3570 N.2   1 <1>  -0.5650 
 17 C       -3.0930    -4.9000    -0.9460 C.2   1 <1>   0.0770 
 18 N        6.2580     5.1590    -1.4340 N.2   1 <1>  -0.2270 
 19 C        6.9960     4.5930    -0.4740 C.2   1 <1>   0.0770 
 20 H        1.8010    -0.0140    -1.0260 H     1 <1>   0.3700 
 21 H        2.5800    -2.9930     0.8500 H     1 <1>   0.0800 
 22 H        2.4280    -2.3550    -0.7600 H     1 <1>   0.0800 
 23 H        2.0940     1.6170     1.4510 H     1 <1>   0.0800 
 24 H        1.3230     2.1200    -0.0350 H     1 <1>   0.0800 
 25 H       -0.0120    -2.0790    -0.4350 H     1 <1>   0.0800 
 26 H        0.1380    -2.6380     1.2120 H     1 <1>   0.0800 
 27 H        3.4850     2.1090    -1.1960 H     1 <1>   0.0800 
 28 H        4.2720     1.4690     0.2380 H     1 <1>   0.0800 
 29 H        0.8710    -4.8580     0.4200 H     1 <1>   0.0800 
 30 H        0.7900    -4.3110    -1.2370 H     1 <1>   0.0800 
 31 H        3.7510     3.5370     1.4710 H     1 <1>   0.0800 
 32 H        2.9070     4.1730     0.0790 H     1 <1>   0.0800 
 33 H       -1.4470    -5.1690     1.6910 H     1 <1>   0.1500 
 34 H       -1.5750    -4.1400    -2.3400 H     1 <1>   0.1500 
 35 H        6.4290     3.3270     1.2350 H     1 <1>   0.1500 
 36 H       -4.0020    -4.9830    -1.5190 H     1 <1>   0.1500 
 37 H        8.0640     4.7150    -0.4380 H     1 <1>   0.1500 
@<TRIPOS>BOND
  1   1   2  2   
  2   2   3  am  
  3   2   4  1   
  4   3   5  1   
  5   3  20  1   
  6   4   6  1   
  7   4  21  1   
  8   4  22  1   
  9   5   7  1   
 10   5  23  1   
 11   5  24  1   
 12   6   8  1   
 13   6  25  1   
 14   6  26  1   
 15   7   9  1   
 16   7  27  1   
 17   7  28  1   
 18   8  10  1   
 19   8  29  1   
 20   8  30  1   
 21   9  11  1   
 22   9  31  1   
 23   9  32  1   
 24  10  12  1   
 25  10  13  1   
 26  11  14  1   
 27  11  15  1   
 28  12  16  2   
 29  12  33  1   
 30  13  17  2   
 31  13  34  1   
 32  14  18  2   
 33  15  19  2   
 34  15  35  1   
 35  16  17  1   
 36  17  36  1   
 37  18  19  1   
 38  19  37  1   
@<TRIPOS>SUBSTRUCTURE
  1 ****   3 GROUP 4 **** **** 0

# MOE 2024.06 (io_trps.svl 2023.06)
