@<TRIPOS>MOLECULE
NONAME
53 55 1 0 0 
SMALL
USER_CHARGES


@<TRIPOS>ATOM
  1 O        1.0200     1.2170    -1.1380 O.2   1 <1>  -0.5700 
  2 C        0.7820     2.3970    -1.1170 C.2   1 <1>   0.5690 
  3 N       -0.2600     2.8750    -0.4000 N.am  1 <1>  -0.7300 
  4 C        1.6450     3.3740    -1.9230 C.3   1 <1>   0.1810 
  5 C       -0.5960     4.3170    -0.3000 C.3   1 <1>   0.3640 
  6 O        1.5420     4.7010    -1.4560 O.3   1 <1>  -0.5600 
  7 C       -2.0960     4.5030    -0.4870 C.ar  1 <1>  -0.1440 
  8 C        0.2090     5.1700    -1.3110 C.3   1 <1>   0.2610 
  9 C       -2.8000     3.7910    -1.4500 C.ar  1 <1>   0.1600 
 10 C       -2.7860     5.4030     0.3030 C.ar  1 <1>  -0.1500 
 11 C        0.1470     6.6560    -0.9210 C.2   1 <1>   0.5690 
 12 N       -4.0980     3.8990    -1.6780 N.ar  1 <1>  -0.6200 
 13 C       -4.1400     5.5300     0.0760 C.ar  1 <1>  -0.1500 
 14 O       -0.5380     7.3540    -1.6330 O.2   1 <1>  -0.5700 
 15 N        0.7920     7.1910     0.1780 N.am  1 <1>  -0.6600 
 16 C       -4.7380     4.7660    -0.9110 C.ar  1 <1>   0.1600 
 17 C        0.7770     8.6760     0.3850 C.3   1 <1>   0.2840 
 18 C        1.7130     6.4440     1.0870 C.3   1 <1>   0.1400 
 19 C        2.1580     9.2630     0.1260 C.ar  1 <1>  -0.1430 
 20 C        1.1570     6.4240     2.5100 C.3   1 <1>  -0.2400 
 21 C        2.8910     9.8410     1.1530 C.ar  1 <1>  -0.1500 
 22 C        2.6970     9.2200    -1.1500 C.ar  1 <1>  -0.1500 
 23 C        4.1490    10.3660     0.9100 C.ar  1 <1>  -0.1500 
 24 C        3.9530     9.7430    -1.3970 C.ar  1 <1>  -0.1500 
 25 C        4.6880    10.3170    -0.3730 C.ar  1 <1>   0.0830 
 26 O        5.9120    10.8030    -0.6980 O.3   1 <1>  -0.3630 
 27 C        6.7520    11.3810     0.2720 C.3   1 <1>   0.1200 
 28 C        8.0470    11.8040    -0.4150 C.3   1 <1>  -0.2400 
 29 H       -0.8260     2.2150     0.1380 H     1 <1>   0.3700 
 30 H        1.3480     3.3510    -2.9550 H     1 <1>   0.0800 
 31 H        2.6770     3.0810    -1.8520 H     1 <1>   0.0800 
 32 H       -0.3420     4.6350     0.6940 H     1 <1>   0.0800 
 33 H       -0.2560     5.0800    -2.2770 H     1 <1>   0.0800 
 34 H       -2.2700     3.0900    -2.0740 H     1 <1>   0.1500 
 35 H       -2.3000     5.9920     1.0610 H     1 <1>   0.1500 
 36 H       -4.7300     6.2160     0.6550 H     1 <1>   0.1500 
 37 H       -5.7960     4.8750    -1.0790 H     1 <1>   0.1500 
 38 H        0.0740     9.1530    -0.2750 H     1 <1>   0.0800 
 39 H        0.4610     8.8950     1.3880 H     1 <1>   0.0800 
 40 H        1.8470     5.4310     0.7600 H     1 <1>   0.0800 
 41 H        2.6870     6.9050     1.0790 H     1 <1>   0.0800 
 42 H        0.1550     6.0370     2.5240 H     1 <1>   0.0800 
 43 H        1.1680     7.4090     2.9390 H     1 <1>   0.0800 
 44 H        1.7740     5.7920     3.1240 H     1 <1>   0.0800 
 45 H        2.4860     9.8860     2.1490 H     1 <1>   0.1500 
 46 H        2.1360     8.7730    -1.9550 H     1 <1>   0.1500 
 47 H        4.6890    10.8060     1.7250 H     1 <1>   0.1500 
 48 H        4.3720     9.7080    -2.3860 H     1 <1>   0.1500 
 49 H        6.2490    12.2340     0.6930 H     1 <1>   0.0800 
 50 H        6.9480    10.6470     1.0340 H     1 <1>   0.0800 
 51 H        7.8370    12.5240    -1.1860 H     1 <1>   0.0800 
 52 H        8.5310    10.9460    -0.8470 H     1 <1>   0.0800 
 53 H        8.7120    12.2500     0.3020 H     1 <1>   0.0800 
@<TRIPOS>BOND
  1   1   2  2   
  2   2   3  am  
  3   2   4  1   
  4   3   5  1   
  5   3  29  1   
  6   4   6  1   
  7   4  30  1   
  8   4  31  1   
  9   5   7  1   
 10   5   8  1   
 11   5  32  1   
 12   6   8  1   
 13   7   9  ar  
 14   7  10  ar  
 15   8  11  1   
 16   8  33  1   
 17   9  12  ar  
 18   9  34  1   
 19  10  13  ar  
 20  10  35  1   
 21  11  14  2   
 22  11  15  am  
 23  12  16  ar  
 24  13  16  ar  
 25  13  36  1   
 26  15  17  1   
 27  15  18  1   
 28  16  37  1   
 29  17  19  1   
 30  17  38  1   
 31  17  39  1   
 32  18  20  1   
 33  18  40  1   
 34  18  41  1   
 35  19  21  ar  
 36  19  22  ar  
 37  20  42  1   
 38  20  43  1   
 39  20  44  1   
 40  21  23  ar  
 41  21  45  1   
 42  22  24  ar  
 43  22  46  1   
 44  23  25  ar  
 45  23  47  1   
 46  24  25  ar  
 47  24  48  1   
 48  25  26  1   
 49  26  27  1   
 50  27  28  1   
 51  27  49  1   
 52  27  50  1   
 53  28  51  1   
 54  28  52  1   
 55  28  53  1   
@<TRIPOS>SUBSTRUCTURE
  1 ****  15 GROUP 4 **** **** 0

# MOE 2024.06 (io_trps.svl 2023.06)
