@<TRIPOS>MOLECULE
NONAME
44 47 1 0 0 
SMALL
USER_CHARGES


@<TRIPOS>ATOM
  1 F       -2.4960    -0.7900    -3.1640 F     1 <1>  -0.3400 
  2 C       -2.2820    -0.9710    -1.8690 C.3   1 <1>   1.2400 
  3 F       -1.2860    -0.1750    -1.5070 F     1 <1>  -0.3400 
  4 O       -1.9370    -2.3260    -1.6200 O.3   1 <1>  -0.3630 
  5 O       -3.4530    -0.6530    -1.1330 O.3   1 <1>  -0.3630 
  6 C       -2.8730    -2.7710    -0.7750 C.ar  1 <1>   0.0830 
  7 C       -3.7710    -1.7800    -0.4860 C.ar  1 <1>   0.0830 
  8 C       -2.9870    -4.0330    -0.2280 C.ar  1 <1>  -0.1500 
  9 C       -4.8310    -1.9990     0.3680 C.ar  1 <1>  -0.1500 
 10 C       -4.0560    -4.2810     0.6300 C.ar  1 <1>  -0.1440 
 11 C       -4.9650    -3.2640     0.9260 C.ar  1 <1>  -0.1500 
 12 C       -4.2410    -5.6560     1.2450 C.3   1 <1>   0.4870 
 13 N       -4.6840    -6.6110     0.1920 N.4   1 <1>  -0.9590 
 14 C       -6.0150    -6.2100    -0.3750 C.3   1 <1>   0.3430 
 15 C       -4.8570    -7.9780     0.7770 C.3   1 <1>   0.3430 
 16 C       -7.0410    -7.1420     0.2770 C.3   1 <1>   0.2000 
 17 C       -6.2710    -8.4520     0.4090 C.3   1 <1>  -0.0800 
 18 O       -7.3080    -6.6630     1.5560 O.3   1 <1>  -0.6800 
 19 C       -6.3250    -9.2710    -0.8990 C.3   1 <1>   0.0200 
 20 C       -5.3770   -10.4530    -0.8650 C.2   1 <1>  -0.0400 
 21 O       -4.1020   -10.2620    -1.0710 O.3   1 <1>  -0.0190 
 22 C       -5.5680   -11.7640    -0.6580 C.2   1 <1>  -0.1500 
 23 N       -3.4260   -11.3660    -0.9900 N.2   1 <1>  -0.4100 
 24 C       -4.2830   -12.2930    -0.7500 C.2   1 <1>   0.1080 
 25 C       -3.9330   -13.7560    -0.5900 C.3   1 <1>  -0.0590 
 26 H       -2.2540    -4.7810    -0.4740 H     1 <1>   0.1500 
 27 H       -5.5250    -1.2060     0.5890 H     1 <1>   0.1500 
 28 H       -5.7900    -3.4460     1.5980 H     1 <1>   0.1500 
 29 H       -4.9810    -5.6070     2.0290 H     1 <1>   0.0800 
 30 H       -3.3090    -5.9840     1.6760 H     1 <1>   0.0800 
 31 H       -3.9780    -6.6200    -0.5550 H     1 <1>   0.4500 
 32 H       -6.2550    -5.1780    -0.1830 H     1 <1>   0.0800 
 33 H       -6.0140    -6.3750    -1.4390 H     1 <1>   0.0800 
 34 H       -4.0920    -8.6530     0.4360 H     1 <1>   0.0800 
 35 H       -4.7940    -7.9180     1.8520 H     1 <1>   0.0800 
 36 H       -7.9630    -7.2100    -0.2760 H     1 <1>   0.0800 
 37 H       -6.6690    -9.0640     1.2010 H     1 <1>   0.0800 
 38 H       -8.0970    -7.1000     1.9430 H     1 <1>   0.4000 
 39 H       -6.0750    -8.6680    -1.7550 H     1 <1>   0.0800 
 40 H       -7.3260    -9.6410    -1.0430 H     1 <1>   0.0800 
 41 H       -6.4700   -12.3160    -0.4630 H     1 <1>   0.1500 
 42 H       -4.4360   -14.3360    -1.3420 H     1 <1>   0.0800 
 43 H       -4.2300   -14.1020     0.3820 H     1 <1>   0.0800 
 44 H       -2.8720   -13.8950    -0.6990 H     1 <1>   0.0800 
@<TRIPOS>BOND
  1   1   2  1   
  2   2   3  1   
  3   2   4  1   
  4   2   5  1   
  5   4   6  1   
  6   5   7  1   
  7   6   7  ar  
  8   6   8  ar  
  9   7   9  ar  
 10   8  10  ar  
 11   8  26  1   
 12   9  11  ar  
 13   9  27  1   
 14  10  11  ar  
 15  10  12  1   
 16  11  28  1   
 17  12  13  1   
 18  12  29  1   
 19  12  30  1   
 20  13  14  1   
 21  13  15  1   
 22  13  31  1   
 23  14  16  1   
 24  14  32  1   
 25  14  33  1   
 26  15  17  1   
 27  15  34  1   
 28  15  35  1   
 29  16  17  1   
 30  16  18  1   
 31  16  36  1   
 32  17  19  1   
 33  17  37  1   
 34  18  38  1   
 35  19  20  1   
 36  19  39  1   
 37  19  40  1   
 38  20  21  1   
 39  20  22  2   
 40  21  23  1   
 41  22  24  1   
 42  22  41  1   
 43  23  24  2   
 44  24  25  1   
 45  25  42  1   
 46  25  43  1   
 47  25  44  1   
@<TRIPOS>SUBSTRUCTURE
  1 ****  13 GROUP 4 **** **** 0

# MOE 2024.06 (io_trps.svl 2023.06)
