@<TRIPOS>MOLECULE
NONAME
44 45 1 0 0 
SMALL
USER_CHARGES


@<TRIPOS>ATOM
  1 F        1.9520    -1.6740     2.4020 F     1 <1>  -0.1900 
  2 C        1.3350    -2.4510     1.5570 C.ar  1 <1>   0.1900 
  3 C        1.5540    -3.8130     1.6180 C.ar  1 <1>  -0.1500 
  4 C        0.4850    -1.8850     0.6290 C.ar  1 <1>  -0.1500 
  5 C        0.8990    -4.6450     0.7230 C.ar  1 <1>  -0.1440 
  6 C       -0.1690    -2.7210    -0.2580 C.ar  1 <1>  -0.1500 
  7 C        0.0150    -4.1060    -0.2250 C.ar  1 <1>   0.0860 
  8 C        1.1600    -6.1460     0.7820 C.3   1 <1>  -0.0960 
  9 C       -0.7150    -4.9380    -1.1630 C.2   1 <1>   0.5440 
 10 O       -0.3530    -4.9890    -2.3230 O.2   1 <1>  -0.5700 
 11 N       -1.8120    -5.6650    -0.7620 N.am  1 <1>  -0.6600 
 12 C       -2.3590    -6.7750    -1.6160 C.3   1 <1>   0.1400 
 13 C       -2.4280    -5.5000     0.5960 C.3   1 <1>   0.1400 
 14 C       -2.8590    -7.9120    -0.7180 C.3   1 <1>   0.2000 
 15 C       -3.8840    -5.9700     0.5760 C.3   1 <1>  -0.1600 
 16 O       -3.2140    -9.0310    -1.4540 O.3   1 <1>  -0.6800 
 17 C       -4.0100    -7.4910     0.2360 C.3   1 <1>  -0.1060 
 18 C       -3.7610    -8.3720     1.4730 C.2   1 <1>   0.9060 
 19 C       -5.4580    -7.7650    -0.2880 C.3   1 <1>  -0.1600 
 20 O       -3.4290    -7.8610     2.5500 O.co2 1 <1>  -0.9000 
 21 O       -3.8370    -9.6010     1.3340 O.co2 1 <1>  -0.9000 
 22 C       -5.8370    -7.1680    -1.6580 C.3   1 <1>  -0.1600 
 23 C       -7.2810    -7.5230    -2.0240 C.3   1 <1>  -0.2400 
 24 H        2.2280    -4.2060     2.3580 H     1 <1>   0.1500 
 25 H        0.3430    -0.8190     0.6050 H     1 <1>   0.1500 
 26 H       -0.8350    -2.3080    -0.9950 H     1 <1>   0.1500 
 27 H        2.0300    -6.3630     1.3750 H     1 <1>   0.0800 
 28 H        1.3240    -6.5370    -0.2070 H     1 <1>   0.0800 
 29 H        0.3190    -6.6560     1.2170 H     1 <1>   0.0800 
 30 H       -3.1640    -6.3940    -2.2170 H     1 <1>   0.0800 
 31 H       -1.5860    -7.1510    -2.2630 H     1 <1>   0.0800 
 32 H       -1.8800    -6.0790     1.3190 H     1 <1>   0.0800 
 33 H       -2.3920    -4.4660     0.8920 H     1 <1>   0.0800 
 34 H       -2.0100    -8.2160    -0.1280 H     1 <1>   0.0800 
 35 H       -4.3340    -5.7750     1.5330 H     1 <1>   0.0800 
 36 H       -4.4020    -5.3610    -0.1370 H     1 <1>   0.0800 
 37 H       -3.5340    -9.6870    -0.7860 H     1 <1>   0.4000 
 38 H       -5.6050    -8.8310    -0.3450 H     1 <1>   0.0800 
 39 H       -6.1520    -7.4070     0.4540 H     1 <1>   0.0800 
 40 H       -5.7380    -6.0990    -1.6550 H     1 <1>   0.0800 
 41 H       -5.1850    -7.5620    -2.4180 H     1 <1>   0.0800 
 42 H       -7.9610    -7.1270    -1.2900 H     1 <1>   0.0800 
 43 H       -7.4010    -8.5910    -2.0680 H     1 <1>   0.0800 
 44 H       -7.5300    -7.1090    -2.9840 H     1 <1>   0.0800 
@<TRIPOS>BOND
  1   1   2  1   
  2   2   3  ar  
  3   2   4  ar  
  4   3   5  ar  
  5   3  24  1   
  6   4   6  ar  
  7   4  25  1   
  8   5   7  ar  
  9   5   8  1   
 10   6   7  ar  
 11   6  26  1   
 12   7   9  1   
 13   8  27  1   
 14   8  28  1   
 15   8  29  1   
 16   9  10  2   
 17   9  11  am  
 18  11  12  1   
 19  11  13  1   
 20  12  14  1   
 21  12  30  1   
 22  12  31  1   
 23  13  15  1   
 24  13  32  1   
 25  13  33  1   
 26  14  16  1   
 27  14  17  1   
 28  14  34  1   
 29  15  17  1   
 30  15  35  1   
 31  15  36  1   
 32  16  37  1   
 33  17  18  1   
 34  17  19  1   
 35  18  20  ar  
 36  18  21  ar  
 37  19  22  1   
 38  19  38  1   
 39  19  39  1   
 40  22  23  1   
 41  22  40  1   
 42  22  41  1   
 43  23  42  1   
 44  23  43  1   
 45  23  44  1   
@<TRIPOS>SUBSTRUCTURE
  1 ****  13 GROUP 4 **** **** 0

# MOE 2024.06 (io_trps.svl 2023.06)
