@<TRIPOS>MOLECULE
NONAME
45 48 1 0 0 
SMALL
USER_CHARGES


@<TRIPOS>ATOM
  1 CL      -0.9340     0.7450     0.5980 Cl    1 <1>  -0.1770 
  2 C       -2.1640    -0.4870     0.6890 C.ar  1 <1>   0.1770 
  3 C       -3.1050    -0.4350     1.6990 C.ar  1 <1>  -0.1500 
  4 C       -2.1830    -1.5010    -0.2480 C.ar  1 <1>  -0.1500 
  5 C       -4.0820    -1.4150     1.7650 C.ar  1 <1>  -0.1500 
  6 C       -3.1640    -2.4750    -0.1710 C.ar  1 <1>  -0.1500 
  7 C       -4.1310    -2.4480     0.8310 C.ar  1 <1>  -0.0090 
  8 S       -5.4120    -3.7300     0.9210 S.o2  1 <1>   1.4470 
  9 O       -4.8350    -5.0310     1.1630 O.2   1 <1>  -0.6500 
 10 O       -6.5220    -3.3200     1.7600 O.2   1 <1>  -0.6500 
 11 N       -6.0530    -3.7950    -0.6570 N.am  1 <1>  -0.8490 
 12 C       -7.1380    -2.8180    -0.9210 C.3   1 <1>   0.1960 
 13 C       -6.4860    -5.1490    -1.0600 C.3   1 <1>   0.1960 
 14 C       -8.5650    -3.2850    -0.4860 C.3   1 <1>   0.4230 
 15 C       -7.7110    -5.6540    -0.2550 C.3   1 <1>   0.3430 
 16 N       -8.5380    -4.5420     0.3540 N.4   1 <1>  -0.9590 
 17 C       -9.5060    -3.4730    -1.6980 C.3   1 <1>   0.1200 
 18 C       -9.9250    -4.9430     0.7420 C.3   1 <1>   0.5180 
 19 O      -10.7800    -3.8640    -1.2690 O.3   1 <1>  -0.5600 
 20 C       -9.8630    -6.2240     1.5990 C.3   1 <1>  -0.1950 
 21 C      -10.8300    -5.0460    -0.5120 C.3   1 <1>   0.1200 
 22 C       -9.8620    -7.6240     1.0560 C.3   1 <1>  -0.2000 
 23 C      -11.0500    -7.1130     1.8220 C.3   1 <1>  -0.2000 
 24 H       -3.0670     0.3620     2.4210 H     1 <1>   0.1500 
 25 H       -1.4360    -1.5240    -1.0230 H     1 <1>   0.1500 
 26 H       -4.8110    -1.3750     2.5570 H     1 <1>   0.1500 
 27 H       -3.1760    -3.2690    -0.9000 H     1 <1>   0.1500 
 28 H       -6.9100    -1.8870    -0.4270 H     1 <1>   0.0800 
 29 H       -7.1470    -2.5980    -1.9750 H     1 <1>   0.0800 
 30 H       -6.7440    -5.1320    -2.1050 H     1 <1>   0.0800 
 31 H       -5.6740    -5.8510    -0.9620 H     1 <1>   0.0800 
 32 H       -8.9880    -2.4870     0.1020 H     1 <1>   0.0800 
 33 H       -7.3580    -6.2990     0.5340 H     1 <1>   0.0800 
 34 H       -8.3220    -6.2560    -0.9070 H     1 <1>   0.0800 
 35 H       -8.0380    -4.2600     1.2200 H     1 <1>   0.4500 
 36 H       -9.1300    -4.2140    -2.3810 H     1 <1>   0.0800 
 37 H       -9.6190    -2.5440    -2.2300 H     1 <1>   0.0800 
 38 H      -10.3430    -4.1670     1.3620 H     1 <1>   0.0800 
 39 H       -9.2760    -6.0470     2.4850 H     1 <1>   0.1000 
 40 H      -11.8540    -5.1920    -0.2150 H     1 <1>   0.0800 
 41 H      -10.5390    -5.8670    -1.1410 H     1 <1>   0.0800 
 42 H      -10.0120    -7.8330     0.0110 H     1 <1>   0.1000 
 43 H       -9.2450    -8.3700     1.5310 H     1 <1>   0.1000 
 44 H      -11.2250    -7.5060     2.8100 H     1 <1>   0.1000 
 45 H      -11.9700    -6.9690     1.2820 H     1 <1>   0.1000 
@<TRIPOS>BOND
  1   1   2  1   
  2   2   3  ar  
  3   2   4  ar  
  4   3   5  ar  
  5   3  24  1   
  6   4   6  ar  
  7   4  25  1   
  8   5   7  ar  
  9   5  26  1   
 10   6   7  ar  
 11   6  27  1   
 12   7   8  1   
 13   8   9  2   
 14   8  10  2   
 15   8  11  am  
 16  11  12  1   
 17  11  13  1   
 18  12  14  1   
 19  12  28  1   
 20  12  29  1   
 21  13  15  1   
 22  13  30  1   
 23  13  31  1   
 24  14  16  1   
 25  14  17  1   
 26  14  32  1   
 27  15  16  1   
 28  15  33  1   
 29  15  34  1   
 30  16  18  1   
 31  16  35  1   
 32  17  19  1   
 33  17  36  1   
 34  17  37  1   
 35  18  20  1   
 36  18  21  1   
 37  18  38  1   
 38  19  21  1   
 39  20  22  1   
 40  20  23  1   
 41  20  39  1   
 42  21  40  1   
 43  21  41  1   
 44  22  23  1   
 45  22  42  1   
 46  22  43  1   
 47  23  44  1   
 48  23  45  1   
@<TRIPOS>SUBSTRUCTURE
  1 ****  11 GROUP 4 **** **** 0

# MOE 2024.06 (io_trps.svl 2023.06)
