@<TRIPOS>MOLECULE
NONAME
41 42 1 0 0 
SMALL
USER_CHARGES


@<TRIPOS>ATOM
  1 O       -2.4830     1.2710    -1.8380 O.2   1 <1>  -0.5700 
  2 C       -2.1210     1.0810    -0.7030 C.2   1 <1>   0.5690 
  3 N       -2.1600    -0.1490    -0.1360 N.am  1 <1>  -0.7300 
  4 C       -1.6150     2.2490     0.1210 C.3   1 <1>  -0.0990 
  5 C       -2.5790    -1.3860    -0.8290 C.3   1 <1>   0.2200 
  6 C       -0.1330     2.5790    -0.1420 C.3   1 <1>  -0.0800 
  7 C       -3.8840    -1.8780    -0.2270 C.3   1 <1>  -0.0800 
  8 C       -1.6230    -2.5180    -0.4680 C.3   1 <1>   0.1200 
  9 C        0.7950     1.4270     0.2670 C.3   1 <1>  -0.2400 
 10 C        0.2650     3.8520     0.6140 C.3   1 <1>  -0.2400 
 11 C       -3.4000    -2.6710     0.9930 C.3   1 <1>   0.1200 
 12 C       -4.6670    -2.7560    -1.2220 C.3   1 <1>  -0.0170 
 13 O       -2.0670    -3.0240     0.7560 O.3   1 <1>  -0.5600 
 14 C       -5.9850    -3.2310    -0.6300 C.ar  1 <1>  -0.1440 
 15 C       -6.1720    -4.5290    -0.2000 C.ar  1 <1>  -0.1500 
 16 C       -7.0650    -2.3830    -0.4930 C.ar  1 <1>  -0.1500 
 17 C       -7.3930    -4.9040     0.3350 C.ar  1 <1>   0.1600 
 18 C       -8.2450    -2.8590     0.0550 C.ar  1 <1>   0.1600 
 19 N       -8.4340    -4.0990     0.4750 N.ar  1 <1>  -0.6200 
 20 H       -1.8210    -0.2900     0.8170 H     1 <1>   0.3700 
 21 H       -2.2160     3.1040    -0.1310 H     1 <1>   0.0800 
 22 H       -1.7670     2.0430     1.1640 H     1 <1>   0.0800 
 23 H       -2.6340    -1.2220    -1.8920 H     1 <1>   0.0800 
 24 H       -0.0090     2.7600    -1.1980 H     1 <1>   0.0800 
 25 H       -4.5080    -1.0540     0.0700 H     1 <1>   0.0800 
 26 H       -0.6040    -2.1880    -0.3770 H     1 <1>   0.0800 
 27 H       -1.6850    -3.3120    -1.1910 H     1 <1>   0.0800 
 28 H        0.6730     1.1890     1.3090 H     1 <1>   0.0800 
 29 H        1.8210     1.7010     0.0970 H     1 <1>   0.0800 
 30 H        0.5890     0.5480    -0.3180 H     1 <1>   0.0800 
 31 H        0.1570     3.7150     1.6760 H     1 <1>   0.0800 
 32 H       -0.3540     4.6780     0.3090 H     1 <1>   0.0800 
 33 H        1.2880     4.1070     0.4040 H     1 <1>   0.0800 
 34 H       -3.9720    -3.5640     1.1720 H     1 <1>   0.0800 
 35 H       -3.4190    -2.0560     1.8760 H     1 <1>   0.0800 
 36 H       -4.0760    -3.6070    -1.5160 H     1 <1>   0.0800 
 37 H       -4.8760    -2.1860    -2.1110 H     1 <1>   0.0800 
 38 H       -5.3810    -5.2540    -0.2740 H     1 <1>   0.1500 
 39 H       -7.0010    -1.3570    -0.8090 H     1 <1>   0.1500 
 40 H       -7.5210    -5.9210     0.6660 H     1 <1>   0.1500 
 41 H       -9.0770    -2.1830     0.1540 H     1 <1>   0.1500 
@<TRIPOS>BOND
  1   1   2  2   
  2   2   3  am  
  3   2   4  1   
  4   3   5  1   
  5   3  20  1   
  6   4   6  1   
  7   4  21  1   
  8   4  22  1   
  9   5   7  1   
 10   5   8  1   
 11   5  23  1   
 12   6   9  1   
 13   6  10  1   
 14   6  24  1   
 15   7  11  1   
 16   7  12  1   
 17   7  25  1   
 18   8  13  1   
 19   8  26  1   
 20   8  27  1   
 21   9  28  1   
 22   9  29  1   
 23   9  30  1   
 24  10  31  1   
 25  10  32  1   
 26  10  33  1   
 27  11  13  1   
 28  11  34  1   
 29  11  35  1   
 30  12  14  1   
 31  12  36  1   
 32  12  37  1   
 33  14  15  ar  
 34  14  16  ar  
 35  15  17  ar  
 36  15  38  1   
 37  16  18  ar  
 38  16  39  1   
 39  17  19  ar  
 40  17  40  1   
 41  18  19  ar  
 42  18  41  1   
@<TRIPOS>SUBSTRUCTURE
  1 ****   7 GROUP 4 **** **** 0

# MOE 2024.06 (io_trps.svl 2023.06)
