@<TRIPOS>MOLECULE
NONAME
51 53 1 0 0 
SMALL
USER_CHARGES


@<TRIPOS>ATOM
  1 S       -0.8550    -0.1020    -1.7840 S.o2  1 <1>   1.2040 
  2 O        0.1090    -0.1760    -2.8580 O.2   1 <1>  -0.6500 
  3 O       -2.2560     0.0970    -2.0910 O.2   1 <1>  -0.6500 
  4 C       -0.3110     1.1110    -0.5570 C.ar  1 <1>  -0.0090 
  5 C       -0.7460    -1.6440    -0.8800 C.3   1 <1>  -0.0550 
  6 C       -1.2290     1.8600     0.1720 C.ar  1 <1>  -0.1500 
  7 C        1.0400     1.2990    -0.2890 C.ar  1 <1>  -0.1500 
  8 C       -1.6460    -1.6910     0.3650 C.3   1 <1>  -0.0990 
  9 C       -0.8150     2.7590     1.1390 C.ar  1 <1>  -0.1500 
 10 C        1.4620     2.1960     0.6770 C.ar  1 <1>  -0.1500 
 11 C       -1.7560    -3.1120     0.8690 C.2   1 <1>   0.5690 
 12 C        0.5330     2.9270     1.3930 C.ar  1 <1>  -0.1500 
 13 O       -0.9100    -3.4970     1.6390 O.2   1 <1>  -0.5700 
 14 N       -2.7570    -3.9260     0.4230 N.am  1 <1>  -0.6600 
 15 C       -3.7980    -3.6110    -0.5920 C.3   1 <1>   0.1400 
 16 C       -2.9150    -5.3230     0.8850 C.3   1 <1>   0.1400 
 17 C       -4.6640    -4.8740    -0.7090 C.3   1 <1>   0.2000 
 18 C       -3.7530    -5.9970    -0.2030 C.3   1 <1>  -0.0800 
 19 O       -5.7680    -4.7700     0.1450 O.3   1 <1>  -0.5600 
 20 C       -4.4940    -7.2560     0.2830 C.3   1 <1>   0.0200 
 21 C       -6.8800    -4.1270    -0.3940 C.3   1 <1>   0.0400 
 22 C       -3.5600    -8.4110     0.6060 C.2   1 <1>  -0.0400 
 23 O       -4.0680    -9.5080     1.1010 O.3   1 <1>  -0.0190 
 24 C       -2.2340    -8.5930     0.4910 C.2   1 <1>  -0.1500 
 25 N       -3.1570   -10.4100     1.3270 N.2   1 <1>  -0.4100 
 26 C       -2.0410    -9.8860     0.9690 C.2   1 <1>   0.1080 
 27 C       -0.7040   -10.5850     1.0600 C.3   1 <1>  -0.0590 
 28 H       -1.0310    -2.4400    -1.5400 H     1 <1>   0.0800 
 29 H        0.2690    -1.8240    -0.5820 H     1 <1>   0.0800 
 30 H       -2.2830     1.7410    -0.0200 H     1 <1>   0.1500 
 31 H        1.7750     0.7400    -0.8450 H     1 <1>   0.1500 
 32 H       -1.2260    -1.0810     1.1440 H     1 <1>   0.0800 
 33 H       -2.6250    -1.3080     0.1440 H     1 <1>   0.0800 
 34 H       -1.5420     3.3300     1.6920 H     1 <1>   0.1500 
 35 H        2.5140     2.3270     0.8690 H     1 <1>   0.1500 
 36 H        0.8580     3.6250     2.1450 H     1 <1>   0.1500 
 37 H       -4.3860    -2.7610    -0.2930 H     1 <1>   0.0800 
 38 H       -3.3190    -3.4100    -1.5340 H     1 <1>   0.0800 
 39 H       -1.9570    -5.7970     1.0160 H     1 <1>   0.0800 
 40 H       -3.4440    -5.3190     1.8230 H     1 <1>   0.0800 
 41 H       -5.0070    -5.0550    -1.7140 H     1 <1>   0.0800 
 42 H       -3.0930    -6.2700    -1.0070 H     1 <1>   0.0800 
 43 H       -5.1810    -7.5800    -0.4790 H     1 <1>   0.0800 
 44 H       -5.0700    -7.0250     1.1620 H     1 <1>   0.0800 
 45 H       -7.6470    -4.1010     0.3600 H     1 <1>   0.0800 
 46 H       -7.2330    -4.6810    -1.2470 H     1 <1>   0.0800 
 47 H       -6.6180    -3.1230    -0.6760 H     1 <1>   0.0800 
 48 H       -1.4680    -7.9360     0.1250 H     1 <1>   0.1500 
 49 H       -0.0400   -10.0210     1.6890 H     1 <1>   0.0800 
 50 H       -0.2730   -10.6770     0.0810 H     1 <1>   0.0800 
 51 H       -0.8310   -11.5670     1.4790 H     1 <1>   0.0800 
@<TRIPOS>BOND
  1   1   2  2   
  2   1   3  2   
  3   1   4  1   
  4   1   5  1   
  5   4   6  ar  
  6   4   7  ar  
  7   5   8  1   
  8   5  28  1   
  9   5  29  1   
 10   6   9  ar  
 11   6  30  1   
 12   7  10  ar  
 13   7  31  1   
 14   8  11  1   
 15   8  32  1   
 16   8  33  1   
 17   9  12  ar  
 18   9  34  1   
 19  10  12  ar  
 20  10  35  1   
 21  11  13  2   
 22  11  14  am  
 23  12  36  1   
 24  14  15  1   
 25  14  16  1   
 26  15  17  1   
 27  15  37  1   
 28  15  38  1   
 29  16  18  1   
 30  16  39  1   
 31  16  40  1   
 32  17  18  1   
 33  17  19  1   
 34  17  41  1   
 35  18  20  1   
 36  18  42  1   
 37  19  21  1   
 38  20  22  1   
 39  20  43  1   
 40  20  44  1   
 41  21  45  1   
 42  21  46  1   
 43  21  47  1   
 44  22  23  1   
 45  22  24  2   
 46  23  25  1   
 47  24  26  1   
 48  24  48  1   
 49  25  26  2   
 50  26  27  1   
 51  27  49  1   
 52  27  50  1   
 53  27  51  1   
@<TRIPOS>SUBSTRUCTURE
  1 ****  14 GROUP 4 **** **** 0

# MOE 2024.06 (io_trps.svl 2023.06)
