@<TRIPOS>MOLECULE
NONAME
51 53 1 0 0 
SMALL
USER_CHARGES


@<TRIPOS>ATOM
  1 O       -0.1050    -0.1030     0.2320 O.3   1 <1>  -0.6800 
  2 C        0.9400    -0.5100    -0.5900 C.3   1 <1>   0.2000 
  3 C        1.4730    -1.8340    -0.0460 C.3   1 <1>  -0.0800 
  4 C        2.1150     0.4660    -0.3980 C.3   1 <1>   0.3430 
  5 C        2.3000    -1.3440     1.1440 C.3   1 <1>   0.3430 
  6 C        2.3070    -2.5760    -1.1250 C.3   1 <1>   0.0210 
  7 N        3.0240    -0.1710     0.6100 N.4   1 <1>  -0.9590 
  8 C        3.6390    -3.1080    -0.6260 C.2   1 <1>   0.1080 
  9 C        3.5410     0.7590     1.6420 C.3   1 <1>   0.4860 
 10 N        4.6750    -2.3460    -0.4310 N.2   1 <1>  -0.7070 
 11 C        3.9010    -4.4410    -0.3360 C.2   1 <1>  -0.1500 
 12 C        4.1400     1.9790     0.9650 C.ar  1 <1>  -0.1430 
 13 N        5.6480    -3.1980    -0.0330 N.pl3 1 <1>   0.3000 
 14 C        5.1950    -4.4660     0.0430 C.2   1 <1>  -0.3320 
 15 C        5.3510     1.9400     0.2830 C.ar  1 <1>  -0.1430 
 16 C        3.4310     3.1700     1.0280 C.ar  1 <1>  -0.1500 
 17 C        6.0460    -5.6500     0.4680 C.3   1 <1>  -0.0600 
 18 C        5.8140     3.0910    -0.3330 C.ar  1 <1>  -0.1500 
 19 C        6.2050     0.6830     0.1710 C.3   1 <1>  -0.0970 
 20 C        3.8980     4.3190     0.4120 C.ar  1 <1>  -0.1430 
 21 C        5.1020     4.2770    -0.2780 C.ar  1 <1>  -0.1430 
 22 C        3.0820     5.6000     0.5090 C.3   1 <1>  -0.0970 
 23 C        5.6630     5.5100    -0.9740 C.3   1 <1>  -0.0970 
 24 H       -0.9390    -0.5660     0.0060 H     1 <1>   0.4000 
 25 H        0.5870    -0.5440    -1.6070 H     1 <1>   0.0800 
 26 H        0.6820    -2.4810     0.2920 H     1 <1>   0.0800 
 27 H        1.7470     1.4190    -0.0560 H     1 <1>   0.0800 
 28 H        2.6480     0.6030    -1.3230 H     1 <1>   0.0800 
 29 H        2.9770    -2.0990     1.5120 H     1 <1>   0.0800 
 30 H        1.6350    -1.0360     1.9350 H     1 <1>   0.0800 
 31 H        2.5250    -1.9260    -1.9540 H     1 <1>   0.0800 
 32 H        1.7300    -3.3930    -1.5190 H     1 <1>   0.0800 
 33 H        3.8370    -0.5700     0.0960 H     1 <1>   0.4500 
 34 H        2.7350     1.0700     2.2870 H     1 <1>   0.0800 
 35 H        4.2890     0.2700     2.2420 H     1 <1>   0.0800 
 36 H        3.2110    -5.2630    -0.4130 H     1 <1>   0.1500 
 37 H        6.6110    -2.8980     0.1670 H     1 <1>   0.2700 
 38 H        2.4970     3.2110     1.5620 H     1 <1>   0.1500 
 39 H        5.4620    -6.5540     0.4430 H     1 <1>   0.0800 
 40 H        6.4130    -5.5090     1.4690 H     1 <1>   0.0800 
 41 H        6.8820    -5.7680    -0.1990 H     1 <1>   0.0800 
 42 H        6.7490     3.0650    -0.8670 H     1 <1>   0.1500 
 43 H        7.2440     0.9480     0.0880 H     1 <1>   0.0800 
 44 H        5.9290     0.1330    -0.7100 H     1 <1>   0.0800 
 45 H        6.1000     0.0520     1.0330 H     1 <1>   0.0800 
 46 H        2.1850     5.4490     1.0810 H     1 <1>   0.0800 
 47 H        2.8030     5.9350    -0.4740 H     1 <1>   0.0800 
 48 H        3.6610     6.3690     0.9890 H     1 <1>   0.0800 
 49 H        6.5970     5.2910    -1.4580 H     1 <1>   0.0800 
 50 H        5.8310     6.2930    -0.2570 H     1 <1>   0.0800 
 51 H        4.9720     5.8590    -1.7200 H     1 <1>   0.0800 
@<TRIPOS>BOND
  1   1   2  1   
  2   1  24  1   
  3   2   3  1   
  4   2   4  1   
  5   2  25  1   
  6   3   5  1   
  7   3   6  1   
  8   3  26  1   
  9   4   7  1   
 10   4  27  1   
 11   4  28  1   
 12   5   7  1   
 13   5  29  1   
 14   5  30  1   
 15   6   8  1   
 16   6  31  1   
 17   6  32  1   
 18   7   9  1   
 19   7  33  1   
 20   8  10  2   
 21   8  11  1   
 22   9  12  1   
 23   9  34  1   
 24   9  35  1   
 25  10  13  1   
 26  11  14  2   
 27  11  36  1   
 28  12  15  ar  
 29  12  16  ar  
 30  13  14  1   
 31  13  37  1   
 32  14  17  1   
 33  15  18  ar  
 34  15  19  1   
 35  16  20  ar  
 36  16  38  1   
 37  17  39  1   
 38  17  40  1   
 39  17  41  1   
 40  18  21  ar  
 41  18  42  1   
 42  19  43  1   
 43  19  44  1   
 44  19  45  1   
 45  20  21  ar  
 46  20  22  1   
 47  21  23  1   
 48  22  46  1   
 49  22  47  1   
 50  22  48  1   
 51  23  49  1   
 52  23  50  1   
 53  23  51  1   
@<TRIPOS>SUBSTRUCTURE
  1 ****   7 GROUP 4 **** **** 0

# MOE 2024.06 (io_trps.svl 2023.06)
