@<TRIPOS>MOLECULE
NONAME
50 52 1 0 0 
SMALL
USER_CHARGES


@<TRIPOS>ATOM
  1 O        1.1010     4.1770    -1.2380 O.3   1 <1>  -0.0190 
  2 N        2.3050     4.4000    -1.6640 N.2   1 <1>  -0.4100 
  3 C        0.9860     2.9930    -0.7020 C.2   1 <1>  -0.0400 
  4 C        2.9600     3.3100    -1.4760 C.2   1 <1>   0.1080 
  5 C        2.1600     2.3600    -0.8470 C.2   1 <1>  -0.1500 
  6 C       -0.3120     2.5930    -0.0230 C.3   1 <1>   0.0200 
  7 C        4.4040     3.1050    -1.8820 C.3   1 <1>  -0.0590 
  8 C       -0.6710     3.4990     1.1820 C.3   1 <1>  -0.0800 
  9 C       -1.2490     4.8580     0.7600 C.3   1 <1>   0.2000 
 10 C        0.5500     3.8750     2.0310 C.3   1 <1>   0.3430 
 11 O       -2.2980     5.1830     1.6100 O.3   1 <1>  -0.6800 
 12 C       -0.1230     5.8920     0.9260 C.3   1 <1>   0.3430 
 13 N        1.0680     5.1390     1.4390 N.4   1 <1>  -0.9590 
 14 C        1.9940     5.9230     2.3010 C.3   1 <1>   0.4860 
 15 C        2.3590     7.2190     1.6140 C.ar  1 <1>  -0.1440 
 16 C        3.0870     7.2540     0.4450 C.ar  1 <1>   0.1600 
 17 C        1.9650     8.4310     2.1370 C.ar  1 <1>   0.1600 
 18 N        3.3800     8.3780    -0.1570 N.ar  1 <1>  -0.6200 
 19 N        2.2430     9.5670     1.5520 N.ar  1 <1>  -0.6200 
 20 C        2.9340     9.4850     0.4250 C.ar  1 <1>   0.7200 
 21 N        3.1940    10.6720    -0.1600 N.pl3 1 <1>  -0.8690 
 22 C        4.2020    10.8820    -1.2160 C.3   1 <1>   0.2090 
 23 C        4.0590    12.3030    -1.7590 C.3   1 <1>  -0.1600 
 24 C        5.0770    12.5840    -2.8720 C.3   1 <1>  -0.2400 
 25 H        2.4600     1.3690    -0.5550 H     1 <1>   0.1500 
 26 H       -1.1110     2.5990    -0.7450 H     1 <1>   0.0800 
 27 H       -0.2070     1.5790     0.3220 H     1 <1>   0.0800 
 28 H        4.9840     2.7710    -1.0420 H     1 <1>   0.0800 
 29 H        4.8200     4.0260    -2.2500 H     1 <1>   0.0800 
 30 H        4.4600     2.3680    -2.6630 H     1 <1>   0.0800 
 31 H       -1.3840     2.9580     1.7810 H     1 <1>   0.0800 
 32 H       -1.6350     4.8600    -0.2460 H     1 <1>   0.0800 
 33 H        1.2960     3.0960     2.0200 H     1 <1>   0.0800 
 34 H        0.2370     4.0520     3.0470 H     1 <1>   0.0800 
 35 H       -2.0970     5.0480     2.5560 H     1 <1>   0.4000 
 36 H       -0.4310     6.6550     1.6220 H     1 <1>   0.0800 
 37 H        0.1100     6.3500    -0.0220 H     1 <1>   0.0800 
 38 H        1.5920     4.8720     0.5820 H     1 <1>   0.4500 
 39 H        1.5210     6.1390     3.2450 H     1 <1>   0.0800 
 40 H        2.8900     5.3540     2.4930 H     1 <1>   0.0800 
 41 H        3.4380     6.3470    -0.0200 H     1 <1>   0.1500 
 42 H        1.4050     8.4820     3.0560 H     1 <1>   0.1500 
 43 H        2.9730    11.4720     0.4290 H     1 <1>   0.4000 
 44 H        5.1860    10.7350    -0.8040 H     1 <1>   0.0800 
 45 H        4.0480    10.1670    -2.0070 H     1 <1>   0.0800 
 46 H        3.0650    12.4310    -2.1510 H     1 <1>   0.0800 
 47 H        4.2090    13.0080    -0.9600 H     1 <1>   0.0800 
 48 H        4.9350    11.9020    -3.6920 H     1 <1>   0.0800 
 49 H        6.0810    12.4760    -2.5000 H     1 <1>   0.0800 
 50 H        4.9540    13.5880    -3.2370 H     1 <1>   0.0800 
@<TRIPOS>BOND
  1   1   2  1   
  2   1   3  1   
  3   2   4  2   
  4   3   5  2   
  5   3   6  1   
  6   4   5  1   
  7   4   7  1   
  8   5  25  1   
  9   6   8  1   
 10   6  26  1   
 11   6  27  1   
 12   7  28  1   
 13   7  29  1   
 14   7  30  1   
 15   8   9  1   
 16   8  10  1   
 17   8  31  1   
 18   9  11  1   
 19   9  12  1   
 20   9  32  1   
 21  10  13  1   
 22  10  33  1   
 23  10  34  1   
 24  11  35  1   
 25  12  13  1   
 26  12  36  1   
 27  12  37  1   
 28  13  14  1   
 29  13  38  1   
 30  14  15  1   
 31  14  39  1   
 32  14  40  1   
 33  15  16  ar  
 34  15  17  ar  
 35  16  18  ar  
 36  16  41  1   
 37  17  19  ar  
 38  17  42  1   
 39  18  20  ar  
 40  19  20  ar  
 41  20  21  1   
 42  21  22  1   
 43  21  43  1   
 44  22  23  1   
 45  22  44  1   
 46  22  45  1   
 47  23  24  1   
 48  23  46  1   
 49  23  47  1   
 50  24  48  1   
 51  24  49  1   
 52  24  50  1   
@<TRIPOS>SUBSTRUCTURE
  1 ****  16 GROUP 4 **** **** 0

# MOE 2024.06 (io_trps.svl 2023.06)
