@<TRIPOS>MOLECULE
NONAME
42 43 1 0 0 
SMALL
USER_CHARGES


@<TRIPOS>ATOM
  1 O       -1.0520     0.1030     1.6020 O.2   1 <1>  -0.5700 
  2 C       -1.3950     0.7080     0.6160 C.2   1 <1>   0.5690 
  3 N       -1.9650     0.0790    -0.4450 N.am  1 <1>  -0.7300 
  4 C       -1.1990     2.2210     0.5710 C.3   1 <1>  -0.0190 
  5 C       -2.1820    -1.3830    -0.5360 C.3   1 <1>   0.1400 
  6 C       -2.5380     2.9700     0.4130 C.3   1 <1>  -0.1600 
  7 C       -0.1820     2.6430    -0.5180 C.3   1 <1>  -0.1600 
  8 C       -3.5650    -1.7390     0.0080 C.3   1 <1>  -0.0170 
  9 C       -2.3660     4.4990     0.5230 C.3   1 <1>   0.2000 
 10 C       -0.3400     4.1040    -0.9830 C.3   1 <1>  -0.1600 
 11 C       -3.8050    -3.2360    -0.1020 C.ar  1 <1>  -0.1440 
 12 O       -3.3200     5.0980    -0.3190 O.3   1 <1>  -0.5600 
 13 C       -0.9480     4.9810     0.1150 C.3   1 <1>   0.2000 
 14 C       -4.5200    -3.7710    -1.1660 C.ar  1 <1>   0.1600 
 15 C       -3.3070    -4.0920     0.8590 C.ar  1 <1>  -0.1500 
 16 C       -4.5890     5.2460     0.2380 C.3   1 <1>   0.0400 
 17 O       -1.0290     6.2710    -0.3660 O.3   1 <1>  -0.6800 
 18 N       -4.7680    -5.0580    -1.3440 N.ar  1 <1>  -0.6200 
 19 C       -3.5570    -5.4370     0.6910 C.ar  1 <1>  -0.1500 
 20 C       -4.2810    -5.8600    -0.4100 C.ar  1 <1>   0.1600 
 21 H       -2.2560     0.6320    -1.2540 H     1 <1>   0.3700 
 22 H       -0.7890     2.5040     1.5260 H     1 <1>   0.0800 
 23 H       -2.0920    -1.6970    -1.5620 H     1 <1>   0.0800 
 24 H       -1.4280    -1.8940     0.0400 H     1 <1>   0.0800 
 25 H       -3.2230     2.6370     1.1730 H     1 <1>   0.0800 
 26 H       -2.9550     2.7290    -0.5490 H     1 <1>   0.0800 
 27 H        0.8100     2.5010    -0.1210 H     1 <1>   0.0800 
 28 H       -0.2680     2.0060    -1.3810 H     1 <1>   0.0800 
 29 H       -3.6270    -1.4430     1.0410 H     1 <1>   0.0800 
 30 H       -4.3200    -1.2070    -0.5430 H     1 <1>   0.0800 
 31 H       -2.5400     4.8210     1.5360 H     1 <1>   0.0800 
 32 H       -0.9920     4.1310    -1.8390 H     1 <1>   0.0800 
 33 H        0.6190     4.4960    -1.2750 H     1 <1>   0.0800 
 34 H       -0.2940     4.9870     0.9690 H     1 <1>   0.0800 
 35 H       -4.9100    -3.1040    -1.9150 H     1 <1>   0.1500 
 36 H       -2.7460    -3.7300     1.7040 H     1 <1>   0.1500 
 37 H       -5.2250     5.7070    -0.4960 H     1 <1>   0.0800 
 38 H       -4.5230     5.8790     1.1070 H     1 <1>   0.0800 
 39 H       -4.9830     4.2800     0.5020 H     1 <1>   0.0800 
 40 H       -1.9210     6.3500    -0.7730 H     1 <1>   0.4000 
 41 H       -3.1960    -6.1530     1.4060 H     1 <1>   0.1500 
 42 H       -4.4700    -6.9130    -0.5300 H     1 <1>   0.1500 
@<TRIPOS>BOND
  1   1   2  2   
  2   2   3  am  
  3   2   4  1   
  4   3   5  1   
  5   3  21  1   
  6   4   6  1   
  7   4   7  1   
  8   4  22  1   
  9   5   8  1   
 10   5  23  1   
 11   5  24  1   
 12   6   9  1   
 13   6  25  1   
 14   6  26  1   
 15   7  10  1   
 16   7  27  1   
 17   7  28  1   
 18   8  11  1   
 19   8  29  1   
 20   8  30  1   
 21   9  12  1   
 22   9  13  1   
 23   9  31  1   
 24  10  13  1   
 25  10  32  1   
 26  10  33  1   
 27  11  14  ar  
 28  11  15  ar  
 29  12  16  1   
 30  13  17  1   
 31  13  34  1   
 32  14  18  ar  
 33  14  35  1   
 34  15  19  ar  
 35  15  36  1   
 36  16  37  1   
 37  16  38  1   
 38  16  39  1   
 39  17  40  1   
 40  18  20  ar  
 41  19  20  ar  
 42  19  41  1   
 43  20  42  1   
@<TRIPOS>SUBSTRUCTURE
  1 ****   3 GROUP 4 **** **** 0

# MOE 2024.06 (io_trps.svl 2023.06)
