@<TRIPOS>MOLECULE
NONAME
55 56 1 0 0 
SMALL
USER_CHARGES


@<TRIPOS>ATOM
  1 O       -0.8020     0.4110    -1.5780 O.2   1 <1>  -0.5700 
  2 C       -1.5630     1.0250    -0.8630 C.2   1 <1>   0.5690 
  3 N       -2.2460     0.3670     0.1390 N.am  1 <1>  -0.6600 
  4 C       -1.7060     2.5330    -1.1610 C.3   1 <1>   0.2610 
  5 C       -1.7590    -0.9540     0.6240 C.3   1 <1>   0.3200 
  6 C       -3.4140     0.9270     0.8920 C.3   1 <1>   0.1400 
  7 O       -1.5970     3.2940     0.0350 O.3   1 <1>  -0.3630 
  8 C       -3.0120     2.8910    -1.8870 C.3   1 <1>  -0.2400 
  9 C       -2.8130    -2.0190     0.3990 C.2   1 <1>  -0.3320 
 10 C       -4.7400     0.5410     0.2220 C.3   1 <1>   0.1200 
 11 C       -0.9270     4.4660    -0.0120 C.ar  1 <1>   0.0830 
 12 N       -3.2010    -2.4700    -0.8110 N.pl3 1 <1>   0.0480 
 13 C       -3.5400    -2.6980     1.3140 C.2   1 <1>   0.0770 
 14 O       -5.7670     1.3060     0.7550 O.3   1 <1>  -0.6800 
 15 C        0.3970     4.5750     0.4240 C.ar  1 <1>  -0.1430 
 16 C       -1.6080     5.5810    -0.4820 C.ar  1 <1>  -0.1500 
 17 C       -4.1540    -3.3890    -0.5420 C.2   1 <1>   0.0360 
 18 C       -2.7040    -2.0630    -2.1390 C.3   1 <1>   0.0160 
 19 N       -4.3890    -3.5540     0.7200 N.2   1 <1>  -0.5650 
 20 C        1.0130     5.8160     0.3210 C.ar  1 <1>  -0.1500 
 21 C        1.2340     3.4320     1.0170 C.3   1 <1>   0.0630 
 22 C       -0.9810     6.8090    -0.5750 C.ar  1 <1>  -0.1430 
 23 C        0.3380     6.9190    -0.1740 C.ar  1 <1>  -0.1500 
 24 C        1.8300     2.5510    -0.0840 C.3   1 <1>  -0.2400 
 25 C        0.4970     2.5920     2.0670 C.3   1 <1>  -0.2400 
 26 C       -1.7260     8.0230    -1.0980 C.3   1 <1>  -0.0970 
 27 H       -0.8780     2.8080    -1.7920 H     1 <1>   0.0800 
 28 H       -1.5390    -0.8790     1.6750 H     1 <1>   0.0800 
 29 H       -0.8470    -1.2390     0.1270 H     1 <1>   0.0800 
 30 H       -3.3500     1.9980     0.9400 H     1 <1>   0.0800 
 31 H       -3.4020     0.5550     1.9010 H     1 <1>   0.0800 
 32 H       -3.8450     2.8910    -1.2090 H     1 <1>   0.0800 
 33 H       -3.1980     2.1770    -2.6680 H     1 <1>   0.0800 
 34 H       -2.9270     3.8590    -2.3450 H     1 <1>   0.0800 
 35 H       -4.9780    -0.4960     0.3790 H     1 <1>   0.0800 
 36 H       -4.7010     0.7420    -0.8330 H     1 <1>   0.0800 
 37 H       -3.5010    -2.6150     2.3870 H     1 <1>   0.1500 
 38 H       -5.9980     0.9970     1.6530 H     1 <1>   0.4000 
 39 H       -2.6380     5.4850    -0.7660 H     1 <1>   0.1500 
 40 H       -4.6610    -3.9280    -1.3220 H     1 <1>   0.1500 
 41 H       -1.6290    -2.0910    -2.1420 H     1 <1>   0.0800 
 42 H       -3.0330    -1.0620    -2.3490 H     1 <1>   0.0800 
 43 H       -3.0810    -2.7320    -2.8900 H     1 <1>   0.0800 
 44 H        2.0350     5.9400     0.6310 H     1 <1>   0.1500 
 45 H        2.0650     3.8800     1.5360 H     1 <1>   0.0800 
 46 H        0.8450     7.8650    -0.2390 H     1 <1>   0.1500 
 47 H        1.0600     2.0360    -0.6210 H     1 <1>   0.0800 
 48 H        2.4970     1.8230     0.3400 H     1 <1>   0.0800 
 49 H        2.3830     3.1580    -0.7800 H     1 <1>   0.0800 
 50 H       -0.2320     1.9490     1.6140 H     1 <1>   0.0800 
 51 H        0.0000     3.2380     2.7680 H     1 <1>   0.0800 
 52 H        1.1970     1.9770     2.6030 H     1 <1>   0.0800 
 53 H       -2.5590     7.7220    -1.7090 H     1 <1>   0.0800 
 54 H       -1.0710     8.6330    -1.6940 H     1 <1>   0.0800 
 55 H       -2.0930     8.6060    -0.2730 H     1 <1>   0.0800 
@<TRIPOS>BOND
  1   1   2  2   
  2   2   3  am  
  3   2   4  1   
  4   3   5  1   
  5   3   6  1   
  6   4   7  1   
  7   4   8  1   
  8   4  27  1   
  9   5   9  1   
 10   5  28  1   
 11   5  29  1   
 12   6  10  1   
 13   6  30  1   
 14   6  31  1   
 15   7  11  1   
 16   8  32  1   
 17   8  33  1   
 18   8  34  1   
 19   9  12  1   
 20   9  13  2   
 21  10  14  1   
 22  10  35  1   
 23  10  36  1   
 24  11  15  ar  
 25  11  16  ar  
 26  12  17  1   
 27  12  18  1   
 28  13  19  1   
 29  13  37  1   
 30  14  38  1   
 31  15  20  ar  
 32  15  21  1   
 33  16  22  ar  
 34  16  39  1   
 35  17  19  2   
 36  17  40  1   
 37  18  41  1   
 38  18  42  1   
 39  18  43  1   
 40  20  23  ar  
 41  20  44  1   
 42  21  24  1   
 43  21  25  1   
 44  21  45  1   
 45  22  23  ar  
 46  22  26  1   
 47  23  46  1   
 48  24  47  1   
 49  24  48  1   
 50  24  49  1   
 51  25  50  1   
 52  25  51  1   
 53  25  52  1   
 54  26  53  1   
 55  26  54  1   
 56  26  55  1   
@<TRIPOS>SUBSTRUCTURE
  1 ****   2 GROUP 4 **** **** 0

# MOE 2024.06 (io_trps.svl 2023.06)
