@<TRIPOS>MOLECULE
NONAME
49 50 1 0 0 
SMALL
USER_CHARGES


@<TRIPOS>ATOM
  1 F       -0.5420    -0.8120    -0.9050 F     1 <1>  -0.3400 
  2 C       -0.0890    -1.5790     0.0800 C.3   1 <1>   1.0200 
  3 F       -0.6380    -1.1170     1.1990 F     1 <1>  -0.3400 
  4 F        1.2110    -1.3290     0.1790 F     1 <1>  -0.3400 
  5 C       -0.3600    -3.0950    -0.1480 C.3   1 <1>   0.1100 
  6 N       -1.7480    -3.5490    -0.5090 N.3   1 <1>  -0.8100 
  7 C       -2.7270    -3.3180     0.5780 C.3   1 <1>   0.1100 
  8 C       -1.7480    -4.9660    -0.9180 C.3   1 <1>   0.1100 
  9 C       -4.1460    -3.7430     0.1620 C.3   1 <1>   0.1400 
 10 C       -3.1450    -5.4180    -1.3830 C.3   1 <1>   0.1400 
 11 N       -4.1710    -5.1610    -0.3230 N.am  1 <1>  -0.6600 
 12 C       -5.0410    -6.0790     0.2060 C.2   1 <1>   0.5690 
 13 O       -5.7870    -5.8060     1.1200 O.2   1 <1>  -0.5700 
 14 C       -5.1400    -7.5130    -0.3470 C.3   1 <1>   0.4040 
 15 N       -6.4810    -8.1720    -0.0810 N.4   1 <1>  -0.9590 
 16 C       -6.5300    -9.6540    -0.2820 C.3   1 <1>   0.4230 
 17 C       -7.5500    -7.4420    -0.8280 C.3   1 <1>   0.3430 
 18 C       -7.9210   -10.1690     0.1330 C.3   1 <1>  -0.1600 
 19 C       -5.4100   -10.3490     0.5230 C.3   1 <1>  -0.1600 
 20 C       -8.9260    -7.9270    -0.3830 C.3   1 <1>  -0.1600 
 21 C       -9.0670    -9.4380    -0.5750 C.3   1 <1>  -0.1600 
 22 C       -5.4260   -11.8840     0.4400 C.3   1 <1>  -0.2400 
 23 H       -0.0390    -3.6150     0.7360 H     1 <1>   0.0800 
 24 H        0.2970    -3.3880    -0.9460 H     1 <1>   0.0800 
 25 H       -2.7590    -2.2720     0.8240 H     1 <1>   0.0800 
 26 H       -2.4380    -3.8620     1.4610 H     1 <1>   0.0800 
 27 H       -1.4250    -5.5850    -0.0980 H     1 <1>   0.0800 
 28 H       -1.0560    -5.1000    -1.7320 H     1 <1>   0.0800 
 29 H       -4.4840    -3.0940    -0.6260 H     1 <1>   0.0800 
 30 H       -4.8080    -3.6120     1.0010 H     1 <1>   0.0800 
 31 H       -3.1030    -6.4590    -1.6420 H     1 <1>   0.0800 
 32 H       -3.4070    -4.8630    -2.2680 H     1 <1>   0.0800 
 33 H       -4.3550    -8.0750     0.1230 H     1 <1>   0.0800 
 34 H       -4.9540    -7.4920    -1.4060 H     1 <1>   0.0800 
 35 H       -6.6760    -7.9850     0.9160 H     1 <1>   0.4500 
 36 H       -6.3870    -9.8710    -1.3290 H     1 <1>   0.0800 
 37 H       -7.4350    -7.6080    -1.8870 H     1 <1>   0.0800 
 38 H       -7.4770    -6.3820    -0.6390 H     1 <1>   0.0800 
 39 H       -8.0360   -10.0730     1.1990 H     1 <1>   0.0800 
 40 H       -8.0050   -11.2140    -0.1060 H     1 <1>   0.0800 
 41 H       -5.4770   -10.0640     1.5600 H     1 <1>   0.0800 
 42 H       -4.4520   -10.0420     0.1480 H     1 <1>   0.0800 
 43 H       -9.6810    -7.4210    -0.9600 H     1 <1>   0.0800 
 44 H       -9.0810    -7.6650     0.6490 H     1 <1>   0.0800 
 45 H      -10.0120    -9.7700    -0.1780 H     1 <1>   0.0800 
 46 H       -9.0520    -9.6730    -1.6260 H     1 <1>   0.0800 
 47 H       -6.2770   -12.2980     0.9520 H     1 <1>   0.0800 
 48 H       -4.5430   -12.2830     0.9100 H     1 <1>   0.0800 
 49 H       -5.4380   -12.2150    -0.5840 H     1 <1>   0.0800 
@<TRIPOS>BOND
  1   1   2  1   
  2   2   3  1   
  3   2   4  1   
  4   2   5  1   
  5   5   6  1   
  6   5  23  1   
  7   5  24  1   
  8   6   7  1   
  9   6   8  1   
 10   7   9  1   
 11   7  25  1   
 12   7  26  1   
 13   8  10  1   
 14   8  27  1   
 15   8  28  1   
 16   9  11  1   
 17   9  29  1   
 18   9  30  1   
 19  10  11  1   
 20  10  31  1   
 21  10  32  1   
 22  11  12  am  
 23  12  13  2   
 24  12  14  1   
 25  14  15  1   
 26  14  33  1   
 27  14  34  1   
 28  15  16  1   
 29  15  17  1   
 30  15  35  1   
 31  16  18  1   
 32  16  19  1   
 33  16  36  1   
 34  17  20  1   
 35  17  37  1   
 36  17  38  1   
 37  18  21  1   
 38  18  39  1   
 39  18  40  1   
 40  19  22  1   
 41  19  41  1   
 42  19  42  1   
 43  20  21  1   
 44  20  43  1   
 45  20  44  1   
 46  21  45  1   
 47  21  46  1   
 48  22  47  1   
 49  22  48  1   
 50  22  49  1   
@<TRIPOS>SUBSTRUCTURE
  1 ****  11 GROUP 4 **** **** 0

# MOE 2024.06 (io_trps.svl 2023.06)
