@<TRIPOS>MOLECULE
NONAME
46 47 1 0 0 
SMALL
USER_CHARGES


@<TRIPOS>ATOM
  1 S        0.7540     0.1030    -0.3260 S.o2  1 <1>   1.3330 
  2 O        2.1650     0.3930    -0.4540 O.2   1 <1>  -0.6500 
  3 O       -0.0280    -0.1560    -1.5110 O.2   1 <1>  -0.6500 
  4 N        0.5260    -1.1400     0.8010 N.am  1 <1>  -0.8490 
  5 C        0.0400     1.5320     0.4830 C.3   1 <1>  -0.0550 
  6 C       -0.7680    -1.8200     0.6670 C.3   1 <1>   0.1160 
  7 C        1.6080    -2.1320     0.7710 C.3   1 <1>   0.1160 
  8 C        0.0630     2.7860    -0.4200 C.3   1 <1>  -0.0800 
  9 C       -0.4810     4.0660     0.2180 C.3   1 <1>   0.2000 
 10 C        1.4730     3.1560    -0.9180 C.3   1 <1>   0.3430 
 11 O       -0.0370     4.1600     1.5360 O.3   1 <1>  -0.6800 
 12 C        0.2050     5.1590    -0.6050 C.3   1 <1>   0.3430 
 13 N        1.5880     4.6440    -0.8780 N.4   1 <1>  -0.9590 
 14 C        2.5550     5.0420     0.1900 C.3   1 <1>   0.4860 
 15 C        2.6000     6.5490     0.2990 C.ar  1 <1>  -0.1430 
 16 C        1.9530     7.1690     1.3560 C.ar  1 <1>   0.1600 
 17 C        3.2600     7.3300    -0.6310 C.ar  1 <1>  -0.1500 
 18 N        1.8880     8.4710     1.5360 N.ar  1 <1>  -0.6200 
 19 C        3.2120     8.6940    -0.4460 C.ar  1 <1>  -0.1500 
 20 C        2.5160     9.2190     0.6420 C.ar  1 <1>   0.3930 
 21 O        2.4260    10.5450     0.8730 O.3   1 <1>  -0.3630 
 22 C        3.1210    11.5090     0.1140 C.3   1 <1>   0.0400 
 23 H       -0.9750     1.3110     0.7520 H     1 <1>   0.0800 
 24 H        0.5870     1.7150     1.3880 H     1 <1>   0.0800 
 25 H       -0.8930    -2.5400     1.4580 H     1 <1>   0.0800 
 26 H       -0.8310    -2.3290    -0.2820 H     1 <1>   0.0800 
 27 H       -1.5720    -1.1070     0.7280 H     1 <1>   0.0800 
 28 H        1.4400    -2.8910     1.5160 H     1 <1>   0.0800 
 29 H        2.5520    -1.6580     0.9840 H     1 <1>   0.0800 
 30 H        1.6660    -2.5960    -0.2000 H     1 <1>   0.0800 
 31 H       -0.5300     2.5750    -1.2940 H     1 <1>   0.0800 
 32 H       -1.5550     4.1470     0.2000 H     1 <1>   0.0800 
 33 H        1.6210     2.7830    -1.9200 H     1 <1>   0.0800 
 34 H        2.2210     2.7120    -0.2780 H     1 <1>   0.0800 
 35 H       -0.7020     3.8010     2.1630 H     1 <1>   0.4000 
 36 H        0.2000     6.1040    -0.0880 H     1 <1>   0.0800 
 37 H       -0.3230     5.2730    -1.5380 H     1 <1>   0.0800 
 38 H        1.9300     5.0180    -1.7710 H     1 <1>   0.4500 
 39 H        2.2540     4.6220     1.1360 H     1 <1>   0.0800 
 40 H        3.5390     4.6690    -0.0440 H     1 <1>   0.0800 
 41 H        1.4490     6.5660     2.0950 H     1 <1>   0.1500 
 42 H        3.7940     6.9090    -1.4660 H     1 <1>   0.1500 
 43 H        3.7110     9.3370    -1.1440 H     1 <1>   0.1500 
 44 H        2.9130    12.4760     0.5370 H     1 <1>   0.0800 
 45 H        2.7720    11.4750    -0.9020 H     1 <1>   0.0800 
 46 H        4.1760    11.3070     0.1710 H     1 <1>   0.0800 
@<TRIPOS>BOND
  1   1   2  2   
  2   1   3  2   
  3   1   4  am  
  4   1   5  1   
  5   4   6  1   
  6   4   7  1   
  7   5   8  1   
  8   5  23  1   
  9   5  24  1   
 10   6  25  1   
 11   6  26  1   
 12   6  27  1   
 13   7  28  1   
 14   7  29  1   
 15   7  30  1   
 16   8   9  1   
 17   8  10  1   
 18   8  31  1   
 19   9  11  1   
 20   9  12  1   
 21   9  32  1   
 22  10  13  1   
 23  10  33  1   
 24  10  34  1   
 25  11  35  1   
 26  12  13  1   
 27  12  36  1   
 28  12  37  1   
 29  13  14  1   
 30  13  38  1   
 31  14  15  1   
 32  14  39  1   
 33  14  40  1   
 34  15  16  ar  
 35  15  17  ar  
 36  16  18  ar  
 37  16  41  1   
 38  17  19  ar  
 39  17  42  1   
 40  18  20  ar  
 41  19  20  ar  
 42  19  43  1   
 43  20  21  1   
 44  21  22  1   
 45  22  44  1   
 46  22  45  1   
 47  22  46  1   
@<TRIPOS>SUBSTRUCTURE
  1 ****  13 GROUP 4 **** **** 0

# MOE 2024.06 (io_trps.svl 2023.06)
