@<TRIPOS>MOLECULE
NONAME
55 57 1 0 0 
SMALL
USER_CHARGES


@<TRIPOS>ATOM
  1 S        0.0580     0.2830    -1.7410 S.o2  1 <1>   1.4470 
  2 O        0.8150     1.1340    -2.6360 O.2   1 <1>  -0.6500 
  3 O       -1.0160    -0.4900    -2.3300 O.2   1 <1>  -0.6500 
  4 N       -0.7150     1.3060    -0.6280 N.am  1 <1>  -0.8490 
  5 C        1.2040    -0.7080    -0.6880 C.ar  1 <1>  -0.0090 
  6 C       -1.4470     0.5680     0.4140 C.3   1 <1>   0.1960 
  7 C       -1.4700     2.4010    -1.2680 C.3   1 <1>   0.1960 
  8 C        2.3350    -0.1150    -0.0910 C.ar  1 <1>  -0.1440 
  9 C        0.9790    -2.0710    -0.4340 C.ar  1 <1>  -0.1430 
 10 C       -2.3890     1.4950     1.1790 C.3   1 <1>  -0.1600 
 11 C       -2.9750     2.1520    -1.2110 C.3   1 <1>  -0.1600 
 12 C        3.2180    -0.8610     0.6950 C.ar  1 <1>  -0.1430 
 13 C        2.6240     1.3790    -0.3080 C.3   1 <1>  -0.0970 
 14 C        1.8410    -2.7930     0.3710 C.ar  1 <1>  -0.1500 
 15 C       -0.1960    -2.8580    -1.0100 C.3   1 <1>  -0.0970 
 16 C       -3.4550     2.1010     0.2500 C.3   1 <1>   0.4180 
 17 C        2.9570    -2.2050     0.9410 C.ar  1 <1>   0.0830 
 18 C        4.4840    -0.2330     1.2920 C.3   1 <1>  -0.0970 
 19 O       -3.6430     3.4150     0.7140 O.3   1 <1>  -0.5600 
 20 C       -4.7520     1.3000     0.3580 C.2   1 <1>  -0.2880 
 21 O        3.8070    -2.9040     1.7410 O.3   1 <1>  -0.3630 
 22 C       -4.8560     4.0490     0.4140 C.3   1 <1>   0.1200 
 23 C       -5.9260     1.8150     0.7310 C.2   1 <1>  -0.2760 
 24 C        3.6490    -4.2800     2.0060 C.3   1 <1>   0.0400 
 25 C       -6.0350     3.2950     1.0430 C.3   1 <1>  -0.0220 
 26 C       -7.2090     1.0180     0.8830 C.3   1 <1>  -0.1020 
 27 H       -0.7410     0.1270     1.0980 H     1 <1>   0.0800 
 28 H       -2.0260    -0.2250    -0.0300 H     1 <1>   0.0800 
 29 H       -1.1620     2.5340    -2.2920 H     1 <1>   0.0800 
 30 H       -1.2500     3.3180    -0.7470 H     1 <1>   0.0800 
 31 H       -1.7970     2.2740     1.6260 H     1 <1>   0.0800 
 32 H       -2.8650     0.9500     1.9720 H     1 <1>   0.0800 
 33 H       -3.1810     1.2180    -1.7020 H     1 <1>   0.0800 
 34 H       -3.4950     2.9150    -1.7560 H     1 <1>   0.0800 
 35 H        1.7300     1.9690    -0.2920 H     1 <1>   0.0800 
 36 H        3.1110     1.5200    -1.2560 H     1 <1>   0.0800 
 37 H        3.2460     1.8010     0.4570 H     1 <1>   0.0800 
 38 H        1.6350    -3.8290     0.5490 H     1 <1>   0.1500 
 39 H       -1.1290    -2.4320    -0.6900 H     1 <1>   0.0800 
 40 H       -0.1850    -3.8840    -0.6900 H     1 <1>   0.0800 
 41 H       -0.1530    -2.8570    -2.0850 H     1 <1>   0.0800 
 42 H        5.0020     0.3450     0.5490 H     1 <1>   0.0800 
 43 H        5.1830    -0.9660     1.6490 H     1 <1>   0.0800 
 44 H        4.2200     0.4020     2.1180 H     1 <1>   0.0800 
 45 H       -4.6210     0.2620     0.1110 H     1 <1>   0.1500 
 46 H       -4.9690     4.0940    -0.6540 H     1 <1>   0.0800 
 47 H       -4.8060     5.0520     0.7990 H     1 <1>   0.0800 
 48 H        4.4590    -4.5910     2.6400 H     1 <1>   0.0800 
 49 H        3.6840    -4.8200     1.0770 H     1 <1>   0.0800 
 50 H        2.7110    -4.4320     2.5100 H     1 <1>   0.0800 
 51 H       -6.9480     3.6960     0.6420 H     1 <1>   0.0800 
 52 H       -6.0390     3.4460     2.1070 H     1 <1>   0.0800 
 53 H       -7.5730     1.0920     1.8920 H     1 <1>   0.0800 
 54 H       -7.0370    -0.0190     0.6570 H     1 <1>   0.0800 
 55 H       -7.9620     1.3930     0.2130 H     1 <1>   0.0800 
@<TRIPOS>BOND
  1   1   2  2   
  2   1   3  2   
  3   1   4  am  
  4   1   5  1   
  5   4   6  1   
  6   4   7  1   
  7   5   8  ar  
  8   5   9  ar  
  9   6  10  1   
 10   6  27  1   
 11   6  28  1   
 12   7  11  1   
 13   7  29  1   
 14   7  30  1   
 15   8  12  ar  
 16   8  13  1   
 17   9  14  ar  
 18   9  15  1   
 19  10  16  1   
 20  10  31  1   
 21  10  32  1   
 22  11  16  1   
 23  11  33  1   
 24  11  34  1   
 25  12  17  ar  
 26  12  18  1   
 27  13  35  1   
 28  13  36  1   
 29  13  37  1   
 30  14  17  ar  
 31  14  38  1   
 32  15  39  1   
 33  15  40  1   
 34  15  41  1   
 35  16  19  1   
 36  16  20  1   
 37  17  21  1   
 38  18  42  1   
 39  18  43  1   
 40  18  44  1   
 41  19  22  1   
 42  20  23  2   
 43  20  45  1   
 44  21  24  1   
 45  22  25  1   
 46  22  46  1   
 47  22  47  1   
 48  23  25  1   
 49  23  26  1   
 50  24  48  1   
 51  24  49  1   
 52  24  50  1   
 53  25  51  1   
 54  25  52  1   
 55  26  53  1   
 56  26  54  1   
 57  26  55  1   
@<TRIPOS>SUBSTRUCTURE
  1 ****   6 GROUP 4 **** **** 0

# MOE 2024.06 (io_trps.svl 2023.06)
