@<TRIPOS>MOLECULE
NONAME
38 40 1 0 0 
SMALL
USER_CHARGES


@<TRIPOS>ATOM
  1 O       -0.6070     0.2260     0.6150 O.2   1 <1>  -0.5700 
  2 C       -1.5960     0.8250     0.2240 C.2   1 <1>   0.7160 
  3 N       -2.7530     0.0840     0.0660 N.am  1 <1>  -0.6600 
  4 C       -1.5050     2.2560    -0.0440 C.2   1 <1>   0.2030 
  5 C       -4.1150     0.6100    -0.2180 C.3   1 <1>   0.1400 
  6 C       -2.7870    -1.3960     0.1780 C.3   1 <1>   0.1400 
  7 N       -2.4040     3.0390    -0.5700 N.2   1 <1>  -0.4100 
  8 C       -0.3830     3.0260     0.2310 C.2   1 <1>  -0.1500 
  9 C       -5.0510    -0.5420     0.1450 C.3   1 <1>   0.2000 
 10 C       -4.2250    -1.7930    -0.1720 C.3   1 <1>  -0.0800 
 11 O       -1.9530     4.2670    -0.6560 O.3   1 <1>  -0.0190 
 12 C       -0.7310     4.2500    -0.1710 C.2   1 <1>  -0.0400 
 13 O       -5.2990    -0.4840     1.5090 O.3   1 <1>  -0.6800 
 14 C       -4.6980    -3.0890     0.5110 C.3   1 <1>  -0.0170 
 15 C        0.0560     5.5440    -0.1410 C.3   1 <1>  -0.0600 
 16 C       -3.8470    -4.2710     0.0750 C.ar  1 <1>  -0.1430 
 17 C       -2.7990    -4.7430     0.8400 C.ar  1 <1>  -0.1500 
 18 C       -4.0770    -4.9310    -1.1160 C.ar  1 <1>  -0.1500 
 19 C       -2.0510    -5.8180     0.3880 C.ar  1 <1>   0.1600 
 20 C       -3.2690    -5.9970    -1.4750 C.ar  1 <1>   0.1600 
 21 N       -2.2600    -6.4550    -0.7520 N.ar  1 <1>  -0.6200 
 22 H       -4.3370     1.4940     0.3550 H     1 <1>   0.0800 
 23 H       -4.1910     0.8320    -1.2680 H     1 <1>   0.0800 
 24 H       -2.0780    -1.8480    -0.4960 H     1 <1>   0.0800 
 25 H       -2.5440    -1.6760     1.1880 H     1 <1>   0.0800 
 26 H        0.5320     2.6670     0.6670 H     1 <1>   0.1500 
 27 H       -5.9930    -0.5030    -0.3760 H     1 <1>   0.0800 
 28 H       -4.2630    -1.9420    -1.2370 H     1 <1>   0.0800 
 29 H       -4.4530    -0.3310     1.9770 H     1 <1>   0.4000 
 30 H       -5.7260    -3.2750     0.2540 H     1 <1>   0.0800 
 31 H       -4.6480    -2.9900     1.5820 H     1 <1>   0.0800 
 32 H        1.0310     5.3770     0.2790 H     1 <1>   0.0800 
 33 H       -0.4630     6.2720     0.4570 H     1 <1>   0.0800 
 34 H        0.1660     5.9260    -1.1390 H     1 <1>   0.0800 
 35 H       -2.5560    -4.2880     1.7820 H     1 <1>   0.1500 
 36 H       -4.8760    -4.6280    -1.7660 H     1 <1>   0.1500 
 37 H       -1.2370    -6.1720     0.9980 H     1 <1>   0.1500 
 38 H       -3.4640    -6.5010    -2.4070 H     1 <1>   0.1500 
@<TRIPOS>BOND
  1   1   2  2   
  2   2   3  am  
  3   2   4  1   
  4   3   5  1   
  5   3   6  1   
  6   4   7  2   
  7   4   8  1   
  8   5   9  1   
  9   5  22  1   
 10   5  23  1   
 11   6  10  1   
 12   6  24  1   
 13   6  25  1   
 14   7  11  1   
 15   8  12  2   
 16   8  26  1   
 17   9  10  1   
 18   9  13  1   
 19   9  27  1   
 20  10  14  1   
 21  10  28  1   
 22  11  12  1   
 23  12  15  1   
 24  13  29  1   
 25  14  16  1   
 26  14  30  1   
 27  14  31  1   
 28  15  32  1   
 29  15  33  1   
 30  15  34  1   
 31  16  17  ar  
 32  16  18  ar  
 33  17  19  ar  
 34  17  35  1   
 35  18  20  ar  
 36  18  36  1   
 37  19  21  ar  
 38  19  37  1   
 39  20  21  ar  
 40  20  38  1   
@<TRIPOS>SUBSTRUCTURE
  1 ****   6 GROUP 4 **** **** 0

# MOE 2024.06 (io_trps.svl 2023.06)
