@<TRIPOS>MOLECULE
NONAME
49 52 1 0 0 
SMALL
USER_CHARGES


@<TRIPOS>ATOM
  1 S       -0.2650    -0.7600    -1.9160 S.3   1 <1>  -0.3320 
  2 C       -0.2080    -2.2450    -0.8970 C.ar  1 <1>   0.1020 
  3 C        1.4370    -0.0440    -1.9290 C.3   1 <1>  -0.0100 
  4 C       -1.3660    -2.9530    -0.7390 C.ar  1 <1>  -0.1500 
  5 C        0.9760    -2.6680    -0.2850 C.ar  1 <1>  -0.1500 
  6 C       -1.4040    -4.1200     0.0360 C.ar  1 <1>   0.3100 
  7 C        0.9660    -3.8040     0.4800 C.ar  1 <1>  -0.1500 
  8 N       -2.5870    -4.7700     0.1380 N.ar  1 <1>  -0.6200 
  9 C       -0.2130    -4.5590     0.6650 C.ar  1 <1>   0.0000 
 10 C       -2.6220    -5.8570     0.8550 C.ar  1 <1>   0.4100 
 11 C       -0.2850    -5.7340     1.4470 C.ar  1 <1>  -0.1430 
 12 N       -3.8240    -6.5340     0.9530 N.pl3 1 <1>  -0.8380 
 13 C       -1.4910    -6.3580     1.5290 C.ar  1 <1>  -0.1500 
 14 C        0.9300    -6.2830     2.1800 C.3   1 <1>  -0.0970 
 15 C       -5.0730    -5.9410     0.3910 C.3   1 <1>   0.2090 
 16 C       -3.8780    -8.0120     0.7980 C.3   1 <1>   0.2090 
 17 C       -6.0760    -7.0920     0.4000 C.3   1 <1>   0.2000 
 18 C       -5.2030    -8.3080     0.0830 C.3   1 <1>  -0.0800 
 19 O       -6.5810    -7.2110     1.6860 O.3   1 <1>  -0.6800 
 20 C       -5.8210    -9.6670     0.4600 C.3   1 <1>   0.0200 
 21 C       -4.9800   -10.8480     0.0040 C.2   1 <1>  -0.0400 
 22 O       -5.2800   -12.0400     0.4460 O.3   1 <1>  -0.0190 
 23 C       -3.9220   -10.9710    -0.8140 C.2   1 <1>  -0.1500 
 24 N       -4.4800   -12.9510    -0.0260 N.2   1 <1>  -0.4100 
 25 C       -3.6510   -12.3360    -0.7900 C.2   1 <1>   0.1080 
 26 C       -2.5370   -13.0160    -1.5550 C.3   1 <1>  -0.0590 
 27 H        1.4110     0.8430    -2.5360 H     1 <1>   0.0800 
 28 H        2.1020    -0.7760    -2.3530 H     1 <1>   0.0800 
 29 H        1.7060     0.1950    -0.9160 H     1 <1>   0.0800 
 30 H       -2.2740    -2.6280    -1.2100 H     1 <1>   0.1500 
 31 H        1.8840    -2.1120    -0.4100 H     1 <1>   0.1500 
 32 H        1.8760    -4.1270     0.9510 H     1 <1>   0.1500 
 33 H       -1.6180    -7.2450     2.1180 H     1 <1>   0.1500 
 34 H        0.6790    -7.1750     2.7250 H     1 <1>   0.0800 
 35 H        1.3000    -5.5540     2.8790 H     1 <1>   0.0800 
 36 H        1.7080    -6.5250     1.4770 H     1 <1>   0.0800 
 37 H       -5.4100    -5.1030     0.9770 H     1 <1>   0.0800 
 38 H       -4.8970    -5.6200    -0.6210 H     1 <1>   0.0800 
 39 H       -3.0380    -8.3700     0.2270 H     1 <1>   0.0800 
 40 H       -3.8650    -8.4650     1.7750 H     1 <1>   0.0800 
 41 H       -6.8940    -6.9530    -0.2850 H     1 <1>   0.0800 
 42 H       -5.0120    -8.2990    -0.9760 H     1 <1>   0.0800 
 43 H       -5.8420    -7.0380     2.3090 H     1 <1>   0.4000 
 44 H       -6.7980    -9.7520     0.0180 H     1 <1>   0.0800 
 45 H       -5.9440    -9.7290     1.5280 H     1 <1>   0.0800 
 46 H       -3.3830   -10.2320    -1.3760 H     1 <1>   0.1500 
 47 H       -2.5730   -12.7260    -2.5890 H     1 <1>   0.0800 
 48 H       -2.6460   -14.0830    -1.4900 H     1 <1>   0.0800 
 49 H       -1.5870   -12.7360    -1.1390 H     1 <1>   0.0800 
@<TRIPOS>BOND
  1   1   2  1   
  2   1   3  1   
  3   2   4  ar  
  4   2   5  ar  
  5   3  27  1   
  6   3  28  1   
  7   3  29  1   
  8   4   6  ar  
  9   4  30  1   
 10   5   7  ar  
 11   5  31  1   
 12   6   8  ar  
 13   6   9  ar  
 14   7   9  ar  
 15   7  32  1   
 16   8  10  ar  
 17   9  11  ar  
 18  10  12  1   
 19  10  13  ar  
 20  11  13  ar  
 21  11  14  1   
 22  12  15  1   
 23  12  16  1   
 24  13  33  1   
 25  14  34  1   
 26  14  35  1   
 27  14  36  1   
 28  15  17  1   
 29  15  37  1   
 30  15  38  1   
 31  16  18  1   
 32  16  39  1   
 33  16  40  1   
 34  17  18  1   
 35  17  19  1   
 36  17  41  1   
 37  18  20  1   
 38  18  42  1   
 39  19  43  1   
 40  20  21  1   
 41  20  44  1   
 42  20  45  1   
 43  21  22  1   
 44  21  23  2   
 45  22  24  1   
 46  23  25  1   
 47  23  46  1   
 48  24  25  2   
 49  25  26  1   
 50  26  47  1   
 51  26  48  1   
 52  26  49  1   
@<TRIPOS>SUBSTRUCTURE
  1 ****  10 GROUP 4 **** **** 0

# MOE 2024.06 (io_trps.svl 2023.06)
