@<TRIPOS>MOLECULE
NONAME
50 53 1 0 0 
SMALL
USER_CHARGES


@<TRIPOS>ATOM
  1 O       -0.6810    -0.0020     0.5540 O.2   1 <1>  -0.5700 
  2 C       -1.6130     0.6640     0.1400 C.2   1 <1>   0.7160 
  3 N       -2.8420     0.0570     0.0060 N.am  1 <1>  -0.6600 
  4 C       -1.4160     2.0590    -0.1850 C.2   1 <1>  -0.0860 
  5 C       -4.1260     0.7830    -0.1180 C.3   1 <1>   0.1400 
  6 C       -3.0530    -1.3680     0.3410 C.3   1 <1>   0.1400 
  7 C       -0.6940     3.0090     0.4740 C.2   1 <1>  -0.0400 
  8 C       -1.9410     2.7480    -1.3010 C.2   1 <1>  -0.1500 
  9 C       -5.1950    -0.1830     0.4030 C.3   1 <1>  -0.0800 
 10 C       -4.5680    -1.5920     0.3540 C.3   1 <1>  -0.0800 
 11 O       -0.7620     4.1660    -0.1370 O.3   1 <1>  -0.2800 
 12 C        0.1270     2.9230     1.7440 C.3   1 <1>  -0.0600 
 13 C       -1.5090     4.0210    -1.2080 C.2   1 <1>  -0.0400 
 14 C       -6.5890    -0.0500    -0.2680 C.3   1 <1>   0.4240 
 15 C       -5.0600    -2.4140    -0.8480 C.3   1 <1>  -0.1600 
 16 C       -1.7400     5.2190    -2.0990 C.3   1 <1>  -0.0600 
 17 O       -6.4330     0.1630    -1.6270 O.3   1 <1>  -0.6800 
 18 C       -7.3800     1.1230     0.3460 C.ar  1 <1>  -0.1440 
 19 C       -7.3400    -1.3900    -0.1700 C.3   1 <1>  -0.1600 
 20 C       -6.5960    -2.5670    -0.8480 C.3   1 <1>  -0.1600 
 21 C       -7.6190     2.3050    -0.3520 C.ar  1 <1>  -0.1500 
 22 C       -7.8700     1.0280     1.6460 C.ar  1 <1>  -0.1500 
 23 C       -8.3250     3.3470     0.2230 C.ar  1 <1>  -0.1500 
 24 C       -8.5770     2.0670     2.2250 C.ar  1 <1>  -0.1500 
 25 C       -8.8070     3.2300     1.5130 C.ar  1 <1>  -0.1500 
 26 H       -4.1170     1.6910     0.4610 H     1 <1>   0.0800 
 27 H       -4.2740     1.0300    -1.1530 H     1 <1>   0.0800 
 28 H       -2.5590    -1.9940    -0.3820 H     1 <1>   0.0800 
 29 H       -2.6380    -1.5660     1.3150 H     1 <1>   0.0800 
 30 H       -2.5570     2.3080    -2.0640 H     1 <1>   0.1500 
 31 H       -5.3170     0.0440     1.4470 H     1 <1>   0.0800 
 32 H       -4.8270    -2.1340     1.2480 H     1 <1>   0.0800 
 33 H        0.0810     1.9340     2.1620 H     1 <1>   0.0800 
 34 H       -0.2490     3.6240     2.4660 H     1 <1>   0.0800 
 35 H        1.1520     3.1600     1.5260 H     1 <1>   0.0800 
 36 H       -4.7400    -1.9310    -1.7560 H     1 <1>   0.0800 
 37 H       -4.6060    -3.3900    -0.8350 H     1 <1>   0.0800 
 38 H       -2.3640     4.9500    -2.9320 H     1 <1>   0.0800 
 39 H       -0.7980     5.5820    -2.4680 H     1 <1>   0.0800 
 40 H       -2.2200     6.0000    -1.5380 H     1 <1>   0.0800 
 41 H       -6.1060    -0.6680    -2.0150 H     1 <1>   0.4000 
 42 H       -7.4660    -1.6340     0.8690 H     1 <1>   0.0800 
 43 H       -8.3260    -1.2820    -0.5860 H     1 <1>   0.0800 
 44 H       -6.8620    -3.4750    -0.3340 H     1 <1>   0.0800 
 45 H       -6.9350    -2.6710    -1.8650 H     1 <1>   0.0800 
 46 H       -7.2570     2.4290    -1.3580 H     1 <1>   0.1500 
 47 H       -7.7050     0.1410     2.2300 H     1 <1>   0.1500 
 48 H       -8.5000     4.2490    -0.3360 H     1 <1>   0.1500 
 49 H       -8.9490     1.9730     3.2300 H     1 <1>   0.1500 
 50 H       -9.3570     4.0390     1.9600 H     1 <1>   0.1500 
@<TRIPOS>BOND
  1   1   2  2   
  2   2   3  am  
  3   2   4  1   
  4   3   5  1   
  5   3   6  1   
  6   4   7  2   
  7   4   8  1   
  8   5   9  1   
  9   5  26  1   
 10   5  27  1   
 11   6  10  1   
 12   6  28  1   
 13   6  29  1   
 14   7  11  1   
 15   7  12  1   
 16   8  13  2   
 17   8  30  1   
 18   9  10  1   
 19   9  14  1   
 20   9  31  1   
 21  10  15  1   
 22  10  32  1   
 23  11  13  1   
 24  12  33  1   
 25  12  34  1   
 26  12  35  1   
 27  13  16  1   
 28  14  17  1   
 29  14  18  1   
 30  14  19  1   
 31  15  20  1   
 32  15  36  1   
 33  15  37  1   
 34  16  38  1   
 35  16  39  1   
 36  16  40  1   
 37  17  41  1   
 38  18  21  ar  
 39  18  22  ar  
 40  19  20  1   
 41  19  42  1   
 42  19  43  1   
 43  20  44  1   
 44  20  45  1   
 45  21  23  ar  
 46  21  46  1   
 47  22  24  ar  
 48  22  47  1   
 49  23  25  ar  
 50  23  48  1   
 51  24  25  ar  
 52  24  49  1   
 53  25  50  1   
@<TRIPOS>SUBSTRUCTURE
  1 ****   5 GROUP 4 **** **** 0

# MOE 2024.06 (io_trps.svl 2023.06)
