@<TRIPOS>MOLECULE
NONAME
52 55 1 0 0 
SMALL
USER_CHARGES


@<TRIPOS>ATOM
  1 O        1.1800     0.0820    -1.8800 O.2   1 <1>  -0.5700 
  2 C        1.7940    -0.4480    -0.9760 C.2   1 <1>   0.5440 
  3 N        2.5720     0.3260    -0.1430 N.am  1 <1>  -0.6600 
  4 C        1.7160    -1.8780    -0.8050 C.ar  1 <1>   0.0860 
  5 C        3.3030    -0.1990     1.0550 C.3   1 <1>   0.1400 
  6 C        2.7500     1.7830    -0.3820 C.3   1 <1>   0.1400 
  7 C        2.7780    -2.6870    -1.1870 C.ar  1 <1>   0.1600 
  8 C        0.6140    -2.5000    -0.2410 C.ar  1 <1>  -0.1500 
  9 C        4.8110    -0.3610     0.7990 C.3   1 <1>   0.1400 
 10 C        3.9010     2.0390    -1.3640 C.3   1 <1>  -0.1600 
 11 N        2.8470    -3.9960    -1.0270 N.ar  1 <1>  -0.6200 
 12 C        0.6490    -3.8690    -0.0740 C.ar  1 <1>  -0.1430 
 13 N        5.4380     0.8830     0.2440 N.am  1 <1>  -0.6600 
 14 C        5.1240     1.1260    -1.1960 C.3   1 <1>   0.1400 
 15 C        1.7860    -4.5680    -0.4760 C.ar  1 <1>   0.1670 
 16 C       -0.5540    -4.5620     0.5550 C.3   1 <1>  -0.0170 
 17 C        6.2740     1.6570     1.0100 C.2   1 <1>   0.5690 
 18 C        1.8780    -6.0810    -0.3250 C.3   1 <1>  -0.0160 
 19 C       -0.5630    -6.0730     0.2960 C.3   1 <1>  -0.1600 
 20 O        6.5150     1.3780     2.1620 O.2   1 <1>  -0.5700 
 21 C        6.9510     2.8890     0.4530 C.3   1 <1>   0.1570 
 22 C        0.8100    -6.6730     0.6060 C.3   1 <1>  -0.1600 
 23 N        8.1740     2.4720    -0.2320 N.pl3 1 <1>   0.3140 
 24 N        8.3900     2.6510    -1.5230 N.2   1 <1>  -0.4180 
 25 C        9.2290     1.8380     0.2760 C.2   1 <1>   0.2700 
 26 N        9.5390     2.1360    -1.7640 N.2   1 <1>   0.0000 
 27 N       10.0790     1.6220    -0.6570 N.2   1 <1>  -0.3380 
 28 N        9.4070     1.4490     1.5940 N.pl3 1 <1>  -0.8840 
 29 H        2.8950    -1.1480     1.3550 H     1 <1>   0.0800 
 30 H        3.1620     0.4760     1.8810 H     1 <1>   0.0800 
 31 H        2.9600     2.2730     0.5540 H     1 <1>   0.0800 
 32 H        1.8390     2.2050    -0.7710 H     1 <1>   0.0800 
 33 H        3.6240    -2.2120    -1.6520 H     1 <1>   0.1500 
 34 H       -0.2390    -1.9150     0.0540 H     1 <1>   0.1500 
 35 H        4.9710    -1.1760     0.1160 H     1 <1>   0.0800 
 36 H        5.2860    -0.6360     1.7250 H     1 <1>   0.0800 
 37 H        4.2010     3.0670    -1.2800 H     1 <1>   0.0800 
 38 H        3.5240     1.9110    -2.3640 H     1 <1>   0.0800 
 39 H        5.9700     1.5480    -1.7080 H     1 <1>   0.0800 
 40 H        4.9160     0.1820    -1.6710 H     1 <1>   0.0800 
 41 H       -1.4630    -4.1340     0.1710 H     1 <1>   0.0800 
 42 H       -0.5300    -4.3870     1.6160 H     1 <1>   0.0800 
 43 H        2.8540    -6.3410     0.0440 H     1 <1>   0.0800 
 44 H        1.7750    -6.5130    -1.3040 H     1 <1>   0.0800 
 45 H       -0.8120    -6.2580    -0.7350 H     1 <1>   0.0800 
 46 H       -1.3150    -6.5390     0.9100 H     1 <1>   0.0800 
 47 H        7.2160     3.5500     1.2550 H     1 <1>   0.0800 
 48 H        6.3110     3.4050    -0.2340 H     1 <1>   0.0800 
 49 H        1.0720    -6.4600     1.6280 H     1 <1>   0.0800 
 50 H        0.7820    -7.7420     0.4850 H     1 <1>   0.0800 
 51 H       10.1800     0.7920     1.7360 H     1 <1>   0.4000 
 52 H        8.5620     1.1800     2.1230 H     1 <1>   0.4000 
@<TRIPOS>BOND
  1   1   2  2   
  2   2   3  am  
  3   2   4  1   
  4   3   5  1   
  5   3   6  1   
  6   4   7  ar  
  7   4   8  ar  
  8   5   9  1   
  9   5  29  1   
 10   5  30  1   
 11   6  10  1   
 12   6  31  1   
 13   6  32  1   
 14   7  11  ar  
 15   7  33  1   
 16   8  12  ar  
 17   8  34  1   
 18   9  13  1   
 19   9  35  1   
 20   9  36  1   
 21  10  14  1   
 22  10  37  1   
 23  10  38  1   
 24  11  15  ar  
 25  12  15  ar  
 26  12  16  1   
 27  13  14  1   
 28  13  17  am  
 29  14  39  1   
 30  14  40  1   
 31  15  18  1   
 32  16  19  1   
 33  16  41  1   
 34  16  42  1   
 35  17  20  2   
 36  17  21  1   
 37  18  22  1   
 38  18  43  1   
 39  18  44  1   
 40  19  22  1   
 41  19  45  1   
 42  19  46  1   
 43  21  23  1   
 44  21  47  1   
 45  21  48  1   
 46  22  49  1   
 47  22  50  1   
 48  23  24  1   
 49  23  25  1   
 50  24  26  2   
 51  25  27  2   
 52  25  28  1   
 53  26  27  1   
 54  28  51  1   
 55  28  52  1   
@<TRIPOS>SUBSTRUCTURE
  1 ****   9 GROUP 4 **** **** 0

# MOE 2024.06 (io_trps.svl 2023.06)
