@<TRIPOS>MOLECULE
NONAME
55 57 1 0 0 
SMALL
USER_CHARGES


@<TRIPOS>ATOM
  1 O        3.5540    -0.7860     1.9560 O.co2 1 <1>  -0.9000 
  2 C        2.4870    -0.1690     1.8400 C.2   1 <1>   0.9060 
  3 O        1.8620     0.2330     2.8170 O.co2 1 <1>  -0.9000 
  4 C        2.0610     0.2930     0.4340 C.3   1 <1>  -0.1060 
  5 C        3.3520     0.6430    -0.3290 C.3   1 <1>   0.4230 
  6 C        1.2100     1.5910     0.5210 C.3   1 <1>  -0.1600 
  7 C        1.2550    -0.7920    -0.3180 C.3   1 <1>  -0.1600 
  8 N        4.1590    -0.6030    -0.5970 N.4   1 <1>  -0.9590 
  9 C        4.1090     1.7350     0.4860 C.3   1 <1>   0.3430 
 10 C        1.9190     2.6850     1.3310 C.3   1 <1>   0.3430 
 11 C        2.1260    -2.0090    -0.6600 C.3   1 <1>  -0.1600 
 12 C        3.4100    -1.6150    -1.3910 C.3   1 <1>   0.3430 
 13 C        5.5370    -0.3920    -1.1260 C.3   1 <1>   0.2630 
 14 N        3.2720     2.9610     0.7610 N.4   1 <1>  -0.9590 
 15 C        4.0380     3.8990     1.6270 C.3   1 <1>   0.5240 
 16 C        5.0950     4.5720     0.7550 C.2   1 <1>   0.1080 
 17 N        5.0450     4.5780    -0.5490 N.2   1 <1>  -0.7070 
 18 C        6.2110     5.2450     1.2390 C.2   1 <1>  -0.1500 
 19 N        6.1350     5.2850    -0.9240 N.pl3 1 <1>   0.3000 
 20 C        6.8600     5.6910     0.1390 C.2   1 <1>  -0.3320 
 21 C        8.1450     6.5020     0.0040 C.3   1 <1>   0.1800 
 22 C        9.1710     5.7010    -0.8060 C.3   1 <1>  -0.2400 
 23 C        8.7340     6.8080     1.3860 C.3   1 <1>  -0.2400 
 24 C        7.8400     7.8230    -0.7090 C.3   1 <1>  -0.2400 
 25 H        3.0820     1.0720    -1.2780 H     1 <1>   0.0800 
 26 H        0.2810     1.3670     1.0200 H     1 <1>   0.0800 
 27 H        0.9670     1.9640    -0.4580 H     1 <1>   0.0800 
 28 H        0.4250    -1.1090     0.2920 H     1 <1>   0.0800 
 29 H        0.8520    -0.3850    -1.2310 H     1 <1>   0.0800 
 30 H        4.2270    -1.0150     0.3750 H     1 <1>   0.4500 
 31 H        4.9910     2.0300    -0.0560 H     1 <1>   0.0800 
 32 H        4.4190     1.3050     1.4260 H     1 <1>   0.0800 
 33 H        2.0160     2.3630     2.3570 H     1 <1>   0.0800 
 34 H        1.3220     3.5830     1.3260 H     1 <1>   0.0800 
 35 H        1.5640    -2.6890    -1.2760 H     1 <1>   0.0800 
 36 H        2.3840    -2.5390     0.2420 H     1 <1>   0.0800 
 37 H        3.1670    -1.2130    -2.3610 H     1 <1>   0.0800 
 38 H        4.0190    -2.4950    -1.5300 H     1 <1>   0.0800 
 39 H        5.5010     0.0810    -2.0930 H     1 <1>   0.0800 
 40 H        6.0420    -1.3400    -1.2230 H     1 <1>   0.0800 
 41 H        6.1090     0.2240    -0.4520 H     1 <1>   0.0800 
 42 H        3.2040     3.4960    -0.1230 H     1 <1>   0.4500 
 43 H        3.3830     4.6580     2.0220 H     1 <1>   0.0800 
 44 H        4.4970     3.3720     2.4470 H     1 <1>   0.0800 
 45 H        6.4800     5.3770     2.2730 H     1 <1>   0.1500 
 46 H        6.3640     5.4870    -1.9060 H     1 <1>   0.2700 
 47 H       10.0970     6.2440    -0.8790 H     1 <1>   0.0800 
 48 H        8.8150     5.5100    -1.8010 H     1 <1>   0.0800 
 49 H        9.3680     4.7590    -0.3260 H     1 <1>   0.0800 
 50 H        9.6420     7.3760     1.2930 H     1 <1>   0.0800 
 51 H        8.9590     5.8960     1.9090 H     1 <1>   0.0800 
 52 H        8.0380     7.3800     1.9730 H     1 <1>   0.0800 
 53 H        8.7280     8.4260    -0.7810 H     1 <1>   0.0800 
 54 H        7.0980     8.3770    -0.1620 H     1 <1>   0.0800 
 55 H        7.4710     7.6520    -1.7040 H     1 <1>   0.0800 
@<TRIPOS>BOND
  1   1   2  ar  
  2   2   3  ar  
  3   2   4  1   
  4   4   5  1   
  5   4   6  1   
  6   4   7  1   
  7   5   8  1   
  8   5   9  1   
  9   5  25  1   
 10   6  10  1   
 11   6  26  1   
 12   6  27  1   
 13   7  11  1   
 14   7  28  1   
 15   7  29  1   
 16   8  12  1   
 17   8  13  1   
 18   8  30  1   
 19   9  14  1   
 20   9  31  1   
 21   9  32  1   
 22  10  14  1   
 23  10  33  1   
 24  10  34  1   
 25  11  12  1   
 26  11  35  1   
 27  11  36  1   
 28  12  37  1   
 29  12  38  1   
 30  13  39  1   
 31  13  40  1   
 32  13  41  1   
 33  14  15  1   
 34  14  42  1   
 35  15  16  1   
 36  15  43  1   
 37  15  44  1   
 38  16  17  2   
 39  16  18  1   
 40  17  19  1   
 41  18  20  2   
 42  18  45  1   
 43  19  20  1   
 44  19  46  1   
 45  20  21  1   
 46  21  22  1   
 47  21  23  1   
 48  21  24  1   
 49  22  47  1   
 50  22  48  1   
 51  22  49  1   
 52  23  50  1   
 53  23  51  1   
 54  23  52  1   
 55  24  53  1   
 56  24  54  1   
 57  24  55  1   
@<TRIPOS>SUBSTRUCTURE
  1 ****   9 GROUP 4 **** **** 0

# MOE 2024.06 (io_trps.svl 2023.06)
