@<TRIPOS>MOLECULE
NONAME
50 53 1 0 0 
SMALL
USER_CHARGES


@<TRIPOS>ATOM
  1 O       -0.6100    -0.3220     2.5160 O.2   1 <1>  -0.5700 
  2 C       -1.5790    -0.4850     1.8000 C.2   1 <1>   0.7800 
  3 O       -1.8810    -1.6630     1.2510 O.3   1 <1>  -0.2320 
  4 N       -2.4830     0.4700     1.4250 N.am  1 <1>  -0.4770 
  5 C       -2.9890    -1.4740     0.5070 C.ar  1 <1>   0.0830 
  6 C       -3.3880    -0.1590     0.5960 C.ar  1 <1>   0.1170 
  7 C       -2.4740     1.8940     1.8180 C.3   1 <1>   0.1400 
  8 C       -3.6790    -2.3960    -0.2570 C.ar  1 <1>  -0.1500 
  9 C       -4.5100     0.2800    -0.0890 C.ar  1 <1>  -0.1500 
 10 C       -1.6800     2.7060     0.7910 C.3   1 <1>  -0.0990 
 11 C       -4.8010    -1.9580    -0.9430 C.ar  1 <1>  -0.1500 
 12 C       -5.2180    -0.6290    -0.8630 C.ar  1 <1>  -0.1440 
 13 C       -1.7120     4.1990     1.0740 C.2   1 <1>   0.5690 
 14 C       -6.4540    -0.1910    -1.6290 C.3   1 <1>  -0.0960 
 15 O       -2.4710     4.5980     1.9270 O.2   1 <1>  -0.5700 
 16 N       -0.9110     5.0590     0.3640 N.am  1 <1>  -0.6600 
 17 C       -0.8460     6.5060     0.7150 C.3   1 <1>   0.1400 
 18 C       -0.0320     4.6700    -0.7770 C.3   1 <1>   0.1400 
 19 C        0.6000     6.8940     1.0380 C.3   1 <1>  -0.1600 
 20 C        1.4160     5.0410    -0.4550 C.3   1 <1>  -0.1600 
 21 C        1.5520     6.5350    -0.1130 C.3   1 <1>   0.1000 
 22 C        2.9900     6.9100     0.2420 C.2   1 <1>   0.0060 
 23 N        3.8560     6.1020     0.7570 N.2   1 <1>  -0.3380 
 24 N        3.5160     8.1280     0.0620 N.pl3 1 <1>   0.0480 
 25 N        4.9880     6.7850     0.9260 N.2   1 <1>  -0.3380 
 26 C        4.7640     7.9810     0.5080 C.2   1 <1>   0.0360 
 27 C        2.9060     9.3520    -0.4910 C.3   1 <1>   0.0160 
 28 H       -2.0230     1.9960     2.7910 H     1 <1>   0.0800 
 29 H       -3.4870     2.2520     1.8770 H     1 <1>   0.0800 
 30 H       -3.3470    -3.4170    -0.3100 H     1 <1>   0.1500 
 31 H       -4.8160     1.3080    -0.0130 H     1 <1>   0.1500 
 32 H       -2.0890     2.5410    -0.1870 H     1 <1>   0.0800 
 33 H       -0.6580     2.3740     0.8150 H     1 <1>   0.0800 
 34 H       -5.3570    -2.6560    -1.5460 H     1 <1>   0.1500 
 35 H       -6.6720     0.8470    -1.4490 H     1 <1>   0.0800 
 36 H       -7.3020    -0.7760    -1.3220 H     1 <1>   0.0800 
 37 H       -6.2990    -0.3300    -2.6840 H     1 <1>   0.0800 
 38 H       -1.4690     6.7220     1.5670 H     1 <1>   0.0800 
 39 H       -1.2100     7.0850    -0.1150 H     1 <1>   0.0800 
 40 H       -0.3550     5.1960    -1.6590 H     1 <1>   0.0800 
 41 H       -0.0930     3.6170    -0.9830 H     1 <1>   0.0800 
 42 H        0.9080     6.3790     1.9310 H     1 <1>   0.0800 
 43 H        0.6460     7.9480     1.2390 H     1 <1>   0.0800 
 44 H        2.0440     4.8070    -1.2960 H     1 <1>   0.0800 
 45 H        1.7500     4.4430     0.3760 H     1 <1>   0.0800 
 46 H        1.2620     7.0940    -0.9860 H     1 <1>   0.0800 
 47 H        5.4880     8.7740     0.5130 H     1 <1>   0.1500 
 48 H        2.0500     9.6230     0.0990 H     1 <1>   0.0800 
 49 H        2.6040     9.1720    -1.5070 H     1 <1>   0.0800 
 50 H        3.6210    10.1540    -0.4690 H     1 <1>   0.0800 
@<TRIPOS>BOND
  1   1   2  2   
  2   2   3  1   
  3   2   4  am  
  4   3   5  1   
  5   4   6  1   
  6   4   7  1   
  7   5   6  ar  
  8   5   8  ar  
  9   6   9  ar  
 10   7  10  1   
 11   7  28  1   
 12   7  29  1   
 13   8  11  ar  
 14   8  30  1   
 15   9  12  ar  
 16   9  31  1   
 17  10  13  1   
 18  10  32  1   
 19  10  33  1   
 20  11  12  ar  
 21  11  34  1   
 22  12  14  1   
 23  13  15  2   
 24  13  16  am  
 25  14  35  1   
 26  14  36  1   
 27  14  37  1   
 28  16  17  1   
 29  16  18  1   
 30  17  19  1   
 31  17  38  1   
 32  17  39  1   
 33  18  20  1   
 34  18  40  1   
 35  18  41  1   
 36  19  21  1   
 37  19  42  1   
 38  19  43  1   
 39  20  21  1   
 40  20  44  1   
 41  20  45  1   
 42  21  22  1   
 43  21  46  1   
 44  22  23  2   
 45  22  24  1   
 46  23  25  1   
 47  24  26  1   
 48  24  27  1   
 49  25  26  2   
 50  26  47  1   
 51  27  48  1   
 52  27  49  1   
 53  27  50  1   
@<TRIPOS>SUBSTRUCTURE
  1 ****  10 GROUP 4 **** **** 0

# MOE 2024.06 (io_trps.svl 2023.06)
