@<TRIPOS>MOLECULE
NONAME
48 51 1 0 0 
SMALL
USER_CHARGES


@<TRIPOS>ATOM
  1 O       -0.3700    -1.3860    -0.2190 O.co2 1 <1>  -0.9000 
  2 C        0.5180    -0.5850     0.1180 C.2   1 <1>   0.9790 
  3 O        0.1850     0.5560     0.4730 O.co2 1 <1>  -0.9000 
  4 C        1.9280    -0.9180     0.1260 C.ar  1 <1>  -0.1790 
  5 C        2.4760    -2.1500    -0.3150 C.ar  1 <1>   0.1000 
  6 C        2.7730     0.0480     0.6350 C.ar  1 <1>   0.2110 
  7 N        1.6210    -3.1410    -0.6470 N.pl3 1 <1>  -0.8690 
  8 C        3.8860    -2.2730    -0.3330 C.ar  1 <1>   0.0000 
  9 N        4.1070    -0.1260     0.7050 N.ar  1 <1>  -0.1260 
 10 C        1.6040    -4.5830    -0.2620 C.3   1 <1>   0.2890 
 11 C        4.6630    -1.2780     0.2170 C.ar  1 <1>   0.1560 
 12 C        4.8530    -3.1880    -0.8070 C.2   1 <1>   0.1080 
 13 C        0.1720    -5.0300     0.0000 C.3   1 <1>  -0.0800 
 14 C        2.2090    -4.8100     1.1300 C.3   1 <1>   0.1200 
 15 N        5.9550    -1.6630     0.1230 N.pl3 1 <1>   0.3140 
 16 N        6.0600    -2.8400    -0.5190 N.2   1 <1>  -0.7070 
 17 C        4.5850    -4.4310    -1.6240 C.3   1 <1>  -0.0590 
 18 C       -0.0500    -4.4930     1.4130 C.3   1 <1>   0.1200 
 19 C       -0.8910    -4.6280    -1.0440 C.3   1 <1>  -0.0170 
 20 O        1.1800    -4.6390     2.0640 O.3   1 <1>  -0.5600 
 21 C        7.1720    -0.9640     0.5720 C.3   1 <1>   0.0160 
 22 C       -2.2960    -4.8880    -0.5270 C.ar  1 <1>  -0.1440 
 23 C       -2.8930    -6.1310    -0.5690 C.ar  1 <1>  -0.1500 
 24 C       -3.0450    -3.8660     0.0200 C.ar  1 <1>  -0.1500 
 25 C       -4.1770    -6.2870    -0.0730 C.ar  1 <1>   0.1600 
 26 C       -4.3210    -4.1300     0.4890 C.ar  1 <1>   0.1600 
 27 N       -4.9070    -5.3180     0.4570 N.ar  1 <1>  -0.6200 
 28 H        2.3750     0.9840     1.0000 H     1 <1>   0.1500 
 29 H        0.6340    -2.7910    -0.6880 H     1 <1>   0.4000 
 30 H        4.6880     0.6150     1.1000 H     1 <1>   0.4570 
 31 H        2.0670    -5.1820    -1.0230 H     1 <1>   0.0800 
 32 H        0.1600    -6.1030     0.0730 H     1 <1>   0.0800 
 33 H        3.0130    -4.1370     1.3620 H     1 <1>   0.0800 
 34 H        2.5540    -5.8240     1.2230 H     1 <1>   0.0800 
 35 H        3.7450    -4.2710    -2.2750 H     1 <1>   0.0800 
 36 H        4.3970    -5.2640    -0.9740 H     1 <1>   0.0800 
 37 H        5.4440    -4.6590    -2.2290 H     1 <1>   0.0800 
 38 H       -0.8070    -5.0370     1.9510 H     1 <1>   0.0800 
 39 H       -0.2940    -3.4440     1.3960 H     1 <1>   0.0800 
 40 H       -0.7320    -5.1830    -1.9500 H     1 <1>   0.0800 
 41 H       -0.8210    -3.5880    -1.3020 H     1 <1>   0.0800 
 42 H        7.0570    -0.6480     1.5920 H     1 <1>   0.0800 
 43 H        7.3560    -0.1190    -0.0650 H     1 <1>   0.0800 
 44 H        8.0060    -1.6400     0.5070 H     1 <1>   0.0800 
 45 H       -2.3730    -6.9740    -0.9820 H     1 <1>   0.1500 
 46 H       -2.6410    -2.8680     0.0860 H     1 <1>   0.1500 
 47 H       -4.6290    -7.2630    -0.1130 H     1 <1>   0.1500 
 48 H       -4.8850    -3.3170     0.9130 H     1 <1>   0.1500 
@<TRIPOS>BOND
  1   1   2  ar  
  2   2   3  ar  
  3   2   4  1   
  4   4   5  ar  
  5   4   6  ar  
  6   5   7  1   
  7   5   8  ar  
  8   6   9  ar  
  9   6  28  1   
 10   7  10  1   
 11   7  29  1   
 12   8  11  ar  
 13   8  12  1   
 14   9  11  ar  
 15   9  30  1   
 16  10  13  1   
 17  10  14  1   
 18  10  31  1   
 19  11  15  1   
 20  12  16  2   
 21  12  17  1   
 22  13  18  1   
 23  13  19  1   
 24  13  32  1   
 25  14  20  1   
 26  14  33  1   
 27  14  34  1   
 28  15  16  1   
 29  15  21  1   
 30  17  35  1   
 31  17  36  1   
 32  17  37  1   
 33  18  20  1   
 34  18  38  1   
 35  18  39  1   
 36  19  22  1   
 37  19  40  1   
 38  19  41  1   
 39  21  42  1   
 40  21  43  1   
 41  21  44  1   
 42  22  23  ar  
 43  22  24  ar  
 44  23  25  ar  
 45  23  45  1   
 46  24  26  ar  
 47  24  46  1   
 48  25  27  ar  
 49  25  47  1   
 50  26  27  ar  
 51  26  48  1   
@<TRIPOS>SUBSTRUCTURE
  1 ****   7 GROUP 4 **** **** 0

# MOE 2024.06 (io_trps.svl 2023.06)
