@<TRIPOS>MOLECULE
NONAME
47 50 1 0 0 
SMALL
USER_CHARGES


@<TRIPOS>ATOM
  1 O        1.2130     1.3000    -2.2700 O.co2 1 <1>  -0.9000 
  2 C        1.4760     1.4260    -1.0670 C.2   1 <1>   0.9470 
  3 O        0.6400     1.8910    -0.2790 O.co2 1 <1>  -0.9000 
  4 C        2.9150     1.2330    -0.5790 C.3   1 <1>  -0.2420 
  5 C        3.6630     0.0380    -0.0380 C.3   1 <1>  -0.2420 
  6 C        3.3650     2.4450     0.2120 C.3   1 <1>   0.2350 
  7 C        3.8730     0.4740    -1.4640 C.3   1 <1>  -0.2000 
  8 C        3.1940    -1.3900     0.2440 C.2   1 <1>   0.9470 
  9 C        4.5960     0.5240     1.0590 C.3   1 <1>   0.2350 
 10 N        4.5820     2.0110     0.9570 N.am  1 <1>  -0.6600 
 11 O        3.4900    -2.2950    -0.5480 O.co2 1 <1>  -0.9000 
 12 O        2.6630    -1.6410     1.3340 O.co2 1 <1>  -0.9000 
 13 C        5.5550     2.8000     1.5020 C.2   1 <1>   0.5690 
 14 O        6.4740     2.3250     2.1320 O.2   1 <1>  -0.5700 
 15 C        5.5030     4.3190     1.3720 C.3   1 <1>   0.0820 
 16 C        6.6300     4.9220     0.5310 C.2   1 <1>  -0.1810 
 17 C        7.0480     4.5140    -0.7370 C.2   1 <1>   0.1080 
 18 C        7.4360     5.9670     0.8310 C.2   1 <1>  -0.3320 
 19 N        8.0180     5.2390    -1.1890 N.2   1 <1>  -0.7070 
 20 C        6.4840     3.3690    -1.5500 C.3   1 <1>  -0.0590 
 21 N        8.2870     6.1420    -0.2190 N.pl3 1 <1>   0.5930 
 22 C        7.4640     6.8520     2.0710 C.3   1 <1>  -0.0600 
 23 C        9.3010     7.1310    -0.3510 C.ar  1 <1>  -0.0230 
 24 C        9.1980     8.1180    -1.3250 C.ar  1 <1>  -0.1500 
 25 C       10.4100     7.1340     0.4900 C.ar  1 <1>  -0.1500 
 26 C       10.1710     9.0940    -1.4480 C.ar  1 <1>  -0.1500 
 27 C       11.3840     8.1100     0.3690 C.ar  1 <1>  -0.1500 
 28 C       11.2640     9.0920    -0.5980 C.ar  1 <1>  -0.1500 
 29 H        2.6020     2.7260     0.9190 H     1 <1>   0.0800 
 30 H        3.5640     3.2640    -0.4530 H     1 <1>   0.0800 
 31 H        4.8110     0.9100    -1.7480 H     1 <1>   0.1000 
 32 H        3.4590    -0.1490    -2.2400 H     1 <1>   0.1000 
 33 H        5.5880     0.1330     0.9230 H     1 <1>   0.0800 
 34 H        4.2200     0.2310     2.0250 H     1 <1>   0.0800 
 35 H        4.5650     4.6380     0.9650 H     1 <1>   0.0800 
 36 H        5.5550     4.7100     2.3680 H     1 <1>   0.0800 
 37 H        5.4310     3.5050    -1.7040 H     1 <1>   0.0800 
 38 H        6.6550     2.4390    -1.0410 H     1 <1>   0.0800 
 39 H        6.9670     3.3270    -2.5080 H     1 <1>   0.0800 
 40 H        6.6230     6.6590     2.7090 H     1 <1>   0.0800 
 41 H        7.4370     7.8890     1.7850 H     1 <1>   0.0800 
 42 H        8.3640     6.6720     2.6320 H     1 <1>   0.0800 
 43 H        8.3510     8.1140    -1.9910 H     1 <1>   0.1500 
 44 H       10.5110     6.3660     1.2370 H     1 <1>   0.1500 
 45 H       10.0790     9.8530    -2.2050 H     1 <1>   0.1500 
 46 H       12.2370     8.1030     1.0250 H     1 <1>   0.1500 
 47 H       12.0210     9.8510    -0.6930 H     1 <1>   0.1500 
@<TRIPOS>BOND
  1   1   2  ar  
  2   2   3  ar  
  3   2   4  1   
  4   4   5  1   
  5   4   6  1   
  6   4   7  1   
  7   5   7  1   
  8   5   8  1   
  9   5   9  1   
 10   6  10  1   
 11   6  29  1   
 12   6  30  1   
 13   7  31  1   
 14   7  32  1   
 15   8  11  ar  
 16   8  12  ar  
 17   9  10  1   
 18   9  33  1   
 19   9  34  1   
 20  10  13  am  
 21  13  14  2   
 22  13  15  1   
 23  15  16  1   
 24  15  35  1   
 25  15  36  1   
 26  16  17  1   
 27  16  18  2   
 28  17  19  2   
 29  17  20  1   
 30  18  21  1   
 31  18  22  1   
 32  19  21  1   
 33  20  37  1   
 34  20  38  1   
 35  20  39  1   
 36  21  23  1   
 37  22  40  1   
 38  22  41  1   
 39  22  42  1   
 40  23  24  ar  
 41  23  25  ar  
 42  24  26  ar  
 43  24  43  1   
 44  25  27  ar  
 45  25  44  1   
 46  26  28  ar  
 47  26  45  1   
 48  27  28  ar  
 49  27  46  1   
 50  28  47  1   
@<TRIPOS>SUBSTRUCTURE
  1 ****  16 GROUP 4 **** **** 0

# MOE 2024.06 (io_trps.svl 2023.06)
