@<TRIPOS>MOLECULE
NONAME
47 49 1 0 0 
SMALL
USER_CHARGES


@<TRIPOS>ATOM
  1 O       -0.1330    -1.3030     1.9130 O.2   1 <1>  -0.5700 
  2 C        0.8650    -1.5380     1.2580 C.2   1 <1>   0.5440 
  3 N        1.5940    -0.4840     0.7580 N.am  1 <1>  -0.6600 
  4 C        1.2490    -2.9140     1.0150 C.ar  1 <1>   0.0860 
  5 C        2.5510    -0.5750    -0.3680 C.3   1 <1>   0.1400 
  6 C        1.2120     0.9230     1.0120 C.3   1 <1>   0.1400 
  7 C        0.3420    -3.8620     0.5820 C.ar  1 <1>  -0.1500 
  8 C        2.5420    -3.3840     1.2050 C.ar  1 <1>  -0.1500 
  9 C        2.5230     0.8060    -1.0110 C.3   1 <1>  -0.1600 
 10 C        2.1360     1.7490     0.1240 C.3   1 <1>  -0.1600 
 11 C        0.7320    -5.1720     0.3440 C.ar  1 <1>   0.4100 
 12 C        2.8430    -4.7050     0.9440 C.ar  1 <1>   0.1600 
 13 N        1.9740    -5.6040     0.5150 N.ar  1 <1>  -0.6200 
 14 N       -0.2060    -6.0810    -0.0880 N.pl3 1 <1>  -0.8690 
 15 C        0.0750    -7.5310    -0.1240 C.3   1 <1>   0.2090 
 16 C       -1.0910    -8.2400    -0.8050 C.3   1 <1>  -0.1600 
 17 C       -0.8350    -9.7430    -0.8850 C.3   1 <1>   0.2090 
 18 N       -1.9890   -10.3930    -1.5430 N.pl3 1 <1>  -0.8690 
 19 C       -3.0960   -10.7480    -0.7690 C.ar  1 <1>   0.1000 
 20 C       -4.3730   -10.2450    -1.0330 C.ar  1 <1>   0.1600 
 21 C       -2.9640   -11.6240     0.2940 C.ar  1 <1>  -0.1500 
 22 N       -5.4710   -10.5180    -0.3450 N.ar  1 <1>  -0.6200 
 23 C       -4.0940   -11.9260     1.0220 C.ar  1 <1>  -0.1500 
 24 C       -5.3050   -11.3540     0.6680 C.ar  1 <1>   0.1600 
 25 H        2.2620    -1.3410    -1.0690 H     1 <1>   0.0800 
 26 H        3.5330    -0.7840     0.0190 H     1 <1>   0.0800 
 27 H        1.3310     1.1670     2.0530 H     1 <1>   0.0800 
 28 H        0.1830     1.0650     0.7250 H     1 <1>   0.0800 
 29 H       -0.6810    -3.5790     0.4250 H     1 <1>   0.1500 
 30 H        3.3040    -2.7160     1.5610 H     1 <1>   0.1500 
 31 H        1.7640     0.8210    -1.7740 H     1 <1>   0.0800 
 32 H        3.4700     1.0620    -1.4540 H     1 <1>   0.0800 
 33 H        3.0090     2.0230     0.6890 H     1 <1>   0.0800 
 34 H        1.6530     2.6430    -0.2300 H     1 <1>   0.0800 
 35 H        3.8530    -5.0470     1.0960 H     1 <1>   0.1500 
 36 H       -1.1730    -5.8510     0.1460 H     1 <1>   0.4000 
 37 H        0.2050    -7.8930     0.8820 H     1 <1>   0.0800 
 38 H        0.9850    -7.7040    -0.6740 H     1 <1>   0.0800 
 39 H       -1.2080    -7.8440    -1.7980 H     1 <1>   0.0800 
 40 H       -1.9890    -8.0660    -0.2390 H     1 <1>   0.0800 
 41 H       -0.6960   -10.1480     0.1030 H     1 <1>   0.0800 
 42 H        0.0550    -9.9400    -1.4600 H     1 <1>   0.0800 
 43 H       -2.2170    -9.9380    -2.4340 H     1 <1>   0.4000 
 44 H       -4.4810    -9.5730    -1.8640 H     1 <1>   0.1500 
 45 H       -2.0100   -12.0570     0.5310 H     1 <1>   0.1500 
 46 H       -4.0420   -12.6010     1.8560 H     1 <1>   0.1500 
 47 H       -6.1810   -11.5970     1.2450 H     1 <1>   0.1500 
@<TRIPOS>BOND
  1   1   2  2   
  2   2   3  am  
  3   2   4  1   
  4   3   5  1   
  5   3   6  1   
  6   4   7  ar  
  7   4   8  ar  
  8   5   9  1   
  9   5  25  1   
 10   5  26  1   
 11   6  10  1   
 12   6  27  1   
 13   6  28  1   
 14   7  11  ar  
 15   7  29  1   
 16   8  12  ar  
 17   8  30  1   
 18   9  10  1   
 19   9  31  1   
 20   9  32  1   
 21  10  33  1   
 22  10  34  1   
 23  11  13  ar  
 24  11  14  1   
 25  12  13  ar  
 26  12  35  1   
 27  14  15  1   
 28  14  36  1   
 29  15  16  1   
 30  15  37  1   
 31  15  38  1   
 32  16  17  1   
 33  16  39  1   
 34  16  40  1   
 35  17  18  1   
 36  17  41  1   
 37  17  42  1   
 38  18  19  1   
 39  18  43  1   
 40  19  20  ar  
 41  19  21  ar  
 42  20  22  ar  
 43  20  44  1   
 44  21  23  ar  
 45  21  45  1   
 46  22  24  ar  
 47  23  24  ar  
 48  23  46  1   
 49  24  47  1   
@<TRIPOS>SUBSTRUCTURE
  1 ****  14 GROUP 4 **** **** 0

# MOE 2024.06 (io_trps.svl 2023.06)
