@<TRIPOS>MOLECULE
NONAME
56 58 1 0 0 
SMALL
USER_CHARGES


@<TRIPOS>ATOM
  1 O       -1.8510    -0.3830     1.7410 O.2   1 <1>  -0.5700 
  2 C       -1.0790     0.0980     0.9400 C.2   1 <1>   0.5690 
  3 N       -1.2010    -0.2580    -0.3780 N.am  1 <1>  -0.6600 
  4 C       -0.0520     1.1330     1.4410 C.3   1 <1>   0.1710 
  5 C       -1.8810     0.7190    -1.2850 C.3   1 <1>   0.1400 
  6 C       -1.6010    -1.6690    -0.6980 C.3   1 <1>   0.1400 
  7 N        0.2740     2.2560     0.5110 N.3   1 <1>  -0.8100 
  8 C       -3.4220     0.6520    -1.1010 C.3   1 <1>   0.4230 
  9 C       -3.1340    -1.8140    -0.8620 C.3   1 <1>   0.3430 
 10 C        0.6900     3.4560     1.2640 C.3   1 <1>   0.2540 
 11 C        1.3250     1.8560    -0.4450 C.3   1 <1>   0.0300 
 12 N       -3.8510    -0.5940    -0.3480 N.4   1 <1>  -0.9590 
 13 C       -4.1510     0.7590    -2.4590 C.3   1 <1>   0.1200 
 14 C        0.8510     4.6530     0.3370 C.ar  1 <1>  -0.1440 
 15 C       -5.3450    -0.6780    -0.2690 C.3   1 <1>   0.4230 
 16 O       -5.5360     0.6550    -2.2880 O.3   1 <1>  -0.5600 
 17 C       -0.2320     5.2350    -0.2890 C.ar  1 <1>  -0.1500 
 18 C        2.0830     5.2210     0.0760 C.ar  1 <1>  -0.1500 
 19 C       -5.9800    -0.5240    -1.6720 C.3   1 <1>   0.1200 
 20 C       -5.7800    -1.9640     0.4530 C.3   1 <1>  -0.1600 
 21 C       -0.0380     6.3250    -1.1230 C.ar  1 <1>   0.1600 
 22 C        2.1680     6.3110    -0.7750 C.ar  1 <1>   0.1600 
 23 C       -7.2560    -1.9280     0.8770 C.3   1 <1>  -0.1600 
 24 N        1.1360     6.8760    -1.3810 N.ar  1 <1>  -0.6200 
 25 C       -7.6270    -3.1880     1.6640 C.3   1 <1>  -0.2400 
 26 H        0.8490     0.6140     1.7140 H     1 <1>   0.0800 
 27 H       -0.4630     1.5410     2.3480 H     1 <1>   0.0800 
 28 H       -1.5510     1.7230    -1.0860 H     1 <1>   0.0800 
 29 H       -1.6110     0.4960    -2.3020 H     1 <1>   0.0800 
 30 H       -1.1050    -1.9920    -1.5970 H     1 <1>   0.0800 
 31 H       -1.2720    -2.3200     0.0960 H     1 <1>   0.0800 
 32 H       -3.7110     1.5130    -0.5210 H     1 <1>   0.0800 
 33 H       -3.4520    -2.6910    -0.3230 H     1 <1>   0.0800 
 34 H       -3.3690    -1.9640    -1.9020 H     1 <1>   0.0800 
 35 H       -0.0600     3.6990     1.9970 H     1 <1>   0.0800 
 36 H        1.6140     3.2630     1.7840 H     1 <1>   0.0800 
 37 H        1.4630     2.6230    -1.1880 H     1 <1>   0.0800 
 38 H        1.0520     0.9490    -0.9540 H     1 <1>   0.0800 
 39 H        2.2600     1.6950     0.0650 H     1 <1>   0.0800 
 40 H       -3.4690    -0.4700     0.6130 H     1 <1>   0.4500 
 41 H       -3.8310    -0.0110    -3.1380 H     1 <1>   0.0800 
 42 H       -3.9530     1.7160    -2.9100 H     1 <1>   0.0800 
 43 H       -5.6940     0.1520     0.3240 H     1 <1>   0.0800 
 44 H       -1.2210     4.8460    -0.1350 H     1 <1>   0.1500 
 45 H        2.9760     4.8280     0.5240 H     1 <1>   0.1500 
 46 H       -7.0500    -0.4550    -1.5910 H     1 <1>   0.0800 
 47 H       -5.7390    -1.3590    -2.3050 H     1 <1>   0.0800 
 48 H       -5.6260    -2.8190    -0.1820 H     1 <1>   0.0800 
 49 H       -5.1830    -2.0820     1.3410 H     1 <1>   0.0800 
 50 H       -0.8950     6.7670    -1.6020 H     1 <1>   0.1500 
 51 H        3.1360     6.7400    -0.9680 H     1 <1>   0.1500 
 52 H       -7.4410    -1.0660     1.4970 H     1 <1>   0.0800 
 53 H       -7.8990    -1.8630     0.0150 H     1 <1>   0.0800 
 54 H       -7.0300    -3.2710     2.5570 H     1 <1>   0.0800 
 55 H       -7.4790    -4.0700     1.0660 H     1 <1>   0.0800 
 56 H       -8.6620    -3.1480     1.9550 H     1 <1>   0.0800 
@<TRIPOS>BOND
  1   1   2  2   
  2   2   3  am  
  3   2   4  1   
  4   3   5  1   
  5   3   6  1   
  6   4   7  1   
  7   4  26  1   
  8   4  27  1   
  9   5   8  1   
 10   5  28  1   
 11   5  29  1   
 12   6   9  1   
 13   6  30  1   
 14   6  31  1   
 15   7  10  1   
 16   7  11  1   
 17   8  12  1   
 18   8  13  1   
 19   8  32  1   
 20   9  12  1   
 21   9  33  1   
 22   9  34  1   
 23  10  14  1   
 24  10  35  1   
 25  10  36  1   
 26  11  37  1   
 27  11  38  1   
 28  11  39  1   
 29  12  15  1   
 30  12  40  1   
 31  13  16  1   
 32  13  41  1   
 33  13  42  1   
 34  14  17  ar  
 35  14  18  ar  
 36  15  19  1   
 37  15  20  1   
 38  15  43  1   
 39  16  19  1   
 40  17  21  ar  
 41  17  44  1   
 42  18  22  ar  
 43  18  45  1   
 44  19  46  1   
 45  19  47  1   
 46  20  23  1   
 47  20  48  1   
 48  20  49  1   
 49  21  24  ar  
 50  21  50  1   
 51  22  24  ar  
 52  22  51  1   
 53  23  25  1   
 54  23  52  1   
 55  23  53  1   
 56  25  54  1   
 57  25  55  1   
 58  25  56  1   
@<TRIPOS>SUBSTRUCTURE
  1 ****   5 GROUP 4 **** **** 0

# MOE 2024.06 (io_trps.svl 2023.06)
