@<TRIPOS>MOLECULE
NONAME
49 52 1 0 0 
SMALL
USER_CHARGES


@<TRIPOS>ATOM
  1 O       -0.2050    -0.9150     1.4950 O.2   1 <1>  -0.5700 
  2 C       -0.5190    -1.9620     0.9820 C.2   1 <1>   0.5690 
  3 N       -0.2630    -3.2040     1.5400 N.am  1 <1>  -0.2980 
  4 C       -1.2590    -1.9470    -0.3360 C.3   1 <1>  -0.0990 
  5 N       -0.5350    -4.4170     0.9460 N.2   1 <1>  -0.5120 
  6 C        0.3240    -3.2640     2.8990 C.3   1 <1>   0.0600 
  7 C       -0.9340    -3.2040    -1.1580 C.3   1 <1>  -0.0990 
  8 C       -0.8770    -4.4790    -0.3000 C.2   1 <1>   0.3890 
  9 C       -1.1900    -5.7310    -0.9640 C.2   1 <1>   0.6300 
 10 O       -1.5280    -5.7830    -2.1370 O.2   1 <1>  -0.5700 
 11 N       -1.1290    -6.9190    -0.2810 N.am  1 <1>  -0.7300 
 12 C       -1.4330    -8.2650    -0.8200 C.3   1 <1>   0.2200 
 13 C       -2.7800    -8.7680    -0.3170 C.3   1 <1>  -0.0800 
 14 C       -0.4970    -9.2790    -0.1760 C.3   1 <1>   0.1200 
 15 C       -2.4360    -9.3920     1.0400 C.3   1 <1>   0.1200 
 16 C       -3.9110    -7.7210    -0.2590 C.3   1 <1>  -0.0160 
 17 O       -1.0460    -9.5340     1.0800 O.3   1 <1>  -0.5600 
 18 C       -5.2290    -8.3580     0.1680 C.ar  1 <1>  -0.1440 
 19 C       -6.0280    -9.1170    -0.7190 C.ar  1 <1>   0.0000 
 20 C       -5.6740    -8.2110     1.4490 C.ar  1 <1>  -0.1500 
 21 C       -7.2180    -9.6880    -0.2060 C.ar  1 <1>   0.3100 
 22 C       -5.7190    -9.3420    -2.0810 C.ar  1 <1>  -0.1500 
 23 C       -6.8730    -8.8110     1.8520 C.ar  1 <1>   0.1600 
 24 N       -7.6260    -9.5250     1.0780 N.ar  1 <1>  -0.6200 
 25 C       -8.0240   -10.4590    -1.0590 C.ar  1 <1>  -0.1500 
 26 C       -6.5280   -10.0970    -2.8860 C.ar  1 <1>  -0.1500 
 27 C       -7.6940   -10.6660    -2.3710 C.ar  1 <1>  -0.1500 
 28 H       -2.3110    -1.9160    -0.1190 H     1 <1>   0.0800 
 29 H       -1.0000    -1.0610    -0.8880 H     1 <1>   0.0800 
 30 H       -0.3300    -2.7680     3.5930 H     1 <1>   0.0800 
 31 H        1.2790    -2.7680     2.8970 H     1 <1>   0.0800 
 32 H        0.4560    -4.2870     3.2020 H     1 <1>   0.0800 
 33 H        0.0270    -3.0820    -1.6240 H     1 <1>   0.0800 
 34 H       -1.6670    -3.3010    -1.9390 H     1 <1>   0.0800 
 35 H       -0.8570    -6.8980     0.7080 H     1 <1>   0.3700 
 36 H       -1.3620    -8.2720    -1.8950 H     1 <1>   0.0800 
 37 H       -3.0900    -9.5700    -0.9630 H     1 <1>   0.0800 
 38 H        0.5080    -8.9110    -0.0680 H     1 <1>   0.0800 
 39 H       -0.4950   -10.2020    -0.7290 H     1 <1>   0.0800 
 40 H       -2.8910   -10.3600     1.1600 H     1 <1>   0.0800 
 41 H       -2.7200    -8.7530     1.8580 H     1 <1>   0.0800 
 42 H       -4.0250    -7.2450    -1.2170 H     1 <1>   0.0800 
 43 H       -3.6530    -6.9470     0.4430 H     1 <1>   0.0800 
 44 H       -5.1250    -7.6420     2.1770 H     1 <1>   0.1500 
 45 H       -4.8300    -8.9100    -2.5010 H     1 <1>   0.1500 
 46 H       -7.1870    -8.6700     2.8720 H     1 <1>   0.1500 
 47 H       -8.9180   -10.8830    -0.6410 H     1 <1>   0.1500 
 48 H       -6.2800   -10.2610    -3.9210 H     1 <1>   0.1500 
 49 H       -8.3220   -11.2590    -3.0130 H     1 <1>   0.1500 
@<TRIPOS>BOND
  1   1   2  2   
  2   2   3  am  
  3   2   4  1   
  4   3   5  1   
  5   3   6  1   
  6   4   7  1   
  7   4  28  1   
  8   4  29  1   
  9   5   8  2   
 10   6  30  1   
 11   6  31  1   
 12   6  32  1   
 13   7   8  1   
 14   7  33  1   
 15   7  34  1   
 16   8   9  1   
 17   9  10  2   
 18   9  11  am  
 19  11  12  1   
 20  11  35  1   
 21  12  13  1   
 22  12  14  1   
 23  12  36  1   
 24  13  15  1   
 25  13  16  1   
 26  13  37  1   
 27  14  17  1   
 28  14  38  1   
 29  14  39  1   
 30  15  17  1   
 31  15  40  1   
 32  15  41  1   
 33  16  18  1   
 34  16  42  1   
 35  16  43  1   
 36  18  19  ar  
 37  18  20  ar  
 38  19  21  ar  
 39  19  22  ar  
 40  20  23  ar  
 41  20  44  1   
 42  21  24  ar  
 43  21  25  ar  
 44  22  26  ar  
 45  22  45  1   
 46  23  24  ar  
 47  23  46  1   
 48  25  27  ar  
 49  25  47  1   
 50  26  27  ar  
 51  26  48  1   
 52  27  49  1   
@<TRIPOS>SUBSTRUCTURE
  1 ****  16 GROUP 4 **** **** 0

# MOE 2024.06 (io_trps.svl 2023.06)
