@<TRIPOS>MOLECULE
NONAME
43 45 1 0 0 
SMALL
USER_CHARGES


@<TRIPOS>ATOM
  1 O       -0.5780    -2.7340     2.0820 O.3   1 <1>  -0.3630 
  2 C       -0.1760    -3.3080     0.9330 C.ar  1 <1>   0.7020 
  3 C        0.3090    -2.0080     2.9100 C.3   1 <1>   0.0400 
  4 N        1.1050    -3.2000     0.6030 N.ar  1 <1>  -0.6200 
  5 N       -1.1420    -3.9180     0.2730 N.ar  1 <1>  -0.6200 
  6 C        1.4290    -3.7850    -0.5350 C.ar  1 <1>   0.3930 
  7 C       -0.7810    -4.4900    -0.8550 C.ar  1 <1>   0.4100 
  8 O        2.7060    -3.7370    -0.9650 O.3   1 <1>  -0.3630 
  9 C        0.5150    -4.4470    -1.3050 C.ar  1 <1>  -0.1500 
 10 N       -1.7530    -5.1450    -1.5710 N.pl3 1 <1>  -0.8380 
 11 C        3.7030    -3.0660    -0.2210 C.3   1 <1>   0.0400 
 12 C       -2.8760    -4.3150    -2.0910 C.3   1 <1>   0.2090 
 13 C       -2.3370    -6.3600    -0.9300 C.3   1 <1>   0.2090 
 14 C       -4.0890    -4.7210    -1.2560 C.3   1 <1>   0.2000 
 15 C       -3.8600    -6.2150    -1.0220 C.3   1 <1>  -0.0800 
 16 O       -4.0250    -4.0410    -0.0490 O.3   1 <1>  -0.6800 
 17 C       -4.6120    -6.8190     0.1800 C.3   1 <1>  -0.0170 
 18 C       -4.2830    -8.2950     0.3380 C.ar  1 <1>  -0.1430 
 19 C       -3.3820    -8.7410     1.2850 C.ar  1 <1>  -0.1500 
 20 C       -4.8580    -9.2630    -0.4590 C.ar  1 <1>  -0.1500 
 21 C       -3.1020   -10.0940     1.3790 C.ar  1 <1>   0.1600 
 22 C       -4.5090   -10.5920    -0.2820 C.ar  1 <1>   0.1600 
 23 N       -3.6410   -11.0300     0.6150 N.ar  1 <1>  -0.6200 
 24 H       -0.2430    -1.6440     3.7580 H     1 <1>   0.0800 
 25 H        0.7120    -1.1830     2.3500 H     1 <1>   0.0800 
 26 H        1.0970    -2.6640     3.2370 H     1 <1>   0.0800 
 27 H        0.7910    -4.9180    -2.2260 H     1 <1>   0.1500 
 28 H        4.6350    -3.1540    -0.7480 H     1 <1>   0.0800 
 29 H        3.7810    -3.5250     0.7490 H     1 <1>   0.0800 
 30 H        3.4280    -2.0300    -0.1260 H     1 <1>   0.0800 
 31 H       -2.6750    -3.2600    -2.0070 H     1 <1>   0.0800 
 32 H       -3.0410    -4.5610    -3.1250 H     1 <1>   0.0800 
 33 H       -2.0040    -7.2490    -1.4390 H     1 <1>   0.0800 
 34 H       -2.0270    -6.4140     0.1000 H     1 <1>   0.0800 
 35 H       -5.0290    -4.4970    -1.7280 H     1 <1>   0.0800 
 36 H       -4.1720    -6.7350    -1.9100 H     1 <1>   0.0800 
 37 H       -3.0700    -4.0020     0.2220 H     1 <1>   0.4000 
 38 H       -5.6720    -6.6980     0.0390 H     1 <1>   0.0800 
 39 H       -4.3480    -6.2990     1.0850 H     1 <1>   0.0800 
 40 H       -2.8950    -8.0500     1.9490 H     1 <1>   0.1500 
 41 H       -5.5740    -8.9970    -1.2160 H     1 <1>   0.1500 
 42 H       -2.3950   -10.4220     2.1220 H     1 <1>   0.1500 
 43 H       -4.9670   -11.3330    -0.9140 H     1 <1>   0.1500 
@<TRIPOS>BOND
  1   1   2  1   
  2   1   3  1   
  3   2   4  ar  
  4   2   5  ar  
  5   3  24  1   
  6   3  25  1   
  7   3  26  1   
  8   4   6  ar  
  9   5   7  ar  
 10   6   8  1   
 11   6   9  ar  
 12   7   9  ar  
 13   7  10  1   
 14   8  11  1   
 15   9  27  1   
 16  10  12  1   
 17  10  13  1   
 18  11  28  1   
 19  11  29  1   
 20  11  30  1   
 21  12  14  1   
 22  12  31  1   
 23  12  32  1   
 24  13  15  1   
 25  13  33  1   
 26  13  34  1   
 27  14  15  1   
 28  14  16  1   
 29  14  35  1   
 30  15  17  1   
 31  15  36  1   
 32  16  37  1   
 33  17  18  1   
 34  17  38  1   
 35  17  39  1   
 36  18  19  ar  
 37  18  20  ar  
 38  19  21  ar  
 39  19  40  1   
 40  20  22  ar  
 41  20  41  1   
 42  21  23  ar  
 43  21  42  1   
 44  22  23  ar  
 45  22  43  1   
@<TRIPOS>SUBSTRUCTURE
  1 ****  13 GROUP 4 **** **** 0

# MOE 2024.06 (io_trps.svl 2023.06)
