@<TRIPOS>MOLECULE
NONAME
52 55 1 0 0 
SMALL
USER_CHARGES


@<TRIPOS>ATOM
  1 F       -1.9980    -2.1340    -0.5300 F     1 <1>  -0.1900 
  2 C       -0.9830    -2.9470    -0.4140 C.ar  1 <1>   0.1900 
  3 C       -0.5500    -3.2960     0.8490 C.ar  1 <1>  -0.1500 
  4 C       -0.3810    -3.4310    -1.5580 C.ar  1 <1>  -0.1500 
  5 C        0.5260    -4.1610     0.9670 C.ar  1 <1>  -0.1500 
  6 C        0.6940    -4.2940    -1.4270 C.ar  1 <1>  -0.1500 
  7 C        1.1570    -4.6650    -0.1690 C.ar  1 <1>  -0.1080 
  8 C        2.3500    -5.6230    -0.0950 C.3   1 <1>   0.3330 
  9 N        2.4850    -6.3470     1.2090 N.am  1 <1>  -0.5100 
 10 C        3.7010    -4.9340     0.2070 C.3   1 <1>   0.0000 
 11 C        2.3390    -7.6630     1.5550 C.2   1 <1>   0.5690 
 12 C        3.5500    -5.4030     1.6710 C.3   1 <1>   0.2250 
 13 O        2.7870    -8.0360     2.6190 O.2   1 <1>  -0.5700 
 14 C        1.6340    -8.6930     0.5950 C.3   1 <1>   0.3310 
 15 N        0.4480    -8.0620    -0.1030 N.3   1 <1>  -0.8100 
 16 C        1.1500    -9.9480     1.3900 C.3   1 <1>  -0.1600 
 17 C        2.7060    -9.1180    -0.4540 C.3   1 <1>  -0.1600 
 18 C       -0.6190    -7.6190     0.8320 C.3   1 <1>   0.1100 
 19 C       -0.1610    -8.7830    -1.2480 C.3   1 <1>   0.1100 
 20 C        2.2540   -10.9970     1.6090 C.3   1 <1>  -0.1600 
 21 C        2.6260   -10.5900    -0.9020 C.3   1 <1>  -0.1600 
 22 C       -1.7360    -6.8520     0.1030 C.3   1 <1>   0.1200 
 23 C       -1.2910    -7.9610    -1.8930 C.3   1 <1>   0.1200 
 24 C        2.8010   -11.5520     0.2830 C.3   1 <1>  -0.1600 
 25 O       -2.2550    -7.6190    -0.9430 O.3   1 <1>  -0.5600 
 26 H       -1.0440    -2.9000     1.7180 H     1 <1>   0.1500 
 27 H       -0.7480    -3.1380    -2.5250 H     1 <1>   0.1500 
 28 H        0.8610    -4.4380     1.9510 H     1 <1>   0.1500 
 29 H        1.1710    -4.6810    -2.3110 H     1 <1>   0.1500 
 30 H        2.4150    -6.2900    -0.9340 H     1 <1>   0.0000 
 31 H        3.6920    -3.8650     0.0900 H     1 <1>   0.0000 
 32 H        4.5280    -5.4040    -0.2970 H     1 <1>   0.0000 
 33 H        4.4150    -5.9150     2.0540 H     1 <1>   0.0000 
 34 H        3.1520    -4.6510     2.3290 H     1 <1>   0.0000 
 35 H        0.3480   -10.4370     0.8730 H     1 <1>   0.0800 
 36 H        0.7720    -9.6400     2.3490 H     1 <1>   0.0800 
 37 H        3.6810    -8.9890    -0.0160 H     1 <1>   0.0800 
 38 H        2.6700    -8.4680    -1.3090 H     1 <1>   0.0800 
 39 H       -0.2040    -6.9780     1.5890 H     1 <1>   0.0800 
 40 H       -1.0620    -8.4690     1.3210 H     1 <1>   0.0800 
 41 H       -0.5650    -9.7280    -0.9320 H     1 <1>   0.0800 
 42 H        0.5770    -8.9650    -2.0060 H     1 <1>   0.0800 
 43 H        1.8750   -11.8060     2.2090 H     1 <1>   0.0800 
 44 H        3.0630   -10.5470     2.1600 H     1 <1>   0.0800 
 45 H        3.3860   -10.7890    -1.6380 H     1 <1>   0.0800 
 46 H        1.6760   -10.7830    -1.3640 H     1 <1>   0.0800 
 47 H       -1.3640    -5.9280    -0.3000 H     1 <1>   0.0800 
 48 H       -2.5410    -6.6330     0.7820 H     1 <1>   0.0800 
 49 H       -1.7770    -8.5350    -2.6610 H     1 <1>   0.0800 
 50 H       -0.8990    -7.0580    -2.3270 H     1 <1>   0.0800 
 51 H        2.3020   -12.4770     0.0490 H     1 <1>   0.0800 
 52 H        3.8460   -11.7760     0.4130 H     1 <1>   0.0800 
@<TRIPOS>BOND
  1   1   2  1   
  2   2   3  ar  
  3   2   4  ar  
  4   3   5  ar  
  5   3  26  1   
  6   4   6  ar  
  7   4  27  1   
  8   5   7  ar  
  9   5  28  1   
 10   6   7  ar  
 11   6  29  1   
 12   7   8  1   
 13   8   9  1   
 14   8  10  1   
 15   8  30  1   
 16   9  11  am  
 17   9  12  1   
 18  10  12  1   
 19  10  31  1   
 20  10  32  1   
 21  11  13  2   
 22  11  14  1   
 23  12  33  1   
 24  12  34  1   
 25  14  15  1   
 26  14  16  1   
 27  14  17  1   
 28  15  18  1   
 29  15  19  1   
 30  16  20  1   
 31  16  35  1   
 32  16  36  1   
 33  17  21  1   
 34  17  37  1   
 35  17  38  1   
 36  18  22  1   
 37  18  39  1   
 38  18  40  1   
 39  19  23  1   
 40  19  41  1   
 41  19  42  1   
 42  20  24  1   
 43  20  43  1   
 44  20  44  1   
 45  21  24  1   
 46  21  45  1   
 47  21  46  1   
 48  22  25  1   
 49  22  47  1   
 50  22  48  1   
 51  23  25  1   
 52  23  49  1   
 53  23  50  1   
 54  24  51  1   
 55  24  52  1   
@<TRIPOS>SUBSTRUCTURE
  1 ****  15 GROUP 4 **** **** 0

# MOE 2024.06 (io_trps.svl 2023.06)
