@<TRIPOS>MOLECULE
NONAME
50 54 1 0 0 
SMALL
USER_CHARGES


@<TRIPOS>ATOM
  1 O       -0.6830     0.8880     0.1270 O.3   1 <1>  -0.0190 
  2 N       -1.8830     0.4020    -0.0480 N.2   1 <1>  -0.4100 
  3 C       -0.8980     2.0740     0.6380 C.2   1 <1>   0.2980 
  4 C       -2.7080     1.2920     0.3510 C.2   1 <1>   0.5990 
  5 N       -2.1150     2.3910     0.8020 N.2   1 <1>  -0.5650 
  6 C        0.2950     2.9470     0.9820 C.3   1 <1>   0.0200 
  7 N       -4.0990     1.1660     0.3410 N.pl3 1 <1>  -0.8210 
  8 C        1.0410     3.4180    -0.2730 C.3   1 <1>  -0.2400 
  9 C       -4.9700     2.3550     0.6020 C.3   1 <1>   0.2090 
 10 C       -4.7180     0.0610    -0.4530 C.3   1 <1>   0.2090 
 11 C       -5.5150     2.9730    -0.7080 C.3   1 <1>   0.1430 
 12 C       -6.0300     0.5000    -1.1260 C.3   1 <1>  -0.1600 
 13 C       -6.7020     3.8430    -0.3280 C.ar  1 <1>   0.1670 
 14 C       -5.8810     1.8910    -1.7600 C.3   1 <1>  -0.1600 
 15 C       -4.5340     4.0190    -1.3010 C.3   1 <1>  -0.1600 
 16 N       -7.8980     3.4080    -0.0100 N.ar  1 <1>  -0.6200 
 17 C       -6.3770     5.1650    -0.3370 C.ar  1 <1>  -0.1440 
 18 C       -4.9360     5.3850    -0.7240 C.3   1 <1>  -0.0170 
 19 C       -8.8020     4.3470     0.2980 C.ar  1 <1>   0.6200 
 20 C       -7.3550     6.0660    -0.0060 C.ar  1 <1>   0.1600 
 21 N       -8.5660     5.6680     0.3110 N.ar  1 <1>  -0.6200 
 22 C      -10.1430     3.8980     0.6480 C.ar  1 <1>   0.0000 
 23 C      -11.2660     4.7010     0.4310 C.ar  1 <1>  -0.1500 
 24 C      -10.3710     2.6410     1.2170 C.ar  1 <1>  -0.1500 
 25 C      -12.5410     4.2780     0.7600 C.ar  1 <1>  -0.1500 
 26 C      -11.6420     2.2100     1.5490 C.ar  1 <1>  -0.1500 
 27 C      -12.7320     3.0290     1.3210 C.ar  1 <1>  -0.1500 
 28 H        0.9610     2.3900     1.6160 H     1 <1>   0.0800 
 29 H       -0.0510     3.8030     1.5340 H     1 <1>   0.0800 
 30 H        1.4180     2.5740    -0.8230 H     1 <1>   0.0800 
 31 H        1.8680     4.0480     0.0020 H     1 <1>   0.0800 
 32 H        0.3770     3.9770    -0.9090 H     1 <1>   0.0800 
 33 H       -4.4520     3.1020     1.1780 H     1 <1>   0.0800 
 34 H       -5.8000     2.0250     1.2040 H     1 <1>   0.0800 
 35 H       -4.9020    -0.7790     0.1950 H     1 <1>   0.0800 
 36 H       -4.0320    -0.2570    -1.2200 H     1 <1>   0.0800 
 37 H       -6.8230     0.5120    -0.3980 H     1 <1>   0.0800 
 38 H       -6.2960    -0.2200    -1.8790 H     1 <1>   0.0800 
 39 H       -5.0990     1.8260    -2.4970 H     1 <1>   0.0800 
 40 H       -6.7880     2.1630    -2.2710 H     1 <1>   0.0800 
 41 H       -4.6630     4.0650    -2.3680 H     1 <1>   0.0800 
 42 H       -3.5060     3.7800    -1.0960 H     1 <1>   0.0800 
 43 H       -4.8300     6.1710    -1.4520 H     1 <1>   0.0800 
 44 H       -4.3550     5.6130     0.1530 H     1 <1>   0.0800 
 45 H       -7.1440     7.1210     0.0010 H     1 <1>   0.1500 
 46 H      -11.1370     5.6770    -0.0050 H     1 <1>   0.1500 
 47 H       -9.5350     1.9890     1.4030 H     1 <1>   0.1500 
 48 H      -13.3840     4.9210     0.5800 H     1 <1>   0.1500 
 49 H      -11.7840     1.2360     1.9850 H     1 <1>   0.1500 
 50 H      -13.7230     2.6970     1.5780 H     1 <1>   0.1500 
@<TRIPOS>BOND
  1   1   2  1   
  2   1   3  1   
  3   2   4  2   
  4   3   5  2   
  5   3   6  1   
  6   4   5  1   
  7   4   7  1   
  8   6   8  1   
  9   6  28  1   
 10   6  29  1   
 11   7   9  1   
 12   7  10  1   
 13   8  30  1   
 14   8  31  1   
 15   8  32  1   
 16   9  11  1   
 17   9  33  1   
 18   9  34  1   
 19  10  12  1   
 20  10  35  1   
 21  10  36  1   
 22  11  13  1   
 23  11  14  1   
 24  11  15  1   
 25  12  14  1   
 26  12  37  1   
 27  12  38  1   
 28  13  16  ar  
 29  13  17  ar  
 30  14  39  1   
 31  14  40  1   
 32  15  18  1   
 33  15  41  1   
 34  15  42  1   
 35  16  19  ar  
 36  17  18  1   
 37  17  20  ar  
 38  18  43  1   
 39  18  44  1   
 40  19  21  ar  
 41  19  22  1   
 42  20  21  ar  
 43  20  45  1   
 44  22  23  ar  
 45  22  24  ar  
 46  23  25  ar  
 47  23  46  1   
 48  24  26  ar  
 49  24  47  1   
 50  25  27  ar  
 51  25  48  1   
 52  26  27  ar  
 53  26  49  1   
 54  27  50  1   
@<TRIPOS>SUBSTRUCTURE
  1 ****  11 GROUP 4 **** **** 0

# MOE 2024.06 (io_trps.svl 2023.06)
