@<TRIPOS>MOLECULE
NONAME
49 51 1 0 0 
SMALL
USER_CHARGES


@<TRIPOS>ATOM
  1 O       -3.3930     1.3250    -2.1360 O.2   1 <1>  -0.5700 
  2 C       -3.1590     1.0090    -0.9840 C.2   1 <1>   0.5440 
  3 N       -2.5220     1.9100    -0.1500 N.am  1 <1>  -0.6600 
  4 C       -3.5550    -0.3010    -0.5290 C.ar  1 <1>   0.0860 
  5 C       -2.3740     3.3430    -0.5230 C.3   1 <1>   0.1400 
  6 C       -1.7880     1.5010     1.0830 C.3   1 <1>   0.0600 
  7 C       -4.2530    -0.4700     0.6650 C.ar  1 <1>   0.1600 
  8 C       -3.2700    -1.4510    -1.2570 C.ar  1 <1>  -0.1500 
  9 C       -3.2890     4.1940     0.3540 C.3   1 <1>  -0.2400 
 10 N       -4.6490    -1.6200     1.1800 N.ar  1 <1>  -0.6200 
 11 C       -3.6770    -2.6580    -0.7420 C.ar  1 <1>  -0.1500 
 12 C       -4.3620    -2.6980     0.4700 C.ar  1 <1>   0.4100 
 13 N       -4.8070    -3.8540     1.0290 N.pl3 1 <1>  -0.8690 
 14 C       -5.4520    -4.9660     0.2890 C.3   1 <1>   0.2890 
 15 C       -6.9600    -4.7800     0.1780 C.3   1 <1>  -0.0800 
 16 C       -5.3870    -6.2290     1.1410 C.3   1 <1>   0.1200 
 17 C       -7.4700    -5.3230     1.5140 C.3   1 <1>   0.1200 
 18 C       -7.4650    -3.3600    -0.1450 C.3   1 <1>  -0.0170 
 19 O       -6.4810    -6.1760     2.0090 O.3   1 <1>  -0.5600 
 20 C       -8.9770    -3.3460    -0.3060 C.ar  1 <1>  -0.1430 
 21 C       -9.5910    -3.7520    -1.4730 C.ar  1 <1>  -0.1500 
 22 C       -9.8140    -2.9270     0.7090 C.ar  1 <1>  -0.1500 
 23 C      -10.9730    -3.7270    -1.5650 C.ar  1 <1>   0.1600 
 24 C      -11.1850    -2.9410     0.5150 C.ar  1 <1>   0.1600 
 25 N      -11.7850    -3.3330    -0.5980 N.ar  1 <1>  -0.6200 
 26 H       -1.3490     3.6470    -0.3990 H     1 <1>   0.0800 
 27 H       -2.6350     3.4940    -1.5570 H     1 <1>   0.0800 
 28 H       -0.8260     1.9820     1.1140 H     1 <1>   0.0800 
 29 H       -1.6300     0.4370     1.1020 H     1 <1>   0.0800 
 30 H       -2.3500     1.7880     1.9540 H     1 <1>   0.0800 
 31 H       -4.4950     0.4170     1.2250 H     1 <1>   0.1500 
 32 H       -2.7440    -1.3790    -2.1930 H     1 <1>   0.1500 
 33 H       -3.0130     4.1100     1.3890 H     1 <1>   0.0800 
 34 H       -4.3110     3.8850     0.2260 H     1 <1>   0.0800 
 35 H       -3.2080     5.2260     0.0620 H     1 <1>   0.0800 
 36 H       -3.4660    -3.5710    -1.2630 H     1 <1>   0.1500 
 37 H       -5.2100    -3.7160     1.9590 H     1 <1>   0.4000 
 38 H       -4.9830    -5.1100    -0.6680 H     1 <1>   0.0800 
 39 H       -7.3150    -5.4430    -0.5910 H     1 <1>   0.0800 
 40 H       -4.4760    -6.2950     1.7100 H     1 <1>   0.0800 
 41 H       -5.5010    -7.1060     0.5280 H     1 <1>   0.0800 
 42 H       -8.3890    -5.8740     1.4030 H     1 <1>   0.0800 
 43 H       -7.6030    -4.5340     2.2330 H     1 <1>   0.0800 
 44 H       -7.0060    -3.0110    -1.0530 H     1 <1>   0.0800 
 45 H       -7.1880    -2.6770     0.6390 H     1 <1>   0.0800 
 46 H       -9.0090    -4.0870    -2.3120 H     1 <1>   0.1500 
 47 H       -9.4140    -2.5900     1.6470 H     1 <1>   0.1500 
 48 H      -11.4340    -4.0470    -2.4830 H     1 <1>   0.1500 
 49 H      -11.8220    -2.6110     1.3170 H     1 <1>   0.1500 
@<TRIPOS>BOND
  1   1   2  2   
  2   2   3  am  
  3   2   4  1   
  4   3   5  1   
  5   3   6  1   
  6   4   7  ar  
  7   4   8  ar  
  8   5   9  1   
  9   5  26  1   
 10   5  27  1   
 11   6  28  1   
 12   6  29  1   
 13   6  30  1   
 14   7  10  ar  
 15   7  31  1   
 16   8  11  ar  
 17   8  32  1   
 18   9  33  1   
 19   9  34  1   
 20   9  35  1   
 21  10  12  ar  
 22  11  12  ar  
 23  11  36  1   
 24  12  13  1   
 25  13  14  1   
 26  13  37  1   
 27  14  15  1   
 28  14  16  1   
 29  14  38  1   
 30  15  17  1   
 31  15  18  1   
 32  15  39  1   
 33  16  19  1   
 34  16  40  1   
 35  16  41  1   
 36  17  19  1   
 37  17  42  1   
 38  17  43  1   
 39  18  20  1   
 40  18  44  1   
 41  18  45  1   
 42  20  21  ar  
 43  20  22  ar  
 44  21  23  ar  
 45  21  46  1   
 46  22  24  ar  
 47  22  47  1   
 48  23  25  ar  
 49  23  48  1   
 50  24  25  ar  
 51  24  49  1   
@<TRIPOS>SUBSTRUCTURE
  1 ****  12 GROUP 4 **** **** 0

# MOE 2024.06 (io_trps.svl 2023.06)
