@<TRIPOS>MOLECULE
NONAME
48 52 1 0 0 
SMALL
USER_CHARGES


@<TRIPOS>ATOM
  1 O       -0.6480    -0.0530     0.1960 O.2   1 <1>  -0.5700 
  2 C       -1.4610     0.6320     0.7970 C.2   1 <1>   0.7160 
  3 N       -2.6560     0.0450     1.1550 N.am  1 <1>  -0.6600 
  4 C       -1.2000     2.0030     1.0980 C.2   1 <1>  -0.0860 
  5 C       -2.7800    -1.4450     1.2330 C.3   1 <1>   0.1400 
  6 C       -3.9570     0.7020     0.8220 C.3   1 <1>   0.1400 
  7 C       -0.3770     2.9140     0.4840 C.2   1 <1>  -0.0680 
  8 C       -1.7650     2.7560     2.1400 C.2   1 <1>   0.1390 
  9 C       -3.4860    -2.0040    -0.0150 C.3   1 <1>   0.3440 
 10 C       -4.6150     0.0320    -0.4070 C.3   1 <1>   0.2950 
 11 N       -0.5030     4.0760     1.1430 N.pl3 1 <1>   0.6010 
 12 N        0.5170     3.0690    -0.5560 N.pl3 1 <1>  -0.5530 
 13 N       -1.3730     3.9930     2.1790 N.2   1 <1>  -0.7070 
 14 O       -4.7140    -1.3480    -0.2030 O.3   1 <1>  -0.5600 
 15 C       -3.7200    -3.5040     0.1320 C.ar  1 <1>  -0.1430 
 16 C       -6.0320     0.5360    -0.7320 C.3   1 <1>  -0.1950 
 17 C        0.3210     5.0010     0.5290 C.2   1 <1>  -0.1810 
 18 C        0.9420     4.3870    -0.5010 C.2   1 <1>  -0.0500 
 19 C        1.0050     2.0020    -1.4570 C.3   1 <1>   0.1290 
 20 C       -4.8740    -4.0040     0.7230 C.ar  1 <1>  -0.1500 
 21 C       -2.7550    -4.3930    -0.3180 C.ar  1 <1>  -0.1500 
 22 C       -6.4980     1.9360    -0.4670 C.3   1 <1>  -0.2000 
 23 C       -7.0870     0.7860     0.3020 C.3   1 <1>  -0.2000 
 24 C       -5.0580    -5.3690     0.8610 C.ar  1 <1>  -0.1500 
 25 C       -2.9380    -5.7590    -0.1810 C.ar  1 <1>  -0.1500 
 26 C       -4.0890    -6.2470     0.4100 C.ar  1 <1>  -0.1500 
 27 H       -1.8090    -1.9000     1.3260 H     1 <1>   0.0800 
 28 H       -3.3490    -1.7110     2.1060 H     1 <1>   0.0800 
 29 H       -4.6130     0.6280     1.6700 H     1 <1>   0.0800 
 30 H       -3.8050     1.7450     0.6070 H     1 <1>   0.0800 
 31 H       -2.4640     2.3450     2.8500 H     1 <1>   0.1500 
 32 H       -2.8770    -1.8250    -0.8850 H     1 <1>   0.0800 
 33 H       -3.9910     0.1970    -1.2690 H     1 <1>   0.0800 
 34 H       -6.3720     0.0990    -1.6550 H     1 <1>   0.1000 
 35 H        0.3770     6.0050     0.8990 H     1 <1>   0.1500 
 36 H        1.6580     4.7860    -1.2010 H     1 <1>   0.1500 
 37 H        1.6690     2.4160    -2.1940 H     1 <1>   0.0800 
 38 H        0.1690     1.5370    -1.9490 H     1 <1>   0.0800 
 39 H        1.5280     1.2590    -0.8810 H     1 <1>   0.0800 
 40 H       -5.6350    -3.3290     1.0730 H     1 <1>   0.1500 
 41 H       -1.8530    -4.0280    -0.7790 H     1 <1>   0.1500 
 42 H       -5.8830     2.6370     0.0710 H     1 <1>   0.1000 
 43 H       -7.1080     2.4230    -1.2090 H     1 <1>   0.1000 
 44 H       -8.0930     0.4720     0.0820 H     1 <1>   0.1000 
 45 H       -6.8490     0.6750     1.3450 H     1 <1>   0.1000 
 46 H       -5.9560    -5.7450     1.3180 H     1 <1>   0.1500 
 47 H       -2.1840    -6.4410    -0.5330 H     1 <1>   0.1500 
 48 H       -4.2330    -7.3080     0.5170 H     1 <1>   0.1500 
@<TRIPOS>BOND
  1   1   2  2   
  2   2   3  am  
  3   2   4  1   
  4   3   5  1   
  5   3   6  1   
  6   4   7  2   
  7   4   8  1   
  8   5   9  1   
  9   5  27  1   
 10   5  28  1   
 11   6  10  1   
 12   6  29  1   
 13   6  30  1   
 14   7  11  1   
 15   7  12  1   
 16   8  13  2   
 17   8  31  1   
 18   9  14  1   
 19   9  15  1   
 20   9  32  1   
 21  10  14  1   
 22  10  16  1   
 23  10  33  1   
 24  11  13  1   
 25  11  17  1   
 26  12  18  1   
 27  12  19  1   
 28  15  20  ar  
 29  15  21  ar  
 30  16  22  1   
 31  16  23  1   
 32  16  34  1   
 33  17  18  2   
 34  17  35  1   
 35  18  36  1   
 36  19  37  1   
 37  19  38  1   
 38  19  39  1   
 39  20  24  ar  
 40  20  40  1   
 41  21  25  ar  
 42  21  41  1   
 43  22  23  1   
 44  22  42  1   
 45  22  43  1   
 46  23  44  1   
 47  23  45  1   
 48  24  26  ar  
 49  24  46  1   
 50  25  26  ar  
 51  25  47  1   
 52  26  48  1   
@<TRIPOS>SUBSTRUCTURE
  1 ****   3 GROUP 4 **** **** 0

# MOE 2024.06 (io_trps.svl 2023.06)
