@<TRIPOS>MOLECULE
NONAME
45 46 1 0 0 
SMALL
USER_CHARGES


@<TRIPOS>ATOM
  1 O       -0.4790     2.0040    -1.6030 O.3   1 <1>  -0.3630 
  2 C       -0.1710     2.5410    -0.3870 C.ar  1 <1>   0.0830 
  3 C        0.4550     1.9630    -2.6580 C.3   1 <1>   0.0400 
  4 C       -1.1430     2.4980     0.6170 C.ar  1 <1>   0.0830 
  5 C        1.0650     3.1240    -0.1210 C.ar  1 <1>  -0.1500 
  6 O       -2.3440     1.9170     0.3250 O.3   1 <1>  -0.3630 
  7 C       -0.8600     3.0420     1.8660 C.ar  1 <1>  -0.1500 
  8 C        1.3420     3.6610     1.1270 C.ar  1 <1>  -0.1430 
  9 C       -3.3630     1.7920     1.2900 C.3   1 <1>   0.0400 
 10 C        0.3730     3.6190     2.1160 C.ar  1 <1>  -0.1500 
 11 C        2.6940     4.2980     1.3950 C.3   1 <1>   0.3530 
 12 N        2.6550     5.6670     0.8540 N.pl3 1 <1>  -0.8690 
 13 C        3.7610     6.3460     0.4110 C.ar  1 <1>   0.4100 
 14 N        4.9350     5.8630     0.7610 N.ar  1 <1>  -0.6200 
 15 C        3.6450     7.4920    -0.3670 C.ar  1 <1>  -0.1430 
 16 C        5.9850     6.5290     0.3310 C.ar  1 <1>   0.4770 
 17 C        4.8220     8.0890    -0.7490 C.ar  1 <1>   0.1600 
 18 C        2.2600     8.0260    -0.7500 C.3   1 <1>  -0.0170 
 19 N        6.0050     7.6200    -0.4090 N.ar  1 <1>  -0.6200 
 20 C        7.3320     5.9830     0.7370 C.3   1 <1>  -0.0970 
 21 C        2.2600     9.3070    -1.5970 C.3   1 <1>  -0.1600 
 22 C        0.8320     9.7570    -1.9240 C.3   1 <1>  -0.2400 
 23 H       -0.0120     1.4800    -3.4970 H     1 <1>   0.0800 
 24 H        1.3130     1.3960    -2.3410 H     1 <1>   0.0800 
 25 H        0.7290     2.9690    -2.9210 H     1 <1>   0.0800 
 26 H        1.8270     3.1740    -0.8750 H     1 <1>   0.1500 
 27 H       -1.5840     3.0280     2.6570 H     1 <1>   0.1500 
 28 H       -4.1950     1.2910     0.8290 H     1 <1>   0.0800 
 29 H       -3.6620     2.7730     1.6130 H     1 <1>   0.0800 
 30 H       -2.9950     1.2070     2.1130 H     1 <1>   0.0800 
 31 H        0.5750     4.0400     3.0870 H     1 <1>   0.1500 
 32 H        3.4730     3.7300     0.9160 H     1 <1>   0.0800 
 33 H        2.8980     4.3370     2.4510 H     1 <1>   0.0800 
 34 H        1.7440     5.9110     0.4660 H     1 <1>   0.4000 
 35 H        4.8220     8.9800    -1.3510 H     1 <1>   0.1500 
 36 H        1.7100     8.2140     0.1560 H     1 <1>   0.0800 
 37 H        1.7410     7.2560    -1.2950 H     1 <1>   0.0800 
 38 H        7.2580     4.9350     0.9600 H     1 <1>   0.0800 
 39 H        7.6760     6.5060     1.6080 H     1 <1>   0.0800 
 40 H        8.0390     6.1210    -0.0600 H     1 <1>   0.0800 
 41 H        2.7890     9.1330    -2.5190 H     1 <1>   0.0800 
 42 H        2.7590    10.0960    -1.0600 H     1 <1>   0.0800 
 43 H        0.3130     8.9970    -2.4810 H     1 <1>   0.0800 
 44 H        0.8560    10.6560    -2.5160 H     1 <1>   0.0800 
 45 H        0.2830     9.9610    -1.0210 H     1 <1>   0.0800 
@<TRIPOS>BOND
  1   1   2  1   
  2   1   3  1   
  3   2   4  ar  
  4   2   5  ar  
  5   3  23  1   
  6   3  24  1   
  7   3  25  1   
  8   4   6  1   
  9   4   7  ar  
 10   5   8  ar  
 11   5  26  1   
 12   6   9  1   
 13   7  10  ar  
 14   7  27  1   
 15   8  10  ar  
 16   8  11  1   
 17   9  28  1   
 18   9  29  1   
 19   9  30  1   
 20  10  31  1   
 21  11  12  1   
 22  11  32  1   
 23  11  33  1   
 24  12  13  1   
 25  12  34  1   
 26  13  14  ar  
 27  13  15  ar  
 28  14  16  ar  
 29  15  17  ar  
 30  15  18  1   
 31  16  19  ar  
 32  16  20  1   
 33  17  19  ar  
 34  17  35  1   
 35  18  21  1   
 36  18  36  1   
 37  18  37  1   
 38  20  38  1   
 39  20  39  1   
 40  20  40  1   
 41  21  22  1   
 42  21  41  1   
 43  21  42  1   
 44  22  43  1   
 45  22  44  1   
 46  22  45  1   
@<TRIPOS>SUBSTRUCTURE
  1 ****  12 GROUP 4 **** **** 0

# MOE 2024.06 (io_trps.svl 2023.06)
