@<TRIPOS>MOLECULE
NONAME
43 47 1 0 0 
SMALL
USER_CHARGES


@<TRIPOS>ATOM
  1 S       -0.6730     0.2870    -0.9680 S.3   1 <1>  -0.0800 
  2 C       -1.6060    -1.1260    -0.4440 C.2   1 <1>   0.4620 
  3 C        0.8120    -0.5770    -0.6460 C.ar  1 <1>   0.0400 
  4 N       -0.8790    -2.1160    -0.0740 N.2   1 <1>  -0.5650 
  5 N       -2.9830    -1.0790    -0.4580 N.pl3 1 <1>  -0.8220 
  6 C        0.4730    -1.8320    -0.1790 C.ar  1 <1>   0.2270 
  7 C        2.1130    -0.1420    -0.8070 C.ar  1 <1>  -0.1500 
  8 C       -3.8000     0.1000    -0.8820 C.3   1 <1>   0.2090 
  9 C       -3.7620    -2.2520     0.0410 C.3   1 <1>   0.2090 
 10 C        1.5040    -2.7040     0.1460 C.ar  1 <1>  -0.1500 
 11 C        3.1280    -1.0260    -0.4760 C.ar  1 <1>  -0.1500 
 12 C       -4.6400     0.6370     0.3000 C.3   1 <1>   0.1430 
 13 C       -5.1990    -1.8630     0.4310 C.3   1 <1>  -0.1600 
 14 C        2.8220    -2.3000    -0.0030 C.ar  1 <1>  -0.1500 
 15 C       -5.7080     1.5490    -0.2820 C.ar  1 <1>   0.1660 
 16 C       -5.2320    -0.5110     1.1640 C.3   1 <1>  -0.1600 
 17 C       -3.8150     1.6220     1.1700 C.3   1 <1>  -0.1600 
 18 N       -6.7920     1.1540    -0.9070 N.ar  1 <1>  -0.6200 
 19 C       -5.3980     2.8650    -0.0960 C.ar  1 <1>  -0.1440 
 20 C       -4.0880     3.0370     0.6310 C.3   1 <1>  -0.0160 
 21 C       -7.5600     2.1450    -1.3350 C.ar  1 <1>   0.7200 
 22 C       -6.2770     3.8050    -0.5780 C.ar  1 <1>   0.1600 
 23 N       -7.3780     3.4510    -1.2020 N.ar  1 <1>  -0.6200 
 24 N       -8.6780     1.7790    -1.9630 N.pl3 1 <1>  -0.9000 
 25 H        2.3230     0.8460    -1.1750 H     1 <1>   0.1500 
 26 H       -4.4630    -0.2200    -1.6690 H     1 <1>   0.0800 
 27 H       -3.1930     0.8870    -1.2890 H     1 <1>   0.0800 
 28 H       -3.2620    -2.6530     0.9070 H     1 <1>   0.0800 
 29 H       -3.7780    -3.0160    -0.7170 H     1 <1>   0.0800 
 30 H        1.2580    -3.6850     0.5100 H     1 <1>   0.1500 
 31 H        4.1570    -0.7290    -0.5860 H     1 <1>   0.1500 
 32 H       -5.6130    -2.6320     1.0580 H     1 <1>   0.0800 
 33 H       -5.8080    -1.8090    -0.4550 H     1 <1>   0.0800 
 34 H        3.6190    -2.9770     0.2500 H     1 <1>   0.1500 
 35 H       -6.2400    -0.2730     1.4560 H     1 <1>   0.0800 
 36 H       -4.6510    -0.6230     2.0630 H     1 <1>   0.0800 
 37 H       -2.7660     1.3830     1.1700 H     1 <1>   0.0800 
 38 H       -4.1690     1.5880     2.1860 H     1 <1>   0.0800 
 39 H       -3.3220     3.3340    -0.0640 H     1 <1>   0.0800 
 40 H       -4.1630     3.7570     1.4280 H     1 <1>   0.0800 
 41 H       -6.0760     4.8550    -0.4510 H     1 <1>   0.1500 
 42 H       -9.3990     2.4920    -2.0070 H     1 <1>   0.4000 
 43 H       -8.9800     0.8260    -1.7830 H     1 <1>   0.4000 
@<TRIPOS>BOND
  1   1   2  1   
  2   1   3  1   
  3   2   4  2   
  4   2   5  1   
  5   3   6  ar  
  6   3   7  ar  
  7   4   6  1   
  8   5   8  1   
  9   5   9  1   
 10   6  10  ar  
 11   7  11  ar  
 12   7  25  1   
 13   8  12  1   
 14   8  26  1   
 15   8  27  1   
 16   9  13  1   
 17   9  28  1   
 18   9  29  1   
 19  10  14  ar  
 20  10  30  1   
 21  11  14  ar  
 22  11  31  1   
 23  12  15  1   
 24  12  16  1   
 25  12  17  1   
 26  13  16  1   
 27  13  32  1   
 28  13  33  1   
 29  14  34  1   
 30  15  18  ar  
 31  15  19  ar  
 32  16  35  1   
 33  16  36  1   
 34  17  20  1   
 35  17  37  1   
 36  17  38  1   
 37  18  21  ar  
 38  19  20  1   
 39  19  22  ar  
 40  20  39  1   
 41  20  40  1   
 42  21  23  ar  
 43  21  24  1   
 44  22  23  ar  
 45  22  41  1   
 46  24  42  1   
 47  24  43  1   
@<TRIPOS>SUBSTRUCTURE
  1 ****   8 GROUP 4 **** **** 0

# MOE 2024.06 (io_trps.svl 2023.06)
