@<TRIPOS>MOLECULE
NONAME
46 48 1 0 0 
SMALL
USER_CHARGES


@<TRIPOS>ATOM
  1 F       -0.8130    -0.1430    -0.6510 F     1 <1>  -0.1900 
  2 C       -1.1800    -1.3610    -0.3370 C.ar  1 <1>   0.1900 
  3 C       -0.4010    -2.1810     0.4870 C.ar  1 <1>   0.0830 
  4 C       -2.3780    -1.7980    -0.8670 C.ar  1 <1>  -0.1500 
  5 O        0.7930    -1.8640     1.0680 O.3   1 <1>  -0.3630 
  6 C       -0.8730    -3.4560     0.7540 C.ar  1 <1>  -0.1500 
  7 C       -2.8160    -3.0770    -0.5810 C.ar  1 <1>  -0.1500 
  8 C        1.3690    -0.5790     0.9880 C.3   1 <1>   0.0400 
  9 C       -2.0790    -3.9350     0.2360 C.ar  1 <1>   0.0530 
 10 C       -2.5190    -5.2790     0.5300 C.2   1 <1>   0.0870 
 11 O       -1.6170    -6.2250     0.6690 O.3   1 <1>  -0.0190 
 12 C       -3.7340    -5.8710     0.6940 C.2   1 <1>  -0.2330 
 13 N       -2.1380    -7.4000     0.9050 N.2   1 <1>  -0.4100 
 14 C       -3.4070    -7.2040     0.9310 C.2   1 <1>   0.3720 
 15 C       -5.0770    -5.3730     0.6540 C.2   1 <1>   1.0330 
 16 N       -4.3410    -8.2030     1.1520 N.pl3 1 <1>  -0.8520 
 17 O       -5.3190    -4.1580     0.7130 O.co2 1 <1>  -0.9000 
 18 O       -6.0380    -6.1610     0.5420 O.co2 1 <1>  -0.9000 
 19 C       -4.3070    -9.2930     0.1380 C.3   1 <1>   0.2090 
 20 C       -5.4680   -10.2910     0.3430 C.3   1 <1>   0.2800 
 21 O       -5.4500   -10.6440     1.6780 O.3   1 <1>  -0.6800 
 22 C       -5.2740   -11.5690    -0.4950 C.3   1 <1>  -0.1600 
 23 C       -6.8350    -9.6410     0.0460 C.3   1 <1>  -0.1600 
 24 C       -6.4530   -12.5500    -0.3790 C.3   1 <1>  -0.1600 
 25 C       -8.0090   -10.6290     0.1530 C.3   1 <1>  -0.1600 
 26 C       -7.7800   -11.8640    -0.7290 C.3   1 <1>  -0.1600 
 27 H       -2.9630    -1.1490    -1.4920 H     1 <1>   0.1500 
 28 H       -0.2870    -4.0960     1.3880 H     1 <1>   0.1500 
 29 H       -3.7510    -3.4170    -0.9930 H     1 <1>   0.1500 
 30 H        2.2690    -0.5790     1.5750 H     1 <1>   0.0800 
 31 H        0.6750     0.1410     1.3860 H     1 <1>   0.0800 
 32 H        1.6040    -0.3630    -0.0390 H     1 <1>   0.0800 
 33 H       -5.2630    -7.7160     1.0710 H     1 <1>   0.4000 
 34 H       -3.3700    -9.8160     0.2170 H     1 <1>   0.0800 
 35 H       -4.3670    -8.8660    -0.8490 H     1 <1>   0.0800 
 36 H       -5.1500    -9.8350     2.1530 H     1 <1>   0.4000 
 37 H       -4.3650   -12.0590    -0.1930 H     1 <1>   0.0800 
 38 H       -5.1650   -11.2880    -1.5270 H     1 <1>   0.0800 
 39 H       -6.8160    -9.2400    -0.9510 H     1 <1>   0.0800 
 40 H       -7.0010    -8.8110     0.7120 H     1 <1>   0.0800 
 41 H       -6.5030   -12.9230     0.6300 H     1 <1>   0.0800 
 42 H       -6.2940   -13.3890    -1.0340 H     1 <1>   0.0800 
 43 H       -8.9200   -10.1360    -0.1370 H     1 <1>   0.0800 
 44 H       -8.1140   -10.9400     1.1790 H     1 <1>   0.0800 
 45 H       -8.5910   -12.5580    -0.5900 H     1 <1>   0.0800 
 46 H       -7.7710   -11.5670    -1.7640 H     1 <1>   0.0800 
@<TRIPOS>BOND
  1   1   2  1   
  2   2   3  ar  
  3   2   4  ar  
  4   3   5  1   
  5   3   6  ar  
  6   4   7  ar  
  7   4  27  1   
  8   5   8  1   
  9   6   9  ar  
 10   6  28  1   
 11   7   9  ar  
 12   7  29  1   
 13   8  30  1   
 14   8  31  1   
 15   8  32  1   
 16   9  10  1   
 17  10  11  1   
 18  10  12  2   
 19  11  13  1   
 20  12  14  1   
 21  12  15  1   
 22  13  14  2   
 23  14  16  1   
 24  15  17  ar  
 25  15  18  ar  
 26  16  19  1   
 27  16  33  1   
 28  19  20  1   
 29  19  34  1   
 30  19  35  1   
 31  20  21  1   
 32  20  22  1   
 33  20  23  1   
 34  21  36  1   
 35  22  24  1   
 36  22  37  1   
 37  22  38  1   
 38  23  25  1   
 39  23  39  1   
 40  23  40  1   
 41  24  26  1   
 42  24  41  1   
 43  24  42  1   
 44  25  26  1   
 45  25  43  1   
 46  25  44  1   
 47  26  45  1   
 48  26  46  1   
@<TRIPOS>SUBSTRUCTURE
  1 ****  12 GROUP 4 **** **** 0

# MOE 2024.06 (io_trps.svl 2023.06)
