@<TRIPOS>MOLECULE
NONAME
36 36 1 0 0 
SMALL
USER_CHARGES


@<TRIPOS>ATOM
  1 O       -0.2860    -0.3240    -0.9140 O.2   1 <1>  -0.5700 
  2 C       -0.4660    -1.4000    -0.3850 C.2   1 <1>   0.7800 
  3 O        0.5260    -2.0660     0.2060 O.3   1 <1>  -0.4300 
  4 N       -1.6910    -1.9900    -0.3690 N.am  1 <1>  -0.6600 
  5 C        1.8850    -1.6980     0.2730 C.3   1 <1>   0.2800 
  6 C       -1.9460    -3.3660     0.1150 C.3   1 <1>   0.4200 
  7 C       -2.9530    -1.2260    -0.5950 C.3   1 <1>   0.2810 
  8 C        2.4780    -1.6110    -1.1380 C.3   1 <1>  -0.2400 
  9 C        2.5650    -2.8330     1.0370 C.3   1 <1>  -0.2400 
 10 C        2.0410    -0.3900     1.0580 C.3   1 <1>  -0.2400 
 11 C       -1.1150    -4.4260    -0.5560 C.1   1 <1>   0.3570 
 12 C       -3.4400    -3.5720    -0.1530 C.3   1 <1>  -0.1600 
 13 C       -3.0200     0.1490     0.0990 C.2   1 <1>   0.6590 
 14 C       -4.0540    -2.1730    -0.0990 C.3   1 <1>  -0.1600 
 15 N       -0.5130    -5.2530    -1.0580 N.1   1 <1>  -0.5570 
 16 O       -2.8610     0.2750     1.2900 O.2   1 <1>  -0.5700 
 17 O       -3.2920     1.1870    -0.6860 O.3   1 <1>  -0.4300 
 18 C       -3.3250     2.5060    -0.1840 C.3   1 <1>   0.0400 
 19 H       -1.7590    -3.3910     1.1750 H     1 <1>   0.0800 
 20 H       -3.0600    -1.0770    -1.6550 H     1 <1>   0.0800 
 21 H        2.2840    -2.5190    -1.6800 H     1 <1>   0.0800 
 22 H        3.5410    -1.4680    -1.0810 H     1 <1>   0.0800 
 23 H        2.0680    -0.7800    -1.6820 H     1 <1>   0.0800 
 24 H        2.4360    -3.7640     0.5130 H     1 <1>   0.0800 
 25 H        2.1470    -2.9240     2.0230 H     1 <1>   0.0800 
 26 H        3.6190    -2.6420     1.1320 H     1 <1>   0.0800 
 27 H        1.6320     0.4410     0.5130 H     1 <1>   0.0800 
 28 H        3.0820    -0.1870     1.2280 H     1 <1>   0.0800 
 29 H        1.5470    -0.4640     2.0100 H     1 <1>   0.0800 
 30 H       -3.8820    -4.2410     0.5650 H     1 <1>   0.0800 
 31 H       -3.5780    -3.9840    -1.1390 H     1 <1>   0.0800 
 32 H       -4.9440    -2.0930    -0.6990 H     1 <1>   0.0800 
 33 H       -4.3060    -1.9330     0.9200 H     1 <1>   0.0800 
 34 H       -3.5560     3.1750    -0.9940 H     1 <1>   0.0800 
 35 H       -2.3580     2.7430     0.2270 H     1 <1>   0.0800 
 36 H       -4.0800     2.5710     0.5810 H     1 <1>   0.0800 
@<TRIPOS>BOND
  1   1   2  2   
  2   2   3  1   
  3   2   4  am  
  4   3   5  1   
  5   4   6  1   
  6   4   7  1   
  7   5   8  1   
  8   5   9  1   
  9   5  10  1   
 10   6  11  1   
 11   6  12  1   
 12   6  19  1   
 13   7  13  1   
 14   7  14  1   
 15   7  20  1   
 16   8  21  1   
 17   8  22  1   
 18   8  23  1   
 19   9  24  1   
 20   9  25  1   
 21   9  26  1   
 22  10  27  1   
 23  10  28  1   
 24  10  29  1   
 25  11  15  3   
 26  12  14  1   
 27  12  30  1   
 28  12  31  1   
 29  13  16  2   
 30  13  17  1   
 31  14  32  1   
 32  14  33  1   
 33  17  18  1   
 34  18  34  1   
 35  18  35  1   
 36  18  36  1   
@<TRIPOS>SUBSTRUCTURE
  1 ****   2 GROUP 4 **** **** 0

# MOE 2024.06 (io_trps.svl 2023.06)
