@<TRIPOS>MOLECULE
NONAME
62 64 1 0 0 
SMALL
USER_CHARGES


@<TRIPOS>ATOM
  1 O        4.7080    -1.0450     1.7230 O.2   1 <1>  -0.5700 
  2 C        3.5890    -1.4090     1.4430 C.2   1 <1>   0.5690 
  3 N        3.0360    -1.3240     0.2160 N.am  1 <1>  -0.6600 
  4 C        2.5970    -1.9360     2.4420 C.3   1 <1>  -0.0990 
  5 C        3.7890    -0.9890    -1.0320 C.3   1 <1>   0.2810 
  6 C        1.6120    -1.7090     0.2000 C.3   1 <1>   0.1400 
  7 C        1.2580    -1.8600     1.6870 C.3   1 <1>  -0.1600 
  8 C        3.4130     0.3700    -1.6850 C.2   1 <1>   0.5690 
  9 C        3.7020    -2.1880    -1.9900 C.3   1 <1>  -0.2400 
 10 O        2.9430     0.3610    -2.8000 O.2   1 <1>  -0.5700 
 11 N        3.7020     1.5770    -1.0760 N.am  1 <1>  -0.6600 
 12 C        3.9960     1.7690     0.3740 C.3   1 <1>   0.1400 
 13 C        3.7960     2.8270    -1.8710 C.3   1 <1>   0.1400 
 14 C        5.5000     1.6650     0.6810 C.3   1 <1>   0.3430 
 15 C        5.2400     3.0420    -2.3460 C.3   1 <1>  -0.1600 
 16 N        6.3420     2.6270    -0.1210 N.4   1 <1>  -0.9590 
 17 C        6.3330     2.2840    -1.5790 C.3   1 <1>   0.3430 
 18 C        7.7250     2.6320     0.4300 C.3   1 <1>   0.3430 
 19 C        8.4750     3.8910    -0.0100 C.3   1 <1>  -0.1600 
 20 C        9.8760     3.9200     0.6180 C.3   1 <1>  -0.1600 
 21 C       10.6600     5.1710     0.2170 C.3   1 <1>   0.1200 
 22 O       11.9180     5.0940     0.8400 O.3   1 <1>  -0.3630 
 23 C       12.8490     6.0660     0.6760 C.ar  1 <1>   0.0820 
 24 C       14.0560     5.8880     1.3330 C.ar  1 <1>  -0.1500 
 25 C       12.6550     7.2060    -0.1010 C.ar  1 <1>  -0.1500 
 26 C       15.0630     6.8310     1.2210 C.ar  1 <1>  -0.1500 
 27 C       13.6630     8.1480    -0.2120 C.ar  1 <1>  -0.1500 
 28 C       14.8660     7.9620     0.4480 C.ar  1 <1>  -0.1500 
 29 H        2.5910    -1.3370     3.3340 H     1 <1>   0.0800 
 30 H        2.8510    -2.9520     2.6810 H     1 <1>   0.0800 
 31 H        4.8260    -0.9040    -0.7650 H     1 <1>   0.0800 
 32 H        1.4920    -2.6480    -0.3150 H     1 <1>   0.0800 
 33 H        1.0130    -0.9500    -0.2770 H     1 <1>   0.0800 
 34 H        0.7100    -0.9900     2.0040 H     1 <1>   0.0800 
 35 H        0.6480    -2.7300     1.8580 H     1 <1>   0.0800 
 36 H        2.7000    -2.3050    -2.3630 H     1 <1>   0.0800 
 37 H        4.0110    -3.0900    -1.4930 H     1 <1>   0.0800 
 38 H        4.3500    -2.0250    -2.8320 H     1 <1>   0.0800 
 39 H        3.4490     1.0580     0.9590 H     1 <1>   0.0800 
 40 H        3.6410     2.7340     0.6900 H     1 <1>   0.0800 
 41 H        3.4730     3.6620    -1.2730 H     1 <1>   0.0800 
 42 H        3.1350     2.7790    -2.7230 H     1 <1>   0.0800 
 43 H        5.8230     0.6530     0.4960 H     1 <1>   0.0800 
 44 H        5.6390     1.8530     1.7330 H     1 <1>   0.0800 
 45 H        5.4600     4.0940    -2.3620 H     1 <1>   0.0800 
 46 H        5.2870     2.7120    -3.3690 H     1 <1>   0.0800 
 47 H        5.9480     3.5690    -0.0120 H     1 <1>   0.4500 
 48 H        7.2850     2.5290    -2.0200 H     1 <1>   0.0800 
 49 H        6.1830     1.2230    -1.7010 H     1 <1>   0.0800 
 50 H        8.2570     1.7510     0.1070 H     1 <1>   0.0800 
 51 H        7.6840     2.6180     1.5080 H     1 <1>   0.0800 
 52 H        7.9330     4.7650     0.3090 H     1 <1>   0.0800 
 53 H        8.5760     3.9140    -1.0810 H     1 <1>   0.0800 
 54 H       10.4330     3.0530     0.3020 H     1 <1>   0.0800 
 55 H        9.7930     3.9000     1.6920 H     1 <1>   0.0800 
 56 H       10.1680     6.0640     0.5600 H     1 <1>   0.0800 
 57 H       10.8130     5.2100    -0.8480 H     1 <1>   0.0800 
 58 H       14.2010     5.0080     1.9320 H     1 <1>   0.1500 
 59 H       11.7340     7.3780    -0.6240 H     1 <1>   0.1500 
 60 H       15.9970     6.6850     1.7350 H     1 <1>   0.1500 
 61 H       13.5140     9.0290    -0.8120 H     1 <1>   0.1500 
 62 H       15.6480     8.6960     0.3600 H     1 <1>   0.1500 
@<TRIPOS>BOND
  1   1   2  2   
  2   2   3  am  
  3   2   4  1   
  4   3   5  1   
  5   3   6  1   
  6   4   7  1   
  7   4  29  1   
  8   4  30  1   
  9   5   8  1   
 10   5   9  1   
 11   5  31  1   
 12   6   7  1   
 13   6  32  1   
 14   6  33  1   
 15   7  34  1   
 16   7  35  1   
 17   8  10  2   
 18   8  11  am  
 19   9  36  1   
 20   9  37  1   
 21   9  38  1   
 22  11  12  1   
 23  11  13  1   
 24  12  14  1   
 25  12  39  1   
 26  12  40  1   
 27  13  15  1   
 28  13  41  1   
 29  13  42  1   
 30  14  16  1   
 31  14  43  1   
 32  14  44  1   
 33  15  17  1   
 34  15  45  1   
 35  15  46  1   
 36  16  17  1   
 37  16  18  1   
 38  16  47  1   
 39  17  48  1   
 40  17  49  1   
 41  18  19  1   
 42  18  50  1   
 43  18  51  1   
 44  19  20  1   
 45  19  52  1   
 46  19  53  1   
 47  20  21  1   
 48  20  54  1   
 49  20  55  1   
 50  21  22  1   
 51  21  56  1   
 52  21  57  1   
 53  22  23  1   
 54  23  24  ar  
 55  23  25  ar  
 56  24  26  ar  
 57  24  58  1   
 58  25  27  ar  
 59  25  59  1   
 60  26  28  ar  
 61  26  60  1   
 62  27  28  ar  
 63  27  61  1   
 64  28  62  1   
@<TRIPOS>SUBSTRUCTURE
  1 ****  16 GROUP 4 **** **** 0

# MOE 2024.06 (io_trps.svl 2023.06)
