@<TRIPOS>MOLECULE
NONAME
48 51 1 0 0 
SMALL
USER_CHARGES


@<TRIPOS>ATOM
  1 O       -0.3650     0.2980    -0.8750 O.2   1 <1>  -0.5700 
  2 C       -1.2660     0.7900    -0.2260 C.2   1 <1>   0.5440 
  3 N       -2.2390    -0.0280     0.3030 N.am  1 <1>  -0.6600 
  4 C       -1.3080     2.2180    -0.0320 C.ar  1 <1>   0.0860 
  5 C       -2.2310    -1.5150     0.1150 C.3   1 <1>   0.1400 
  6 C       -3.4880     0.4620     0.9660 C.3   1 <1>   0.1400 
  7 C       -0.8020     2.8170     1.1130 C.ar  1 <1>   0.1660 
  8 C       -1.8920     3.0710    -0.9570 C.ar  1 <1>   0.1660 
  9 C       -3.5490    -2.0010    -0.5180 C.3   1 <1>   0.3440 
 10 C       -4.7340    -0.1220     0.2720 C.3   1 <1>   0.2950 
 11 N       -0.8990     4.1090     1.3350 N.ar  1 <1>  -0.6200 
 12 C       -0.1110     2.0060     2.1970 C.3   1 <1>  -0.0960 
 13 N       -2.0010     4.3650    -0.7530 N.ar  1 <1>  -0.6200 
 14 C       -2.4660     2.5600    -2.2690 C.3   1 <1>  -0.0960 
 15 O       -4.6490    -1.5150     0.2100 O.3   1 <1>  -0.5600 
 16 C       -3.5930    -3.5260    -0.5560 C.ar  1 <1>  -0.1440 
 17 C       -6.0150     0.2310     1.0330 C.3   1 <1>  -0.1950 
 18 C       -1.4930     4.8100     0.3840 C.ar  1 <1>   0.4700 
 19 C       -3.0920    -4.1960    -1.6640 C.ar  1 <1>  -0.1500 
 20 C       -4.1090    -4.2640     0.5000 C.ar  1 <1>  -0.1500 
 21 C       -7.3450     0.2400     0.3490 C.3   1 <1>  -0.2000 
 22 C       -6.7190     1.5310     0.7960 C.3   1 <1>  -0.2000 
 23 C       -3.1060    -5.5800    -1.7140 C.ar  1 <1>  -0.1500 
 24 C       -4.1240    -5.6470     0.4510 C.ar  1 <1>  -0.1500 
 25 C       -3.6220    -6.3060    -0.6570 C.ar  1 <1>  -0.1500 
 26 H       -1.4110    -1.8190    -0.5110 H     1 <1>   0.0800 
 27 H       -2.1050    -1.9920     1.0710 H     1 <1>   0.0800 
 28 H       -3.4830     0.1550     1.9970 H     1 <1>   0.0800 
 29 H       -3.5480     1.5350     0.9420 H     1 <1>   0.0800 
 30 H       -3.6270    -1.6220    -1.5220 H     1 <1>   0.0800 
 31 H       -4.8010     0.2540    -0.7340 H     1 <1>   0.0800 
 32 H        0.4870     1.2220     1.7670 H     1 <1>   0.0800 
 33 H       -0.8440     1.5730     2.8510 H     1 <1>   0.0800 
 34 H        0.5370     2.6390     2.7760 H     1 <1>   0.0800 
 35 H       -1.8920     1.7350    -2.6500 H     1 <1>   0.0800 
 36 H       -2.4490     3.3430    -3.0060 H     1 <1>   0.0800 
 37 H       -3.4830     2.2480    -2.1240 H     1 <1>   0.0800 
 38 H       -5.9930    -0.1340     2.0460 H     1 <1>   0.1000 
 39 H       -1.5720     5.8710     0.5570 H     1 <1>   0.1500 
 40 H       -2.6850    -3.6460    -2.4950 H     1 <1>   0.1500 
 41 H       -4.5060    -3.7610     1.3650 H     1 <1>   0.1500 
 42 H       -7.3860     0.0110    -0.7030 H     1 <1>   0.1000 
 43 H       -8.1960    -0.1440     0.8840 H     1 <1>   0.1000 
 44 H       -7.1540     2.0470     1.6350 H     1 <1>   0.1000 
 45 H       -6.3570     2.2070     0.0410 H     1 <1>   0.1000 
 46 H       -2.7150    -6.0910    -2.5770 H     1 <1>   0.1500 
 47 H       -4.5290    -6.2090     1.2750 H     1 <1>   0.1500 
 48 H       -3.6340    -7.3810    -0.6950 H     1 <1>   0.1500 
@<TRIPOS>BOND
  1   1   2  2   
  2   2   3  am  
  3   2   4  1   
  4   3   5  1   
  5   3   6  1   
  6   4   7  ar  
  7   4   8  ar  
  8   5   9  1   
  9   5  26  1   
 10   5  27  1   
 11   6  10  1   
 12   6  28  1   
 13   6  29  1   
 14   7  11  ar  
 15   7  12  1   
 16   8  13  ar  
 17   8  14  1   
 18   9  15  1   
 19   9  16  1   
 20   9  30  1   
 21  10  15  1   
 22  10  17  1   
 23  10  31  1   
 24  11  18  ar  
 25  12  32  1   
 26  12  33  1   
 27  12  34  1   
 28  13  18  ar  
 29  14  35  1   
 30  14  36  1   
 31  14  37  1   
 32  16  19  ar  
 33  16  20  ar  
 34  17  21  1   
 35  17  22  1   
 36  17  38  1   
 37  18  39  1   
 38  19  23  ar  
 39  19  40  1   
 40  20  24  ar  
 41  20  41  1   
 42  21  22  1   
 43  21  42  1   
 44  21  43  1   
 45  22  44  1   
 46  22  45  1   
 47  23  25  ar  
 48  23  46  1   
 49  24  25  ar  
 50  24  47  1   
 51  25  48  1   
@<TRIPOS>SUBSTRUCTURE
  1 ****   3 GROUP 4 **** **** 0

# MOE 2024.06 (io_trps.svl 2023.06)
