@<TRIPOS>MOLECULE
NONAME
53 56 1 0 0 
SMALL
USER_CHARGES


@<TRIPOS>ATOM
  1 O       -0.5620     0.2480     0.3050 O.2   1 <1>  -0.5700 
  2 C       -1.5580     0.9130     0.5550 C.2   1 <1>   0.7160 
  3 N       -2.7580     0.2260     0.6530 N.am  1 <1>  -0.6600 
  4 C       -1.4310     2.3630     0.7240 C.2   1 <1>   0.2030 
  5 C       -2.8210    -1.2550     0.8620 C.3   1 <1>   0.1400 
  6 C       -4.1030     0.8560     0.4830 C.3   1 <1>   0.1400 
  7 N       -2.3050     3.2090     1.2660 N.2   1 <1>  -0.7070 
  8 C       -0.2970     3.0860     0.3270 C.2   1 <1>  -0.1810 
  9 C       -3.7420    -1.9240    -0.1710 C.3   1 <1>   0.3440 
 10 C       -4.9810     0.0600    -0.5140 C.3   1 <1>   0.2000 
 11 N       -1.7280     4.4250     1.2130 N.pl3 1 <1>   0.3000 
 12 C       -0.5150     4.3540     0.6430 C.2   1 <1>  -0.3320 
 13 C        1.0490     2.8810    -0.3110 C.3   1 <1>   0.0210 
 14 O       -4.9980    -1.3010    -0.1610 O.3   1 <1>  -0.5600 
 15 C       -3.9050    -3.4100     0.1330 C.ar  1 <1>  -0.1430 
 16 C       -6.4480     0.5730    -0.6420 C.3   1 <1>   0.0000 
 17 C        0.6120     5.2830     0.2940 C.3   1 <1>   0.0200 
 18 C        1.6020     4.3260    -0.4160 C.3   1 <1>  -0.1600 
 19 C       -4.8950    -3.8700     0.9910 C.ar  1 <1>  -0.1500 
 20 C       -3.0410    -4.3270    -0.4480 C.ar  1 <1>  -0.1500 
 21 C       -7.1810    -0.2350    -1.7290 C.3   1 <1>  -0.2400 
 22 C       -7.2320     0.4270     0.6760 C.3   1 <1>  -0.2400 
 23 C       -6.4770     2.0540    -1.0630 C.3   1 <1>  -0.2400 
 24 C       -5.0190    -5.2210     1.2650 C.ar  1 <1>  -0.1500 
 25 C       -3.1620    -5.6790    -0.1760 C.ar  1 <1>  -0.1500 
 26 C       -4.1510    -6.1270     0.6810 C.ar  1 <1>  -0.1500 
 27 H       -1.8430    -1.6960     0.7960 H     1 <1>   0.0800 
 28 H       -3.2020    -1.4550     1.8470 H     1 <1>   0.0800 
 29 H       -4.5830     0.9100     1.4430 H     1 <1>   0.0800 
 30 H       -3.9960     1.8550     0.1070 H     1 <1>   0.0800 
 31 H       -3.3230    -1.8080    -1.1560 H     1 <1>   0.0800 
 32 H       -4.5230     0.1310    -1.4860 H     1 <1>   0.0800 
 33 H       -2.1780     5.2750     1.5740 H     1 <1>   0.2700 
 34 H        1.6660     2.2680     0.3230 H     1 <1>   0.0800 
 35 H        0.9470     2.4210    -1.2780 H     1 <1>   0.0800 
 36 H        0.2830     6.0680    -0.3650 H     1 <1>   0.0800 
 37 H        1.0470     5.7010     1.1860 H     1 <1>   0.0800 
 38 H        1.6820     4.6010    -1.4530 H     1 <1>   0.0800 
 39 H        2.5770     4.3890     0.0330 H     1 <1>   0.0800 
 40 H       -5.5760    -3.1710     1.4470 H     1 <1>   0.1500 
 41 H       -2.2650    -3.9940    -1.1160 H     1 <1>   0.1500 
 42 H       -8.1880     0.1210    -1.8590 H     1 <1>   0.0800 
 43 H       -7.2270    -1.2760    -1.4600 H     1 <1>   0.0800 
 44 H       -6.6680    -0.1550    -2.6710 H     1 <1>   0.0800 
 45 H       -8.2550     0.7280     0.5420 H     1 <1>   0.0800 
 46 H       -6.8060     1.0350     1.4540 H     1 <1>   0.0800 
 47 H       -7.2250    -0.5980     1.0050 H     1 <1>   0.0800 
 48 H       -7.4890     2.3730    -1.2430 H     1 <1>   0.0800 
 49 H       -5.9120     2.2010    -1.9670 H     1 <1>   0.0800 
 50 H       -6.0670     2.6860    -0.2960 H     1 <1>   0.0800 
 51 H       -5.7910    -5.5650     1.9300 H     1 <1>   0.1500 
 52 H       -2.4880    -6.3830    -0.6320 H     1 <1>   0.1500 
 53 H       -4.2470    -7.1780     0.8930 H     1 <1>   0.1500 
@<TRIPOS>BOND
  1   1   2  2   
  2   2   3  am  
  3   2   4  1   
  4   3   5  1   
  5   3   6  1   
  6   4   7  2   
  7   4   8  1   
  8   5   9  1   
  9   5  27  1   
 10   5  28  1   
 11   6  10  1   
 12   6  29  1   
 13   6  30  1   
 14   7  11  1   
 15   8  12  2   
 16   8  13  1   
 17   9  14  1   
 18   9  15  1   
 19   9  31  1   
 20  10  14  1   
 21  10  16  1   
 22  10  32  1   
 23  11  12  1   
 24  11  33  1   
 25  12  17  1   
 26  13  18  1   
 27  13  34  1   
 28  13  35  1   
 29  15  19  ar  
 30  15  20  ar  
 31  16  21  1   
 32  16  22  1   
 33  16  23  1   
 34  17  18  1   
 35  17  36  1   
 36  17  37  1   
 37  18  38  1   
 38  18  39  1   
 39  19  24  ar  
 40  19  40  1   
 41  20  25  ar  
 42  20  41  1   
 43  21  42  1   
 44  21  43  1   
 45  21  44  1   
 46  22  45  1   
 47  22  46  1   
 48  22  47  1   
 49  23  48  1   
 50  23  49  1   
 51  23  50  1   
 52  24  26  ar  
 53  24  51  1   
 54  25  26  ar  
 55  25  52  1   
 56  26  53  1   
@<TRIPOS>SUBSTRUCTURE
  1 ****   3 GROUP 4 **** **** 0

# MOE 2024.06 (io_trps.svl 2023.06)
