@<TRIPOS>MOLECULE
NONAME
49 50 1 0 0 
SMALL
USER_CHARGES


@<TRIPOS>ATOM
  1 O       -1.3490    -1.7290    -1.1350 O.2   1 <1>  -0.5700 
  2 C       -0.1960    -1.5460    -0.7980 C.2   1 <1>   0.5440 
  3 N        0.2300    -0.2630    -0.8860 N.am  1 <1>  -0.8000 
  4 C        0.6760    -2.6150    -0.3500 C.ar  1 <1>   0.0860 
  5 C        0.4680    -3.9600    -0.7190 C.ar  1 <1>   0.4100 
  6 C        1.7710    -2.3490     0.4620 C.ar  1 <1>  -0.1500 
  7 N        1.2650    -4.9640    -0.3610 N.ar  1 <1>  -0.6200 
  8 N       -0.6130    -4.3320    -1.4870 N.pl3 1 <1>  -0.8690 
  9 C        2.6010    -3.3830     0.8370 C.ar  1 <1>  -0.1430 
 10 C        2.3080    -4.6670     0.3890 C.ar  1 <1>   0.1670 
 11 C       -0.6120    -5.4820    -2.4330 C.3   1 <1>   0.2090 
 12 C        3.8040    -3.0840     1.7240 C.3   1 <1>  -0.0970 
 13 C        3.2010    -5.8400     0.7540 C.3   1 <1>  -0.0970 
 14 C       -1.4410    -6.6390    -1.8560 C.3   1 <1>   0.2000 
 15 O       -2.7390    -6.1870    -1.6060 O.3   1 <1>  -0.6800 
 16 C       -0.8440    -7.1550    -0.5320 C.3   1 <1>   0.3430 
 17 N       -1.8570    -7.9510     0.2270 N.4   1 <1>  -0.9590 
 18 C       -1.6320    -7.8470     1.6940 C.3   1 <1>   0.3430 
 19 C       -1.9710    -9.3540    -0.2530 C.3   1 <1>   0.3430 
 20 C       -2.7840    -8.5220     2.4400 C.3   1 <1>  -0.1600 
 21 C       -3.1300   -10.0490     0.4640 C.3   1 <1>  -0.1600 
 22 C       -2.9820    -9.9760     1.9900 C.3   1 <1>  -0.1600 
 23 H       -0.4220     0.4430    -1.2310 H     1 <1>   0.3700 
 24 H        1.2000     0.0280    -0.7790 H     1 <1>   0.3700 
 25 H        1.9670    -1.3470     0.7990 H     1 <1>   0.1500 
 26 H       -1.2000    -3.5240    -1.7730 H     1 <1>   0.4000 
 27 H        0.3980    -5.8090    -2.6160 H     1 <1>   0.0800 
 28 H       -1.0290    -5.1730    -3.3760 H     1 <1>   0.0800 
 29 H        3.7870    -2.0660     2.0700 H     1 <1>   0.0800 
 30 H        4.7160    -3.2360     1.1730 H     1 <1>   0.0800 
 31 H        3.8040    -3.7270     2.5850 H     1 <1>   0.0800 
 32 H        2.9610    -6.6990     0.1540 H     1 <1>   0.0800 
 33 H        3.0650    -6.0930     1.7890 H     1 <1>   0.0800 
 34 H        4.2320    -5.5940     0.5820 H     1 <1>   0.0800 
 35 H       -1.5000    -7.4410    -2.5710 H     1 <1>   0.0800 
 36 H       -2.6790    -5.2390    -1.3430 H     1 <1>   0.4000 
 37 H       -0.5700    -6.2970     0.0560 H     1 <1>   0.0800 
 38 H        0.0510    -7.7270    -0.7130 H     1 <1>   0.0800 
 39 H       -2.7510    -7.4770     0.0020 H     1 <1>   0.4500 
 40 H       -1.5710    -6.8100     1.9840 H     1 <1>   0.0800 
 41 H       -0.7020    -8.3270     1.9540 H     1 <1>   0.0800 
 42 H       -1.0540    -9.8840    -0.0520 H     1 <1>   0.0800 
 43 H       -2.1500    -9.3670    -1.3170 H     1 <1>   0.0800 
 44 H       -3.6880    -7.9610     2.2750 H     1 <1>   0.0800 
 45 H       -2.5800    -8.4990     3.4960 H     1 <1>   0.0800 
 46 H       -3.1660   -11.0800     0.1580 H     1 <1>   0.0800 
 47 H       -4.0570    -9.5910     0.1640 H     1 <1>   0.0800 
 48 H       -3.8580   -10.3890     2.4630 H     1 <1>   0.0800 
 49 H       -2.1350   -10.5660     2.2980 H     1 <1>   0.0800 
@<TRIPOS>BOND
  1   1   2  2   
  2   2   3  am  
  3   2   4  1   
  4   3  23  1   
  5   3  24  1   
  6   4   5  ar  
  7   4   6  ar  
  8   5   7  ar  
  9   5   8  1   
 10   6   9  ar  
 11   6  25  1   
 12   7  10  ar  
 13   8  11  1   
 14   8  26  1   
 15   9  10  ar  
 16   9  12  1   
 17  10  13  1   
 18  11  14  1   
 19  11  27  1   
 20  11  28  1   
 21  12  29  1   
 22  12  30  1   
 23  12  31  1   
 24  13  32  1   
 25  13  33  1   
 26  13  34  1   
 27  14  15  1   
 28  14  16  1   
 29  14  35  1   
 30  15  36  1   
 31  16  17  1   
 32  16  37  1   
 33  16  38  1   
 34  17  18  1   
 35  17  19  1   
 36  17  39  1   
 37  18  20  1   
 38  18  40  1   
 39  18  41  1   
 40  19  21  1   
 41  19  42  1   
 42  19  43  1   
 43  20  22  1   
 44  20  44  1   
 45  20  45  1   
 46  21  22  1   
 47  21  46  1   
 48  21  47  1   
 49  22  48  1   
 50  22  49  1   
@<TRIPOS>SUBSTRUCTURE
  1 ****   7 GROUP 4 **** **** 0

# MOE 2024.06 (io_trps.svl 2023.06)
