@<TRIPOS>MOLECULE
NONAME
46 47 1 0 0 
SMALL
USER_CHARGES


@<TRIPOS>ATOM
  1 O       -1.2320    -0.0650     2.2910 O.2   1 <1>  -0.5700 
  2 C       -1.5380     0.4230     1.2270 C.2   1 <1>   0.5690 
  3 N       -1.9370    -0.3690     0.1810 N.am  1 <1>  -0.6600 
  4 C       -1.4950     1.9550     1.0870 C.3   1 <1>  -0.0190 
  5 C       -1.9770    -1.8600     0.3260 C.3   1 <1>   0.3640 
  6 C       -2.5510     0.1600    -1.0780 C.3   1 <1>   0.1400 
  7 C       -0.2840     2.5400     1.8560 C.3   1 <1>  -0.1600 
  8 C       -2.8460     2.5620     1.5390 C.3   1 <1>  -0.1600 
  9 C       -0.8170    -2.4910    -0.4640 C.ar  1 <1>  -0.1440 
 10 C       -3.4020    -2.3650    -0.0280 C.3   1 <1>   0.2000 
 11 C       -3.1520    -0.9400    -1.9730 C.3   1 <1>   0.1200 
 12 C       -0.0560     4.0420     1.6450 C.3   1 <1>  -0.2400 
 13 C       -3.3210     3.7250     0.6540 C.3   1 <1>  -0.2400 
 14 C       -0.9910    -3.4320    -1.4750 C.ar  1 <1>  -0.1500 
 15 C        0.4780    -2.1130    -0.1330 C.ar  1 <1>  -0.1500 
 16 O       -3.9310    -1.8550    -1.2470 O.3   1 <1>  -0.5600 
 17 C       -4.3900    -2.0040     1.0930 C.3   1 <1>   0.1200 
 18 C        0.0990    -3.9690    -2.1380 C.ar  1 <1>  -0.1500 
 19 C        1.5690    -2.6470    -0.7940 C.ar  1 <1>  -0.1500 
 20 O       -5.6740    -2.3450     0.6960 O.3   1 <1>  -0.6800 
 21 C        1.3810    -3.5760    -1.8000 C.ar  1 <1>  -0.1500 
 22 H       -1.3370     2.1830     0.0510 H     1 <1>   0.0800 
 23 H       -1.8050    -2.1290     1.3540 H     1 <1>   0.0800 
 24 H       -3.3320     0.8550    -0.8250 H     1 <1>   0.0800 
 25 H       -1.8020     0.6880    -1.6410 H     1 <1>   0.0800 
 26 H       -0.3990     2.3480     2.9090 H     1 <1>   0.0800 
 27 H        0.6020     2.0170     1.5350 H     1 <1>   0.0800 
 28 H       -3.6060     1.8000     1.5060 H     1 <1>   0.0800 
 29 H       -2.7770     2.8840     2.5640 H     1 <1>   0.0800 
 30 H       -3.3820    -3.4370    -0.1050 H     1 <1>   0.0800 
 31 H       -2.3710    -1.4770    -2.4790 H     1 <1>   0.0800 
 32 H       -3.7840    -0.4980    -2.7230 H     1 <1>   0.0800 
 33 H       -0.8420     4.6140     2.1050 H     1 <1>   0.0800 
 34 H       -0.0110     4.2770     0.5970 H     1 <1>   0.0800 
 35 H        0.8750     4.3340     2.1000 H     1 <1>   0.0800 
 36 H       -3.4560     3.3960    -0.3610 H     1 <1>   0.0800 
 37 H       -2.6200     4.5370     0.6610 H     1 <1>   0.0800 
 38 H       -4.2650     4.0940     1.0170 H     1 <1>   0.0800 
 39 H       -1.9710    -3.7640    -1.7690 H     1 <1>   0.1500 
 40 H        0.6420    -1.3940     0.6530 H     1 <1>   0.1500 
 41 H       -4.3700    -0.9460     1.2880 H     1 <1>   0.0800 
 42 H       -4.1630    -2.5330     2.0020 H     1 <1>   0.0800 
 43 H       -0.0500    -4.6940    -2.9200 H     1 <1>   0.1500 
 44 H        2.5640    -2.3390    -0.5230 H     1 <1>   0.1500 
 45 H       -5.7480    -2.1370    -0.2610 H     1 <1>   0.4000 
 46 H        2.2280    -3.9930    -2.3160 H     1 <1>   0.1500 
@<TRIPOS>BOND
  1   1   2  2   
  2   2   3  am  
  3   2   4  1   
  4   3   5  1   
  5   3   6  1   
  6   4   7  1   
  7   4   8  1   
  8   4  22  1   
  9   5   9  1   
 10   5  10  1   
 11   5  23  1   
 12   6  11  1   
 13   6  24  1   
 14   6  25  1   
 15   7  12  1   
 16   7  26  1   
 17   7  27  1   
 18   8  13  1   
 19   8  28  1   
 20   8  29  1   
 21   9  14  ar  
 22   9  15  ar  
 23  10  16  1   
 24  10  17  1   
 25  10  30  1   
 26  11  16  1   
 27  11  31  1   
 28  11  32  1   
 29  12  33  1   
 30  12  34  1   
 31  12  35  1   
 32  13  36  1   
 33  13  37  1   
 34  13  38  1   
 35  14  18  ar  
 36  14  39  1   
 37  15  19  ar  
 38  15  40  1   
 39  17  20  1   
 40  17  41  1   
 41  17  42  1   
 42  18  21  ar  
 43  18  43  1   
 44  19  21  ar  
 45  19  44  1   
 46  20  45  1   
 47  21  46  1   
@<TRIPOS>SUBSTRUCTURE
  1 ****   3 GROUP 4 **** **** 0

# MOE 2024.06 (io_trps.svl 2023.06)
