@<TRIPOS>MOLECULE
NONAME
49 52 1 0 0 
SMALL
USER_CHARGES


@<TRIPOS>ATOM
  1 O        0.8250     0.2910    -0.0190 O.2   1 <1>  -0.5700 
  2 C        1.7480    -0.5020    -0.0310 C.2   1 <1>   0.6950 
  3 N        3.0160     0.0140    -0.1060 N.2   1 <1>  -0.6610 
  4 C        1.5150    -1.9220     0.0320 C.ar  1 <1>   0.0860 
  5 C        4.0170    -0.7920    -0.1200 C.2   1 <1>   0.4390 
  6 C        2.6330    -2.7560     0.0140 C.ar  1 <1>   0.1000 
  7 C        0.2480    -2.5120     0.1100 C.ar  1 <1>  -0.1500 
  8 N        3.8740    -2.1500    -0.0630 N.pl3 1 <1>  -0.5500 
  9 C        5.4460    -0.2280    -0.2040 C.3   1 <1>   0.2700 
 10 C        2.4850    -4.1400     0.0720 C.ar  1 <1>  -0.1500 
 11 C        0.1050    -3.8820     0.1670 C.ar  1 <1>  -0.1500 
 12 N        5.4510     1.2620    -0.2120 N.pl3 1 <1>  -0.8690 
 13 C        1.2280    -4.7000     0.1480 C.ar  1 <1>  -0.1500 
 14 C        6.5120     2.0860    -0.1600 C.ar  1 <1>   0.4100 
 15 N        7.7020     1.5250    -0.1370 N.ar  1 <1>  -0.6200 
 16 C        6.3260     3.4870    -0.1240 C.ar  1 <1>  -0.1430 
 17 C        8.7600     2.3200    -0.0630 C.ar  1 <1>   0.7710 
 18 C        7.4310     4.2730    -0.0390 C.ar  1 <1>   0.2180 
 19 C        4.9160     4.0830    -0.1710 C.3   1 <1>  -0.0170 
 20 N        8.6360     3.6570    -0.0170 N.ar  1 <1>  -0.1790 
 21 N       10.0100     1.7770    -0.0350 N.pl3 1 <1>  -0.8380 
 22 C        7.3880     5.7970     0.0240 C.3   1 <1>  -0.0170 
 23 C        4.9220     5.5880    -0.4720 C.3   1 <1>  -0.1600 
 24 C       11.2930     2.4880     0.2690 C.3   1 <1>   0.1290 
 25 C       10.2260     0.3080    -0.2590 C.3   1 <1>   0.1290 
 26 C        5.9830     6.3170     0.3590 C.3   1 <1>  -0.1600 
 27 H       -0.6210    -1.8750     0.1250 H     1 <1>   0.1500 
 28 H        4.7030    -2.7470    -0.0760 H     1 <1>   0.4000 
 29 H        5.9140    -0.5820    -1.1040 H     1 <1>   0.0800 
 30 H        6.0140    -0.5740     0.6410 H     1 <1>   0.0800 
 31 H        3.3520    -4.7750     0.0570 H     1 <1>   0.1500 
 32 H       -0.8760    -4.3230     0.2270 H     1 <1>   0.1500 
 33 H        4.4840     1.6220    -0.2030 H     1 <1>   0.4000 
 34 H        1.1080    -5.7690     0.1930 H     1 <1>   0.1500 
 35 H        4.4380     3.9110     0.7780 H     1 <1>   0.0800 
 36 H        4.3280     3.5900    -0.9270 H     1 <1>   0.0800 
 37 H        9.5060     4.1690     0.0110 H     1 <1>   0.4570 
 38 H        7.6880     6.1910    -0.9320 H     1 <1>   0.0800 
 39 H        8.0750     6.1610     0.7680 H     1 <1>   0.0800 
 40 H        3.9470     5.9960    -0.2600 H     1 <1>   0.0800 
 41 H        5.1170     5.7430    -1.5200 H     1 <1>   0.0800 
 42 H       11.1250     3.4180     0.7820 H     1 <1>   0.0800 
 43 H       11.8340     2.6740    -0.6450 H     1 <1>   0.0800 
 44 H       11.9070     1.8720     0.9060 H     1 <1>   0.0800 
 45 H        9.4030    -0.1370    -0.7920 H     1 <1>   0.0800 
 46 H       10.3350    -0.1930     0.6880 H     1 <1>   0.0800 
 47 H       11.1170     0.1490    -0.8420 H     1 <1>   0.0800 
 48 H        5.9330     7.3760     0.1690 H     1 <1>   0.0800 
 49 H        5.7790     6.1610     1.4060 H     1 <1>   0.0800 
@<TRIPOS>BOND
  1   1   2  2   
  2   2   3  1   
  3   2   4  1   
  4   3   5  2   
  5   4   6  ar  
  6   4   7  ar  
  7   5   8  1   
  8   5   9  1   
  9   6   8  1   
 10   6  10  ar  
 11   7  11  ar  
 12   7  27  1   
 13   8  28  1   
 14   9  12  1   
 15   9  29  1   
 16   9  30  1   
 17  10  13  ar  
 18  10  31  1   
 19  11  13  ar  
 20  11  32  1   
 21  12  14  1   
 22  12  33  1   
 23  13  34  1   
 24  14  15  ar  
 25  14  16  ar  
 26  15  17  ar  
 27  16  18  ar  
 28  16  19  1   
 29  17  20  ar  
 30  17  21  1   
 31  18  20  ar  
 32  18  22  1   
 33  19  23  1   
 34  19  35  1   
 35  19  36  1   
 36  20  37  1   
 37  21  24  1   
 38  21  25  1   
 39  22  26  1   
 40  22  38  1   
 41  22  39  1   
 42  23  26  1   
 43  23  40  1   
 44  23  41  1   
 45  24  42  1   
 46  24  43  1   
 47  24  44  1   
 48  25  45  1   
 49  25  46  1   
 50  25  47  1   
 51  26  48  1   
 52  26  49  1   
@<TRIPOS>SUBSTRUCTURE
  1 ****  12 GROUP 4 **** **** 0

# MOE 2024.06 (io_trps.svl 2023.06)
