@<TRIPOS>MOLECULE
NONAME
52 55 1 0 0 
SMALL
USER_CHARGES


@<TRIPOS>ATOM
  1 O        1.7570    -0.0200     1.8110 O.3   1 <1>  -0.6800 
  2 C        1.6870    -0.1710     0.4280 C.3   1 <1>   0.2000 
  3 C        2.5640    -1.3420    -0.0140 C.3   1 <1>  -0.0800 
  4 C        2.3860     1.0250    -0.2250 C.3   1 <1>   0.3430 
  5 C        3.9820    -0.7610    -0.0470 C.3   1 <1>   0.3430 
  6 C        2.4700    -2.6210     0.8390 C.3   1 <1>   0.0210 
  7 N        3.8500     0.7230    -0.1580 N.4   1 <1>  -0.9590 
  8 C        3.3620    -3.7160     0.2830 C.2   1 <1>   0.1080 
  9 C        4.4540     1.3960     1.0100 C.3   1 <1>   0.5230 
 10 N        4.6460    -3.5800     0.1430 N.2   1 <1>  -0.7070 
 11 C        2.9160    -4.9670    -0.1260 C.2   1 <1>  -0.1500 
 12 C        4.5720     2.8520     0.6310 C.2   1 <1>  -0.3320 
 13 N        5.0590    -4.7670    -0.3540 N.pl3 1 <1>   0.3000 
 14 C        4.0270    -5.6170    -0.5300 C.2   1 <1>  -0.3320 
 15 N        5.5570     3.3580    -0.1830 N.pl3 1 <1>   0.0480 
 16 C        3.7480     3.8560     1.0210 C.2   1 <1>  -0.1500 
 17 C        4.1690    -7.0270    -1.0760 C.3   1 <1>  -0.0600 
 18 C        5.3250     4.7050    -0.3240 C.ar  1 <1>  -0.1520 
 19 C        6.7410     2.6730    -0.7420 C.3   1 <1>   0.0160 
 20 C        4.2030     5.0450     0.4210 C.ar  1 <1>   0.0000 
 21 C        6.0120     5.6840    -1.0500 C.ar  1 <1>  -0.1500 
 22 C        3.7550     6.3690     0.4480 C.ar  1 <1>  -0.1500 
 23 C        5.5600     6.9830    -1.0160 C.ar  1 <1>  -0.1500 
 24 C        4.4290     7.3330    -0.2670 C.ar  1 <1>  -0.1430 
 25 C        3.9700     8.7800    -0.2600 C.3   1 <1>  -0.0970 
 26 H        1.1420    -0.6320     2.2680 H     1 <1>   0.4000 
 27 H        0.6540    -0.2580     0.1340 H     1 <1>   0.0800 
 28 H        2.3000    -1.5980    -1.0260 H     1 <1>   0.0800 
 29 H        2.1340     1.9470     0.2730 H     1 <1>   0.0800 
 30 H        2.0820     1.0890    -1.2560 H     1 <1>   0.0800 
 31 H        4.5350    -1.1740    -0.8750 H     1 <1>   0.0800 
 32 H        4.4920    -1.0230     0.8660 H     1 <1>   0.0800 
 33 H        1.4540    -2.9730     0.8590 H     1 <1>   0.0800 
 34 H        2.7780    -2.4280     1.8510 H     1 <1>   0.0800 
 35 H        4.3140     1.0980    -0.9910 H     1 <1>   0.4500 
 36 H        3.8240     1.2800     1.8770 H     1 <1>   0.0800 
 37 H        5.4280     0.9910     1.2290 H     1 <1>   0.0800 
 38 H        1.9010    -5.3240    -0.1100 H     1 <1>   0.1500 
 39 H        6.0450    -4.9720    -0.5570 H     1 <1>   0.2700 
 40 H        2.8880     3.8180     1.6670 H     1 <1>   0.1500 
 41 H        3.2070    -7.5060    -1.1190 H     1 <1>   0.0800 
 42 H        4.8120    -7.6090    -0.4400 H     1 <1>   0.0800 
 43 H        4.5830    -7.0040    -2.0680 H     1 <1>   0.0800 
 44 H        6.7930     1.6590    -0.3950 H     1 <1>   0.0800 
 45 H        7.6260     3.1970    -0.4290 H     1 <1>   0.0800 
 46 H        6.6850     2.6880    -1.8160 H     1 <1>   0.0800 
 47 H        6.8810     5.4250    -1.6260 H     1 <1>   0.1500 
 48 H        2.8860     6.6110     1.0330 H     1 <1>   0.1500 
 49 H        6.0780     7.7460    -1.5700 H     1 <1>   0.1500 
 50 H        4.7510     9.4090     0.1270 H     1 <1>   0.0800 
 51 H        3.0960     8.9020     0.3530 H     1 <1>   0.0800 
 52 H        3.7340     9.0930    -1.2610 H     1 <1>   0.0800 
@<TRIPOS>BOND
  1   1   2  1   
  2   1  26  1   
  3   2   3  1   
  4   2   4  1   
  5   2  27  1   
  6   3   5  1   
  7   3   6  1   
  8   3  28  1   
  9   4   7  1   
 10   4  29  1   
 11   4  30  1   
 12   5   7  1   
 13   5  31  1   
 14   5  32  1   
 15   6   8  1   
 16   6  33  1   
 17   6  34  1   
 18   7   9  1   
 19   7  35  1   
 20   8  10  2   
 21   8  11  1   
 22   9  12  1   
 23   9  36  1   
 24   9  37  1   
 25  10  13  1   
 26  11  14  2   
 27  11  38  1   
 28  12  15  1   
 29  12  16  2   
 30  13  14  1   
 31  13  39  1   
 32  14  17  1   
 33  15  18  1   
 34  15  19  1   
 35  16  20  1   
 36  16  40  1   
 37  17  41  1   
 38  17  42  1   
 39  17  43  1   
 40  18  20  ar  
 41  18  21  ar  
 42  19  44  1   
 43  19  45  1   
 44  19  46  1   
 45  20  22  ar  
 46  21  23  ar  
 47  21  47  1   
 48  22  24  ar  
 49  22  48  1   
 50  23  24  ar  
 51  23  49  1   
 52  24  25  1   
 53  25  50  1   
 54  25  51  1   
 55  25  52  1   
@<TRIPOS>SUBSTRUCTURE
  1 ****   7 GROUP 4 **** **** 0

# MOE 2024.06 (io_trps.svl 2023.06)
