@<TRIPOS>MOLECULE
NONAME
33 33 1 0 0 
SMALL
USER_CHARGES


@<TRIPOS>ATOM
  1 O       -1.3370     1.4900     2.5130 O.2   1 <1>  -0.5700 
  2 C       -1.5720     1.0230     1.4170 C.2   1 <1>   0.7800 
  3 O       -1.5830    -0.3070     1.3110 O.3   1 <1>  -0.4300 
  4 N       -1.8210     1.8200     0.3390 N.am  1 <1>  -0.5100 
  5 C       -2.0970    -1.1190     0.2780 C.3   1 <1>   0.2800 
  6 C       -2.5230     3.1410     0.5160 C.3   1 <1>   0.2250 
  7 C       -0.6770     2.5580    -0.3020 C.3   1 <1>   0.2250 
  8 C       -1.9620    -2.5500     0.8000 C.3   1 <1>  -0.2400 
  9 C       -3.5800    -0.8070     0.0430 C.3   1 <1>  -0.2400 
 10 C       -1.2570    -0.9690    -0.9950 C.3   1 <1>  -0.2400 
 11 C       -1.6550     3.7050    -0.6220 C.3   1 <1>   0.0000 
 12 C       -1.1150     5.1340    -0.4340 C.3   1 <1>   0.2000 
 13 O       -0.4150     5.2560     0.7500 O.3   1 <1>  -0.6800 
 14 C       -2.2230     6.1840    -0.4140 C.3   1 <1>  -0.2400 
 15 H       -3.5670     3.0760     0.2670 H     1 <1>   0.0000 
 16 H       -2.3310     3.5790     1.4800 H     1 <1>   0.0000 
 17 H        0.0890     2.7930     0.4160 H     1 <1>   0.0000 
 18 H       -0.3100     2.0530    -1.1770 H     1 <1>   0.0000 
 19 H       -2.3380    -3.2520     0.0780 H     1 <1>   0.0800 
 20 H       -2.5200    -2.6680     1.7110 H     1 <1>   0.0800 
 21 H       -0.9290    -2.7800     0.9920 H     1 <1>   0.0800 
 22 H       -4.0020    -1.5280    -0.6330 H     1 <1>   0.0800 
 23 H       -3.7120     0.1640    -0.3970 H     1 <1>   0.0800 
 24 H       -4.1220    -0.8540     0.9700 H     1 <1>   0.0800 
 25 H       -1.5220    -1.7360    -1.7000 H     1 <1>   0.0800 
 26 H       -0.2110    -1.0650    -0.7660 H     1 <1>   0.0800 
 27 H       -1.4360    -0.0250    -1.4730 H     1 <1>   0.0800 
 28 H       -2.1260     3.5720    -1.5820 H     1 <1>   0.0000 
 29 H       -0.4230     5.3560    -1.2300 H     1 <1>   0.0800 
 30 H       -0.9920     5.0840     1.5190 H     1 <1>   0.4000 
 31 H       -2.9070     6.0120     0.3970 H     1 <1>   0.0800 
 32 H       -2.7730     6.1500    -1.3370 H     1 <1>   0.0800 
 33 H       -1.7950     7.1660    -0.3160 H     1 <1>   0.0800 
@<TRIPOS>BOND
  1   1   2  2   
  2   2   3  1   
  3   2   4  am  
  4   3   5  1   
  5   4   6  1   
  6   4   7  1   
  7   5   8  1   
  8   5   9  1   
  9   5  10  1   
 10   6  11  1   
 11   6  15  1   
 12   6  16  1   
 13   7  11  1   
 14   7  17  1   
 15   7  18  1   
 16   8  19  1   
 17   8  20  1   
 18   8  21  1   
 19   9  22  1   
 20   9  23  1   
 21   9  24  1   
 22  10  25  1   
 23  10  26  1   
 24  10  27  1   
 25  11  12  1   
 26  11  28  1   
 27  12  13  1   
 28  12  14  1   
 29  12  29  1   
 30  13  30  1   
 31  14  31  1   
 32  14  32  1   
 33  14  33  1   
@<TRIPOS>SUBSTRUCTURE
  1 ****   4 GROUP 4 **** **** 0

# MOE 2024.06 (io_trps.svl 2023.06)
