@<TRIPOS>MOLECULE
NONAME
55 59 1 0 0 
SMALL
USER_CHARGES


@<TRIPOS>ATOM
  1 O       -2.5960     0.5090    -1.5480 O.2   1 <1>  -0.5700 
  2 C       -2.0680     0.7160    -0.4720 C.2   1 <1>   0.7160 
  3 N       -1.6860    -0.3420     0.2820 N.am  1 <1>  -0.7300 
  4 C       -1.8350     2.0340     0.0140 C.2   1 <1>  -0.0860 
  5 C       -2.0380    -1.7380     0.0110 C.3   1 <1>   0.4950 
  6 C       -2.8150     2.9940     0.2640 C.2   1 <1>   0.3720 
  7 C       -0.6850     2.6400     0.4040 C.2   1 <1>   0.0870 
  8 C       -3.0870    -2.1770     1.0380 C.2   1 <1>   0.0060 
  9 C       -0.7350    -2.5500     0.0610 C.3   1 <1>  -0.1950 
 10 N       -2.2980     4.0670     0.7520 N.2   1 <1>  -0.4100 
 11 N       -4.1820     2.8080     0.0440 N.pl3 1 <1>  -0.8210 
 12 O       -1.0130     3.8350     0.8270 O.3   1 <1>  -0.0190 
 13 C        0.6860     2.1940     0.4270 C.ar  1 <1>   0.0530 
 14 N       -2.8510    -2.9340     2.0680 N.2   1 <1>  -0.5650 
 15 N       -4.3830    -1.7760     0.9560 N.pl3 1 <1>   0.0480 
 16 C        0.2560    -2.5100    -1.0620 C.3   1 <1>  -0.2000 
 17 C       -0.5380    -3.7590    -0.8020 C.3   1 <1>  -0.2000 
 18 C       -4.5990     3.1000    -1.3600 C.3   1 <1>   0.2090 
 19 C       -5.0850     3.5230     0.9970 C.3   1 <1>   0.2090 
 20 C        1.5810     2.6820     1.3790 C.ar  1 <1>  -0.1500 
 21 C        1.1700     1.2580    -0.4890 C.ar  1 <1>  -0.1500 
 22 C       -4.0430    -3.0370     2.6800 C.2   1 <1>   0.0770 
 23 C       -4.9870    -2.3370     2.0180 C.2   1 <1>  -0.3020 
 24 C       -5.0370    -0.8880    -0.0270 C.3   1 <1>   0.0160 
 25 C       -6.0890     2.7720    -1.5620 C.3   1 <1>   0.1200 
 26 C       -6.5570     3.1760     0.7090 C.3   1 <1>   0.1200 
 27 C        2.8920     2.2480     1.4260 C.ar  1 <1>  -0.1500 
 28 C        2.4790     0.8190    -0.4460 C.ar  1 <1>  -0.1500 
 29 O       -6.8870     3.4470    -0.6260 O.3   1 <1>  -0.5600 
 30 C        3.3440     1.3120     0.5140 C.ar  1 <1>  -0.1500 
 31 H       -1.3180    -0.1960     1.2200 H     1 <1>   0.3700 
 32 H       -2.4560    -1.8300    -0.9760 H     1 <1>   0.0800 
 33 H       -0.3460    -2.6170     1.0630 H     1 <1>   0.1000 
 34 H        1.3040    -2.4990    -0.8190 H     1 <1>   0.1000 
 35 H        0.0290    -1.9260    -1.9380 H     1 <1>   0.1000 
 36 H       -1.3100    -4.0380    -1.4980 H     1 <1>   0.1000 
 37 H       -0.0460    -4.6130    -0.3710 H     1 <1>   0.1000 
 38 H       -4.0110     2.5180    -2.0470 H     1 <1>   0.0800 
 39 H       -4.4310     4.1410    -1.5780 H     1 <1>   0.0800 
 40 H       -4.9460     4.5870     0.9060 H     1 <1>   0.0800 
 41 H       -4.8370     3.2380     2.0050 H     1 <1>   0.0800 
 42 H        1.2420     3.4100     2.0960 H     1 <1>   0.1500 
 43 H        0.5190     0.8690    -1.2510 H     1 <1>   0.1500 
 44 H       -4.1600    -3.6180     3.5790 H     1 <1>   0.1500 
 45 H       -6.0300    -2.2130     2.2440 H     1 <1>   0.1500 
 46 H       -4.6790    -1.1110    -1.0160 H     1 <1>   0.0800 
 47 H       -4.8120     0.1350     0.2140 H     1 <1>   0.0800 
 48 H       -6.1000    -1.0360     0.0060 H     1 <1>   0.0800 
 49 H       -6.2560     1.7150    -1.4570 H     1 <1>   0.0800 
 50 H       -6.4050     3.0780    -2.5430 H     1 <1>   0.0800 
 51 H       -7.2040     3.7660     1.3330 H     1 <1>   0.0800 
 52 H       -6.7400     2.1350     0.9040 H     1 <1>   0.0800 
 53 H        3.5630     2.6370     2.1730 H     1 <1>   0.1500 
 54 H        2.8280     0.0930    -1.1610 H     1 <1>   0.1500 
 55 H        4.3650     0.9710     0.5490 H     1 <1>   0.1500 
@<TRIPOS>BOND
  1   1   2  2   
  2   2   3  am  
  3   2   4  1   
  4   3   5  1   
  5   3  31  1   
  6   4   6  1   
  7   4   7  2   
  8   5   8  1   
  9   5   9  1   
 10   5  32  1   
 11   6  10  2   
 12   6  11  1   
 13   7  12  1   
 14   7  13  1   
 15   8  14  2   
 16   8  15  1   
 17   9  16  1   
 18   9  17  1   
 19   9  33  1   
 20  10  12  1   
 21  11  18  1   
 22  11  19  1   
 23  13  20  ar  
 24  13  21  ar  
 25  14  22  1   
 26  15  23  1   
 27  15  24  1   
 28  16  17  1   
 29  16  34  1   
 30  16  35  1   
 31  17  36  1   
 32  17  37  1   
 33  18  25  1   
 34  18  38  1   
 35  18  39  1   
 36  19  26  1   
 37  19  40  1   
 38  19  41  1   
 39  20  27  ar  
 40  20  42  1   
 41  21  28  ar  
 42  21  43  1   
 43  22  23  2   
 44  22  44  1   
 45  23  45  1   
 46  24  46  1   
 47  24  47  1   
 48  24  48  1   
 49  25  29  1   
 50  25  49  1   
 51  25  50  1   
 52  26  29  1   
 53  26  51  1   
 54  26  52  1   
 55  27  30  ar  
 56  27  53  1   
 57  28  30  ar  
 58  28  54  1   
 59  30  55  1   
@<TRIPOS>SUBSTRUCTURE
  1 ****   2 GROUP 4 **** **** 0

# MOE 2024.06 (io_trps.svl 2023.06)
