@<TRIPOS>MOLECULE
NONAME
48 50 1 0 0 
SMALL
USER_CHARGES


@<TRIPOS>ATOM
  1 O       -0.1100     0.1020    -1.0010 O.2   1 <1>  -0.5700 
  2 C       -1.1060     0.7700    -0.8590 C.2   1 <1>   0.5690 
  3 N       -2.3380     0.1980    -0.6950 N.am  1 <1>  -0.6600 
  4 C       -0.9470     2.2780    -0.8480 C.3   1 <1>  -0.0990 
  5 C       -3.6210     0.9020    -0.4510 C.3   1 <1>   0.1400 
  6 C       -2.5360    -1.2700    -0.6680 C.3   1 <1>   0.1400 
  7 C       -0.6550     2.7910     0.5660 C.3   1 <1>  -0.0160 
  8 C       -4.6500    -0.2060    -0.2150 C.3   1 <1>   0.2000 
  9 C       -3.8490    -1.4720     0.0900 C.3   1 <1>  -0.0800 
 10 C       -0.5850     4.3090     0.5770 C.ar  1 <1>  -0.1440 
 11 O       -5.4800     0.0920     0.8540 O.3   1 <1>  -0.6800 
 12 C       -4.6080    -2.7550    -0.2890 C.3   1 <1>  -0.0170 
 13 C        0.6060     4.9550     0.2830 C.ar  1 <1>  -0.1500 
 14 C       -1.7100     5.0620     0.8770 C.ar  1 <1>  -0.1500 
 15 C       -3.8140    -4.0060     0.0520 C.ar  1 <1>   0.1670 
 16 C        0.6770     6.3370     0.2880 C.ar  1 <1>  -0.1500 
 17 C       -1.6420     6.4440     0.8820 C.ar  1 <1>  -0.1500 
 18 N       -2.8960    -4.3790    -0.8240 N.ar  1 <1>  -0.6200 
 19 C       -4.0700    -4.6930     1.2380 C.ar  1 <1>   0.1600 
 20 C       -0.4530     7.0920     0.5900 C.ar  1 <1>   0.0820 
 21 C       -2.2540    -5.4690    -0.4380 C.ar  1 <1>   0.1600 
 22 N       -3.4300    -5.7840     1.6260 N.ar  1 <1>  -0.6200 
 23 O       -0.4730     8.4480     0.6180 O.3   1 <1>  -0.3620 
 24 C       -2.5120    -6.1480     0.7470 C.ar  1 <1>   0.1600 
 25 C        0.6890     9.2030     0.3530 C.3   1 <1>   0.0400 
 26 H       -0.1280     2.5380    -1.4940 H     1 <1>   0.0800 
 27 H       -1.8270     2.7500    -1.2400 H     1 <1>   0.0800 
 28 H       -3.5290     1.5350     0.4140 H     1 <1>   0.0800 
 29 H       -3.8920     1.4860    -1.3130 H     1 <1>   0.0800 
 30 H       -2.6140    -1.6320    -1.6800 H     1 <1>   0.0800 
 31 H       -1.7150    -1.7670    -0.1790 H     1 <1>   0.0800 
 32 H        0.2790     2.3800     0.9100 H     1 <1>   0.0800 
 33 H       -1.4220     2.4590     1.2430 H     1 <1>   0.0800 
 34 H       -5.2600    -0.3280    -1.0940 H     1 <1>   0.0800 
 35 H       -3.6040    -1.4990     1.1370 H     1 <1>   0.0800 
 36 H       -4.9590     0.1760     1.6770 H     1 <1>   0.4000 
 37 H       -4.8250    -2.7570    -1.3440 H     1 <1>   0.0800 
 38 H       -5.5490    -2.7750     0.2320 H     1 <1>   0.0800 
 39 H        1.4850     4.3800     0.0470 H     1 <1>   0.1500 
 40 H       -2.6420     4.5790     1.1070 H     1 <1>   0.1500 
 41 H        1.6140     6.8050     0.0560 H     1 <1>   0.1500 
 42 H       -2.5110     7.0310     1.1150 H     1 <1>   0.1500 
 43 H       -4.8370    -4.3250     1.8950 H     1 <1>   0.1500 
 44 H       -1.4850    -5.8440    -1.0910 H     1 <1>   0.1500 
 45 H       -1.9350    -7.0270     0.9740 H     1 <1>   0.1500 
 46 H        0.4360    10.2440     0.4390 H     1 <1>   0.0800 
 47 H        1.0240     8.9890    -0.6460 H     1 <1>   0.0800 
 48 H        1.4430     8.9490     1.0770 H     1 <1>   0.0800 
@<TRIPOS>BOND
  1   1   2  2   
  2   2   3  am  
  3   2   4  1   
  4   3   5  1   
  5   3   6  1   
  6   4   7  1   
  7   4  26  1   
  8   4  27  1   
  9   5   8  1   
 10   5  28  1   
 11   5  29  1   
 12   6   9  1   
 13   6  30  1   
 14   6  31  1   
 15   7  10  1   
 16   7  32  1   
 17   7  33  1   
 18   8   9  1   
 19   8  11  1   
 20   8  34  1   
 21   9  12  1   
 22   9  35  1   
 23  10  13  ar  
 24  10  14  ar  
 25  11  36  1   
 26  12  15  1   
 27  12  37  1   
 28  12  38  1   
 29  13  16  ar  
 30  13  39  1   
 31  14  17  ar  
 32  14  40  1   
 33  15  18  ar  
 34  15  19  ar  
 35  16  20  ar  
 36  16  41  1   
 37  17  20  ar  
 38  17  42  1   
 39  18  21  ar  
 40  19  22  ar  
 41  19  43  1   
 42  20  23  1   
 43  21  24  ar  
 44  21  44  1   
 45  22  24  ar  
 46  23  25  1   
 47  24  45  1   
 48  25  46  1   
 49  25  47  1   
 50  25  48  1   
@<TRIPOS>SUBSTRUCTURE
  1 ****   3 GROUP 4 **** **** 0

# MOE 2024.06 (io_trps.svl 2023.06)
