@<TRIPOS>MOLECULE
NONAME
56 59 1 0 0 
SMALL
USER_CHARGES


@<TRIPOS>ATOM
  1 O       -1.3320     0.7890     1.6800 O.2   1 <1>  -0.5700 
  2 C       -2.0560     1.0250     0.7380 C.2   1 <1>   0.5690 
  3 N       -2.9970     0.0810     0.3850 N.am  1 <1>  -0.6600 
  4 C       -1.8960     2.4030     0.0190 C.3   1 <1>   0.2040 
  5 C       -4.3580     0.3310    -0.1550 C.3   1 <1>   0.1400 
  6 C       -2.9320    -1.3080     0.9250 C.3   1 <1>   0.1400 
  7 C       -0.4020     2.8360    -0.0140 C.ar  1 <1>  -0.1440 
  8 C       -2.3610     2.4440    -1.4650 C.3   1 <1>  -0.1600 
  9 C       -2.8190     3.4220     0.7310 C.3   1 <1>  -0.1600 
 10 C       -5.2370    -0.7200     0.5180 C.3   1 <1>   0.2000 
 11 C       -4.3180    -1.9290     0.6880 C.3   1 <1>  -0.0800 
 12 C        0.0360     4.1330     0.2510 C.ar  1 <1>  -0.1500 
 13 C        0.5580     1.8930    -0.3700 C.ar  1 <1>  -0.1500 
 14 C       -3.5310     3.4290    -1.5670 C.3   1 <1>  -0.1600 
 15 C       -3.3850     4.3380    -0.3530 C.3   1 <1>  -0.1600 
 16 O       -5.5770    -0.2600     1.7790 O.3   1 <1>  -0.6800 
 17 C       -4.3480    -2.8250    -0.5670 C.3   1 <1>  -0.0170 
 18 C        1.3770     4.4690     0.1780 C.ar  1 <1>  -0.1500 
 19 C        1.8990     2.2230    -0.4450 C.ar  1 <1>  -0.1500 
 20 C       -3.5300    -4.0920    -0.3830 C.ar  1 <1>   0.1670 
 21 C        2.3210     3.5100    -0.1710 C.ar  1 <1>   0.0820 
 22 N       -2.3060    -4.0840    -0.8860 N.ar  1 <1>  -0.6200 
 23 C       -4.0880    -5.1740     0.2830 C.ar  1 <1>  -0.1500 
 24 O        3.6530     3.7550    -0.2660 O.3   1 <1>  -0.3620 
 25 C       -1.6080    -5.1960    -0.7150 C.ar  1 <1>   0.1600 
 26 C       -3.3490    -6.3250     0.4540 C.ar  1 <1>  -0.1500 
 27 C        4.1860     5.0210     0.0520 C.3   1 <1>   0.0400 
 28 C       -2.0730    -6.3250    -0.0650 C.ar  1 <1>  -0.1500 
 29 H       -4.7130     1.3210     0.0630 H     1 <1>   0.0800 
 30 H       -4.3530     0.1690    -1.2180 H     1 <1>   0.0800 
 31 H       -2.1430    -1.8560     0.4400 H     1 <1>   0.0800 
 32 H       -2.7230    -1.2720     1.9810 H     1 <1>   0.0800 
 33 H       -1.5660     2.8220    -2.0850 H     1 <1>   0.0800 
 34 H       -2.6120     1.4760    -1.8540 H     1 <1>   0.0800 
 35 H       -3.6420     2.9020     1.1870 H     1 <1>   0.0800 
 36 H       -2.3230     3.9570     1.5200 H     1 <1>   0.0800 
 37 H       -6.1440    -0.9280    -0.0220 H     1 <1>   0.0800 
 38 H       -4.6180    -2.5220     1.5340 H     1 <1>   0.0800 
 39 H       -0.6520     4.9120     0.5140 H     1 <1>   0.1500 
 40 H        0.2680     0.8800    -0.5900 H     1 <1>   0.1500 
 41 H       -3.5010     3.9890    -2.4870 H     1 <1>   0.0800 
 42 H       -4.4670     2.9040    -1.5150 H     1 <1>   0.0800 
 43 H       -4.3230     4.7800    -0.0620 H     1 <1>   0.0800 
 44 H       -2.6830     5.1220    -0.5780 H     1 <1>   0.0800 
 45 H       -4.7580     0.0050     2.2480 H     1 <1>   0.4000 
 46 H       -3.9750    -2.2860    -1.4210 H     1 <1>   0.0800 
 47 H       -5.3640    -3.1060    -0.7810 H     1 <1>   0.0800 
 48 H        1.6660     5.4790     0.3940 H     1 <1>   0.1500 
 49 H        2.6260     1.4790    -0.7150 H     1 <1>   0.1500 
 50 H       -5.0900    -5.1180     0.6670 H     1 <1>   0.1500 
 51 H       -0.6090    -5.2070    -1.1170 H     1 <1>   0.1500 
 52 H       -3.7500    -7.1830     0.9660 H     1 <1>   0.1500 
 53 H        5.2530     4.9740    -0.0700 H     1 <1>   0.0800 
 54 H        3.9440     5.2530     1.0740 H     1 <1>   0.0800 
 55 H        3.7720     5.7520    -0.6190 H     1 <1>   0.0800 
 56 H       -1.4420    -7.1900     0.0320 H     1 <1>   0.1500 
@<TRIPOS>BOND
  1   1   2  2   
  2   2   3  am  
  3   2   4  1   
  4   3   5  1   
  5   3   6  1   
  6   4   7  1   
  7   4   8  1   
  8   4   9  1   
  9   5  10  1   
 10   5  29  1   
 11   5  30  1   
 12   6  11  1   
 13   6  31  1   
 14   6  32  1   
 15   7  12  ar  
 16   7  13  ar  
 17   8  14  1   
 18   8  33  1   
 19   8  34  1   
 20   9  15  1   
 21   9  35  1   
 22   9  36  1   
 23  10  11  1   
 24  10  16  1   
 25  10  37  1   
 26  11  17  1   
 27  11  38  1   
 28  12  18  ar  
 29  12  39  1   
 30  13  19  ar  
 31  13  40  1   
 32  14  15  1   
 33  14  41  1   
 34  14  42  1   
 35  15  43  1   
 36  15  44  1   
 37  16  45  1   
 38  17  20  1   
 39  17  46  1   
 40  17  47  1   
 41  18  21  ar  
 42  18  48  1   
 43  19  21  ar  
 44  19  49  1   
 45  20  22  ar  
 46  20  23  ar  
 47  21  24  1   
 48  22  25  ar  
 49  23  26  ar  
 50  23  50  1   
 51  24  27  1   
 52  25  28  ar  
 53  25  51  1   
 54  26  28  ar  
 55  26  52  1   
 56  27  53  1   
 57  27  54  1   
 58  27  55  1   
 59  28  56  1   
@<TRIPOS>SUBSTRUCTURE
  1 ****   2 GROUP 4 **** **** 0

# MOE 2024.06 (io_trps.svl 2023.06)
