@<TRIPOS>MOLECULE
NONAME
47 49 1 0 0 
SMALL
USER_CHARGES


@<TRIPOS>ATOM
  1 O       -2.2000     0.6470    -2.2010 O.2   1 <1>  -0.5700 
  2 C       -2.0320     0.9540    -1.0360 C.2   1 <1>   0.5440 
  3 N       -2.0670    -0.0440    -0.1030 N.am  1 <1>  -0.7300 
  4 C       -1.7980     2.3330    -0.6490 C.ar  1 <1>   0.0860 
  5 C       -2.2940    -1.4770    -0.3970 C.3   1 <1>   0.2200 
  6 C       -2.0340     2.7960     0.6500 C.ar  1 <1>  -0.1500 
  7 C       -1.3200     3.2670    -1.5710 C.ar  1 <1>  -0.1500 
  8 C       -3.7340    -1.8280    -0.0670 C.3   1 <1>  -0.0800 
  9 C       -1.5270    -2.3340     0.6040 C.3   1 <1>   0.1200 
 10 C       -1.7920     4.1080     1.0040 C.ar  1 <1>  -0.1500 
 11 C       -1.0800     4.5800    -1.2190 C.ar  1 <1>  -0.1500 
 12 C       -3.6630    -2.0950     1.4400 C.3   1 <1>   0.1200 
 13 C       -4.2100    -3.0610    -0.8590 C.3   1 <1>  -0.0160 
 14 O       -2.3360    -2.4260     1.7390 O.3   1 <1>  -0.5600 
 15 C       -1.3080     5.0250     0.0790 C.ar  1 <1>   0.1000 
 16 C       -5.6640    -3.3890    -0.5530 C.ar  1 <1>  -0.1430 
 17 N       -1.0700     6.3400     0.4560 N.pl3 1 <1>  -0.8380 
 18 C       -6.6990    -2.6340    -1.0650 C.ar  1 <1>  -0.1500 
 19 C       -6.0250    -4.4550     0.2480 C.ar  1 <1>  -0.1500 
 20 C        0.1000     7.0890    -0.0710 C.3   1 <1>   0.1290 
 21 C       -2.1880     7.1680     0.9790 C.3   1 <1>   0.1290 
 22 C       -8.0070    -2.9660    -0.7560 C.ar  1 <1>   0.1600 
 23 C       -7.3650    -4.7010     0.4950 C.ar  1 <1>   0.1600 
 24 N       -8.3650    -3.9810     0.0140 N.ar  1 <1>  -0.6200 
 25 H       -1.8950     0.1640     0.8820 H     1 <1>   0.3700 
 26 H       -2.0220    -1.6990    -1.4160 H     1 <1>   0.0800 
 27 H       -2.4170     2.1240     1.3950 H     1 <1>   0.1500 
 28 H       -1.1370     2.9480    -2.5830 H     1 <1>   0.1500 
 29 H       -4.3920    -1.0050    -0.2840 H     1 <1>   0.0800 
 30 H       -0.5750    -1.9100     0.8700 H     1 <1>   0.0800 
 31 H       -1.3870    -3.3300     0.2220 H     1 <1>   0.0800 
 32 H       -1.9700     4.4420     2.0090 H     1 <1>   0.1500 
 33 H       -0.7200     5.2730    -1.9550 H     1 <1>   0.1500 
 34 H       -4.3040    -2.8960     1.7600 H     1 <1>   0.0800 
 35 H       -3.9050    -1.2030     1.9920 H     1 <1>   0.0800 
 36 H       -3.5920    -3.9130    -0.6330 H     1 <1>   0.0800 
 37 H       -4.1180    -2.8640    -1.9130 H     1 <1>   0.0800 
 38 H       -6.5000    -1.7900    -1.7010 H     1 <1>   0.1500 
 39 H       -5.2790    -5.0940     0.6830 H     1 <1>   0.1500 
 40 H        0.4910     7.7370     0.6940 H     1 <1>   0.0800 
 41 H       -0.1930     7.6770    -0.9220 H     1 <1>   0.0800 
 42 H        0.8740     6.4010    -0.3650 H     1 <1>   0.0800 
 43 H       -1.9070     7.6010     1.9230 H     1 <1>   0.0800 
 44 H       -3.0670     6.5630     1.1190 H     1 <1>   0.0800 
 45 H       -2.4190     7.9540     0.2820 H     1 <1>   0.0800 
 46 H       -8.8020    -2.3650    -1.1650 H     1 <1>   0.1500 
 47 H       -7.6280    -5.5360     1.1220 H     1 <1>   0.1500 
@<TRIPOS>BOND
  1   1   2  2   
  2   2   3  am  
  3   2   4  1   
  4   3   5  1   
  5   3  25  1   
  6   4   6  ar  
  7   4   7  ar  
  8   5   8  1   
  9   5   9  1   
 10   5  26  1   
 11   6  10  ar  
 12   6  27  1   
 13   7  11  ar  
 14   7  28  1   
 15   8  12  1   
 16   8  13  1   
 17   8  29  1   
 18   9  14  1   
 19   9  30  1   
 20   9  31  1   
 21  10  15  ar  
 22  10  32  1   
 23  11  15  ar  
 24  11  33  1   
 25  12  14  1   
 26  12  34  1   
 27  12  35  1   
 28  13  16  1   
 29  13  36  1   
 30  13  37  1   
 31  15  17  1   
 32  16  18  ar  
 33  16  19  ar  
 34  17  20  1   
 35  17  21  1   
 36  18  22  ar  
 37  18  38  1   
 38  19  23  ar  
 39  19  39  1   
 40  20  40  1   
 41  20  41  1   
 42  20  42  1   
 43  21  43  1   
 44  21  44  1   
 45  21  45  1   
 46  22  24  ar  
 47  22  46  1   
 48  23  24  ar  
 49  23  47  1   
@<TRIPOS>SUBSTRUCTURE
  1 ****   3 GROUP 4 **** **** 0

# MOE 2024.06 (io_trps.svl 2023.06)
