@<TRIPOS>MOLECULE
NONAME
44 46 1 0 0 
SMALL
USER_CHARGES


@<TRIPOS>ATOM
  1 O       -0.6590     0.7610     1.2770 O.2   1 <1>  -0.5700 
  2 C       -1.2830     1.4950     0.5260 C.2   1 <1>   0.5440 
  3 N       -2.4660     1.0000    -0.0060 N.am  1 <1>  -0.6600 
  4 C       -0.7190     2.8160     0.2170 C.ar  1 <1>   0.3960 
  5 C       -2.9290    -0.3970     0.2770 C.3   1 <1>   0.1400 
  6 C       -3.3610     1.7510    -0.9330 C.3   1 <1>   0.1400 
  7 N       -1.4950     3.9180     0.2180 N.ar  1 <1>  -0.6200 
  8 C        0.6420     2.8940    -0.0620 C.ar  1 <1>  -0.1500 
  9 C       -4.0530    -0.4380     1.3230 C.3   1 <1>   0.1400 
 10 C       -4.4730     2.5120    -0.1920 C.3   1 <1>  -0.1600 
 11 C       -0.9030     5.0660    -0.0640 C.ar  1 <1>   0.1600 
 12 C        1.2520     4.0960    -0.3550 C.ar  1 <1>   0.1000 
 13 N       -5.2190     0.4180     0.9350 N.am  1 <1>  -0.6600 
 14 C       -4.9700     1.8740     1.1100 C.3   1 <1>   0.1400 
 15 C        0.4370     5.2090    -0.3540 C.ar  1 <1>  -0.1500 
 16 N        2.5990     4.1820    -0.6320 N.pl3 1 <1>  -0.9000 
 17 C       -6.4270    -0.0370     0.4640 C.2   1 <1>   0.5770 
 18 O       -7.3240     0.7320     0.2000 O.2   1 <1>  -0.5700 
 19 C       -6.6680    -1.5340     0.2600 C.3   1 <1>   0.0530 
 20 C       -5.8850    -2.1590    -0.9270 C.3   1 <1>   0.0000 
 21 C       -7.9650    -1.9380    -0.5000 C.3   1 <1>   0.0000 
 22 C       -7.1270    -3.0530    -1.1750 C.3   1 <1>   0.0000 
 23 H       -2.1080    -0.9950     0.6330 H     1 <1>   0.0800 
 24 H       -3.2720    -0.8520    -0.6340 H     1 <1>   0.0800 
 25 H       -3.8200     1.0530    -1.6110 H     1 <1>   0.0800 
 26 H       -2.7880     2.4380    -1.5310 H     1 <1>   0.0800 
 27 H        1.2290     1.9960    -0.0480 H     1 <1>   0.1500 
 28 H       -3.6590    -0.0970     2.2650 H     1 <1>   0.0800 
 29 H       -4.3620    -1.4570     1.4640 H     1 <1>   0.0800 
 30 H       -5.3080     2.6300    -0.8580 H     1 <1>   0.0800 
 31 H       -4.1250     3.5020     0.0370 H     1 <1>   0.0800 
 32 H       -1.5250     5.9450    -0.0640 H     1 <1>   0.1500 
 33 H       -5.8760     2.3640     1.4260 H     1 <1>   0.0800 
 34 H       -4.2350     2.0250     1.8830 H     1 <1>   0.0800 
 35 H        0.8460     6.1750    -0.5790 H     1 <1>   0.1500 
 36 H        3.0650     5.0920    -0.5700 H     1 <1>   0.4000 
 37 H        3.2080     3.4000    -0.3680 H     1 <1>   0.4000 
 38 H       -6.5540    -2.1050     1.1660 H     1 <1>   0.0000 
 39 H       -5.0090    -2.7100    -0.6330 H     1 <1>   0.0000 
 40 H       -5.7090    -1.4630    -1.7300 H     1 <1>   0.0000 
 41 H       -8.3040    -1.2050    -1.2130 H     1 <1>   0.0000 
 42 H       -8.7470    -2.3090     0.1380 H     1 <1>   0.0000 
 43 H       -7.1060    -3.9640    -0.6000 H     1 <1>   0.0000 
 44 H       -7.3560    -3.2030    -2.2150 H     1 <1>   0.0000 
@<TRIPOS>BOND
  1   1   2  2   
  2   2   3  am  
  3   2   4  1   
  4   3   5  1   
  5   3   6  1   
  6   4   7  ar  
  7   4   8  ar  
  8   5   9  1   
  9   5  23  1   
 10   5  24  1   
 11   6  10  1   
 12   6  25  1   
 13   6  26  1   
 14   7  11  ar  
 15   8  12  ar  
 16   8  27  1   
 17   9  13  1   
 18   9  28  1   
 19   9  29  1   
 20  10  14  1   
 21  10  30  1   
 22  10  31  1   
 23  11  15  ar  
 24  11  32  1   
 25  12  15  ar  
 26  12  16  1   
 27  13  14  1   
 28  13  17  am  
 29  14  33  1   
 30  14  34  1   
 31  15  35  1   
 32  16  36  1   
 33  16  37  1   
 34  17  18  2   
 35  17  19  1   
 36  19  20  1   
 37  19  21  1   
 38  19  38  1   
 39  20  22  1   
 40  20  39  1   
 41  20  40  1   
 42  21  22  1   
 43  21  41  1   
 44  21  42  1   
 45  22  43  1   
 46  22  44  1   
@<TRIPOS>SUBSTRUCTURE
  1 ****   3 GROUP 4 **** **** 0

# MOE 2024.06 (io_trps.svl 2023.06)
