@<TRIPOS>MOLECULE
NONAME
50 52 1 0 0 
SMALL
USER_CHARGES


@<TRIPOS>ATOM
  1 N       -0.5350    -0.4600    -0.1870 N.ar  1 <1>  -0.6200 
  2 C       -0.9120    -1.7000    -0.4150 C.ar  1 <1>   0.7710 
  3 C        0.7600    -0.1910    -0.1790 C.ar  1 <1>   0.4100 
  4 N       -0.0400    -2.7010    -0.6140 N.ar  1 <1>  -0.1790 
  5 N       -2.2340    -1.9130    -0.4320 N.pl3 1 <1>  -0.8690 
  6 N        1.1380     1.0970     0.0590 N.pl3 1 <1>  -0.8380 
  7 C        1.7130    -1.2070    -0.4090 C.ar  1 <1>  -0.1500 
  8 C        1.2930    -2.4760    -0.6190 C.ar  1 <1>   0.2110 
  9 C       -3.0720    -3.0260    -0.9840 C.3   1 <1>   0.2090 
 10 C        2.4880     1.5070     0.5340 C.3   1 <1>   0.2090 
 11 C        0.1560     2.2270     0.0180 C.3   1 <1>   0.1290 
 12 C       -3.2050    -4.2610    -0.0530 C.3   1 <1>   0.1440 
 13 C        3.3210     1.9780    -0.6540 C.3   1 <1>  -0.2400 
 14 C       -1.8200    -4.9170     0.0920 C.ar  1 <1>  -0.1430 
 15 C       -3.8870    -3.8880     1.2750 C.3   1 <1>  -0.1600 
 16 C       -4.2270    -5.2450    -0.6450 C.3   1 <1>  -0.1600 
 17 C       -1.2610    -5.5830    -0.9940 C.ar  1 <1>  -0.1500 
 18 C       -1.0770    -4.8300     1.2660 C.ar  1 <1>  -0.1500 
 19 C       -5.3840    -3.8100     0.9700 C.3   1 <1>  -0.1600 
 20 C       -5.6130    -4.7480    -0.2180 C.3   1 <1>  -0.1600 
 21 C        0.0080    -6.1290    -0.9180 C.ar  1 <1>  -0.1500 
 22 C        0.1900    -5.3790     1.3450 C.ar  1 <1>  -0.1500 
 23 C        0.7370    -6.0250     0.2520 C.ar  1 <1>  -0.1500 
 24 H       -0.4330    -3.6460    -0.6420 H     1 <1>   0.4570 
 25 H       -2.7760    -1.0780    -0.1820 H     1 <1>   0.4000 
 26 H        2.7560    -0.9620    -0.4170 H     1 <1>   0.1500 
 27 H        1.9640    -3.3040    -0.7830 H     1 <1>   0.1500 
 28 H       -2.6640    -3.3360    -1.9310 H     1 <1>   0.0800 
 29 H       -4.0540    -2.6310    -1.1880 H     1 <1>   0.0800 
 30 H        2.9760     0.6870     1.0310 H     1 <1>   0.0800 
 31 H        2.3920     2.3040     1.2520 H     1 <1>   0.0800 
 32 H       -0.6430     2.0140    -0.6700 H     1 <1>   0.0800 
 33 H        0.6390     3.1330    -0.3040 H     1 <1>   0.0800 
 34 H       -0.2600     2.3800     0.9990 H     1 <1>   0.0800 
 35 H        3.4160     1.1960    -1.3850 H     1 <1>   0.0800 
 36 H        4.3040     2.2550    -0.3190 H     1 <1>   0.0800 
 37 H        2.8660     2.8360    -1.1140 H     1 <1>   0.0800 
 38 H       -3.5160    -2.9730     1.7010 H     1 <1>   0.0800 
 39 H       -3.7410    -4.6840     1.9860 H     1 <1>   0.0800 
 40 H       -4.0670    -6.2180    -0.2100 H     1 <1>   0.0800 
 41 H       -4.1560    -5.3360    -1.7150 H     1 <1>   0.0800 
 42 H       -1.8090    -5.6940    -1.9160 H     1 <1>   0.1500 
 43 H       -1.4670    -4.3330     2.1390 H     1 <1>   0.1500 
 44 H       -5.6550    -2.8040     0.7000 H     1 <1>   0.0800 
 45 H       -5.9690    -4.1060     1.8250 H     1 <1>   0.0800 
 46 H       -6.2420    -5.5780     0.0600 H     1 <1>   0.0800 
 47 H       -6.0890    -4.2120    -1.0220 H     1 <1>   0.0800 
 48 H        0.4240    -6.6530    -1.7640 H     1 <1>   0.1500 
 49 H        0.7480    -5.3130     2.2650 H     1 <1>   0.1500 
 50 H        1.7190    -6.4650     0.3200 H     1 <1>   0.1500 
@<TRIPOS>BOND
  1   1   2  ar  
  2   1   3  ar  
  3   2   4  ar  
  4   2   5  1   
  5   3   6  1   
  6   3   7  ar  
  7   4   8  ar  
  8   4  24  1   
  9   5   9  1   
 10   5  25  1   
 11   6  10  1   
 12   6  11  1   
 13   7   8  ar  
 14   7  26  1   
 15   8  27  1   
 16   9  12  1   
 17   9  28  1   
 18   9  29  1   
 19  10  13  1   
 20  10  30  1   
 21  10  31  1   
 22  11  32  1   
 23  11  33  1   
 24  11  34  1   
 25  12  14  1   
 26  12  15  1   
 27  12  16  1   
 28  13  35  1   
 29  13  36  1   
 30  13  37  1   
 31  14  17  ar  
 32  14  18  ar  
 33  15  19  1   
 34  15  38  1   
 35  15  39  1   
 36  16  20  1   
 37  16  40  1   
 38  16  41  1   
 39  17  21  ar  
 40  17  42  1   
 41  18  22  ar  
 42  18  43  1   
 43  19  20  1   
 44  19  44  1   
 45  19  45  1   
 46  20  46  1   
 47  20  47  1   
 48  21  23  ar  
 49  21  48  1   
 50  22  23  ar  
 51  22  49  1   
 52  23  50  1   
@<TRIPOS>SUBSTRUCTURE
  1 ****   2 GROUP 4 **** **** 0

# MOE 2024.06 (io_trps.svl 2023.06)
