@<TRIPOS>MOLECULE
NONAME
33 34 1 0 0 
SMALL
USER_CHARGES


@<TRIPOS>ATOM
  1 CL       0.1720     0.7740     2.0710 Cl    1 <1>  -0.1770 
  2 C       -0.2650     1.6110     0.6020 C.ar  1 <1>   0.1770 
  3 C       -1.5320     2.1460     0.3910 C.ar  1 <1>  -0.0090 
  4 C        0.7480     1.7140    -0.3380 C.ar  1 <1>  -0.1500 
  5 S       -2.8930     2.0040     1.5710 S.o2  1 <1>   1.4470 
  6 C       -1.7170     2.8210    -0.8120 C.ar  1 <1>   0.1770 
  7 C        0.5250     2.3760    -1.5300 C.ar  1 <1>  -0.1500 
  8 O       -2.6180     1.1090     2.6720 O.2   1 <1>  -0.6500 
  9 O       -3.3570     3.3340     1.9020 O.2   1 <1>  -0.6500 
 10 N       -4.1140     1.2480     0.6740 N.am  1 <1>  -0.8490 
 11 CL      -3.2340     3.5910    -1.2140 Cl    1 <1>  -0.1770 
 12 C       -0.7170     2.9340    -1.7630 C.ar  1 <1>  -0.1500 
 13 C       -3.7300    -0.1030     0.2080 C.3   1 <1>   0.1960 
 14 C       -5.4000     1.2440     1.3610 C.3   1 <1>   0.1960 
 15 C       -4.9240    -0.9570    -0.2510 C.3   1 <1>  -0.1860 
 16 C       -6.5150     0.9260     0.3570 C.3   1 <1>  -0.1600 
 17 C       -4.4800    -1.9550    -1.3030 C.2   1 <1>   0.9060 
 18 C       -6.0660    -0.0600    -0.7300 C.3   1 <1>   0.2000 
 19 O       -3.2800    -2.2300    -1.4030 O.co2 1 <1>  -0.9000 
 20 O       -5.3360    -2.4840    -2.0230 O.co2 1 <1>  -0.9000 
 21 O       -7.1400    -0.8510    -1.0740 O.3   1 <1>  -0.6800 
 22 H        1.7080     1.2750    -0.1320 H     1 <1>   0.1500 
 23 H        1.3070     2.4550    -2.2660 H     1 <1>   0.1500 
 24 H       -0.9160     3.4590    -2.6820 H     1 <1>   0.1500 
 25 H       -3.0450     0.0210    -0.6150 H     1 <1>   0.0800 
 26 H       -3.2100    -0.6450     0.9820 H     1 <1>   0.0800 
 27 H       -5.3820     0.5080     2.1490 H     1 <1>   0.0800 
 28 H       -5.5950     2.2070     1.8040 H     1 <1>   0.0800 
 29 H       -5.2660    -1.5300     0.5890 H     1 <1>   0.0800 
 30 H       -6.8260     1.8370    -0.1190 H     1 <1>   0.0800 
 31 H       -7.3540     0.5290     0.9000 H     1 <1>   0.0800 
 32 H       -5.7510     0.4730    -1.6120 H     1 <1>   0.0800 
 33 H       -6.7450    -1.6180    -1.5860 H     1 <1>   0.4000 
@<TRIPOS>BOND
  1   1   2  1   
  2   2   3  ar  
  3   2   4  ar  
  4   3   5  1   
  5   3   6  ar  
  6   4   7  ar  
  7   4  22  1   
  8   5   8  2   
  9   5   9  2   
 10   5  10  am  
 11   6  11  1   
 12   6  12  ar  
 13   7  12  ar  
 14   7  23  1   
 15  10  13  1   
 16  10  14  1   
 17  12  24  1   
 18  13  15  1   
 19  13  25  1   
 20  13  26  1   
 21  14  16  1   
 22  14  27  1   
 23  14  28  1   
 24  15  17  1   
 25  15  18  1   
 26  15  29  1   
 27  16  18  1   
 28  16  30  1   
 29  16  31  1   
 30  17  19  ar  
 31  17  20  ar  
 32  18  21  1   
 33  18  32  1   
 34  21  33  1   
@<TRIPOS>SUBSTRUCTURE
  1 ****  13 GROUP 4 **** **** 0

# MOE 2024.06 (io_trps.svl 2023.06)
