@<TRIPOS>MOLECULE
NONAME
47 50 1 0 0 
SMALL
USER_CHARGES


@<TRIPOS>ATOM
  1 O       -0.0650     1.4030    -0.6620 O.2   1 <1>  -0.5700 
  2 C       -0.2500     2.5980    -0.6550 C.2   1 <1>   0.5690 
  3 N       -1.1910     3.2110     0.1270 N.am  1 <1>  -0.5090 
  4 C        0.5910     3.4560    -1.5950 C.3   1 <1>   0.1810 
  5 C       -1.5500     4.6510    -0.0740 C.3   1 <1>   0.3640 
  6 C       -2.0210     2.4770     1.1120 C.3   1 <1>   0.0490 
  7 O        0.6910     4.7820    -1.1400 O.3   1 <1>  -0.5600 
  8 C       -2.9640     4.7400    -0.6520 C.ar  1 <1>  -0.1440 
  9 C       -0.5580     5.4390    -0.9760 C.3   1 <1>   0.2610 
 10 C       -1.9850     2.9130     2.5440 C.3   1 <1>  -0.2000 
 11 C       -1.3580     1.6170     2.1410 C.3   1 <1>  -0.2000 
 12 C       -3.8620     5.6700    -0.1420 C.ar  1 <1>   0.1600 
 13 C       -3.3860     3.9170    -1.6820 C.ar  1 <1>  -0.1500 
 14 C       -0.3430     6.8460    -0.4040 C.2   1 <1>   0.5690 
 15 N       -5.1070     5.8310    -0.5580 N.ar  1 <1>  -0.6200 
 16 C       -4.6800     4.0760    -2.1290 C.ar  1 <1>  -0.1500 
 17 O       -1.2920     7.4750     0.0000 O.2   1 <1>  -0.5700 
 18 N        0.9180     7.3540    -0.3460 N.am  1 <1>  -0.7300 
 19 C       -5.4870     5.0320    -1.5410 C.ar  1 <1>   0.1600 
 20 C        1.2900     8.6990     0.1530 C.3   1 <1>   0.1400 
 21 C        1.8720     8.5930     1.5640 C.3   1 <1>   0.0200 
 22 C        2.3220     9.9440     2.1030 C.2   1 <1>  -0.3320 
 23 N        2.8860    10.0930     3.3180 N.pl3 1 <1>   0.0330 
 24 C        2.2710    11.1840     1.5630 C.2   1 <1>   0.0770 
 25 C        3.1420    11.4120     3.4330 C.2   1 <1>   0.0360 
 26 N        2.7880    12.1030     2.4000 N.2   1 <1>  -0.5650 
 27 H        0.1580     3.4570    -2.5790 H     1 <1>   0.0800 
 28 H        1.5850     3.0520    -1.6500 H     1 <1>   0.0800 
 29 H       -1.5520     5.1120     0.8980 H     1 <1>   0.0800 
 30 H       -2.9570     2.1390     0.6980 H     1 <1>   0.1000 
 31 H       -0.9860     5.5550    -1.9560 H     1 <1>   0.0800 
 32 H       -1.3300     3.7080     2.8510 H     1 <1>   0.1000 
 33 H       -2.8930     2.8770     3.1190 H     1 <1>   0.1000 
 34 H       -1.8390     0.6990     2.4270 H     1 <1>   0.1000 
 35 H       -0.2850     1.5310     2.1210 H     1 <1>   0.1000 
 36 H       -3.5410     6.3240     0.6540 H     1 <1>   0.1500 
 37 H       -2.7450     3.1710    -2.1210 H     1 <1>   0.1500 
 38 H       -5.0640     3.4630    -2.9240 H     1 <1>   0.1500 
 39 H        1.6800     6.7450    -0.6650 H     1 <1>   0.3700 
 40 H       -6.4970     5.1470    -1.8960 H     1 <1>   0.1500 
 41 H        2.0150     9.1350    -0.5130 H     1 <1>   0.0800 
 42 H        0.4200     9.3340     0.1700 H     1 <1>   0.0800 
 43 H        2.7150     7.9250     1.5480 H     1 <1>   0.0800 
 44 H        1.1200     8.1870     2.2180 H     1 <1>   0.0800 
 45 H        3.0830     9.3690     4.0150 H     1 <1>   0.2700 
 46 H        1.8830    11.4790     0.6020 H     1 <1>   0.1500 
 47 H        3.5990    11.8330     4.3120 H     1 <1>   0.1500 
@<TRIPOS>BOND
  1   1   2  2   
  2   2   3  am  
  3   2   4  1   
  4   3   5  1   
  5   3   6  1   
  6   4   7  1   
  7   4  27  1   
  8   4  28  1   
  9   5   8  1   
 10   5   9  1   
 11   5  29  1   
 12   6  10  1   
 13   6  11  1   
 14   6  30  1   
 15   7   9  1   
 16   8  12  ar  
 17   8  13  ar  
 18   9  14  1   
 19   9  31  1   
 20  10  11  1   
 21  10  32  1   
 22  10  33  1   
 23  11  34  1   
 24  11  35  1   
 25  12  15  ar  
 26  12  36  1   
 27  13  16  ar  
 28  13  37  1   
 29  14  17  2   
 30  14  18  am  
 31  15  19  ar  
 32  16  19  ar  
 33  16  38  1   
 34  18  20  1   
 35  18  39  1   
 36  19  40  1   
 37  20  21  1   
 38  20  41  1   
 39  20  42  1   
 40  21  22  1   
 41  21  43  1   
 42  21  44  1   
 43  22  23  1   
 44  22  24  2   
 45  23  25  1   
 46  23  45  1   
 47  24  26  1   
 48  24  46  1   
 49  25  26  2   
 50  25  47  1   
@<TRIPOS>SUBSTRUCTURE
  1 ****  14 GROUP 4 **** **** 0

# MOE 2024.06 (io_trps.svl 2023.06)
