@<TRIPOS>MOLECULE
NONAME
58 60 1 0 0 
SMALL
USER_CHARGES


@<TRIPOS>ATOM
  1 O       -0.6730    -0.1660     2.7450 O.2   1 <1>  -0.5700 
  2 C       -1.2930     0.6340     2.0870 C.2   1 <1>   0.5690 
  3 N       -2.0370     0.2520     1.0040 N.am  1 <1>  -0.6600 
  4 C       -1.2200     2.0940     2.5000 C.3   1 <1>  -0.0990 
  5 C       -2.8600     1.1270     0.1330 C.3   1 <1>   0.1400 
  6 C       -2.1200    -1.1590     0.5550 C.3   1 <1>   0.1400 
  7 C       -0.1360     2.8570     1.7210 C.3   1 <1>  -0.1600 
  8 C       -3.4530     0.1940    -0.9250 C.3   1 <1>   0.2000 
  9 C       -3.3580    -1.2150    -0.3420 C.3   1 <1>  -0.0800 
 10 C       -0.0280     4.3170     2.1760 C.3   1 <1>  -0.0160 
 11 O       -4.7770     0.5080    -1.1920 O.3   1 <1>  -0.6800 
 12 C       -3.3000    -2.3010    -1.4300 C.3   1 <1>  -0.0170 
 13 C        1.0230     5.0460     1.3560 C.ar  1 <1>  -0.1430 
 14 C       -3.2250    -3.6950    -0.8300 C.ar  1 <1>   0.1670 
 15 C        2.3630     4.9380     1.6890 C.ar  1 <1>  -0.1500 
 16 C        0.6550     5.8190     0.2670 C.ar  1 <1>  -0.1500 
 17 N       -2.0190    -4.1260    -0.4950 N.ar  1 <1>  -0.6200 
 18 C       -4.3880    -4.4330    -0.6610 C.ar  1 <1>  -0.1500 
 19 C        3.3350     5.5910     0.9490 C.ar  1 <1>  -0.1430 
 20 C        1.6150     6.4770    -0.4800 C.ar  1 <1>  -0.1500 
 21 C       -1.9690    -5.3390     0.0330 C.ar  1 <1>   0.1600 
 22 C       -4.3200    -5.6960    -0.1110 C.ar  1 <1>  -0.1500 
 23 C        2.9630     6.3680    -0.1440 C.ar  1 <1>   0.0820 
 24 C        4.8010     5.4540     1.3360 C.3   1 <1>  -0.0970 
 25 C       -3.0700    -6.1520     0.2430 C.ar  1 <1>  -0.1500 
 26 O        3.9510     6.9900    -0.8410 O.3   1 <1>  -0.3630 
 27 C        3.6710     7.8110    -1.9500 C.3   1 <1>   0.1200 
 28 C        4.9950     8.3540    -2.4800 C.3   1 <1>  -0.2400 
 29 H       -2.1780     2.5590     2.3640 H     1 <1>   0.0800 
 30 H       -0.9910     2.1280     3.5510 H     1 <1>   0.0800 
 31 H       -3.6370     1.5850     0.7190 H     1 <1>   0.0800 
 32 H       -2.2470     1.8780    -0.3310 H     1 <1>   0.0800 
 33 H       -1.2300    -1.4040     0.0000 H     1 <1>   0.0800 
 34 H       -2.2060    -1.8310     1.3930 H     1 <1>   0.0800 
 35 H        0.8130     2.3690     1.8700 H     1 <1>   0.0800 
 36 H       -0.3530     2.8280     0.6690 H     1 <1>   0.0800 
 37 H       -2.8920     0.2800    -1.8400 H     1 <1>   0.0800 
 38 H       -4.2020    -1.3980     0.2990 H     1 <1>   0.0800 
 39 H        0.2410     4.3570     3.2170 H     1 <1>   0.0800 
 40 H       -0.9790     4.8080     2.0630 H     1 <1>   0.0800 
 41 H       -5.3230     0.3790    -0.3920 H     1 <1>   0.4000 
 42 H       -2.4420    -2.1470    -2.0600 H     1 <1>   0.0800 
 43 H       -4.1740    -2.2260    -2.0510 H     1 <1>   0.0800 
 44 H        2.6500     4.3360     2.5330 H     1 <1>   0.1500 
 45 H       -0.3810     5.9110    -0.0050 H     1 <1>   0.1500 
 46 H       -5.3380    -4.0260    -0.9550 H     1 <1>   0.1500 
 47 H        1.2940     7.0660    -1.3160 H     1 <1>   0.1500 
 48 H       -0.9960    -5.7040     0.3140 H     1 <1>   0.1500 
 49 H       -5.2020    -6.2960     0.0340 H     1 <1>   0.1500 
 50 H        4.9180     4.8280     2.2010 H     1 <1>   0.0800 
 51 H        5.2110     6.4230     1.5530 H     1 <1>   0.0800 
 52 H        5.3510     5.0210     0.5200 H     1 <1>   0.0800 
 53 H       -2.9450    -7.1260     0.6780 H     1 <1>   0.1500 
 54 H        3.1770     7.2160    -2.6980 H     1 <1>   0.0800 
 55 H        3.0330     8.6150    -1.6260 H     1 <1>   0.0800 
 56 H        5.6310     7.5410    -2.7830 H     1 <1>   0.0800 
 57 H        5.4880     8.9310    -1.7180 H     1 <1>   0.0800 
 58 H        4.8160     8.9860    -3.3300 H     1 <1>   0.0800 
@<TRIPOS>BOND
  1   1   2  2   
  2   2   3  am  
  3   2   4  1   
  4   3   5  1   
  5   3   6  1   
  6   4   7  1   
  7   4  29  1   
  8   4  30  1   
  9   5   8  1   
 10   5  31  1   
 11   5  32  1   
 12   6   9  1   
 13   6  33  1   
 14   6  34  1   
 15   7  10  1   
 16   7  35  1   
 17   7  36  1   
 18   8   9  1   
 19   8  11  1   
 20   8  37  1   
 21   9  12  1   
 22   9  38  1   
 23  10  13  1   
 24  10  39  1   
 25  10  40  1   
 26  11  41  1   
 27  12  14  1   
 28  12  42  1   
 29  12  43  1   
 30  13  15  ar  
 31  13  16  ar  
 32  14  17  ar  
 33  14  18  ar  
 34  15  19  ar  
 35  15  44  1   
 36  16  20  ar  
 37  16  45  1   
 38  17  21  ar  
 39  18  22  ar  
 40  18  46  1   
 41  19  23  ar  
 42  19  24  1   
 43  20  23  ar  
 44  20  47  1   
 45  21  25  ar  
 46  21  48  1   
 47  22  25  ar  
 48  22  49  1   
 49  23  26  1   
 50  24  50  1   
 51  24  51  1   
 52  24  52  1   
 53  25  53  1   
 54  26  27  1   
 55  27  28  1   
 56  27  54  1   
 57  27  55  1   
 58  28  56  1   
 59  28  57  1   
 60  28  58  1   
@<TRIPOS>SUBSTRUCTURE
  1 ****   3 GROUP 4 **** **** 0

# MOE 2024.06 (io_trps.svl 2023.06)
