@<TRIPOS>MOLECULE
NONAME
51 54 1 0 0 
SMALL
USER_CHARGES


@<TRIPOS>ATOM
  1 O        0.2330    -0.8870     0.6120 O.2   1 <1>  -0.5700 
  2 C        1.3270    -1.2140     0.1690 C.2   1 <1>   0.5440 
  3 N        1.4720    -2.3960    -0.5480 N.am  1 <1>  -0.2980 
  4 C        2.4880    -0.3830     0.3330 C.ar  1 <1>   0.0860 
  5 N        2.6230    -2.7620    -1.2070 N.2   1 <1>  -0.5120 
  6 C        0.3370    -3.3630    -0.6000 C.3   1 <1>   0.2010 
  7 C        3.6680    -0.7840    -0.3070 C.ar  1 <1>   0.0860 
  8 C        2.4940     0.7950     1.0880 C.ar  1 <1>  -0.1500 
  9 C        3.6410    -1.9890    -1.0760 C.2   1 <1>   0.3040 
 10 C       -0.0310    -3.9370     0.7760 C.2   1 <1>   0.5690 
 11 C        4.8180     0.0030    -0.1740 C.ar  1 <1>  -0.1500 
 12 C        3.6350     1.5580     1.2080 C.ar  1 <1>  -0.1500 
 13 O        0.8660    -4.4160     1.4360 O.2   1 <1>  -0.5700 
 14 N       -1.3280    -3.9410     1.2510 N.am  1 <1>  -0.6600 
 15 C        4.8030     1.1600     0.5740 C.ar  1 <1>  -0.1500 
 16 C       -2.5120    -3.5940     0.4090 C.3   1 <1>   0.2200 
 17 C       -1.5670    -4.2290     2.7000 C.3   1 <1>   0.0600 
 18 C       -3.7810    -4.3940     0.7070 C.3   1 <1>  -0.1600 
 19 C       -2.9370    -2.1420     0.5870 C.3   1 <1>  -0.1600 
 20 C       -4.9090    -3.5510     0.0990 C.3   1 <1>  -0.0800 
 21 C       -4.3830    -2.0960     0.0760 C.3   1 <1>  -0.0800 
 22 C       -6.2580    -3.7470     0.8190 C.3   1 <1>   0.1400 
 23 C       -5.2670    -1.1070     0.8560 C.3   1 <1>  -0.0990 
 24 N       -7.1780    -2.6260     0.5030 N.am  1 <1>  -0.6600 
 25 C       -6.7280    -1.3350     0.5260 C.2   1 <1>   0.5690 
 26 C       -8.5970    -2.9770     0.2280 C.3   1 <1>   0.0600 
 27 O       -7.4330    -0.3810     0.3000 O.2   1 <1>  -0.5700 
 28 H       -0.4930    -2.8520    -1.0410 H     1 <1>   0.0800 
 29 H        0.6070    -4.1810    -1.2400 H     1 <1>   0.0800 
 30 H        1.5860     1.1010     1.5800 H     1 <1>   0.1500 
 31 H        4.5540    -2.2570    -1.5760 H     1 <1>   0.0600 
 32 H        5.7260    -0.3040    -0.6640 H     1 <1>   0.1500 
 33 H        3.6250     2.4630     1.7930 H     1 <1>   0.1500 
 34 H        5.6930     1.7590     0.6710 H     1 <1>   0.1500 
 35 H       -2.2840    -3.7610    -0.6290 H     1 <1>   0.0800 
 36 H       -2.2800    -3.5360     3.1070 H     1 <1>   0.0800 
 37 H       -0.6550    -4.1320     3.2640 H     1 <1>   0.0800 
 38 H       -1.9330    -5.2340     2.8150 H     1 <1>   0.0800 
 39 H       -3.7380    -5.3760     0.2700 H     1 <1>   0.0800 
 40 H       -3.9450    -4.4780     1.7650 H     1 <1>   0.0800 
 41 H       -2.8980    -1.8770     1.6280 H     1 <1>   0.0800 
 42 H       -2.3050    -1.4730     0.0310 H     1 <1>   0.0800 
 43 H       -5.0410    -3.8620    -0.9240 H     1 <1>   0.0800 
 44 H       -4.3700    -1.7770    -0.9540 H     1 <1>   0.0800 
 45 H       -6.1120    -3.7680     1.8850 H     1 <1>   0.0800 
 46 H       -6.6960    -4.6840     0.5200 H     1 <1>   0.0800 
 47 H       -4.9950    -0.0970     0.6110 H     1 <1>   0.0800 
 48 H       -5.1450    -1.2420     1.9140 H     1 <1>   0.0800 
 49 H       -9.0170    -3.4890     1.0760 H     1 <1>   0.0800 
 50 H       -8.6540    -3.6120    -0.6380 H     1 <1>   0.0800 
 51 H       -9.1760    -2.0880     0.0410 H     1 <1>   0.0800 
@<TRIPOS>BOND
  1   1   2  2   
  2   2   3  am  
  3   2   4  1   
  4   3   5  1   
  5   3   6  1   
  6   4   7  ar  
  7   4   8  ar  
  8   5   9  2   
  9   6  10  1   
 10   6  28  1   
 11   6  29  1   
 12   7   9  1   
 13   7  11  ar  
 14   8  12  ar  
 15   8  30  1   
 16   9  31  1   
 17  10  13  2   
 18  10  14  am  
 19  11  15  ar  
 20  11  32  1   
 21  12  15  ar  
 22  12  33  1   
 23  14  16  1   
 24  14  17  1   
 25  15  34  1   
 26  16  18  1   
 27  16  19  1   
 28  16  35  1   
 29  17  36  1   
 30  17  37  1   
 31  17  38  1   
 32  18  20  1   
 33  18  39  1   
 34  18  40  1   
 35  19  21  1   
 36  19  41  1   
 37  19  42  1   
 38  20  21  1   
 39  20  22  1   
 40  20  43  1   
 41  21  23  1   
 42  21  44  1   
 43  22  24  1   
 44  22  45  1   
 45  22  46  1   
 46  23  25  1   
 47  23  47  1   
 48  23  48  1   
 49  24  25  am  
 50  24  26  1   
 51  25  27  2   
 52  26  49  1   
 53  26  50  1   
 54  26  51  1   
@<TRIPOS>SUBSTRUCTURE
  1 ****   1 GROUP 4 **** **** 0

# MOE 2024.06 (io_trps.svl 2023.06)
