@<TRIPOS>MOLECULE
NONAME
58 61 1 0 0 
SMALL
USER_CHARGES


@<TRIPOS>ATOM
  1 O       -2.1490     0.5420    -0.0840 O.2   1 <1>  -0.5700 
  2 C       -1.7670     1.6210     0.3370 C.2   1 <1>   0.7160 
  3 N       -2.7450     2.5020     0.7390 N.am  1 <1>  -0.6600 
  4 C       -0.3680     1.9850     0.3260 C.2   1 <1>  -0.0860 
  5 C       -3.9710     1.9980     1.4410 C.3   1 <1>   0.1400 
  6 C       -2.8180     3.8530     0.1260 C.3   1 <1>   0.1400 
  7 C        0.2730     3.0420     0.9270 C.2   1 <1>  -0.3020 
  8 C        0.6510     1.2730    -0.3380 C.2   1 <1>  -0.1500 
  9 C       -5.1370     1.6200     0.4880 C.3   1 <1>   0.4230 
 10 C       -4.0740     4.0360    -0.7490 C.3   1 <1>  -0.0800 
 11 N        1.5990     3.0050     0.6580 N.pl3 1 <1>   0.0330 
 12 C        1.8250     1.9170    -0.1210 C.2   1 <1>  -0.3020 
 13 N       -4.6590     1.5240    -0.9470 N.4   1 <1>  -0.9590 
 14 C       -6.3810     2.5250     0.6760 C.3   1 <1>   0.1200 
 15 C       -5.2940     4.5390     0.0500 C.3   1 <1>   0.1200 
 16 C       -4.4070     2.8280    -1.6560 C.3   1 <1>   0.3430 
 17 C       -5.5000     0.6300    -1.7840 C.3   1 <1>   0.4860 
 18 O       -6.3740     3.6770    -0.1190 O.3   1 <1>  -0.5600 
 19 C       -5.7140    -0.6930    -1.0750 C.ar  1 <1>  -0.1440 
 20 C       -6.9740    -1.0180    -0.5970 C.ar  1 <1>  -0.1500 
 21 C       -4.6620    -1.5760    -0.8740 C.ar  1 <1>  -0.1500 
 22 C       -7.1910    -2.2020     0.0870 C.ar  1 <1>   0.0820 
 23 C       -4.8720    -2.7640    -0.1960 C.ar  1 <1>  -0.1500 
 24 O       -8.4560    -2.4120     0.5280 O.3   1 <1>  -0.3620 
 25 C       -6.1300    -3.0800     0.2860 C.ar  1 <1>  -0.1500 
 26 C       -8.8800    -3.6200     1.1220 C.3   1 <1>   0.2000 
 27 C       -9.1090    -4.6610     0.0230 C.3   1 <1>  -0.2400 
 28 C      -10.1760    -3.3190     1.8700 C.3   1 <1>  -0.2400 
 29 H       -3.7040     1.1140     1.9950 H     1 <1>   0.0800 
 30 H       -4.2920     2.7240     2.1670 H     1 <1>   0.0800 
 31 H       -2.7850     4.6000     0.9020 H     1 <1>   0.0800 
 32 H       -1.9490     4.0030    -0.4930 H     1 <1>   0.0800 
 33 H       -0.1610     3.8100     1.5410 H     1 <1>   0.1500 
 34 H        0.4920     0.3730    -0.9090 H     1 <1>   0.1500 
 35 H       -5.4400     0.6410     0.8170 H     1 <1>   0.0800 
 36 H       -3.8330     4.8460    -1.4140 H     1 <1>   0.0800 
 37 H        2.3140     3.6660     0.9870 H     1 <1>   0.2700 
 38 H        2.8080     1.6560    -0.4740 H     1 <1>   0.1500 
 39 H       -3.7380     1.0540    -0.8390 H     1 <1>   0.4500 
 40 H       -6.4940     2.8190     1.7050 H     1 <1>   0.0800 
 41 H       -7.2600     1.9680     0.4050 H     1 <1>   0.0800 
 42 H       -5.6030     5.4990    -0.3290 H     1 <1>   0.0800 
 43 H       -5.0890     4.6520     1.1020 H     1 <1>   0.0800 
 44 H       -3.6030     2.6900    -2.3600 H     1 <1>   0.0800 
 45 H       -5.2880     3.0900    -2.2190 H     1 <1>   0.0800 
 46 H       -6.4530     1.0970    -1.9700 H     1 <1>   0.0800 
 47 H       -5.0180     0.4510    -2.7320 H     1 <1>   0.0800 
 48 H       -7.8150    -0.3620    -0.7440 H     1 <1>   0.1500 
 49 H       -3.6710    -1.3530    -1.2360 H     1 <1>   0.1500 
 50 H       -4.0520    -3.4460    -0.0430 H     1 <1>   0.1500 
 51 H       -6.2600    -4.0080     0.8080 H     1 <1>   0.1500 
 52 H       -8.1350    -3.9460     1.8270 H     1 <1>   0.0800 
 53 H       -9.8450    -4.3070    -0.6770 H     1 <1>   0.0800 
 54 H       -9.4630    -5.5790     0.4560 H     1 <1>   0.0800 
 55 H       -8.1950    -4.8690    -0.5020 H     1 <1>   0.0800 
 56 H      -10.9280    -2.9620     1.1900 H     1 <1>   0.0800 
 57 H       -9.9980    -2.5770     2.6270 H     1 <1>   0.0800 
 58 H      -10.5410    -4.2100     2.3480 H     1 <1>   0.0800 
@<TRIPOS>BOND
  1   1   2  2   
  2   2   3  am  
  3   2   4  1   
  4   3   5  1   
  5   3   6  1   
  6   4   7  2   
  7   4   8  1   
  8   5   9  1   
  9   5  29  1   
 10   5  30  1   
 11   6  10  1   
 12   6  31  1   
 13   6  32  1   
 14   7  11  1   
 15   7  33  1   
 16   8  12  2   
 17   8  34  1   
 18   9  13  1   
 19   9  14  1   
 20   9  35  1   
 21  10  15  1   
 22  10  16  1   
 23  10  36  1   
 24  11  12  1   
 25  11  37  1   
 26  12  38  1   
 27  13  16  1   
 28  13  17  1   
 29  13  39  1   
 30  14  18  1   
 31  14  40  1   
 32  14  41  1   
 33  15  18  1   
 34  15  42  1   
 35  15  43  1   
 36  16  44  1   
 37  16  45  1   
 38  17  19  1   
 39  17  46  1   
 40  17  47  1   
 41  19  20  ar  
 42  19  21  ar  
 43  20  22  ar  
 44  20  48  1   
 45  21  23  ar  
 46  21  49  1   
 47  22  24  1   
 48  22  25  ar  
 49  23  25  ar  
 50  23  50  1   
 51  24  26  1   
 52  25  51  1   
 53  26  27  1   
 54  26  28  1   
 55  26  52  1   
 56  27  53  1   
 57  27  54  1   
 58  27  55  1   
 59  28  56  1   
 60  28  57  1   
 61  28  58  1   
@<TRIPOS>SUBSTRUCTURE
  1 ****   9 GROUP 4 **** **** 0

# MOE 2024.06 (io_trps.svl 2023.06)
