@<TRIPOS>MOLECULE
NONAME
52 54 1 0 0 
SMALL
USER_CHARGES


@<TRIPOS>ATOM
  1 O       -0.8460    -0.0340     1.1750 O.2   1 <1>  -0.5700 
  2 C       -1.2660     0.1830     0.0650 C.2   1 <1>   0.5690 
  3 N       -2.0650    -0.7110    -0.5770 N.am  1 <1>  -0.7300 
  4 C       -0.8600     1.4870    -0.6280 C.3   1 <1>   0.0610 
  5 C       -2.4500    -2.0340    -0.0200 C.3   1 <1>   0.1400 
  6 C       -0.5600     2.5970     0.4090 C.3   1 <1>   0.4230 
  7 C       -1.9720     2.1730    -1.4690 C.3   1 <1>  -0.1600 
  8 C        0.3870     1.2090    -1.5080 C.3   1 <1>  -0.0220 
  9 C       -3.8170    -1.9430     0.6580 C.3   1 <1>  -0.0170 
 10 N       -0.6360     3.7930    -0.4380 N.4   1 <1>  -0.9060 
 11 C       -1.7430     2.8880     1.3520 C.3   1 <1>  -0.1600 
 12 C       -2.0090     3.6040    -0.9070 C.3   1 <1>   0.4230 
 13 C        1.6530     1.1380    -0.6670 C.2   1 <1>  -0.2880 
 14 C       -4.2290    -3.3080     1.1810 C.ar  1 <1>  -0.1440 
 15 C       -2.7510     3.5890     0.4290 C.3   1 <1>  -0.1600 
 16 C        2.7050     1.9650    -0.6650 C.2   1 <1>  -0.2760 
 17 C       -5.0720    -4.1230     0.4400 C.ar  1 <1>  -0.1500 
 18 C       -3.7580    -3.7540     2.4070 C.ar  1 <1>  -0.1500 
 19 C        3.8820     1.7230     0.2680 C.3   1 <1>  -0.1020 
 20 C        2.9240     3.1970    -1.5360 C.3   1 <1>  -0.1020 
 21 C       -5.4390    -5.3680     0.9190 C.ar  1 <1>  -0.1500 
 22 C       -4.1240    -4.9990     2.8860 C.ar  1 <1>  -0.1500 
 23 C       -4.9650    -5.8080     2.1430 C.ar  1 <1>  -0.1500 
 24 H       -2.3790    -0.5470    -1.5350 H     1 <1>   0.3700 
 25 H       -2.4810    -2.7630    -0.8110 H     1 <1>   0.0800 
 26 H       -1.7150    -2.3560     0.7000 H     1 <1>   0.0800 
 27 H        0.3810     2.4710     0.9230 H     1 <1>   0.0800 
 28 H       -2.9330     1.7020    -1.3520 H     1 <1>   0.0800 
 29 H       -1.7420     2.1920    -2.5200 H     1 <1>   0.0800 
 30 H        0.2670     0.2740    -2.0300 H     1 <1>   0.0800 
 31 H        0.4980     1.9630    -2.2620 H     1 <1>   0.0800 
 32 H       -3.7650    -1.2490     1.4780 H     1 <1>   0.0800 
 33 H       -4.5510    -1.5890    -0.0430 H     1 <1>   0.0800 
 34 H       -0.5290     4.6430     0.1240 H     1 <1>   0.4500 
 35 H        0.0710     3.7550    -1.1790 H     1 <1>   0.4500 
 36 H       -2.1570     2.0030     1.8040 H     1 <1>   0.0800 
 37 H       -1.4270     3.5440     2.1450 H     1 <1>   0.0800 
 38 H       -2.3590     4.3540    -1.6000 H     1 <1>   0.0800 
 39 H        1.6290     0.2810    -0.0080 H     1 <1>   0.1500 
 40 H       -2.9480     4.5940     0.7630 H     1 <1>   0.0800 
 41 H       -3.6870     3.0590     0.3680 H     1 <1>   0.0800 
 42 H       -5.4480    -3.7940    -0.5120 H     1 <1>   0.1500 
 43 H       -3.1020    -3.1340     2.9940 H     1 <1>   0.1500 
 44 H        4.0270     2.5680     0.9180 H     1 <1>   0.0800 
 45 H        4.7820     1.5670    -0.3010 H     1 <1>   0.0800 
 46 H        3.7190     0.8520     0.8790 H     1 <1>   0.0800 
 47 H        3.8310     3.0770    -2.1030 H     1 <1>   0.0800 
 48 H        3.0300     4.0720    -0.9190 H     1 <1>   0.0800 
 49 H        2.1280     3.3640    -2.2330 H     1 <1>   0.0800 
 50 H       -6.0940    -5.9960     0.3400 H     1 <1>   0.1500 
 51 H       -3.7550    -5.3390     3.8380 H     1 <1>   0.1500 
 52 H       -5.2510    -6.7760     2.5150 H     1 <1>   0.1500 
@<TRIPOS>BOND
  1   1   2  2   
  2   2   3  am  
  3   2   4  1   
  4   3   5  1   
  5   3  24  1   
  6   4   6  1   
  7   4   7  1   
  8   4   8  1   
  9   5   9  1   
 10   5  25  1   
 11   5  26  1   
 12   6  10  1   
 13   6  11  1   
 14   6  27  1   
 15   7  12  1   
 16   7  28  1   
 17   7  29  1   
 18   8  13  1   
 19   8  30  1   
 20   8  31  1   
 21   9  14  1   
 22   9  32  1   
 23   9  33  1   
 24  10  12  1   
 25  10  34  1   
 26  10  35  1   
 27  11  15  1   
 28  11  36  1   
 29  11  37  1   
 30  12  15  1   
 31  12  38  1   
 32  13  16  2   
 33  13  39  1   
 34  14  17  ar  
 35  14  18  ar  
 36  15  40  1   
 37  15  41  1   
 38  16  19  1   
 39  16  20  1   
 40  17  21  ar  
 41  17  42  1   
 42  18  22  ar  
 43  18  43  1   
 44  19  44  1   
 45  19  45  1   
 46  19  46  1   
 47  20  47  1   
 48  20  48  1   
 49  20  49  1   
 50  21  23  ar  
 51  21  50  1   
 52  22  23  ar  
 53  22  51  1   
 54  23  52  1   
@<TRIPOS>SUBSTRUCTURE
  1 ****   2 GROUP 4 **** **** 0

# MOE 2024.06 (io_trps.svl 2023.06)
