@<TRIPOS>MOLECULE
NONAME
46 47 1 0 0 
SMALL
USER_CHARGES


@<TRIPOS>ATOM
  1 O       -0.8790    -0.1110     1.1140 O.co2 1 <1>  -0.9000 
  2 C       -0.9100     1.1030     0.9010 C.2   1 <1>   0.9060 
  3 O       -0.1420     1.9100     1.4280 O.co2 1 <1>  -0.9000 
  4 C       -1.9870     1.6340    -0.0130 C.3   1 <1>  -0.2660 
  5 C       -3.3000     1.8300     0.7560 C.3   1 <1>  -0.1600 
  6 C       -4.4110     2.3420    -0.1600 C.3   1 <1>  -0.1600 
  7 C       -5.7000     2.4960     0.6410 C.3   1 <1>   0.3430 
  8 N       -6.8220     2.8640    -0.2590 N.4   1 <1>  -0.9590 
  9 C       -8.1290     2.6250     0.4310 C.3   1 <1>   0.3430 
 10 C       -6.7210     4.2710    -0.7430 C.3   1 <1>   0.3430 
 11 C       -9.3260     2.8740    -0.5130 C.3   1 <1>   0.0000 
 12 C       -7.8590     4.5670    -1.7240 C.3   1 <1>  -0.1600 
 13 C      -10.6350     2.6580     0.2620 C.3   1 <1>   0.2000 
 14 C       -9.2370     4.2980    -1.0990 C.3   1 <1>  -0.1600 
 15 C       -9.4000     1.7890    -1.6010 C.3   1 <1>  -0.1600 
 16 O      -10.4840     3.0930     1.5790 O.3   1 <1>  -0.5600 
 17 C      -10.9160     1.1510     0.2090 C.3   1 <1>  -0.1600 
 18 C      -10.0400     0.5810    -0.9140 C.3   1 <1>  -0.1600 
 19 C      -11.6800     3.2690     2.2760 C.3   1 <1>   0.0400 
 20 H       -1.6420     2.5640    -0.4240 H     1 <1>   0.0800 
 21 H       -2.1140     0.9260    -0.8100 H     1 <1>   0.0800 
 22 H       -3.5790     0.8840     1.1920 H     1 <1>   0.0800 
 23 H       -3.1220     2.5250     1.5600 H     1 <1>   0.0800 
 24 H       -4.5540     1.6320    -0.9560 H     1 <1>   0.0800 
 25 H       -4.1040     3.2850    -0.5750 H     1 <1>   0.0800 
 26 H       -5.5700     3.2440     1.4080 H     1 <1>   0.0800 
 27 H       -5.9160     1.5560     1.1230 H     1 <1>   0.0800 
 28 H       -6.7880     2.2420    -1.0740 H     1 <1>   0.4500 
 29 H       -8.1770     1.6130     0.7980 H     1 <1>   0.0800 
 30 H       -8.2120     3.2860     1.2790 H     1 <1>   0.0800 
 31 H       -6.7840     4.9480     0.0950 H     1 <1>   0.0800 
 32 H       -5.7750     4.4290    -1.2350 H     1 <1>   0.0800 
 33 H       -7.8030     5.6010    -2.0200 H     1 <1>   0.0800 
 34 H       -7.7300     3.9740    -2.6120 H     1 <1>   0.0800 
 35 H      -11.4350     3.2060    -0.2100 H     1 <1>   0.0800 
 36 H      -10.0080     4.4500    -1.8360 H     1 <1>   0.0800 
 37 H       -9.4060     5.0100    -0.3070 H     1 <1>   0.0800 
 38 H      -10.0570     2.1170    -2.3900 H     1 <1>   0.0800 
 39 H       -8.4500     1.5410    -2.0370 H     1 <1>   0.0800 
 40 H      -10.6700     0.6760     1.1430 H     1 <1>   0.0800 
 41 H      -11.9570     0.9840    -0.0090 H     1 <1>   0.0800 
 42 H       -9.2780    -0.0520    -0.4920 H     1 <1>   0.0800 
 43 H      -10.6210    -0.0010    -1.6110 H     1 <1>   0.0800 
 44 H      -11.4440     3.6060     3.2700 H     1 <1>   0.0800 
 45 H      -12.2090     2.3330     2.3300 H     1 <1>   0.0800 
 46 H      -12.2790     4.0120     1.7770 H     1 <1>   0.0800 
@<TRIPOS>BOND
  1   1   2  ar  
  2   2   3  ar  
  3   2   4  1   
  4   4   5  1   
  5   4  20  1   
  6   4  21  1   
  7   5   6  1   
  8   5  22  1   
  9   5  23  1   
 10   6   7  1   
 11   6  24  1   
 12   6  25  1   
 13   7   8  1   
 14   7  26  1   
 15   7  27  1   
 16   8   9  1   
 17   8  10  1   
 18   8  28  1   
 19   9  11  1   
 20   9  29  1   
 21   9  30  1   
 22  10  12  1   
 23  10  31  1   
 24  10  32  1   
 25  11  13  1   
 26  11  14  1   
 27  11  15  1   
 28  12  14  1   
 29  12  33  1   
 30  12  34  1   
 31  13  16  1   
 32  13  17  1   
 33  13  35  1   
 34  14  36  1   
 35  14  37  1   
 36  15  18  1   
 37  15  38  1   
 38  15  39  1   
 39  16  19  1   
 40  17  18  1   
 41  17  40  1   
 42  17  41  1   
 43  18  42  1   
 44  18  43  1   
 45  19  44  1   
 46  19  45  1   
 47  19  46  1   
@<TRIPOS>SUBSTRUCTURE
  1 ****   8 GROUP 4 **** **** 0

# MOE 2024.06 (io_trps.svl 2023.06)
