@<TRIPOS>MOLECULE
NONAME
46 49 1 0 0 
SMALL
USER_CHARGES


@<TRIPOS>ATOM
  1 N        0.6370     0.2300    -0.0240 N.ar  1 <1>  -0.6200 
  2 C       -0.4820     0.8770    -0.3770 C.ar  1 <1>   0.6200 
  3 C        1.4440     0.8880     0.7780 C.ar  1 <1>   0.1660 
  4 N       -0.8190     2.1110     0.0140 N.ar  1 <1>  -0.6200 
  5 C       -1.3870     0.1790    -1.2710 C.ar  1 <1>   0.0000 
  6 C        1.1790     2.1450     1.2250 C.ar  1 <1>  -0.1430 
  7 C        2.7800     0.3800     1.3000 C.3   1 <1>   0.1440 
  8 C        0.0120     2.7370     0.8160 C.ar  1 <1>   0.1600 
  9 C       -1.6960    -1.1710    -1.0860 C.ar  1 <1>  -0.1500 
 10 C       -1.9780     0.8270    -2.3570 C.ar  1 <1>  -0.1500 
 11 C        2.2790     2.6680     2.1150 C.3   1 <1>  -0.0160 
 12 C        3.5920    -0.2360     0.1430 C.3   1 <1>   0.3430 
 13 C        2.5930    -0.6630     2.4260 C.3   1 <1>  -0.1600 
 14 C        3.4280     1.6750     1.8540 C.3   1 <1>  -0.1600 
 15 C       -2.5420    -1.8440    -1.9490 C.ar  1 <1>  -0.1500 
 16 C       -2.8240     0.1600    -3.2240 C.ar  1 <1>  -0.1500 
 17 N        2.9270    -1.4850    -0.3560 N.4   1 <1>  -0.9590 
 18 C        2.0740    -2.0150     1.8970 C.3   1 <1>  -0.1600 
 19 C       -3.1060    -1.1790    -3.0220 C.ar  1 <1>  -0.1500 
 20 C        2.8750    -2.5340     0.6980 C.3   1 <1>   0.3430 
 21 C        3.4760    -1.9900    -1.6350 C.3   1 <1>   0.3430 
 22 C        3.0440    -1.0670    -2.7680 C.3   1 <1>  -0.2400 
 23 H       -0.2450     3.7310     1.1440 H     1 <1>   0.1500 
 24 H       -1.2730    -1.6970    -0.2490 H     1 <1>   0.1500 
 25 H       -1.7700     1.8710    -2.5210 H     1 <1>   0.1500 
 26 H        1.9620     2.6270     3.1430 H     1 <1>   0.0800 
 27 H        2.5570     3.6760     1.8590 H     1 <1>   0.0800 
 28 H        4.5890    -0.4620     0.4800 H     1 <1>   0.0800 
 29 H        3.6550     0.4880    -0.6520 H     1 <1>   0.0800 
 30 H        1.9090    -0.2830     3.1670 H     1 <1>   0.0800 
 31 H        3.5380    -0.8310     2.9130 H     1 <1>   0.0800 
 32 H        4.0720     2.1050     1.1060 H     1 <1>   0.0800 
 33 H        4.0100     1.5070     2.7440 H     1 <1>   0.0800 
 34 H       -2.7680    -2.8830    -1.7860 H     1 <1>   0.1500 
 35 H       -3.2660     0.6830    -4.0540 H     1 <1>   0.1500 
 36 H        1.9420    -1.1930    -0.5270 H     1 <1>   0.4500 
 37 H        1.0390    -1.9230     1.6140 H     1 <1>   0.0800 
 38 H        2.1160    -2.7440     2.6870 H     1 <1>   0.0800 
 39 H       -3.7660    -1.6990    -3.6960 H     1 <1>   0.1500 
 40 H        3.8750    -2.7880     1.0100 H     1 <1>   0.0800 
 41 H        2.4020    -3.4220     0.3110 H     1 <1>   0.0800 
 42 H        3.0890    -2.9790    -1.8290 H     1 <1>   0.0800 
 43 H        4.5520    -2.0500    -1.5860 H     1 <1>   0.0800 
 44 H        1.9710    -0.9790    -2.7980 H     1 <1>   0.0800 
 45 H        3.3690    -1.4820    -3.7050 H     1 <1>   0.0800 
 46 H        3.4830    -0.0910    -2.6720 H     1 <1>   0.0800 
@<TRIPOS>BOND
  1   1   2  ar  
  2   1   3  ar  
  3   2   4  ar  
  4   2   5  1   
  5   3   6  ar  
  6   3   7  1   
  7   4   8  ar  
  8   5   9  ar  
  9   5  10  ar  
 10   6   8  ar  
 11   6  11  1   
 12   7  12  1   
 13   7  13  1   
 14   7  14  1   
 15   8  23  1   
 16   9  15  ar  
 17   9  24  1   
 18  10  16  ar  
 19  10  25  1   
 20  11  14  1   
 21  11  26  1   
 22  11  27  1   
 23  12  17  1   
 24  12  28  1   
 25  12  29  1   
 26  13  18  1   
 27  13  30  1   
 28  13  31  1   
 29  14  32  1   
 30  14  33  1   
 31  15  19  ar  
 32  15  34  1   
 33  16  19  ar  
 34  16  35  1   
 35  17  20  1   
 36  17  21  1   
 37  17  36  1   
 38  18  20  1   
 39  18  37  1   
 40  18  38  1   
 41  19  39  1   
 42  20  40  1   
 43  20  41  1   
 44  21  22  1   
 45  21  42  1   
 46  21  43  1   
 47  22  44  1   
 48  22  45  1   
 49  22  46  1   
@<TRIPOS>SUBSTRUCTURE
  1 ****   1 GROUP 4 **** **** 0

# MOE 2024.06 (io_trps.svl 2023.06)
