@<TRIPOS>MOLECULE
NONAME
55 57 1 0 0 
SMALL
USER_CHARGES


@<TRIPOS>ATOM
  1 O       -0.9520     0.6810    -0.8530 O.2   1 <1>  -0.5700 
  2 C       -2.0120     1.1040    -0.4550 C.2   1 <1>   0.5690 
  3 N       -3.0480     0.2520    -0.1760 N.am  1 <1>  -0.6600 
  4 C       -2.1840     2.6180    -0.2800 C.3   1 <1>  -0.0190 
  5 C       -4.4080     0.6130     0.2940 C.3   1 <1>   0.1400 
  6 C       -2.9320    -1.2150    -0.3610 C.3   1 <1>   0.1400 
  7 C       -2.6990     3.2660    -1.5780 C.3   1 <1>  -0.1600 
  8 C       -0.8800     3.3150     0.1600 C.3   1 <1>  -0.1600 
  9 C       -5.1800    -0.7080     0.3300 C.3   1 <1>   0.2000 
 10 C       -4.1210    -1.8060     0.3980 C.3   1 <1>  -0.0800 
 11 C       -2.8820     4.7770    -1.4200 C.3   1 <1>   0.1400 
 12 C       -1.0680     4.8270     0.3090 C.3   1 <1>   0.1400 
 13 O       -6.0110    -0.7810     1.4360 O.3   1 <1>  -0.6800 
 14 C       -4.6250    -3.1480    -0.1620 C.3   1 <1>  -0.0170 
 15 N       -1.6100     5.3970    -0.9570 N.am  1 <1>  -0.6600 
 16 C       -3.5690    -4.2360    -0.0600 C.ar  1 <1>   0.1670 
 17 C       -1.0560     6.4670    -1.6270 C.2   1 <1>   0.5690 
 18 N       -2.6620    -4.2700    -1.0230 N.ar  1 <1>  -0.6200 
 19 C       -3.5880    -5.1290     1.0100 C.ar  1 <1>   0.1600 
 20 O       -1.5640     6.9100    -2.6340 O.2   1 <1>  -0.5700 
 21 C        0.2480     7.1300    -1.1680 C.3   1 <1>   0.1810 
 22 C       -1.7820    -5.2420    -0.8440 C.ar  1 <1>   0.1600 
 23 N       -2.7100    -6.1020     1.1910 N.ar  1 <1>  -0.6200 
 24 O        0.1620     7.6610     0.1330 O.3   1 <1>  -0.5600 
 25 C       -1.8060    -6.1270     0.2270 C.ar  1 <1>   0.1600 
 26 C        1.2940     8.3530     0.5360 C.3   1 <1>   0.1200 
 27 C        1.0620     8.8100     1.9700 C.3   1 <1>  -0.2400 
 28 H       -2.9070     2.7910     0.4950 H     1 <1>   0.0800 
 29 H       -4.3420     1.0430     1.2780 H     1 <1>   0.0800 
 30 H       -4.8730     1.3030    -0.3880 H     1 <1>   0.0800 
 31 H       -2.9930    -1.4410    -1.4130 H     1 <1>   0.0800 
 32 H       -1.9940    -1.5820     0.0220 H     1 <1>   0.0800 
 33 H       -3.6380     2.8250    -1.8600 H     1 <1>   0.0800 
 34 H       -2.0010     3.0810    -2.3760 H     1 <1>   0.0800 
 35 H       -0.1060     3.1350    -0.5660 H     1 <1>   0.0800 
 36 H       -0.5500     2.9030     1.0970 H     1 <1>   0.0800 
 37 H       -5.7840    -0.7990    -0.5570 H     1 <1>   0.0800 
 38 H       -3.8080    -1.9410     1.4180 H     1 <1>   0.0800 
 39 H       -3.6520     4.9840    -0.6970 H     1 <1>   0.0800 
 40 H       -3.1910     5.1980    -2.3620 H     1 <1>   0.0800 
 41 H       -0.1240     5.2700     0.5670 H     1 <1>   0.0800 
 42 H       -1.7590     5.0370     1.1070 H     1 <1>   0.0800 
 43 H       -5.4890    -0.7400     2.2610 H     1 <1>   0.4000 
 44 H       -4.9090    -3.0330    -1.1940 H     1 <1>   0.0800 
 45 H       -5.5040    -3.4500     0.3810 H     1 <1>   0.0800 
 46 H       -4.3620    -5.0340     1.7510 H     1 <1>   0.1500 
 47 H        0.4810     7.9330    -1.8450 H     1 <1>   0.0800 
 48 H        1.0390     6.4050    -1.1920 H     1 <1>   0.0800 
 49 H       -1.0050    -5.3420    -1.5810 H     1 <1>   0.1500 
 50 H       -1.0450    -6.8850     0.2860 H     1 <1>   0.1500 
 51 H        2.1460     7.6970     0.4790 H     1 <1>   0.0800 
 52 H        1.4330     9.2010    -0.1150 H     1 <1>   0.0800 
 53 H        0.9090     7.9590     2.6090 H     1 <1>   0.0800 
 54 H        0.2020     9.4530     2.0170 H     1 <1>   0.0800 
 55 H        1.9190     9.3550     2.3230 H     1 <1>   0.0800 
@<TRIPOS>BOND
  1   1   2  2   
  2   2   3  am  
  3   2   4  1   
  4   3   5  1   
  5   3   6  1   
  6   4   7  1   
  7   4   8  1   
  8   4  28  1   
  9   5   9  1   
 10   5  29  1   
 11   5  30  1   
 12   6  10  1   
 13   6  31  1   
 14   6  32  1   
 15   7  11  1   
 16   7  33  1   
 17   7  34  1   
 18   8  12  1   
 19   8  35  1   
 20   8  36  1   
 21   9  10  1   
 22   9  13  1   
 23   9  37  1   
 24  10  14  1   
 25  10  38  1   
 26  11  15  1   
 27  11  39  1   
 28  11  40  1   
 29  12  15  1   
 30  12  41  1   
 31  12  42  1   
 32  13  43  1   
 33  14  16  1   
 34  14  44  1   
 35  14  45  1   
 36  15  17  am  
 37  16  18  ar  
 38  16  19  ar  
 39  17  20  2   
 40  17  21  1   
 41  18  22  ar  
 42  19  23  ar  
 43  19  46  1   
 44  21  24  1   
 45  21  47  1   
 46  21  48  1   
 47  22  25  ar  
 48  22  49  1   
 49  23  25  ar  
 50  24  26  1   
 51  25  50  1   
 52  26  27  1   
 53  26  51  1   
 54  26  52  1   
 55  27  53  1   
 56  27  54  1   
 57  27  55  1   
@<TRIPOS>SUBSTRUCTURE
  1 ****   2 GROUP 4 **** **** 0

# MOE 2024.06 (io_trps.svl 2023.06)
