@<TRIPOS>MOLECULE
NONAME
40 42 1 0 0 
SMALL
USER_CHARGES


@<TRIPOS>ATOM
  1 CL      -0.4990    -0.5570     1.4200 Cl    1 <1>  -0.1770 
  2 C        1.0170    -1.3220     0.9650 C.ar  1 <1>   0.1770 
  3 C        1.0710    -2.5670     0.3400 C.ar  1 <1>   0.4100 
  4 C        2.1940    -0.6860     1.2450 C.ar  1 <1>   0.1600 
  5 N        2.2440    -3.1070     0.0490 N.ar  1 <1>  -0.6200 
  6 N       -0.0470    -3.3040    -0.0060 N.pl3 1 <1>  -0.8380 
  7 N        3.3680    -1.2170     0.9450 N.ar  1 <1>  -0.6200 
  8 C        3.3160    -2.4030     0.3640 C.ar  1 <1>   0.4770 
  9 C        0.0120    -4.7920     0.0100 C.3   1 <1>   0.3530 
 10 C       -1.0780    -2.7540    -0.9180 C.3   1 <1>   0.2090 
 11 C        4.6500    -3.0220     0.0220 C.3   1 <1>  -0.0960 
 12 C       -1.3790    -5.4290    -0.0060 C.ar  1 <1>  -0.1430 
 13 C       -2.4570    -3.1740    -0.4100 C.3   1 <1>  -0.0160 
 14 C       -2.5370    -4.6810    -0.2080 C.ar  1 <1>  -0.1430 
 15 C       -1.4810    -6.8010     0.1730 C.ar  1 <1>  -0.1500 
 16 C       -3.7740    -5.3070    -0.2110 C.ar  1 <1>  -0.1500 
 17 C       -2.7130    -7.4330     0.1530 C.ar  1 <1>   0.0820 
 18 C       -3.8750    -6.6740    -0.0160 C.ar  1 <1>   0.0820 
 19 O       -2.7240    -8.7810     0.2960 O.3   1 <1>  -0.3630 
 20 O       -5.1190    -7.2130     0.0080 O.3   1 <1>  -0.3630 
 21 C       -3.1790    -9.5250    -0.8130 C.3   1 <1>   0.0400 
 22 C       -5.5400    -7.7460     1.2440 C.3   1 <1>   0.0400 
 23 H        2.1810     0.2760     1.7270 H     1 <1>   0.1500 
 24 H        0.5380    -5.1110     0.8940 H     1 <1>   0.0800 
 25 H        0.5650    -5.1290    -0.8490 H     1 <1>   0.0800 
 26 H       -0.9220    -3.1530    -1.9060 H     1 <1>   0.0800 
 27 H       -1.0100    -1.6820    -0.9740 H     1 <1>   0.0800 
 28 H        4.5160    -4.0030    -0.3970 H     1 <1>   0.0800 
 29 H        5.2470    -3.1000     0.9110 H     1 <1>   0.0800 
 30 H        5.1580    -2.4020    -0.6920 H     1 <1>   0.0800 
 31 H       -3.2020    -2.8570    -1.1170 H     1 <1>   0.0800 
 32 H       -2.6510    -2.6800     0.5250 H     1 <1>   0.0800 
 33 H       -0.6010    -7.3990     0.3250 H     1 <1>   0.1500 
 34 H       -4.6750    -4.7390    -0.3550 H     1 <1>   0.1500 
 35 H       -3.0180   -10.5670    -0.6080 H     1 <1>   0.0800 
 36 H       -2.6210    -9.2280    -1.6830 H     1 <1>   0.0800 
 37 H       -4.2270    -9.3390    -0.9610 H     1 <1>   0.0800 
 38 H       -6.5700    -8.0390     1.1500 H     1 <1>   0.0800 
 39 H       -5.4380    -6.9890     2.0010 H     1 <1>   0.0800 
 40 H       -4.9360    -8.6010     1.4880 H     1 <1>   0.0800 
@<TRIPOS>BOND
  1   1   2  1   
  2   2   3  ar  
  3   2   4  ar  
  4   3   5  ar  
  5   3   6  1   
  6   4   7  ar  
  7   4  23  1   
  8   5   8  ar  
  9   6   9  1   
 10   6  10  1   
 11   7   8  ar  
 12   8  11  1   
 13   9  12  1   
 14   9  24  1   
 15   9  25  1   
 16  10  13  1   
 17  10  26  1   
 18  10  27  1   
 19  11  28  1   
 20  11  29  1   
 21  11  30  1   
 22  12  14  ar  
 23  12  15  ar  
 24  13  14  1   
 25  13  31  1   
 26  13  32  1   
 27  14  16  ar  
 28  15  17  ar  
 29  15  33  1   
 30  16  18  ar  
 31  16  34  1   
 32  17  18  ar  
 33  17  19  1   
 34  18  20  1   
 35  19  21  1   
 36  20  22  1   
 37  21  35  1   
 38  21  36  1   
 39  21  37  1   
 40  22  38  1   
 41  22  39  1   
 42  22  40  1   
@<TRIPOS>SUBSTRUCTURE
  1 ****   9 GROUP 4 **** **** 0

# MOE 2024.06 (io_trps.svl 2023.06)
