@<TRIPOS>MOLECULE
NONAME
44 46 1 0 0 
SMALL
USER_CHARGES


@<TRIPOS>ATOM
  1 O       -1.5100     0.0850    -1.7130 O.2   1 <1>  -0.5700 
  2 C       -1.6050     0.3940    -0.5420 C.2   1 <1>   0.5440 
  3 N       -1.8170    -0.6000     0.3680 N.am  1 <1>  -0.7300 
  4 C       -1.5220     1.7830    -0.1270 C.ar  1 <1>   0.0860 
  5 C       -1.8730    -2.0490     0.0620 C.3   1 <1>   0.2200 
  6 C       -1.2500     2.1780     1.1760 C.ar  1 <1>  -0.1500 
  7 C       -1.7140     2.8270    -1.0200 C.ar  1 <1>  -0.1500 
  8 C       -3.3090    -2.5580     0.0490 C.3   1 <1>  -0.0800 
  9 C       -1.3200    -2.8170     1.2540 C.3   1 <1>   0.1200 
 10 C       -1.1980     3.5200     1.5080 C.ar  1 <1>   0.1670 
 11 C       -1.6420     4.1410    -0.5970 C.ar  1 <1>   0.1670 
 12 C       -3.5930    -2.8330     1.5310 C.3   1 <1>   0.1200 
 13 C       -4.3420    -1.6450    -0.6370 C.3   1 <1>  -0.0170 
 14 O       -2.3570    -2.8230     2.1880 O.3   1 <1>  -0.5600 
 15 N       -1.3930     4.5020     0.6480 N.ar  1 <1>  -0.6200 
 16 C       -0.9020     3.9460     2.9300 C.3   1 <1>  -0.0970 
 17 C       -1.8550     5.2720    -1.5800 C.3   1 <1>  -0.0970 
 18 C       -5.7130    -2.3030    -0.6650 C.ar  1 <1>  -0.1430 
 19 C       -6.6970    -1.9880     0.2500 C.ar  1 <1>  -0.1500 
 20 C       -6.0410    -3.2530    -1.6100 C.ar  1 <1>  -0.1500 
 21 C       -7.9250    -2.6260     0.1810 C.ar  1 <1>   0.1600 
 22 C       -7.3000    -3.8310    -1.5920 C.ar  1 <1>   0.1600 
 23 N       -8.2490    -3.5420    -0.7170 N.ar  1 <1>  -0.6200 
 24 H       -2.0220    -0.3830     1.3450 H     1 <1>   0.3700 
 25 H       -1.3430    -2.2690    -0.8500 H     1 <1>   0.0800 
 26 H       -1.0700     1.4400     1.9330 H     1 <1>   0.1500 
 27 H       -1.9200     2.6010    -2.0510 H     1 <1>   0.1500 
 28 H       -3.3130    -3.5060    -0.4590 H     1 <1>   0.0800 
 29 H       -0.4460    -2.3560     1.6810 H     1 <1>   0.0800 
 30 H       -1.1060    -3.8370     0.9880 H     1 <1>   0.0800 
 31 H       -4.0590    -3.7930     1.6750 H     1 <1>   0.0800 
 32 H       -4.2010    -2.0630     1.9710 H     1 <1>   0.0800 
 33 H       -4.0240    -1.4420    -1.6450 H     1 <1>   0.0800 
 34 H       -4.4110    -0.7010    -0.1260 H     1 <1>   0.0800 
 35 H       -0.7560     3.0970     3.5720 H     1 <1>   0.0800 
 36 H       -1.7220     4.5310     3.3060 H     1 <1>   0.0800 
 37 H       -0.0140     4.5510     2.9440 H     1 <1>   0.0800 
 38 H       -2.0490     4.8990    -2.5680 H     1 <1>   0.0800 
 39 H       -0.9760     5.8910    -1.6080 H     1 <1>   0.0800 
 40 H       -2.6890     5.8710    -1.2630 H     1 <1>   0.0800 
 41 H       -6.5240    -1.2540     1.0150 H     1 <1>   0.1500 
 42 H       -5.3310    -3.5490    -2.3610 H     1 <1>   0.1500 
 43 H       -8.6810    -2.3680     0.9030 H     1 <1>   0.1500 
 44 H       -7.5380    -4.5700    -2.3370 H     1 <1>   0.1500 
@<TRIPOS>BOND
  1   1   2  2   
  2   2   3  am  
  3   2   4  1   
  4   3   5  1   
  5   3  24  1   
  6   4   6  ar  
  7   4   7  ar  
  8   5   8  1   
  9   5   9  1   
 10   5  25  1   
 11   6  10  ar  
 12   6  26  1   
 13   7  11  ar  
 14   7  27  1   
 15   8  12  1   
 16   8  13  1   
 17   8  28  1   
 18   9  14  1   
 19   9  29  1   
 20   9  30  1   
 21  10  15  ar  
 22  10  16  1   
 23  11  15  ar  
 24  11  17  1   
 25  12  14  1   
 26  12  31  1   
 27  12  32  1   
 28  13  18  1   
 29  13  33  1   
 30  13  34  1   
 31  16  35  1   
 32  16  36  1   
 33  16  37  1   
 34  17  38  1   
 35  17  39  1   
 36  17  40  1   
 37  18  19  ar  
 38  18  20  ar  
 39  19  21  ar  
 40  19  41  1   
 41  20  22  ar  
 42  20  42  1   
 43  21  23  ar  
 44  21  43  1   
 45  22  23  ar  
 46  22  44  1   
@<TRIPOS>SUBSTRUCTURE
  1 ****   3 GROUP 4 **** **** 0

# MOE 2024.06 (io_trps.svl 2023.06)
