@<TRIPOS>MOLECULE
NONAME
44 45 1 0 0 
SMALL
USER_CHARGES


@<TRIPOS>ATOM
  1 O       -1.2860    -0.2660     0.4780 O.3   1 <1>  -0.5600 
  2 C       -1.3880    -1.6230     0.2070 C.3   1 <1>   0.1200 
  3 C        0.0160     0.1850     0.6930 C.3   1 <1>   0.0400 
  4 C       -2.8740    -1.9300    -0.0150 C.3   1 <1>   0.3430 
  5 N       -3.1250    -3.3660    -0.3710 N.4   1 <1>  -0.9590 
  6 C       -4.5530    -3.6080    -0.7410 C.3   1 <1>   0.3430 
  7 C       -2.8060    -4.3220     0.7220 C.3   1 <1>   0.3430 
  8 C       -4.8890    -5.0140    -0.2520 C.3   1 <1>  -0.0800 
  9 C       -3.5940    -5.5620     0.3520 C.3   1 <1>  -0.1600 
 10 C       -5.4850    -5.9000    -1.3560 C.3   1 <1>   0.2090 
 11 N       -5.8120    -7.2310    -0.7930 N.pl3 1 <1>  -0.8690 
 12 C       -7.0190    -7.4950    -0.1570 C.ar  1 <1>   0.4100 
 13 N       -7.7560    -6.4370     0.1580 N.ar  1 <1>  -0.6200 
 14 C       -7.4310    -8.8180     0.1280 C.ar  1 <1>   0.1670 
 15 C       -8.8970    -6.7560     0.7420 C.ar  1 <1>   0.1670 
 16 N       -8.5710    -9.1320     0.7080 N.ar  1 <1>  -0.6200 
 17 C       -6.5440    -9.9980    -0.2360 C.3   1 <1>  -0.0970 
 18 C       -9.2910    -8.0620     1.0060 C.ar  1 <1>   0.1600 
 19 C       -9.7910    -5.5940     1.1250 C.3   1 <1>  -0.0970 
 20 H       -1.0000    -2.1650     1.0520 H     1 <1>   0.0800 
 21 H       -0.8160    -1.8360    -0.6790 H     1 <1>   0.0800 
 22 H       -0.0250     1.2430     0.8920 H     1 <1>   0.0800 
 23 H        0.6080     0.0090    -0.1890 H     1 <1>   0.0800 
 24 H        0.4370    -0.3230     1.5430 H     1 <1>   0.0800 
 25 H       -3.2290    -1.2970    -0.8120 H     1 <1>   0.0800 
 26 H       -3.4160    -1.6790     0.8820 H     1 <1>   0.0800 
 27 H       -2.5500    -3.6170    -1.1860 H     1 <1>   0.4500 
 28 H       -4.6900    -3.5220    -1.8070 H     1 <1>   0.0800 
 29 H       -5.1980    -2.8990    -0.2470 H     1 <1>   0.0800 
 30 H       -3.1630    -3.9370     1.6640 H     1 <1>   0.0800 
 31 H       -1.7490    -4.5230     0.7890 H     1 <1>   0.0800 
 32 H       -5.6230    -4.9060     0.5280 H     1 <1>   0.0800 
 33 H       -3.7860    -6.1850     1.2090 H     1 <1>   0.0800 
 34 H       -3.0410    -6.1340    -0.3720 H     1 <1>   0.0800 
 35 H       -4.7820    -6.0210    -2.1620 H     1 <1>   0.0800 
 36 H       -6.3790    -5.4490    -1.7560 H     1 <1>   0.0800 
 37 H       -5.4510    -8.0160    -1.3400 H     1 <1>   0.4000 
 38 H       -5.5300    -9.8110     0.0630 H     1 <1>   0.0800 
 39 H       -6.5830   -10.1680    -1.2960 H     1 <1>   0.0800 
 40 H       -6.8830   -10.8870     0.2660 H     1 <1>   0.0800 
 41 H      -10.2370    -8.2380     1.4850 H     1 <1>   0.1500 
 42 H       -9.2720    -4.9520     1.8120 H     1 <1>   0.0800 
 43 H      -10.6970    -5.9370     1.5880 H     1 <1>   0.0800 
 44 H      -10.0430    -5.0300     0.2450 H     1 <1>   0.0800 
@<TRIPOS>BOND
  1   1   2  1   
  2   1   3  1   
  3   2   4  1   
  4   2  20  1   
  5   2  21  1   
  6   3  22  1   
  7   3  23  1   
  8   3  24  1   
  9   4   5  1   
 10   4  25  1   
 11   4  26  1   
 12   5   6  1   
 13   5   7  1   
 14   5  27  1   
 15   6   8  1   
 16   6  28  1   
 17   6  29  1   
 18   7   9  1   
 19   7  30  1   
 20   7  31  1   
 21   8   9  1   
 22   8  10  1   
 23   8  32  1   
 24   9  33  1   
 25   9  34  1   
 26  10  11  1   
 27  10  35  1   
 28  10  36  1   
 29  11  12  1   
 30  11  37  1   
 31  12  13  ar  
 32  12  14  ar  
 33  13  15  ar  
 34  14  16  ar  
 35  14  17  1   
 36  15  18  ar  
 37  15  19  1   
 38  16  18  ar  
 39  17  38  1   
 40  17  39  1   
 41  17  40  1   
 42  18  41  1   
 43  19  42  1   
 44  19  43  1   
 45  19  44  1   
@<TRIPOS>SUBSTRUCTURE
  1 ****   8 GROUP 4 **** **** 0

# MOE 2024.06 (io_trps.svl 2023.06)
