@<TRIPOS>MOLECULE
NONAME
52 53 1 0 0 
SMALL
USER_CHARGES


@<TRIPOS>ATOM
  1 S       -2.2130    -0.6360     1.8220 S.3   1 <1>  -0.4600 
  2 C       -2.6320    -2.3150     1.2830 C.3   1 <1>   0.0700 
  3 C       -0.4640    -0.7770     2.2740 C.3   1 <1>  -0.0100 
  4 C       -4.1090    -2.3210     0.8870 C.3   1 <1>  -0.0990 
  5 C       -4.5830    -3.6790     0.3960 C.2   1 <1>   0.5690 
  6 O       -3.7860    -4.5870     0.3410 O.2   1 <1>  -0.5700 
  7 N       -5.8880    -3.8510     0.0150 N.am  1 <1>  -0.6600 
  8 C       -6.3990    -5.1920    -0.4070 C.3   1 <1>   0.1400 
  9 C       -6.9120    -2.7720    -0.0610 C.3   1 <1>   0.1400 
 10 C       -6.5080    -5.3190    -1.9370 C.3   1 <1>   0.1400 
 11 C       -6.8620    -2.0360    -1.4090 C.3   1 <1>  -0.1600 
 12 N       -7.2970    -4.2050    -2.5590 N.am  1 <1>  -0.6600 
 13 C       -6.5590    -2.9160    -2.6290 C.3   1 <1>   0.1400 
 14 C       -8.6080    -4.2830    -2.9640 C.2   1 <1>   0.5690 
 15 O       -9.1770    -3.3240    -3.4350 O.2   1 <1>  -0.5700 
 16 C       -9.4140    -5.5710    -2.8330 C.3   1 <1>   0.0440 
 17 C       -9.6060    -5.9970    -1.3820 C.ar  1 <1>  -0.1440 
 18 C       -9.2450    -7.2670    -0.9590 C.ar  1 <1>  -0.1500 
 19 C      -10.1340    -5.1050    -0.4640 C.ar  1 <1>  -0.1500 
 20 C       -9.3830    -7.6430     0.3680 C.ar  1 <1>  -0.1440 
 21 C      -10.2780    -5.4740     0.8600 C.ar  1 <1>  -0.1500 
 22 C       -9.9010    -6.7370     1.2870 C.ar  1 <1>  -0.1440 
 23 C       -8.9630    -9.0450     0.7870 C.3   1 <1>  -0.0970 
 24 C      -10.0710    -7.1010     2.7550 C.3   1 <1>  -0.0970 
 25 H       -2.4410    -2.9830     2.1050 H     1 <1>   0.0800 
 26 H       -1.9970    -2.5610     0.4490 H     1 <1>   0.0800 
 27 H       -0.1330     0.1910     2.6060 H     1 <1>   0.0800 
 28 H        0.0820    -1.0910     1.4020 H     1 <1>   0.0800 
 29 H       -0.3810    -1.5020     3.0650 H     1 <1>   0.0800 
 30 H       -4.2580    -1.6000     0.1070 H     1 <1>   0.0800 
 31 H       -4.6950    -2.0400     1.7410 H     1 <1>   0.0800 
 32 H       -7.3600    -5.3660     0.0420 H     1 <1>   0.0800 
 33 H       -5.7440    -5.9650    -0.0440 H     1 <1>   0.0800 
 34 H       -6.7850    -2.0720     0.7450 H     1 <1>   0.0800 
 35 H       -7.8890    -3.2120     0.0550 H     1 <1>   0.0800 
 36 H       -6.9470    -6.2690    -2.1770 H     1 <1>   0.0800 
 37 H       -5.5150    -5.3220    -2.3500 H     1 <1>   0.0800 
 38 H       -6.1260    -1.2560    -1.3610 H     1 <1>   0.0800 
 39 H       -7.8110    -1.5540    -1.5640 H     1 <1>   0.0800 
 40 H       -5.5010    -3.1110    -2.6750 H     1 <1>   0.0800 
 41 H       -6.8320    -2.3900    -3.5290 H     1 <1>   0.0800 
 42 H       -8.9230    -6.3400    -3.3970 H     1 <1>   0.0800 
 43 H      -10.3810    -5.4170    -3.2750 H     1 <1>   0.0800 
 44 H       -8.8490    -7.9700    -1.6700 H     1 <1>   0.1500 
 45 H      -10.4310    -4.1190    -0.7780 H     1 <1>   0.1500 
 46 H      -10.6880    -4.7650     1.5570 H     1 <1>   0.1500 
 47 H       -8.5860    -9.6030    -0.0500 H     1 <1>   0.0800 
 48 H       -9.8060    -9.5740     1.1930 H     1 <1>   0.0800 
 49 H       -8.1900    -8.9910     1.5320 H     1 <1>   0.0800 
 50 H      -10.7360    -7.9410     2.8510 H     1 <1>   0.0800 
 51 H      -10.4840    -6.2800     3.3120 H     1 <1>   0.0800 
 52 H       -9.1190    -7.3550     3.1850 H     1 <1>   0.0800 
@<TRIPOS>BOND
  1   1   2  1   
  2   1   3  1   
  3   2   4  1   
  4   2  25  1   
  5   2  26  1   
  6   3  27  1   
  7   3  28  1   
  8   3  29  1   
  9   4   5  1   
 10   4  30  1   
 11   4  31  1   
 12   5   6  2   
 13   5   7  am  
 14   7   8  1   
 15   7   9  1   
 16   8  10  1   
 17   8  32  1   
 18   8  33  1   
 19   9  11  1   
 20   9  34  1   
 21   9  35  1   
 22  10  12  1   
 23  10  36  1   
 24  10  37  1   
 25  11  13  1   
 26  11  38  1   
 27  11  39  1   
 28  12  13  1   
 29  12  14  am  
 30  13  40  1   
 31  13  41  1   
 32  14  15  2   
 33  14  16  1   
 34  16  17  1   
 35  16  42  1   
 36  16  43  1   
 37  17  18  ar  
 38  17  19  ar  
 39  18  20  ar  
 40  18  44  1   
 41  19  21  ar  
 42  19  45  1   
 43  20  22  ar  
 44  20  23  1   
 45  21  22  ar  
 46  21  46  1   
 47  22  24  1   
 48  23  47  1   
 49  23  48  1   
 50  23  49  1   
 51  24  50  1   
 52  24  51  1   
 53  24  52  1   
@<TRIPOS>SUBSTRUCTURE
  1 ****   8 GROUP 4 **** **** 0

# MOE 2024.06 (io_trps.svl 2023.06)
