@<TRIPOS>MOLECULE
NONAME
44 47 1 0 0 
SMALL
USER_CHARGES


@<TRIPOS>ATOM
  1 O       -1.6300    -0.2830     0.1450 O.2   1 <1>  -0.5700 
  2 C       -1.2430    -1.2940    -0.4040 C.2   1 <1>   0.5440 
  3 N       -1.0190    -1.2130    -1.7360 N.am  1 <1>  -0.8000 
  4 C       -0.9840    -2.5070     0.3230 C.ar  1 <1>   0.0860 
  5 C       -1.9070    -3.5690     0.3440 C.ar  1 <1>   0.4100 
  6 C        0.2120    -2.6660     1.0060 C.ar  1 <1>  -0.1500 
  7 N       -1.6680    -4.7370     0.9420 N.ar  1 <1>  -0.6200 
  8 N       -3.1530    -3.4520    -0.2440 N.pl3 1 <1>  -0.8380 
  9 C        0.4440    -3.8640     1.6420 C.ar  1 <1>  -0.1500 
 10 C       -0.5170    -4.8560     1.5720 C.ar  1 <1>   0.1600 
 11 C       -4.1620    -2.6300     0.5000 C.3   1 <1>   0.2090 
 12 C       -3.7530    -4.6410    -0.9080 C.3   1 <1>   0.2090 
 13 C       -5.3010    -2.1490    -0.4210 C.3   1 <1>   0.1430 
 14 C       -4.8660    -4.1990    -1.8670 C.3   1 <1>  -0.1600 
 15 C       -6.2980    -1.3740     0.4210 C.ar  1 <1>   0.1670 
 16 C       -5.9340    -3.3560    -1.1470 C.3   1 <1>  -0.1600 
 17 C       -4.8090    -1.0660    -1.4160 C.3   1 <1>  -0.1600 
 18 N       -7.1840    -1.8950     1.2380 N.ar  1 <1>  -0.6200 
 19 C       -6.1590    -0.0280     0.2400 C.ar  1 <1>  -0.1430 
 20 C       -5.0620     0.2940    -0.7440 C.3   1 <1>  -0.0170 
 21 C       -7.9270    -0.9990     1.8700 C.ar  1 <1>   0.7200 
 22 C       -6.9920     0.8040     0.9470 C.ar  1 <1>   0.1600 
 23 N       -7.8970     0.3230     1.7700 N.ar  1 <1>  -0.6200 
 24 N       -8.8480    -1.4930     2.6970 N.pl3 1 <1>  -0.9000 
 25 H       -1.2270    -0.3430    -2.2240 H     1 <1>   0.3700 
 26 H       -0.8450    -2.0380    -2.3100 H     1 <1>   0.3700 
 27 H        0.9350    -1.8680     1.0310 H     1 <1>   0.1500 
 28 H        1.3570    -4.0330     2.1840 H     1 <1>   0.1500 
 29 H       -0.3270    -5.7950     2.0650 H     1 <1>   0.1500 
 30 H       -3.6830    -1.7800     0.9570 H     1 <1>   0.0800 
 31 H       -4.5790    -3.2300     1.2910 H     1 <1>   0.0800 
 32 H       -4.1540    -5.3000    -0.1560 H     1 <1>   0.0800 
 33 H       -2.9900    -5.1740    -1.4500 H     1 <1>   0.0800 
 34 H       -5.3270    -5.0720    -2.2940 H     1 <1>   0.0800 
 35 H       -4.4270    -3.6350    -2.6700 H     1 <1>   0.0800 
 36 H       -6.6810    -3.0210    -1.8450 H     1 <1>   0.0800 
 37 H       -6.4280    -3.9760    -0.4180 H     1 <1>   0.0800 
 38 H       -5.4000    -1.1090    -2.3130 H     1 <1>   0.0800 
 39 H       -3.7780    -1.1940    -1.6850 H     1 <1>   0.0800 
 40 H       -5.3630     1.0410    -1.4570 H     1 <1>   0.0800 
 41 H       -4.1840     0.6250    -0.2140 H     1 <1>   0.0800 
 42 H       -6.9160     1.8720     0.8360 H     1 <1>   0.1500 
 43 H       -9.6030    -0.8540     2.9280 H     1 <1>   0.4000 
 44 H       -9.0950    -2.4640     2.5370 H     1 <1>   0.4000 
@<TRIPOS>BOND
  1   1   2  2   
  2   2   3  am  
  3   2   4  1   
  4   3  25  1   
  5   3  26  1   
  6   4   5  ar  
  7   4   6  ar  
  8   5   7  ar  
  9   5   8  1   
 10   6   9  ar  
 11   6  27  1   
 12   7  10  ar  
 13   8  11  1   
 14   8  12  1   
 15   9  10  ar  
 16   9  28  1   
 17  10  29  1   
 18  11  13  1   
 19  11  30  1   
 20  11  31  1   
 21  12  14  1   
 22  12  32  1   
 23  12  33  1   
 24  13  15  1   
 25  13  16  1   
 26  13  17  1   
 27  14  16  1   
 28  14  34  1   
 29  14  35  1   
 30  15  18  ar  
 31  15  19  ar  
 32  16  36  1   
 33  16  37  1   
 34  17  20  1   
 35  17  38  1   
 36  17  39  1   
 37  18  21  ar  
 38  19  20  1   
 39  19  22  ar  
 40  20  40  1   
 41  20  41  1   
 42  21  23  ar  
 43  21  24  1   
 44  22  23  ar  
 45  22  42  1   
 46  24  43  1   
 47  24  44  1   
@<TRIPOS>SUBSTRUCTURE
  1 ****  11 GROUP 4 **** **** 0

# MOE 2024.06 (io_trps.svl 2023.06)
