@<TRIPOS>MOLECULE
NONAME
49 51 1 0 0 
SMALL
USER_CHARGES


@<TRIPOS>ATOM
  1 O        3.9460    -1.1750     0.9620 O.2   1 <1>  -0.5700 
  2 C        2.7700    -1.2680     1.2210 C.2   1 <1>   0.5690 
  3 N        1.9810    -0.1790     1.4100 N.am  1 <1>  -0.7300 
  4 C        2.1290    -2.6550     1.3320 C.3   1 <1>   0.1710 
  5 C        2.4120     1.2340     1.3270 C.3   1 <1>   0.1400 
  6 N        0.6800    -2.6960     0.9720 N.3   1 <1>  -0.8100 
  7 C        2.0210     1.8160    -0.0300 C.3   1 <1>  -0.0170 
  8 C        0.4530    -2.4520    -0.4580 C.3   1 <1>   0.1100 
  9 C        0.0870    -4.0150     1.2330 C.3   1 <1>   0.1100 
 10 C        2.4360     3.2760    -0.1160 C.ar  1 <1>  -0.1440 
 11 C       -0.9600    -2.9680    -0.6950 C.3   1 <1>   0.2000 
 12 C       -1.0360    -4.2090     0.1960 C.3   1 <1>  -0.0800 
 13 C        3.7400     3.6090    -0.4480 C.ar  1 <1>  -0.1500 
 14 C        1.5210     4.2860     0.1400 C.ar  1 <1>  -0.1500 
 15 O       -1.8370    -2.0310    -0.1850 O.3   1 <1>  -0.6800 
 16 C       -0.8560    -5.4980    -0.6270 C.3   1 <1>  -0.0170 
 17 C        4.1260     4.9360    -0.5230 C.ar  1 <1>  -0.1500 
 18 C        1.9050     5.6140     0.0650 C.ar  1 <1>  -0.1500 
 19 C       -0.9100    -6.7400     0.2500 C.ar  1 <1>   0.1670 
 20 C        3.2080     5.9400    -0.2670 C.ar  1 <1>  -0.1500 
 21 N        0.2500    -7.2720     0.6000 N.ar  1 <1>  -0.6200 
 22 C       -2.1440    -7.2530     0.6460 C.ar  1 <1>   0.1600 
 23 C        0.0950    -8.3420     1.3620 C.ar  1 <1>   0.1600 
 24 N       -2.3000    -8.3200     1.4110 N.ar  1 <1>  -0.6200 
 25 C       -1.1380    -8.8490     1.7540 C.ar  1 <1>   0.1600 
 26 H        0.9830    -0.3660     1.5520 H     1 <1>   0.3700 
 27 H        2.2450    -2.9780     2.3500 H     1 <1>   0.0800 
 28 H        2.6810    -3.3350     0.7060 H     1 <1>   0.0800 
 29 H        1.9500     1.7970     2.1190 H     1 <1>   0.0800 
 30 H        3.4810     1.2930     1.4510 H     1 <1>   0.0800 
 31 H        2.5110     1.2600    -0.8100 H     1 <1>   0.0800 
 32 H        0.9590     1.7310    -0.1690 H     1 <1>   0.0800 
 33 H        0.5470    -1.4090    -0.7120 H     1 <1>   0.0800 
 34 H        1.1490    -3.0260    -1.0470 H     1 <1>   0.0800 
 35 H        0.8370    -4.7810     1.1240 H     1 <1>   0.0800 
 36 H       -0.3010    -4.0530     2.2370 H     1 <1>   0.0800 
 37 H       -1.1960    -3.1390    -1.7320 H     1 <1>   0.0800 
 38 H       -1.9900    -4.2560     0.6940 H     1 <1>   0.0800 
 39 H        4.4610     2.8350    -0.6480 H     1 <1>   0.1500 
 40 H        0.5050     4.0450     0.3990 H     1 <1>   0.1500 
 41 H       -1.5050    -1.7980     0.7070 H     1 <1>   0.4000 
 42 H        0.0850    -5.4750    -1.1500 H     1 <1>   0.0800 
 43 H       -1.6350    -5.5610    -1.3660 H     1 <1>   0.0800 
 44 H        5.1400     5.1870    -0.7820 H     1 <1>   0.1500 
 45 H        1.1910     6.3930     0.2640 H     1 <1>   0.1500 
 46 H        3.5080     6.9710    -0.3260 H     1 <1>   0.1500 
 47 H       -3.0400    -6.7580     0.3170 H     1 <1>   0.1500 
 48 H        0.9870    -8.8440     1.6920 H     1 <1>   0.1500 
 49 H       -1.1620    -9.7260     2.3760 H     1 <1>   0.1500 
@<TRIPOS>BOND
  1   1   2  2   
  2   2   3  am  
  3   2   4  1   
  4   3   5  1   
  5   3  26  1   
  6   4   6  1   
  7   4  27  1   
  8   4  28  1   
  9   5   7  1   
 10   5  29  1   
 11   5  30  1   
 12   6   8  1   
 13   6   9  1   
 14   7  10  1   
 15   7  31  1   
 16   7  32  1   
 17   8  11  1   
 18   8  33  1   
 19   8  34  1   
 20   9  12  1   
 21   9  35  1   
 22   9  36  1   
 23  10  13  ar  
 24  10  14  ar  
 25  11  12  1   
 26  11  15  1   
 27  11  37  1   
 28  12  16  1   
 29  12  38  1   
 30  13  17  ar  
 31  13  39  1   
 32  14  18  ar  
 33  14  40  1   
 34  15  41  1   
 35  16  19  1   
 36  16  42  1   
 37  16  43  1   
 38  17  20  ar  
 39  17  44  1   
 40  18  20  ar  
 41  18  45  1   
 42  19  21  ar  
 43  19  22  ar  
 44  20  46  1   
 45  21  23  ar  
 46  22  24  ar  
 47  22  47  1   
 48  23  25  ar  
 49  23  48  1   
 50  24  25  ar  
 51  25  49  1   
@<TRIPOS>SUBSTRUCTURE
  1 ****   6 GROUP 4 **** **** 0

# MOE 2024.06 (io_trps.svl 2023.06)
