@<TRIPOS>MOLECULE
NONAME
63 65 1 0 0 
SMALL
USER_CHARGES


@<TRIPOS>ATOM
  1 O        0.6020     0.0340    -1.8530 O.2   1 <1>  -0.5700 
  2 C        1.3900    -0.4970    -1.1050 C.2   1 <1>   0.5690 
  3 N        2.0930     0.2770    -0.2010 N.am  1 <1>  -0.6600 
  4 C        1.4930    -2.0490    -1.2760 C.3   1 <1>   0.4840 
  5 C        2.1550     1.7620    -0.4120 C.3   1 <1>   0.2840 
  6 C        2.8360    -0.2070     1.0020 C.3   1 <1>   0.0600 
  7 N        0.3380    -2.8410    -0.7090 N.4   1 <1>  -0.9590 
  8 C        2.8050    -2.7230    -0.8560 C.3   1 <1>  -0.2400 
  9 C        3.5940     2.2800    -0.3310 C.ar  1 <1>  -0.1430 
 10 C       -0.9020    -2.5440    -1.4920 C.3   1 <1>   0.3430 
 11 C        0.1130    -2.5950     0.7450 C.3   1 <1>   0.3430 
 12 C        4.0020     3.3110     0.5200 C.ar  1 <1>  -0.1430 
 13 C        4.5350     1.6810    -1.1590 C.ar  1 <1>  -0.1500 
 14 C       -2.0360    -3.4600    -1.0310 C.3   1 <1>  -0.1600 
 15 C       -0.9970    -3.5110     1.2590 C.3   1 <1>  -0.1600 
 16 C        5.3420     3.6770     0.5580 C.ar  1 <1>  -0.1500 
 17 C        3.0410     4.0810     1.4110 C.3   1 <1>   0.4860 
 18 C        5.8620     2.0640    -1.1260 C.ar  1 <1>  -0.1500 
 19 C       -2.3010    -3.3150     0.4740 C.3   1 <1>  -0.0800 
 20 C        6.2680     3.0580    -0.2590 C.ar  1 <1>  -0.1500 
 21 N        2.4070     5.1630     0.6070 N.4   1 <1>  -0.9590 
 22 C       -3.3660    -4.3150     0.9350 C.3   1 <1>  -0.2400 
 23 C        3.3690     6.1890     0.1310 C.3   1 <1>   0.3430 
 24 C        1.3380     5.9020     1.3180 C.3   1 <1>   0.3430 
 25 C        2.4930     7.3740    -0.2490 C.3   1 <1>  -0.1600 
 26 C        1.1830     7.1930     0.5260 C.3   1 <1>  -0.1600 
 27 H        1.4520    -2.1790    -2.3450 H     1 <1>   0.0800 
 28 H        1.5240     2.2300     0.3200 H     1 <1>   0.0800 
 29 H        1.7670     2.0210    -1.3830 H     1 <1>   0.0800 
 30 H        2.3590    -1.0670     1.4300 H     1 <1>   0.0800 
 31 H        2.8630     0.5610     1.7560 H     1 <1>   0.0800 
 32 H        3.8510    -0.4510     0.7340 H     1 <1>   0.0800 
 33 H        0.5420    -3.8390    -0.8340 H     1 <1>   0.4500 
 34 H        2.9010    -2.8170     0.2070 H     1 <1>   0.0800 
 35 H        3.6360    -2.1490    -1.2270 H     1 <1>   0.0800 
 36 H        2.8680    -3.7020    -1.2950 H     1 <1>   0.0800 
 37 H       -0.7240    -2.6960    -2.5440 H     1 <1>   0.0800 
 38 H       -1.1910    -1.5140    -1.3470 H     1 <1>   0.0800 
 39 H       -0.1690    -1.5660     0.9020 H     1 <1>   0.0800 
 40 H        1.0160    -2.7910     1.3000 H     1 <1>   0.0800 
 41 H        4.2400     0.9020    -1.8410 H     1 <1>   0.1500 
 42 H       -1.7930    -4.4790    -1.2730 H     1 <1>   0.0800 
 43 H       -2.9290    -3.2040    -1.5760 H     1 <1>   0.0800 
 44 H       -1.1720    -3.2950     2.2990 H     1 <1>   0.0800 
 45 H       -0.6720    -4.5350     1.1940 H     1 <1>   0.0800 
 46 H        5.6890     4.4500     1.2230 H     1 <1>   0.1500 
 47 H        3.5780     4.5060     2.2440 H     1 <1>   0.0800 
 48 H        2.2900     3.4150     1.8000 H     1 <1>   0.0800 
 49 H        6.5810     1.5860    -1.7710 H     1 <1>   0.1500 
 50 H       -2.6720    -2.3200     0.6640 H     1 <1>   0.0800 
 51 H        7.3060     3.3480    -0.2260 H     1 <1>   0.1500 
 52 H        2.0060     4.7430    -0.2390 H     1 <1>   0.4500 
 53 H       -3.0450    -5.3290     0.7660 H     1 <1>   0.0800 
 54 H       -4.2860    -4.1570     0.3990 H     1 <1>   0.0800 
 55 H       -3.5680    -4.1920     1.9850 H     1 <1>   0.0800 
 56 H        3.9510     5.8330    -0.7050 H     1 <1>   0.0800 
 57 H        4.0310     6.4720     0.9340 H     1 <1>   0.0800 
 58 H        1.6580     6.1360     2.3220 H     1 <1>   0.0800 
 59 H        0.4160     5.3440     1.3540 H     1 <1>   0.0800 
 60 H        2.3070     7.3630    -1.3090 H     1 <1>   0.0800 
 61 H        2.9830     8.2990     0.0010 H     1 <1>   0.0800 
 62 H        0.9940     8.0200     1.1890 H     1 <1>   0.0800 
 63 H        0.3530     7.1070    -0.1550 H     1 <1>   0.0800 
@<TRIPOS>BOND
  1   1   2  2   
  2   2   3  am  
  3   2   4  1   
  4   3   5  1   
  5   3   6  1   
  6   4   7  1   
  7   4   8  1   
  8   4  27  1   
  9   5   9  1   
 10   5  28  1   
 11   5  29  1   
 12   6  30  1   
 13   6  31  1   
 14   6  32  1   
 15   7  10  1   
 16   7  11  1   
 17   7  33  1   
 18   8  34  1   
 19   8  35  1   
 20   8  36  1   
 21   9  12  ar  
 22   9  13  ar  
 23  10  14  1   
 24  10  37  1   
 25  10  38  1   
 26  11  15  1   
 27  11  39  1   
 28  11  40  1   
 29  12  16  ar  
 30  12  17  1   
 31  13  18  ar  
 32  13  41  1   
 33  14  19  1   
 34  14  42  1   
 35  14  43  1   
 36  15  19  1   
 37  15  44  1   
 38  15  45  1   
 39  16  20  ar  
 40  16  46  1   
 41  17  21  1   
 42  17  47  1   
 43  17  48  1   
 44  18  20  ar  
 45  18  49  1   
 46  19  22  1   
 47  19  50  1   
 48  20  51  1   
 49  21  23  1   
 50  21  24  1   
 51  21  52  1   
 52  22  53  1   
 53  22  54  1   
 54  22  55  1   
 55  23  25  1   
 56  23  56  1   
 57  23  57  1   
 58  24  26  1   
 59  24  58  1   
 60  24  59  1   
 61  25  26  1   
 62  25  60  1   
 63  25  61  1   
 64  26  62  1   
 65  26  63  1   
@<TRIPOS>SUBSTRUCTURE
  1 ****   3 GROUP 4 **** **** 0

# MOE 2024.06 (io_trps.svl 2023.06)
