@<TRIPOS>MOLECULE
NONAME
43 45 1 0 0 
SMALL
USER_CHARGES


@<TRIPOS>ATOM
  1 O       -1.3850     0.5710     2.4820 O.2   1 <1>  -0.5700 
  2 C       -1.9070     0.9740     1.4610 C.2   1 <1>   0.5440 
  3 N       -2.7640     0.1410     0.7820 N.am  1 <1>  -0.6600 
  4 C       -1.6460     2.3170     0.9920 C.ar  1 <1>   0.0860 
  5 C       -3.7540     0.5850    -0.2290 C.3   1 <1>   0.1400 
  6 C       -3.0570    -1.2490     1.2170 C.3   1 <1>   0.1400 
  7 C       -0.9310     2.5840    -0.1810 C.ar  1 <1>   0.1660 
  8 C       -2.1310     3.4030     1.7050 C.ar  1 <1>  -0.1500 
  9 C       -4.9320    -0.3670    -0.0370 C.3   1 <1>   0.2000 
 10 C       -4.2940    -1.6860     0.4120 C.3   1 <1>  -0.0800 
 11 N       -0.7260     3.7940    -0.6780 N.ar  1 <1>  -0.6200 
 12 C       -0.3120     1.4630    -1.0010 C.3   1 <1>  -0.0970 
 13 C       -1.9080     4.6650     1.2020 C.ar  1 <1>  -0.1500 
 14 O       -5.7090     0.1050     1.0070 O.3   1 <1>  -0.6800 
 15 C       -3.9210    -2.5560    -0.8060 C.3   1 <1>  -0.0170 
 16 C       -1.2120     4.8090     0.0150 C.ar  1 <1>   0.1670 
 17 C       -3.4100    -3.9280    -0.3940 C.ar  1 <1>   0.1670 
 18 C       -0.9590     6.1840    -0.5630 C.3   1 <1>  -0.0970 
 19 N       -2.0970    -4.0820    -0.3380 N.ar  1 <1>  -0.6200 
 20 C       -4.3160    -4.9470    -0.1010 C.ar  1 <1>   0.1600 
 21 C       -1.7540    -5.3050     0.0290 C.ar  1 <1>   0.1600 
 22 N       -3.9750    -6.1710     0.2660 N.ar  1 <1>  -0.6200 
 23 C       -2.6620    -6.3160     0.3210 C.ar  1 <1>   0.1600 
 24 H       -4.0470     1.6120    -0.0920 H     1 <1>   0.0800 
 25 H       -3.3320     0.4580    -1.2100 H     1 <1>   0.0800 
 26 H       -2.2010    -1.8790     1.0420 H     1 <1>   0.0800 
 27 H       -3.2760    -1.2500     2.2710 H     1 <1>   0.0800 
 28 H       -2.6670     3.2530     2.6260 H     1 <1>   0.1500 
 29 H       -5.5570    -0.4530    -0.9100 H     1 <1>   0.0800 
 30 H       -4.9720    -2.2440     1.0330 H     1 <1>   0.0800 
 31 H       -0.1270     0.5870    -0.4070 H     1 <1>   0.0800 
 32 H        0.6290     1.7900    -1.4070 H     1 <1>   0.0800 
 33 H       -0.9640     1.2070    -1.8150 H     1 <1>   0.0800 
 34 H       -2.2730     5.5280     1.7290 H     1 <1>   0.1500 
 35 H       -5.1270     0.2850     1.7740 H     1 <1>   0.4000 
 36 H       -3.1700    -2.0630    -1.4000 H     1 <1>   0.0800 
 37 H       -4.7880    -2.6900    -1.4280 H     1 <1>   0.0800 
 38 H       -1.3850     6.9520     0.0560 H     1 <1>   0.0800 
 39 H       -1.3940     6.2460    -1.5440 H     1 <1>   0.0800 
 40 H        0.0990     6.3490    -0.6440 H     1 <1>   0.0800 
 41 H       -5.3690    -4.7410    -0.1720 H     1 <1>   0.1500 
 42 H       -0.7030    -5.5200     0.1020 H     1 <1>   0.1500 
 43 H       -2.2860    -7.2800     0.6110 H     1 <1>   0.1500 
@<TRIPOS>BOND
  1   1   2  2   
  2   2   3  am  
  3   2   4  1   
  4   3   5  1   
  5   3   6  1   
  6   4   7  ar  
  7   4   8  ar  
  8   5   9  1   
  9   5  24  1   
 10   5  25  1   
 11   6  10  1   
 12   6  26  1   
 13   6  27  1   
 14   7  11  ar  
 15   7  12  1   
 16   8  13  ar  
 17   8  28  1   
 18   9  10  1   
 19   9  14  1   
 20   9  29  1   
 21  10  15  1   
 22  10  30  1   
 23  11  16  ar  
 24  12  31  1   
 25  12  32  1   
 26  12  33  1   
 27  13  16  ar  
 28  13  34  1   
 29  14  35  1   
 30  15  17  1   
 31  15  36  1   
 32  15  37  1   
 33  16  18  1   
 34  17  19  ar  
 35  17  20  ar  
 36  18  38  1   
 37  18  39  1   
 38  18  40  1   
 39  19  21  ar  
 40  20  22  ar  
 41  20  41  1   
 42  21  23  ar  
 43  21  42  1   
 44  22  23  ar  
 45  23  43  1   
@<TRIPOS>SUBSTRUCTURE
  1 ****   3 GROUP 4 **** **** 0

# MOE 2024.06 (io_trps.svl 2023.06)
