@<TRIPOS>MOLECULE
NONAME
52 56 1 0 0 
SMALL
USER_CHARGES


@<TRIPOS>ATOM
  1 O       -1.1280     0.9760     1.9580 O.2   1 <1>  -0.5700 
  2 C       -1.9760     1.3750     1.1700 C.2   1 <1>   0.7160 
  3 N       -3.1660     0.6620     1.1010 N.am  1 <1>  -0.6600 
  4 C       -1.6810     2.5550     0.3540 C.2   1 <1>   0.2030 
  5 C       -4.1310     0.7590    -0.0290 C.3   1 <1>   0.1400 
  6 C       -3.5860    -0.2820     2.1750 C.3   1 <1>   0.1400 
  7 N       -2.5350     3.4280    -0.1780 N.2   1 <1>  -0.7070 
  8 C       -0.3770     2.9500     0.0260 C.2   1 <1>  -0.1810 
  9 C       -4.3520    -0.6290    -0.6370 C.3   1 <1>  -0.1600 
 10 C       -3.7940    -1.6790     1.5850 C.3   1 <1>  -0.1600 
 11 N       -1.7810     4.3420    -0.8180 N.pl3 1 <1>   0.3000 
 12 C       -0.4750     4.0540    -0.6980 C.2   1 <1>  -0.3320 
 13 C        1.0500     2.5330     0.2440 C.3   1 <1>   0.0210 
 14 C       -4.7910    -1.6670     0.4130 C.3   1 <1>   0.4240 
 15 C        0.8420     4.6280    -1.1350 C.3   1 <1>   0.0200 
 16 C        1.8420     3.5800    -0.5830 C.3   1 <1>  -0.1600 
 17 O       -5.9860    -1.1860     0.9910 O.3   1 <1>  -0.5600 
 18 C       -4.9840    -3.0880    -0.1950 C.ar  1 <1>  -0.1430 
 19 C       -7.1790    -1.4440     0.3280 C.3   1 <1>   0.1200 
 20 C       -3.9250    -3.8070    -0.7670 C.ar  1 <1>   0.0830 
 21 C       -6.2470    -3.6810    -0.1850 C.ar  1 <1>  -0.1430 
 22 C       -7.4360    -2.9400     0.3910 C.3   1 <1>  -0.0170 
 23 O       -2.6920    -3.2370    -0.8140 O.3   1 <1>  -0.3630 
 24 C       -4.1400    -5.0830    -1.2850 C.ar  1 <1>  -0.1500 
 25 C       -6.4480    -4.9500    -0.7000 C.ar  1 <1>  -0.1500 
 26 C       -1.5470    -3.9180    -1.2770 C.3   1 <1>   0.0400 
 27 C       -5.3960    -5.6530    -1.2490 C.ar  1 <1>  -0.1500 
 28 H       -3.7650     1.4090    -0.8000 H     1 <1>   0.0800 
 29 H       -5.0610     1.1600     0.3370 H     1 <1>   0.0800 
 30 H       -4.5040     0.0730     2.6110 H     1 <1>   0.0800 
 31 H       -2.8490    -0.3280     2.9570 H     1 <1>   0.0800 
 32 H       -3.4270    -0.9300    -1.0890 H     1 <1>   0.0800 
 33 H       -5.0760    -0.5730    -1.4260 H     1 <1>   0.0800 
 34 H       -4.1570    -2.3460     2.3450 H     1 <1>   0.0800 
 35 H       -2.8360    -2.0420     1.2740 H     1 <1>   0.0800 
 36 H       -2.1810     5.1450    -1.3180 H     1 <1>   0.2700 
 37 H        1.2140     1.5330    -0.1170 H     1 <1>   0.0800 
 38 H        1.2940     2.5890     1.2900 H     1 <1>   0.0800 
 39 H        1.0020     5.5930    -0.6860 H     1 <1>   0.0800 
 40 H        0.9010     4.6990    -2.2070 H     1 <1>   0.0800 
 41 H        2.3350     3.0880    -1.4020 H     1 <1>   0.0800 
 42 H        2.5850     4.0560     0.0320 H     1 <1>   0.0800 
 43 H       -7.1060    -1.1010    -0.6890 H     1 <1>   0.0800 
 44 H       -7.9600    -0.9030     0.8310 H     1 <1>   0.0800 
 45 H       -8.3260    -3.1690    -0.1670 H     1 <1>   0.0800 
 46 H       -7.5900    -3.2360     1.4130 H     1 <1>   0.0800 
 47 H       -3.3450    -5.6520    -1.7240 H     1 <1>   0.1500 
 48 H       -7.4270    -5.3980    -0.6770 H     1 <1>   0.1500 
 49 H       -0.7030    -3.2630    -1.1630 H     1 <1>   0.0800 
 50 H       -1.6820    -4.1620    -2.3150 H     1 <1>   0.0800 
 51 H       -1.4050    -4.8040    -0.6840 H     1 <1>   0.0800 
 52 H       -5.5560    -6.6390    -1.6480 H     1 <1>   0.1500 
@<TRIPOS>BOND
  1   1   2  2   
  2   2   3  am  
  3   2   4  1   
  4   3   5  1   
  5   3   6  1   
  6   4   7  2   
  7   4   8  1   
  8   5   9  1   
  9   5  28  1   
 10   5  29  1   
 11   6  10  1   
 12   6  30  1   
 13   6  31  1   
 14   7  11  1   
 15   8  12  2   
 16   8  13  1   
 17   9  14  1   
 18   9  32  1   
 19   9  33  1   
 20  10  14  1   
 21  10  34  1   
 22  10  35  1   
 23  11  12  1   
 24  11  36  1   
 25  12  15  1   
 26  13  16  1   
 27  13  37  1   
 28  13  38  1   
 29  14  17  1   
 30  14  18  1   
 31  15  16  1   
 32  15  39  1   
 33  15  40  1   
 34  16  41  1   
 35  16  42  1   
 36  17  19  1   
 37  18  20  ar  
 38  18  21  ar  
 39  19  22  1   
 40  19  43  1   
 41  19  44  1   
 42  20  23  1   
 43  20  24  ar  
 44  21  22  1   
 45  21  25  ar  
 46  22  45  1   
 47  22  46  1   
 48  23  26  1   
 49  24  27  ar  
 50  24  47  1   
 51  25  27  ar  
 52  25  48  1   
 53  26  49  1   
 54  26  50  1   
 55  26  51  1   
 56  27  52  1   
@<TRIPOS>SUBSTRUCTURE
  1 ****   9 GROUP 4 **** **** 0

# MOE 2024.06 (io_trps.svl 2023.06)
