@<TRIPOS>MOLECULE
NONAME
48 51 1 0 0 
SMALL
USER_CHARGES


@<TRIPOS>ATOM
  1 S       -0.8560    -0.1840     2.2060 S.3   1 <1>  -0.0800 
  2 C       -0.6660     0.9670     0.8910 C.2   1 <1>   0.3250 
  3 C        0.3040     0.6880     3.1440 C.2   1 <1>  -0.1100 
  4 N        0.1870     1.8900     1.1690 N.2   1 <1>  -0.5650 
  5 C       -1.4400     0.7990    -0.3190 C.ar  1 <1>   0.0530 
  6 C        0.7610     1.7450     2.4410 C.2   1 <1>   0.1410 
  7 C       -1.7110     1.8990    -1.1360 C.ar  1 <1>  -0.1500 
  8 C       -1.9370    -0.4390    -0.7330 C.ar  1 <1>  -0.1500 
  9 C        1.7430     2.7130     2.9130 C.2   1 <1>   0.7160 
 10 C       -2.4340     1.7740    -2.3070 C.ar  1 <1>  -0.1500 
 11 C       -2.6620    -0.5710    -1.9030 C.ar  1 <1>  -0.1500 
 12 O        1.7440     3.0600     4.0780 O.2   1 <1>  -0.5700 
 13 N        2.6350     3.3150     2.0480 N.am  1 <1>  -0.6600 
 14 C       -2.9120     0.5360    -2.6940 C.ar  1 <1>  -0.1500 
 15 C        2.9990     4.7670     2.2190 C.3   1 <1>   0.1400 
 16 C        3.2250     2.5980     0.8670 C.3   1 <1>   0.1400 
 17 C        2.4390     5.6420     1.0670 C.3   1 <1>   0.4230 
 18 C        2.9820     3.2490    -0.5210 C.3   1 <1>  -0.0800 
 19 N        1.2870     4.9030     0.4140 N.4   1 <1>  -0.9590 
 20 C        3.5760     6.0880     0.1110 C.3   1 <1>   0.1200 
 21 C        4.1670     4.0950    -1.0120 C.3   1 <1>   0.1200 
 22 C        1.6660     4.0170    -0.7240 C.3   1 <1>   0.3430 
 23 C        0.1990     5.8730    -0.0240 C.3   1 <1>   0.2370 
 24 O        4.5190     5.0700    -0.0910 O.3   1 <1>  -0.5600 
 25 C        0.6600     6.9200    -1.0380 C.2   1 <1>   0.9060 
 26 O        0.6870     6.5980    -2.2280 O.co2 1 <1>  -0.9000 
 27 O        1.1430     7.9670    -0.5970 O.co2 1 <1>  -0.9000 
 28 H        0.5370     0.3360     4.1340 H     1 <1>   0.1500 
 29 H       -1.3550     2.8700    -0.8460 H     1 <1>   0.1500 
 30 H       -1.7540    -1.3190    -0.1430 H     1 <1>   0.1500 
 31 H       -2.6280     2.6390    -2.9200 H     1 <1>   0.1500 
 32 H       -3.0340    -1.5360    -2.2020 H     1 <1>   0.1500 
 33 H       -3.4770     0.4330    -3.6050 H     1 <1>   0.1500 
 34 H        2.5890     5.1370     3.1430 H     1 <1>   0.0800 
 35 H        4.0680     4.8670     2.3000 H     1 <1>   0.0800 
 36 H        4.2860     2.5040     1.0280 H     1 <1>   0.0800 
 37 H        2.8350     1.5950     0.8410 H     1 <1>   0.0800 
 38 H        2.0460     6.5470     1.5030 H     1 <1>   0.0800 
 39 H        2.9380     2.4350    -1.2220 H     1 <1>   0.0800 
 40 H        0.9240     4.2650     1.1350 H     1 <1>   0.4500 
 41 H        4.1040     6.9030     0.5720 H     1 <1>   0.0800 
 42 H        3.2080     6.4390    -0.8370 H     1 <1>   0.0800 
 43 H        3.9520     4.5720    -1.9550 H     1 <1>   0.0800 
 44 H        5.0330     3.4680    -1.1450 H     1 <1>   0.0800 
 45 H        0.8730     3.3050    -0.8790 H     1 <1>   0.0800 
 46 H        1.7460     4.6060    -1.6250 H     1 <1>   0.0800 
 47 H       -0.6140     5.3320    -0.4710 H     1 <1>   0.0800 
 48 H       -0.1770     6.4070     0.8290 H     1 <1>   0.0800 
@<TRIPOS>BOND
  1   1   2  1   
  2   1   3  1   
  3   2   4  2   
  4   2   5  1   
  5   3   6  2   
  6   3  28  1   
  7   4   6  1   
  8   5   7  ar  
  9   5   8  ar  
 10   6   9  1   
 11   7  10  ar  
 12   7  29  1   
 13   8  11  ar  
 14   8  30  1   
 15   9  12  2   
 16   9  13  am  
 17  10  14  ar  
 18  10  31  1   
 19  11  14  ar  
 20  11  32  1   
 21  13  15  1   
 22  13  16  1   
 23  14  33  1   
 24  15  17  1   
 25  15  34  1   
 26  15  35  1   
 27  16  18  1   
 28  16  36  1   
 29  16  37  1   
 30  17  19  1   
 31  17  20  1   
 32  17  38  1   
 33  18  21  1   
 34  18  22  1   
 35  18  39  1   
 36  19  22  1   
 37  19  23  1   
 38  19  40  1   
 39  20  24  1   
 40  20  41  1   
 41  20  42  1   
 42  21  24  1   
 43  21  43  1   
 44  21  44  1   
 45  22  45  1   
 46  22  46  1   
 47  23  25  1   
 48  23  47  1   
 49  23  48  1   
 50  25  26  ar  
 51  25  27  ar  
@<TRIPOS>SUBSTRUCTURE
  1 ****  22 GROUP 4 **** **** 0

# MOE 2024.06 (io_trps.svl 2023.06)
