@<TRIPOS>MOLECULE
NONAME
52 54 1 0 0 
SMALL
USER_CHARGES


@<TRIPOS>ATOM
  1 N       -0.6690    -1.1150    -0.3420 N.ar  1 <1>  -0.6200 
  2 C       -1.6640    -0.2560    -0.2210 C.ar  1 <1>   0.4100 
  3 C        0.4680    -0.6470     0.1640 C.ar  1 <1>   0.1600 
  4 N       -2.8580    -0.7360    -0.7670 N.pl3 1 <1>  -0.8380 
  5 C       -1.5260     1.0260     0.4230 C.ar  1 <1>   0.4100 
  6 C        0.6060     0.5860     0.7710 C.ar  1 <1>   0.1600 
  7 C       -3.9680    -0.8450     0.2180 C.3   1 <1>   0.3530 
  8 C       -3.2850    -0.0320    -2.0100 C.3   1 <1>   0.1290 
  9 N       -0.3820     1.4540     0.9260 N.ar  1 <1>  -0.6200 
 10 N       -2.5970     1.9170     0.5720 N.pl3 1 <1>  -0.8380 
 11 C       -4.9750    -1.9650    -0.0790 C.ar  1 <1>  -0.1430 
 12 C       -2.9440     2.2630     1.9780 C.3   1 <1>   0.1290 
 13 C       -2.5080     3.1310    -0.2840 C.3   1 <1>   0.1290 
 14 C       -4.7460    -3.1310    -0.8240 C.ar  1 <1>  -0.1430 
 15 C       -6.2300    -1.7780     0.4890 C.ar  1 <1>  -0.1500 
 16 C       -5.7700    -4.0590    -0.9720 C.ar  1 <1>  -0.1500 
 17 C       -3.4340    -3.4810    -1.5190 C.3   1 <1>   0.4860 
 18 C       -7.2390    -2.7080     0.3350 C.ar  1 <1>  -0.1500 
 19 C       -7.0080    -3.8540    -0.3970 C.ar  1 <1>  -0.1500 
 20 N       -2.3120    -3.5640    -0.5600 N.4   1 <1>  -0.9590 
 21 C       -1.0740    -4.1470    -1.1120 C.3   1 <1>   0.3430 
 22 C       -2.6010    -4.2220     0.7270 C.3   1 <1>   0.3430 
 23 C       -0.3110    -4.6800     0.0980 C.3   1 <1>  -0.1600 
 24 C       -1.2200    -4.4640     1.3100 C.3   1 <1>  -0.1600 
 25 H        1.3340    -1.2810     0.0900 H     1 <1>   0.1500 
 26 H        1.5690     0.8780     1.1510 H     1 <1>   0.1500 
 27 H       -4.4910     0.0970     0.2540 H     1 <1>   0.0800 
 28 H       -3.5560    -1.0130     1.1980 H     1 <1>   0.0800 
 29 H       -2.4430     0.0890    -2.6700 H     1 <1>   0.0800 
 30 H       -3.6800     0.9410    -1.7710 H     1 <1>   0.0800 
 31 H       -4.0460    -0.5990    -2.5160 H     1 <1>   0.0800 
 32 H       -2.9080     1.3810     2.5930 H     1 <1>   0.0800 
 33 H       -3.9350     2.6790     2.0200 H     1 <1>   0.0800 
 34 H       -2.2410     2.9810     2.3660 H     1 <1>   0.0800 
 35 H       -2.1590     2.8650    -1.2670 H     1 <1>   0.0800 
 36 H       -1.8150     3.8350     0.1460 H     1 <1>   0.0800 
 37 H       -3.4760     3.5920    -0.3710 H     1 <1>   0.0800 
 38 H       -6.4390    -0.8940     1.0680 H     1 <1>   0.1500 
 39 H       -5.6190    -4.9600    -1.5420 H     1 <1>   0.1500 
 40 H       -3.2140    -2.7320    -2.2620 H     1 <1>   0.0800 
 41 H       -3.5450    -4.4270    -2.0210 H     1 <1>   0.0800 
 42 H       -8.2030    -2.5410     0.7840 H     1 <1>   0.1500 
 43 H       -7.7940    -4.5800    -0.5210 H     1 <1>   0.1500 
 44 H       -2.0880    -2.5580    -0.3670 H     1 <1>   0.4500 
 45 H       -0.5030    -3.3950    -1.6350 H     1 <1>   0.0800 
 46 H       -1.3060    -4.9570    -1.7830 H     1 <1>   0.0800 
 47 H       -3.0990    -5.1620     0.5540 H     1 <1>   0.0800 
 48 H       -3.2090    -3.6010     1.3650 H     1 <1>   0.0800 
 49 H        0.6240    -4.1600     0.2160 H     1 <1>   0.0800 
 50 H       -0.1050    -5.7270    -0.0450 H     1 <1>   0.0800 
 51 H       -1.2170    -5.3030     1.9830 H     1 <1>   0.0800 
 52 H       -0.9130    -3.5840     1.8490 H     1 <1>   0.0800 
@<TRIPOS>BOND
  1   1   2  ar  
  2   1   3  ar  
  3   2   4  1   
  4   2   5  ar  
  5   3   6  ar  
  6   3  25  1   
  7   4   7  1   
  8   4   8  1   
  9   5   9  ar  
 10   5  10  1   
 11   6   9  ar  
 12   6  26  1   
 13   7  11  1   
 14   7  27  1   
 15   7  28  1   
 16   8  29  1   
 17   8  30  1   
 18   8  31  1   
 19  10  12  1   
 20  10  13  1   
 21  11  14  ar  
 22  11  15  ar  
 23  12  32  1   
 24  12  33  1   
 25  12  34  1   
 26  13  35  1   
 27  13  36  1   
 28  13  37  1   
 29  14  16  ar  
 30  14  17  1   
 31  15  18  ar  
 32  15  38  1   
 33  16  19  ar  
 34  16  39  1   
 35  17  20  1   
 36  17  40  1   
 37  17  41  1   
 38  18  19  ar  
 39  18  42  1   
 40  19  43  1   
 41  20  21  1   
 42  20  22  1   
 43  20  44  1   
 44  21  23  1   
 45  21  45  1   
 46  21  46  1   
 47  22  24  1   
 48  22  47  1   
 49  22  48  1   
 50  23  24  1   
 51  23  49  1   
 52  23  50  1   
 53  24  51  1   
 54  24  52  1   
@<TRIPOS>SUBSTRUCTURE
  1 ****   4 GROUP 4 **** **** 0

# MOE 2024.06 (io_trps.svl 2023.06)
