@<TRIPOS>MOLECULE
NONAME
46 46 1 0 0 
SMALL
USER_CHARGES


@<TRIPOS>ATOM
  1 O        1.4920    -1.0130     1.6570 O.2   1 <1>  -0.5700 
  2 C        1.8450    -1.0730     0.4980 C.2   1 <1>   0.5690 
  3 N        2.4690    -0.0170    -0.1270 N.am  1 <1>  -0.6600 
  4 C        1.5110    -2.3940    -0.2470 C.3   1 <1>   0.4840 
  5 C        2.7320     1.2500     0.6130 C.3   1 <1>   0.1400 
  6 C        2.9820    -0.0170    -1.5310 C.3   1 <1>   0.0600 
  7 N        0.2330    -3.0270     0.2720 N.4   1 <1>  -0.9590 
  8 C        2.6840    -3.3730    -0.1000 C.3   1 <1>  -0.2400 
  9 C        1.6380     2.2660     0.2920 C.3   1 <1>  -0.2400 
 10 C       -0.0470    -4.4070    -0.2510 C.3   1 <1>   0.3430 
 11 C       -0.9260    -2.0960     0.0680 C.3   1 <1>   0.2630 
 12 C       -1.1840    -5.1050     0.4970 C.3   1 <1>   0.0210 
 13 C       -1.2370    -6.5410     0.0210 C.2   1 <1>  -0.1810 
 14 C       -0.4370    -7.5900     0.4740 C.2   1 <1>   0.1080 
 15 C       -2.0290    -7.0930    -0.9270 C.2   1 <1>  -0.3320 
 16 N       -0.6930    -8.6960    -0.1420 N.2   1 <1>  -0.7070 
 17 C        0.6210    -7.5200     1.5540 C.3   1 <1>  -0.0590 
 18 N       -1.6820    -8.3970    -1.0000 N.pl3 1 <1>   0.3000 
 19 C       -3.1210    -6.4950    -1.7990 C.3   1 <1>  -0.0600 
 20 H        1.3860    -2.1590    -1.2890 H     1 <1>   0.0800 
 21 H        3.6950     1.6450     0.3360 H     1 <1>   0.0800 
 22 H        2.7500     1.0660     1.6750 H     1 <1>   0.0800 
 23 H        2.9330    -0.9930    -1.9770 H     1 <1>   0.0800 
 24 H        4.0110     0.3030    -1.5400 H     1 <1>   0.0800 
 25 H        2.4060     0.6680    -2.1290 H     1 <1>   0.0800 
 26 H        0.3920    -3.0720     1.2930 H     1 <1>   0.4500 
 27 H        2.7610    -3.7260     0.9140 H     1 <1>   0.0800 
 28 H        3.6040    -2.8670    -0.3380 H     1 <1>   0.0800 
 29 H        2.5970    -4.2020    -0.7770 H     1 <1>   0.0800 
 30 H        1.6300     2.5040    -0.7550 H     1 <1>   0.0800 
 31 H        1.8200     3.1720     0.8420 H     1 <1>   0.0800 
 32 H        0.6770     1.8820     0.5850 H     1 <1>   0.0800 
 33 H        0.8300    -5.0230    -0.1410 H     1 <1>   0.0800 
 34 H       -0.2880    -4.3670    -1.3010 H     1 <1>   0.0800 
 35 H       -1.1230    -1.9620    -0.9830 H     1 <1>   0.0800 
 36 H       -0.7150    -1.1330     0.5070 H     1 <1>   0.0800 
 37 H       -1.8130    -2.4880     0.5390 H     1 <1>   0.0800 
 38 H       -2.1250    -4.6300     0.2950 H     1 <1>   0.0800 
 39 H       -1.0070    -5.0910     1.5570 H     1 <1>   0.0800 
 40 H        1.4590    -6.9430     1.2140 H     1 <1>   0.0800 
 41 H        0.9610    -8.5130     1.7890 H     1 <1>   0.0800 
 42 H        0.2120    -7.0810     2.4450 H     1 <1>   0.0800 
 43 H       -2.0970    -9.1050    -1.6180 H     1 <1>   0.2700 
 44 H       -3.2440    -5.4460    -1.6030 H     1 <1>   0.0800 
 45 H       -4.0570    -6.9870    -1.6040 H     1 <1>   0.0800 
 46 H       -2.8750    -6.6210    -2.8390 H     1 <1>   0.0800 
@<TRIPOS>BOND
  1   1   2  2   
  2   2   3  am  
  3   2   4  1   
  4   3   5  1   
  5   3   6  1   
  6   4   7  1   
  7   4   8  1   
  8   4  20  1   
  9   5   9  1   
 10   5  21  1   
 11   5  22  1   
 12   6  23  1   
 13   6  24  1   
 14   6  25  1   
 15   7  10  1   
 16   7  11  1   
 17   7  26  1   
 18   8  27  1   
 19   8  28  1   
 20   8  29  1   
 21   9  30  1   
 22   9  31  1   
 23   9  32  1   
 24  10  12  1   
 25  10  33  1   
 26  10  34  1   
 27  11  35  1   
 28  11  36  1   
 29  11  37  1   
 30  12  13  1   
 31  12  38  1   
 32  12  39  1   
 33  13  14  1   
 34  13  15  2   
 35  14  16  2   
 36  14  17  1   
 37  15  18  1   
 38  15  19  1   
 39  16  18  1   
 40  17  40  1   
 41  17  41  1   
 42  17  42  1   
 43  18  43  1   
 44  19  44  1   
 45  19  45  1   
 46  19  46  1   
@<TRIPOS>SUBSTRUCTURE
  1 ****   7 GROUP 4 **** **** 0

# MOE 2024.06 (io_trps.svl 2023.06)
