@<TRIPOS>MOLECULE
NONAME
44 47 1 0 0 
SMALL
USER_CHARGES


@<TRIPOS>ATOM
  1 O        2.0900    -3.4150    -2.5040 O.2   1 <1>  -0.5700 
  2 C        1.7900    -3.4290    -1.3210 C.2   1 <1>   0.5440 
  3 N        0.8820    -2.4630    -0.9090 N.am  1 <1>  -0.6600 
  4 C        2.3750    -4.4670    -0.4570 C.ar  1 <1>   0.3960 
  5 C        0.2240    -1.5420    -1.8650 C.3   1 <1>   0.1400 
  6 C        0.4160    -2.1900     0.4740 C.3   1 <1>   0.1400 
  7 N        2.0320    -4.5670     0.8400 N.ar  1 <1>  -0.6200 
  8 C        3.2760    -5.3770    -1.0280 C.ar  1 <1>   0.1600 
  9 C       -0.9210    -0.9150    -1.0800 C.3   1 <1>  -0.1600 
 10 C       -0.4450    -0.9360     0.3680 C.3   1 <1>  -0.1600 
 11 C        2.5780    -5.5830     1.4630 C.ar  1 <1>   0.4100 
 12 N        3.8590    -6.3930    -0.4020 N.ar  1 <1>  -0.6200 
 13 N        2.1610    -5.7110     2.7570 N.pl3 1 <1>  -0.8690 
 14 C        3.4810    -6.4660     0.8560 C.ar  1 <1>   0.1600 
 15 C        1.0440    -6.6430     3.0170 C.3   1 <1>   0.3890 
 16 C       -0.2810    -5.9490     2.7560 C.2   1 <1>   0.0060 
 17 N       -0.9210    -5.2720     3.6310 N.2   1 <1>  -0.3380 
 18 N       -0.9290    -5.9370     1.5920 N.pl3 1 <1>   0.5930 
 19 N       -1.9970    -4.8120     3.0080 N.2   1 <1>   0.0000 
 20 N       -2.0130    -5.2000     1.7870 N.2   1 <1>  -0.4180 
 21 C       -0.6100    -6.5370     0.3380 C.ar  1 <1>  -0.0230 
 22 C       -0.5760    -5.7590    -0.8160 C.ar  1 <1>  -0.1500 
 23 C       -0.3240    -7.8970     0.2300 C.ar  1 <1>  -0.1500 
 24 C       -0.2170    -6.3080    -2.0330 C.ar  1 <1>  -0.1500 
 25 C        0.0340    -8.4470    -0.9880 C.ar  1 <1>  -0.1500 
 26 C        0.0940    -7.6520    -2.1180 C.ar  1 <1>  -0.1500 
 27 H       -0.1320    -2.0740    -2.7310 H     1 <1>   0.0800 
 28 H        0.9320    -0.7910    -2.1690 H     1 <1>   0.0800 
 29 H        1.2480    -2.0350     1.1390 H     1 <1>   0.0800 
 30 H       -0.1790    -3.0170     0.8230 H     1 <1>   0.0800 
 31 H        3.5280    -5.2600    -2.0680 H     1 <1>   0.1500 
 32 H       -1.7970    -1.5310    -1.1860 H     1 <1>   0.0800 
 33 H       -1.1460     0.0780    -1.4250 H     1 <1>   0.0800 
 34 H        0.1680    -0.0740     0.5650 H     1 <1>   0.0800 
 35 H       -1.2610    -0.9540     1.0690 H     1 <1>   0.0800 
 36 H        1.8960    -4.7900     3.1240 H     1 <1>   0.4000 
 37 H        3.8910    -7.2540     1.4600 H     1 <1>   0.1500 
 38 H        1.0820    -6.9450     4.0500 H     1 <1>   0.0800 
 39 H        1.1520    -7.5250     2.4130 H     1 <1>   0.0800 
 40 H       -0.8250    -4.7120    -0.7640 H     1 <1>   0.1500 
 41 H       -0.3850    -8.5380     1.0910 H     1 <1>   0.1500 
 42 H       -0.1790    -5.6870    -2.9130 H     1 <1>   0.1500 
 43 H        0.2630    -9.4960    -1.0620 H     1 <1>   0.1500 
 44 H        0.3790    -8.0790    -3.0650 H     1 <1>   0.1500 
@<TRIPOS>BOND
  1   1   2  2   
  2   2   3  am  
  3   2   4  1   
  4   3   5  1   
  5   3   6  1   
  6   4   7  ar  
  7   4   8  ar  
  8   5   9  1   
  9   5  27  1   
 10   5  28  1   
 11   6  10  1   
 12   6  29  1   
 13   6  30  1   
 14   7  11  ar  
 15   8  12  ar  
 16   8  31  1   
 17   9  10  1   
 18   9  32  1   
 19   9  33  1   
 20  10  34  1   
 21  10  35  1   
 22  11  13  1   
 23  11  14  ar  
 24  12  14  ar  
 25  13  15  1   
 26  13  36  1   
 27  14  37  1   
 28  15  16  1   
 29  15  38  1   
 30  15  39  1   
 31  16  17  2   
 32  16  18  1   
 33  17  19  1   
 34  18  20  1   
 35  18  21  1   
 36  19  20  2   
 37  21  22  ar  
 38  21  23  ar  
 39  22  24  ar  
 40  22  40  1   
 41  23  25  ar  
 42  23  41  1   
 43  24  26  ar  
 44  24  42  1   
 45  25  26  ar  
 46  25  43  1   
 47  26  44  1   
@<TRIPOS>SUBSTRUCTURE
  1 ****   7 GROUP 4 **** **** 0

# MOE 2024.06 (io_trps.svl 2023.06)
