@<TRIPOS>MOLECULE
NONAME
54 55 1 0 0 
SMALL
USER_CHARGES


@<TRIPOS>ATOM
  1 S        0.5950     1.0270     1.1510 S.o2  1 <1>   1.3330 
  2 O        0.4040    -0.2190     1.8610 O.2   1 <1>  -0.6500 
  3 O        0.4170     2.2810     1.8470 O.2   1 <1>  -0.6500 
  4 N       -0.4390     1.0160    -0.1950 N.am  1 <1>  -0.8490 
  5 C        2.2270     1.0310     0.4130 C.3   1 <1>  -0.0550 
  6 C       -1.7440     1.6100     0.1050 C.3   1 <1>   0.1160 
  7 C       -0.6190    -0.3150    -0.7840 C.3   1 <1>   0.1160 
  8 C        3.3610     1.1630     1.4430 C.3   1 <1>  -0.0800 
  9 C        4.7330     1.1580     0.7950 C.3   1 <1>   0.2200 
 10 C        3.4690     0.0090     2.4320 C.3   1 <1>   0.1200 
 11 N        5.1450     2.5360     0.4630 N.am  1 <1>  -0.7300 
 12 C        5.6320     0.4940     1.8390 C.3   1 <1>   0.1200 
 13 O        4.7950     0.0220     2.8530 O.3   1 <1>  -0.5600 
 14 C        4.9960     3.1260    -0.7560 C.2   1 <1>   0.5690 
 15 O        4.5240     2.5030    -1.6810 O.2   1 <1>  -0.5700 
 16 C        5.4110     4.6100    -0.9480 C.3   1 <1>   0.3410 
 17 O        5.9770     5.0730     0.2860 O.3   1 <1>  -0.3630 
 18 C        6.4670     4.7300    -2.0620 C.3   1 <1>  -0.2400 
 19 C        4.1730     5.4590    -1.2900 C.3   1 <1>  -0.2400 
 20 C        6.4030     6.3470     0.4480 C.ar  1 <1>   0.0820 
 21 C        5.5340     7.3090     0.9430 C.ar  1 <1>  -0.1500 
 22 C        7.7190     6.6790     0.1670 C.ar  1 <1>  -0.1500 
 23 C        5.9660     8.6120     1.1250 C.ar  1 <1>  -0.1440 
 24 C        8.1540     7.9790     0.3500 C.ar  1 <1>  -0.1500 
 25 C        7.2790     8.9420     0.8250 C.ar  1 <1>  -0.1500 
 26 C        5.0110     9.6650     1.6580 C.3   1 <1>  -0.0970 
 27 H        2.3640     0.1330    -0.1550 H     1 <1>   0.0800 
 28 H        2.2900     1.8580    -0.2690 H     1 <1>   0.0800 
 29 H       -2.3680     1.6050    -0.7720 H     1 <1>   0.0800 
 30 H       -1.6200     2.6320     0.4220 H     1 <1>   0.0800 
 31 H       -2.2330     1.0610     0.8930 H     1 <1>   0.0800 
 32 H       -1.2130    -0.2450    -1.6790 H     1 <1>   0.0800 
 33 H       -1.1120    -0.9720    -0.0860 H     1 <1>   0.0800 
 34 H        0.3350    -0.7390    -1.0440 H     1 <1>   0.0800 
 35 H        3.2270     2.0670     2.0140 H     1 <1>   0.0800 
 36 H        4.7340     0.5510    -0.0960 H     1 <1>   0.0800 
 37 H        3.2790    -0.9410     1.9600 H     1 <1>   0.0800 
 38 H        2.8250     0.1310     3.2860 H     1 <1>   0.0800 
 39 H        5.4930     3.1180     1.2330 H     1 <1>   0.3700 
 40 H        6.3290     1.1870     2.2760 H     1 <1>   0.0800 
 41 H        6.1560    -0.3460     1.4180 H     1 <1>   0.0800 
 42 H        6.0780     4.3140    -2.9740 H     1 <1>   0.0800 
 43 H        7.3510     4.1810    -1.7930 H     1 <1>   0.0800 
 44 H        6.7180     5.7580    -2.2500 H     1 <1>   0.0800 
 45 H        3.7020     5.0700    -2.1750 H     1 <1>   0.0800 
 46 H        4.4440     6.4810    -1.4840 H     1 <1>   0.0800 
 47 H        3.4620     5.4160    -0.4860 H     1 <1>   0.0800 
 48 H        4.5250     7.0300     1.1860 H     1 <1>   0.1500 
 49 H        8.3960     5.9250    -0.1880 H     1 <1>   0.1500 
 50 H        9.1740     8.2430     0.1280 H     1 <1>   0.1500 
 51 H        7.6270     9.9510     0.9640 H     1 <1>   0.1500 
 52 H        5.3040    10.6440     1.3240 H     1 <1>   0.0800 
 53 H        5.0160     9.6480     2.7330 H     1 <1>   0.0800 
 54 H        4.0120     9.4740     1.3110 H     1 <1>   0.0800 
@<TRIPOS>BOND
  1   1   2  2   
  2   1   3  2   
  3   1   4  am  
  4   1   5  1   
  5   4   6  1   
  6   4   7  1   
  7   5   8  1   
  8   5  27  1   
  9   5  28  1   
 10   6  29  1   
 11   6  30  1   
 12   6  31  1   
 13   7  32  1   
 14   7  33  1   
 15   7  34  1   
 16   8   9  1   
 17   8  10  1   
 18   8  35  1   
 19   9  11  1   
 20   9  12  1   
 21   9  36  1   
 22  10  13  1   
 23  10  37  1   
 24  10  38  1   
 25  11  14  am  
 26  11  39  1   
 27  12  13  1   
 28  12  40  1   
 29  12  41  1   
 30  14  15  2   
 31  14  16  1   
 32  16  17  1   
 33  16  18  1   
 34  16  19  1   
 35  17  20  1   
 36  18  42  1   
 37  18  43  1   
 38  18  44  1   
 39  19  45  1   
 40  19  46  1   
 41  19  47  1   
 42  20  21  ar  
 43  20  22  ar  
 44  21  23  ar  
 45  21  48  1   
 46  22  24  ar  
 47  22  49  1   
 48  23  25  ar  
 49  23  26  1   
 50  24  25  ar  
 51  24  50  1   
 52  25  51  1   
 53  26  52  1   
 54  26  53  1   
 55  26  54  1   
@<TRIPOS>SUBSTRUCTURE
  1 ****  11 GROUP 4 **** **** 0

# MOE 2024.06 (io_trps.svl 2023.06)
