@<TRIPOS>MOLECULE
NONAME
42 45 1 0 0 
SMALL
USER_CHARGES


@<TRIPOS>ATOM
  1 O        0.0980     0.8970     1.4630 O.2   1 <1>  -0.5700 
  2 C        0.0260     2.0630     1.1000 C.2   1 <1>   0.7160 
  3 N       -1.1940     2.7140     1.2490 N.am  1 <1>  -0.6600 
  4 C        1.2080     2.7270     0.5300 C.2   1 <1>   0.4300 
  5 C       -1.4670     4.0890     0.7500 C.3   1 <1>   0.1400 
  6 C       -2.3740     2.0690     1.8910 C.3   1 <1>   0.1400 
  7 N        1.7950     3.7830     1.0690 N.2   1 <1>  -0.7070 
  8 N        1.7770     2.2980    -0.6210 N.2   1 <1>  -0.5650 
  9 C       -2.6030     4.0340    -0.2730 C.3   1 <1>  -0.1600 
 10 C       -3.5220     1.9990     0.8820 C.3   1 <1>  -0.1600 
 11 N        2.7980     4.0120     0.2440 N.pl3 1 <1>   0.6010 
 12 C        2.7650     3.1110    -0.7740 C.2   1 <1>   0.3120 
 13 C       -3.8620     3.3790     0.3120 C.3   1 <1>   0.4180 
 14 C        3.7790     4.9810     0.2820 C.2   1 <1>  -0.1810 
 15 N        3.6760     3.1060    -1.8060 N.2   1 <1>  -0.5760 
 16 O       -4.3290     4.1480     1.3950 O.3   1 <1>  -0.5600 
 17 C       -4.9500     3.2420    -0.7500 C.2   1 <1>  -0.2880 
 18 C        4.6890     4.9880    -0.7270 C.2   1 <1>  -0.1360 
 19 C        4.5940     4.0150    -1.7630 C.2   1 <1>   0.3760 
 20 C       -5.1000     5.2790     1.1010 C.3   1 <1>   0.1200 
 21 C       -6.1130     3.8980    -0.7240 C.2   1 <1>  -0.2760 
 22 C       -6.4040     4.8770     0.3990 C.3   1 <1>  -0.0220 
 23 C       -7.2170     3.7380    -1.7530 C.3   1 <1>  -0.1020 
 24 H       -0.5960     4.5210     0.2910 H     1 <1>   0.0800 
 25 H       -1.7510     4.7140     1.5810 H     1 <1>   0.0800 
 26 H       -2.6730     2.6530     2.7450 H     1 <1>   0.0800 
 27 H       -2.1360     1.0770     2.2360 H     1 <1>   0.0800 
 28 H       -2.2700     3.4600    -1.1200 H     1 <1>   0.0800 
 29 H       -2.8280     5.0200    -0.6300 H     1 <1>   0.0800 
 30 H       -4.3960     1.5860     1.3510 H     1 <1>   0.0800 
 31 H       -3.2360     1.3370     0.0850 H     1 <1>   0.0800 
 32 H        3.7540     5.6620     1.1120 H     1 <1>   0.1500 
 33 H       -4.6860     2.5470    -1.5270 H     1 <1>   0.1500 
 34 H        5.4890     5.7050    -0.7780 H     1 <1>   0.1500 
 35 H        5.3300     4.0490    -2.5470 H     1 <1>   0.0600 
 36 H       -4.5230     5.9370     0.4770 H     1 <1>   0.0800 
 37 H       -5.3150     5.7800     2.0280 H     1 <1>   0.0800 
 38 H       -6.8700     5.7640     0.0090 H     1 <1>   0.0800 
 39 H       -7.0760     4.4280     1.1080 H     1 <1>   0.0800 
 40 H       -8.1190     3.3970    -1.2770 H     1 <1>   0.0800 
 41 H       -6.9330     3.0180    -2.5000 H     1 <1>   0.0800 
 42 H       -7.4120     4.6760    -2.2410 H     1 <1>   0.0800 
@<TRIPOS>BOND
  1   1   2  2   
  2   2   3  am  
  3   2   4  1   
  4   3   5  1   
  5   3   6  1   
  6   4   7  2   
  7   4   8  1   
  8   5   9  1   
  9   5  24  1   
 10   5  25  1   
 11   6  10  1   
 12   6  26  1   
 13   6  27  1   
 14   7  11  1   
 15   8  12  2   
 16   9  13  1   
 17   9  28  1   
 18   9  29  1   
 19  10  13  1   
 20  10  30  1   
 21  10  31  1   
 22  11  12  1   
 23  11  14  1   
 24  12  15  1   
 25  13  16  1   
 26  13  17  1   
 27  14  18  2   
 28  14  32  1   
 29  15  19  2   
 30  16  20  1   
 31  17  21  2   
 32  17  33  1   
 33  18  19  1   
 34  18  34  1   
 35  19  35  1   
 36  20  22  1   
 37  20  36  1   
 38  20  37  1   
 39  21  22  1   
 40  21  23  1   
 41  22  38  1   
 42  22  39  1   
 43  23  40  1   
 44  23  41  1   
 45  23  42  1   
@<TRIPOS>SUBSTRUCTURE
  1 ****   5 GROUP 4 **** **** 0

# MOE 2024.06 (io_trps.svl 2023.06)
