@<TRIPOS>MOLECULE
NONAME
37 38 1 0 0 
SMALL
USER_CHARGES


@<TRIPOS>ATOM
  1 N       -0.1250     0.1140    -0.0620 N.ar  1 <1>  -0.6200 
  2 C       -1.2540     0.7880    -0.1360 C.ar  1 <1>   0.4100 
  3 C        0.9620     0.8260     0.1380 C.ar  1 <1>   0.4760 
  4 N       -2.4000     0.0600    -0.3410 N.pl3 1 <1>  -0.8690 
  5 C       -1.2850     2.1730    -0.0080 C.ar  1 <1>  -0.1430 
  6 N        1.0610     2.1330     0.2780 N.ar  1 <1>  -0.6200 
  7 C        2.2580     0.0570     0.2230 C.3   1 <1>  -0.0970 
  8 C       -2.4460    -1.4190    -0.3030 C.3   1 <1>   0.2090 
  9 C       -0.0770     2.7920     0.2010 C.ar  1 <1>   0.1600 
 10 C       -2.6170     2.9240    -0.1050 C.3   1 <1>  -0.0170 
 11 C       -3.8880    -1.9030    -0.4770 C.3   1 <1>   0.0000 
 12 C       -2.5190     4.4540    -0.0040 C.3   1 <1>  -0.1600 
 13 C       -4.8470    -1.5670     0.6960 C.3   1 <1>   0.0000 
 14 C       -4.1100    -3.3990    -0.1310 C.3   1 <1>   0.0000 
 15 C       -3.8980     5.1110    -0.1270 C.3   1 <1>  -0.2400 
 16 C       -5.4670    -2.9730     0.4860 C.3   1 <1>   0.0000 
 17 H       -3.2950     0.5260    -0.1950 H     1 <1>   0.4000 
 18 H        2.1350    -0.9310    -0.1810 H     1 <1>   0.0800 
 19 H        2.5580    -0.0170     1.2510 H     1 <1>   0.0800 
 20 H        3.0210     0.5690    -0.3320 H     1 <1>   0.0800 
 21 H       -2.0490    -1.7590     0.6390 H     1 <1>   0.0800 
 22 H       -1.8290    -1.8140    -1.0920 H     1 <1>   0.0800 
 23 H       -0.0140     3.8600     0.3110 H     1 <1>   0.1500 
 24 H       -3.2630     2.5700     0.6790 H     1 <1>   0.0800 
 25 H       -3.0760     2.6740    -1.0470 H     1 <1>   0.0800 
 26 H       -4.3080    -1.6540    -1.4380 H     1 <1>   0.0000 
 27 H       -1.8840     4.8280    -0.7890 H     1 <1>   0.0800 
 28 H       -2.0880     4.7270     0.9450 H     1 <1>   0.0800 
 29 H       -5.5230    -0.7570     0.4870 H     1 <1>   0.0000 
 30 H       -4.3440    -1.4770     1.6440 H     1 <1>   0.0000 
 31 H       -3.4220    -3.7730     0.6090 H     1 <1>   0.0000 
 32 H       -4.2040    -4.0370    -0.9920 H     1 <1>   0.0000 
 33 H       -4.3460     4.8740    -1.0770 H     1 <1>   0.0800 
 34 H       -3.8040     6.1800    -0.0540 H     1 <1>   0.0800 
 35 H       -4.5510     4.7720     0.6590 H     1 <1>   0.0800 
 36 H       -6.2680    -2.9700    -0.2350 H     1 <1>   0.0000 
 37 H       -5.7110    -3.4830     1.4000 H     1 <1>   0.0000 
@<TRIPOS>BOND
  1   1   2  ar  
  2   1   3  ar  
  3   2   4  1   
  4   2   5  ar  
  5   3   6  ar  
  6   3   7  1   
  7   4   8  1   
  8   4  17  1   
  9   5   9  ar  
 10   5  10  1   
 11   6   9  ar  
 12   7  18  1   
 13   7  19  1   
 14   7  20  1   
 15   8  11  1   
 16   8  21  1   
 17   8  22  1   
 18   9  23  1   
 19  10  12  1   
 20  10  24  1   
 21  10  25  1   
 22  11  13  1   
 23  11  14  1   
 24  11  26  1   
 25  12  15  1   
 26  12  27  1   
 27  12  28  1   
 28  13  16  1   
 29  13  29  1   
 30  13  30  1   
 31  14  16  1   
 32  14  31  1   
 33  14  32  1   
 34  15  33  1   
 35  15  34  1   
 36  15  35  1   
 37  16  36  1   
 38  16  37  1   
@<TRIPOS>SUBSTRUCTURE
  1 ****   2 GROUP 4 **** **** 0

# MOE 2024.06 (io_trps.svl 2023.06)
