@<TRIPOS>MOLECULE
NONAME
46 48 1 0 0 
SMALL
USER_CHARGES


@<TRIPOS>ATOM
  1 O        0.2330     0.1300    -0.3200 O.3   1 <1>  -0.5600 
  2 C        1.4220    -0.5180    -0.6790 C.3   1 <1>   0.3440 
  3 C        0.1600     1.4870    -0.6560 C.3   1 <1>   0.2000 
  4 C        1.3570    -1.9800    -0.2640 C.ar  1 <1>  -0.1440 
  5 C        2.6140     0.1590     0.0340 C.3   1 <1>   0.3430 
  6 C       -1.2500     2.0020    -0.2940 C.3   1 <1>  -0.0800 
  7 C        1.2770     2.2520     0.0920 C.3   1 <1>   0.3430 
  8 C        0.7090    -2.3710     0.9010 C.ar  1 <1>  -0.1500 
  9 C        1.9730    -2.9450    -1.0490 C.ar  1 <1>  -0.1500 
 10 N        2.6490     1.6610    -0.1500 N.4   1 <1>  -0.9590 
 11 C       -2.3420     1.2110    -1.0320 C.3   1 <1>  -0.2400 
 12 C       -1.4170     3.4970    -0.6190 C.3   1 <1>  -0.2400 
 13 C        0.6880    -3.7010     1.2800 C.ar  1 <1>  -0.1500 
 14 C        1.9520    -4.2760    -0.6700 C.ar  1 <1>  -0.1500 
 15 C        3.6950     2.2900     0.7100 C.3   1 <1>   0.4860 
 16 C        1.3110    -4.6550     0.4950 C.ar  1 <1>  -0.1500 
 17 C        3.7400     3.7750     0.4370 C.ar  1 <1>  -0.1440 
 18 C        3.1770     4.6800     1.3090 C.ar  1 <1>   0.1600 
 19 C        4.3340     4.2830    -0.6950 C.ar  1 <1>   0.1600 
 20 N        3.1710     5.9680     1.0660 N.ar  1 <1>  -0.6200 
 21 N        4.3420     5.5670    -0.9600 N.ar  1 <1>  -0.6200 
 22 C        3.7610     6.3440    -0.0580 C.ar  1 <1>   0.4700 
 23 H        1.5280    -0.4530    -1.7490 H     1 <1>   0.0800 
 24 H        0.2970     1.5790    -1.7200 H     1 <1>   0.0800 
 25 H        3.5280    -0.2820    -0.3270 H     1 <1>   0.0800 
 26 H        2.5330    -0.0760     1.0820 H     1 <1>   0.0800 
 27 H       -1.4010     1.8720     0.7650 H     1 <1>   0.0800 
 28 H        1.0470     2.2260     1.1450 H     1 <1>   0.0800 
 29 H        1.2630     3.2830    -0.2210 H     1 <1>   0.0800 
 30 H        0.2090    -1.6460     1.5200 H     1 <1>   0.1500 
 31 H        2.4740    -2.6790    -1.9640 H     1 <1>   0.1500 
 32 H        2.8870     1.8580    -1.1310 H     1 <1>   0.4500 
 33 H       -2.2300     1.3020    -2.0980 H     1 <1>   0.0800 
 34 H       -3.3180     1.5730    -0.7600 H     1 <1>   0.0800 
 35 H       -2.2970     0.1670    -0.7730 H     1 <1>   0.0800 
 36 H       -1.2380     3.6840    -1.6640 H     1 <1>   0.0800 
 37 H       -0.7540     4.1090    -0.0350 H     1 <1>   0.0800 
 38 H       -2.4230     3.8100    -0.3940 H     1 <1>   0.0800 
 39 H        0.1820    -3.9980     2.1830 H     1 <1>   0.1500 
 40 H        2.4300    -5.0220    -1.2830 H     1 <1>   0.1500 
 41 H        3.4700     2.1170     1.7510 H     1 <1>   0.0800 
 42 H        4.6600     1.8570     0.4980 H     1 <1>   0.0800 
 43 H        1.2930    -5.6900     0.7890 H     1 <1>   0.1500 
 44 H        2.7140     4.3550     2.2270 H     1 <1>   0.1500 
 45 H        4.8150     3.6370    -1.4110 H     1 <1>   0.1500 
 46 H        3.7670     7.4030    -0.2640 H     1 <1>   0.1500 
@<TRIPOS>BOND
  1   1   2  1   
  2   1   3  1   
  3   2   4  1   
  4   2   5  1   
  5   2  23  1   
  6   3   6  1   
  7   3   7  1   
  8   3  24  1   
  9   4   8  ar  
 10   4   9  ar  
 11   5  10  1   
 12   5  25  1   
 13   5  26  1   
 14   6  11  1   
 15   6  12  1   
 16   6  27  1   
 17   7  10  1   
 18   7  28  1   
 19   7  29  1   
 20   8  13  ar  
 21   8  30  1   
 22   9  14  ar  
 23   9  31  1   
 24  10  15  1   
 25  10  32  1   
 26  11  33  1   
 27  11  34  1   
 28  11  35  1   
 29  12  36  1   
 30  12  37  1   
 31  12  38  1   
 32  13  16  ar  
 33  13  39  1   
 34  14  16  ar  
 35  14  40  1   
 36  15  17  1   
 37  15  41  1   
 38  15  42  1   
 39  16  43  1   
 40  17  18  ar  
 41  17  19  ar  
 42  18  20  ar  
 43  18  44  1   
 44  19  21  ar  
 45  19  45  1   
 46  20  22  ar  
 47  21  22  ar  
 48  22  46  1   
@<TRIPOS>SUBSTRUCTURE
  1 ****  10 GROUP 4 **** **** 0

# MOE 2024.06 (io_trps.svl 2023.06)
