@<TRIPOS>MOLECULE
NONAME
56 60 1 0 0 
SMALL
USER_CHARGES


@<TRIPOS>ATOM
  1 O       -1.2360    -0.6530    -0.7880 O.2   1 <1>  -0.5700 
  2 C       -0.4730    -1.5490    -0.4690 C.2   1 <1>   0.5440 
  3 N        0.3800    -1.3170     0.5990 N.am  1 <1>  -0.6600 
  4 C       -0.4940    -2.7890    -1.2450 C.ar  1 <1>   0.3960 
  5 C        0.1970    -0.1570     1.5280 C.3   1 <1>   0.1400 
  6 C        1.5610    -2.1660     0.9460 C.3   1 <1>   0.1400 
  7 N       -0.3160    -3.9810    -0.6480 N.ar  1 <1>  -0.6200 
  8 C       -0.7200    -2.6910    -2.6220 C.ar  1 <1>   0.1600 
  9 C        1.5240     0.5860     1.7460 C.3   1 <1>   0.1200 
 10 C        2.8050    -1.3030     1.2200 C.3   1 <1>   0.1200 
 11 C       -0.3660    -5.0000    -1.4770 C.ar  1 <1>   0.4100 
 12 N       -0.7600    -3.7080    -3.4730 N.ar  1 <1>  -0.6200 
 13 O        2.5240    -0.3020     2.1550 O.3   1 <1>  -0.5600 
 14 N       -0.2020    -6.2090    -0.8540 N.pl3 1 <1>  -0.8690 
 15 C       -0.5700    -4.8570    -2.8590 C.ar  1 <1>   0.1600 
 16 C       -1.0110    -7.4180    -1.1490 C.3   1 <1>   0.2890 
 17 C       -2.2960    -7.4690    -0.3290 C.3   1 <1>  -0.0800 
 18 C       -0.2830    -8.6400    -0.5970 C.3   1 <1>   0.1200 
 19 C       -1.8390    -8.0810     0.9980 C.3   1 <1>   0.1200 
 20 C       -3.0770    -6.1500    -0.1630 C.3   1 <1>  -0.0170 
 21 O       -0.6090    -8.6990     0.7590 O.3   1 <1>  -0.5600 
 22 C       -4.3760    -6.3770     0.6030 C.ar  1 <1>  -0.1440 
 23 C       -5.5240    -6.9500     0.0060 C.ar  1 <1>   0.0000 
 24 C       -4.4590    -6.0290     1.9200 C.ar  1 <1>  -0.1500 
 25 C       -6.6630    -7.1480     0.8260 C.ar  1 <1>   0.3100 
 26 C       -5.6130    -7.3350    -1.3520 C.ar  1 <1>  -0.1500 
 27 C       -5.6390    -6.2570     2.6380 C.ar  1 <1>   0.1600 
 28 N       -6.7030    -6.7970     2.1360 N.ar  1 <1>  -0.6200 
 29 C       -7.8100    -7.7340     0.2660 C.ar  1 <1>  -0.1500 
 30 C       -6.7480    -7.9010    -1.8670 C.ar  1 <1>  -0.1500 
 31 C       -7.8610    -8.1060    -1.0490 C.ar  1 <1>  -0.1500 
 32 H       -0.5330     0.5330     1.1430 H     1 <1>   0.0800 
 33 H       -0.1610    -0.5200     2.4750 H     1 <1>   0.0800 
 34 H        1.3330    -2.7490     1.8210 H     1 <1>   0.0800 
 35 H        1.7940    -2.8440     0.1450 H     1 <1>   0.0800 
 36 H       -0.8720    -1.7090    -3.0370 H     1 <1>   0.1500 
 37 H        1.4100     1.3300     2.5140 H     1 <1>   0.0800 
 38 H        1.8390     1.0720     0.8380 H     1 <1>   0.0800 
 39 H        3.1500    -0.8390     0.3120 H     1 <1>   0.0800 
 40 H        3.5970    -1.9110     1.6180 H     1 <1>   0.0800 
 41 H       -0.0120    -6.1170     0.1490 H     1 <1>   0.4000 
 42 H       -0.5690    -5.7440    -3.4630 H     1 <1>   0.1500 
 43 H       -1.1910    -7.5110    -2.2060 H     1 <1>   0.0800 
 44 H       -2.9450    -8.1890    -0.7940 H     1 <1>   0.0800 
 45 H        0.7850    -8.5710    -0.7100 H     1 <1>   0.0800 
 46 H       -0.6450    -9.5410    -1.0600 H     1 <1>   0.0800 
 47 H       -2.5370    -8.8160     1.3620 H     1 <1>   0.0800 
 48 H       -1.6810    -7.3280     1.7490 H     1 <1>   0.0800 
 49 H       -3.2880    -5.7130    -1.1220 H     1 <1>   0.0800 
 50 H       -2.4750    -5.4390     0.3760 H     1 <1>   0.0800 
 51 H       -3.6320    -5.5790     2.4380 H     1 <1>   0.1500 
 52 H       -4.7730    -7.1790    -2.0010 H     1 <1>   0.1500 
 53 H       -5.6610    -5.9680     3.6750 H     1 <1>   0.1500 
 54 H       -8.6550    -7.8780     0.9140 H     1 <1>   0.1500 
 55 H       -6.8010    -8.1910    -2.9030 H     1 <1>   0.1500 
 56 H       -8.7480    -8.5540    -1.4640 H     1 <1>   0.1500 
@<TRIPOS>BOND
  1   1   2  2   
  2   2   3  am  
  3   2   4  1   
  4   3   5  1   
  5   3   6  1   
  6   4   7  ar  
  7   4   8  ar  
  8   5   9  1   
  9   5  32  1   
 10   5  33  1   
 11   6  10  1   
 12   6  34  1   
 13   6  35  1   
 14   7  11  ar  
 15   8  12  ar  
 16   8  36  1   
 17   9  13  1   
 18   9  37  1   
 19   9  38  1   
 20  10  13  1   
 21  10  39  1   
 22  10  40  1   
 23  11  14  1   
 24  11  15  ar  
 25  12  15  ar  
 26  14  16  1   
 27  14  41  1   
 28  15  42  1   
 29  16  17  1   
 30  16  18  1   
 31  16  43  1   
 32  17  19  1   
 33  17  20  1   
 34  17  44  1   
 35  18  21  1   
 36  18  45  1   
 37  18  46  1   
 38  19  21  1   
 39  19  47  1   
 40  19  48  1   
 41  20  22  1   
 42  20  49  1   
 43  20  50  1   
 44  22  23  ar  
 45  22  24  ar  
 46  23  25  ar  
 47  23  26  ar  
 48  24  27  ar  
 49  24  51  1   
 50  25  28  ar  
 51  25  29  ar  
 52  26  30  ar  
 53  26  52  1   
 54  27  28  ar  
 55  27  53  1   
 56  29  31  ar  
 57  29  54  1   
 58  30  31  ar  
 59  30  55  1   
 60  31  56  1   
@<TRIPOS>SUBSTRUCTURE
  1 ****  20 GROUP 4 **** **** 0

# MOE 2024.06 (io_trps.svl 2023.06)
