@<TRIPOS>MOLECULE
NONAME
55 58 1 0 0 
SMALL
USER_CHARGES


@<TRIPOS>ATOM
  1 O       -0.7710    -0.4130    -0.4190 O.2   1 <1>  -0.5740 
  2 C       -1.9720    -0.3780    -0.2870 C.2   1 <1>   0.6870 
  3 N       -2.7750    -1.4710    -0.5640 N.am  1 <1>  -0.4410 
  4 N       -2.5490     0.7830     0.1370 N.am  1 <1>  -0.4950 
  5 C       -4.1420    -1.3440    -0.3470 C.2   1 <1>   0.4210 
  6 C       -2.1820    -2.6610    -1.2370 C.3   1 <1>   0.0530 
  7 C       -3.8950     0.9440     0.2970 C.2   1 <1>   0.7000 
  8 N       -5.1080    -2.2880    -0.4800 N.pl3 1 <1>  -0.7030 
  9 C       -4.7330    -0.1910     0.0370 C.2   1 <1>   0.2710 
 10 O       -4.3160     2.0280     0.6510 O.2   1 <1>  -0.5740 
 11 C       -6.2950    -1.7410    -0.2180 C.cat 1 <1>   1.0690 
 12 N       -6.1190    -0.4400     0.0850 N.pl3 1 <1>  -0.7670 
 13 N       -7.4610    -2.4320    -0.2920 N.pl3 1 <1>  -0.5960 
 14 C       -7.0900     0.6760     0.2850 C.3   1 <1>   0.2680 
 15 C       -7.5810    -3.6330    -1.1900 C.3   1 <1>   0.1610 
 16 C       -8.7510    -1.9860     0.3170 C.3   1 <1>   0.1610 
 17 C       -8.3120    -4.8360    -0.5490 C.3   1 <1>  -0.0080 
 18 C       -9.5170    -3.1490     0.9510 C.3   1 <1>  -0.1670 
 19 C       -9.6710    -4.3010    -0.0420 C.3   1 <1>   0.1940 
 20 C       -8.6120    -5.8560    -1.6740 C.3   1 <1>   0.1130 
 21 C       -7.5030    -5.5480     0.5880 C.3   1 <1>  -0.0240 
 22 O      -10.4170    -5.3000     0.5550 O.3   1 <1>  -0.6840 
 23 O       -7.4420    -6.1970    -2.3410 O.3   1 <1>  -0.6840 
 24 C       -6.0710    -5.0880     0.8370 C.ar  1 <1>  -0.1500 
 25 C       -5.7750    -4.2770     1.9230 C.ar  1 <1>  -0.1570 
 26 C       -5.0430    -5.5340     0.0220 C.ar  1 <1>  -0.1570 
 27 C       -4.4660    -3.9220     2.1950 C.ar  1 <1>  -0.1570 
 28 C       -3.7330    -5.1840     0.2960 C.ar  1 <1>  -0.1570 
 29 C       -3.4430    -4.3790     1.3840 C.ar  1 <1>  -0.1570 
 30 H       -1.9350     1.5730     0.3220 H     1 <1>   0.3650 
 31 H       -2.9460    -3.2900    -1.6560 H     1 <1>   0.0730 
 32 H       -1.6010    -3.2240    -0.5280 H     1 <1>   0.0730 
 33 H       -1.5300    -2.3400    -2.0320 H     1 <1>   0.0730 
 34 H       -4.9670    -3.3050    -0.4760 H     1 <1>   0.4450 
 35 H       -6.6820     1.6000    -0.0880 H     1 <1>   0.0730 
 36 H       -7.3040     0.7950     1.3340 H     1 <1>   0.0730 
 37 H       -8.0040     0.4890    -0.2500 H     1 <1>   0.0730 
 38 H       -8.1360    -3.3300    -2.0630 H     1 <1>   0.0730 
 39 H       -6.6170    -3.9510    -1.5460 H     1 <1>   0.0730 
 40 H       -8.5710    -1.2600     1.0890 H     1 <1>   0.0730 
 41 H       -9.3610    -1.5340    -0.4480 H     1 <1>   0.0730 
 42 H      -10.4930    -2.7990     1.2390 H     1 <1>   0.0730 
 43 H       -9.0030    -3.4640     1.8390 H     1 <1>   0.0730 
 44 H      -10.2510    -3.9530    -0.8820 H     1 <1>   0.0730 
 45 H       -9.2930    -5.4430    -2.3990 H     1 <1>   0.0730 
 46 H       -9.0480    -6.7560    -1.2710 H     1 <1>   0.0730 
 47 H       -8.0260    -5.4760     1.5230 H     1 <1>   0.0730 
 48 H       -7.4620    -6.6040     0.3860 H     1 <1>   0.0730 
 49 H      -10.0120    -5.5910     1.3940 H     1 <1>   0.3950 
 50 H       -7.6140    -6.9170    -2.9840 H     1 <1>   0.3950 
 51 H       -6.5590    -3.9360     2.5770 H     1 <1>   0.1430 
 52 H       -5.2590    -6.1790    -0.8140 H     1 <1>   0.1430 
 53 H       -4.2400    -3.3060     3.0500 H     1 <1>   0.1430 
 54 H       -2.9370    -5.5590    -0.3260 H     1 <1>   0.1430 
 55 H       -2.4220    -4.1210     1.6100 H     1 <1>   0.1430 
@<TRIPOS>BOND
  1   1   2  2   
  2   2   3  am  
  3   2   4  am  
  4   3   5  1   
  5   3   6  1   
  6   4   7  am  
  7   4  30  1   
  8   5   8  1   
  9   5   9  2   
 10   6  31  1   
 11   6  32  1   
 12   6  33  1   
 13   7   9  1   
 14   7  10  2   
 15   8  11  ar  
 16   8  34  1   
 17   9  12  1   
 18  11  12  ar  
 19  11  13  ar  
 20  12  14  1   
 21  13  15  1   
 22  13  16  1   
 23  14  35  1   
 24  14  36  1   
 25  14  37  1   
 26  15  17  1   
 27  15  38  1   
 28  15  39  1   
 29  16  18  1   
 30  16  40  1   
 31  16  41  1   
 32  17  19  1   
 33  17  20  1   
 34  17  21  1   
 35  18  19  1   
 36  18  42  1   
 37  18  43  1   
 38  19  22  1   
 39  19  44  1   
 40  20  23  1   
 41  20  45  1   
 42  20  46  1   
 43  21  24  1   
 44  21  47  1   
 45  21  48  1   
 46  22  49  1   
 47  23  50  1   
 48  24  25  ar  
 49  24  26  ar  
 50  25  27  ar  
 51  25  51  1   
 52  26  28  ar  
 53  26  52  1   
 54  27  29  ar  
 55  27  53  1   
 56  28  29  ar  
 57  28  54  1   
 58  29  55  1   
@<TRIPOS>SUBSTRUCTURE
  1 ****   8 GROUP 4 **** **** 0

# MOE 2024.06 (io_trps.svl 2023.06)
