@<TRIPOS>MOLECULE
NONAME
50 52 1 0 0 
SMALL
USER_CHARGES


@<TRIPOS>ATOM
  1 O        0.8900    -0.0100    -0.3840 O.2   1 <1>  -0.5700 
  2 C        1.8970    -0.6800    -0.4180 C.2   1 <1>   0.5690 
  3 N        3.1410    -0.0900    -0.4420 N.am  1 <1>  -0.6600 
  4 C        1.7420    -2.2020    -0.4120 C.3   1 <1>  -0.0190 
  5 C        4.4460    -0.8220    -0.3750 C.3   1 <1>   0.1400 
  6 C        3.2610     1.3960    -0.4870 C.3   1 <1>   0.1400 
  7 C        0.3410    -2.6930    -0.7520 C.3   1 <1>   0.1200 
  8 C        1.9770    -2.8500     0.9500 C.3   1 <1>  -0.1600 
  9 C        5.2300    -0.4760     0.8990 C.3   1 <1>   0.1400 
 10 C        3.4750     1.9400     0.9310 C.3   1 <1>  -0.1600 
 11 O        0.2840    -3.9710    -0.2100 O.3   1 <1>  -0.5600 
 12 C        0.9740    -4.0030     0.9970 C.3   1 <1>   0.1200 
 13 N        5.7890     0.9070     0.8190 N.am  1 <1>  -0.6600 
 14 C        4.9390     1.9910     1.3960 C.3   1 <1>   0.1400 
 15 C        6.9990     1.1020     0.1990 C.2   1 <1>   0.5690 
 16 O        7.5660     0.1910    -0.3590 O.2   1 <1>  -0.5700 
 17 C        7.6560     2.4810     0.1890 C.3   1 <1>  -0.0990 
 18 C        9.1030     2.4900    -0.3420 C.3   1 <1>  -0.1600 
 19 C        9.7230     3.8930    -0.3080 C.3   1 <1>   0.0210 
 20 C       11.1490     3.9030    -0.8350 C.2   1 <1>  -0.1810 
 21 C       11.9750     5.0220    -0.9080 C.2   1 <1>   0.1390 
 22 C       11.9040     2.8960    -1.3250 C.2   1 <1>  -0.3020 
 23 N       13.1440     4.7450    -1.4000 N.2   1 <1>  -0.7070 
 24 N       13.0970     3.4250    -1.6570 N.pl3 1 <1>   0.3000 
 25 H        2.4000    -2.6290    -1.1460 H     1 <1>   0.0800 
 26 H        5.0420    -0.5760    -1.2370 H     1 <1>   0.0800 
 27 H        4.2910    -1.8830    -0.3920 H     1 <1>   0.0800 
 28 H        2.3560     1.8160    -0.8930 H     1 <1>   0.0800 
 29 H        4.0690     1.6840    -1.1380 H     1 <1>   0.0800 
 30 H        0.1640    -2.7420    -1.8120 H     1 <1>   0.0800 
 31 H       -0.4210    -2.0990    -0.2750 H     1 <1>   0.0800 
 32 H        1.7590    -2.1600     1.7460 H     1 <1>   0.0800 
 33 H        2.9850    -3.2070     1.0600 H     1 <1>   0.0800 
 34 H        6.0410    -1.1760     1.0050 H     1 <1>   0.0800 
 35 H        4.5980    -0.5790     1.7630 H     1 <1>   0.0800 
 36 H        2.8890     1.3630     1.6250 H     1 <1>   0.0800 
 37 H        3.0880     2.9420     0.9690 H     1 <1>   0.0800 
 38 H        0.2630    -3.8720     1.7950 H     1 <1>   0.0800 
 39 H        1.4570    -4.9610     1.0860 H     1 <1>   0.0800 
 40 H        4.9730     1.9300     2.4700 H     1 <1>   0.0800 
 41 H        5.3350     2.9510     1.1170 H     1 <1>   0.0800 
 42 H        7.6580     2.8580     1.1950 H     1 <1>   0.0800 
 43 H        7.0570     3.1300    -0.4210 H     1 <1>   0.0800 
 44 H        9.1090     2.1250    -1.3550 H     1 <1>   0.0800 
 45 H        9.7020     1.8220     0.2540 H     1 <1>   0.0800 
 46 H        9.7280     4.2600     0.7030 H     1 <1>   0.0800 
 47 H        9.1320     4.5630    -0.9070 H     1 <1>   0.0800 
 48 H       11.6880     6.0120    -0.5950 H     1 <1>   0.1500 
 49 H       11.6680     1.8550    -1.4540 H     1 <1>   0.1500 
 50 H       13.8940     2.9170    -2.0590 H     1 <1>   0.2700 
@<TRIPOS>BOND
  1   1   2  2   
  2   2   3  am  
  3   2   4  1   
  4   3   5  1   
  5   3   6  1   
  6   4   7  1   
  7   4   8  1   
  8   4  25  1   
  9   5   9  1   
 10   5  26  1   
 11   5  27  1   
 12   6  10  1   
 13   6  28  1   
 14   6  29  1   
 15   7  11  1   
 16   7  30  1   
 17   7  31  1   
 18   8  12  1   
 19   8  32  1   
 20   8  33  1   
 21   9  13  1   
 22   9  34  1   
 23   9  35  1   
 24  10  14  1   
 25  10  36  1   
 26  10  37  1   
 27  11  12  1   
 28  12  38  1   
 29  12  39  1   
 30  13  14  1   
 31  13  15  am  
 32  14  40  1   
 33  14  41  1   
 34  15  16  2   
 35  15  17  1   
 36  17  18  1   
 37  17  42  1   
 38  17  43  1   
 39  18  19  1   
 40  18  44  1   
 41  18  45  1   
 42  19  20  1   
 43  19  46  1   
 44  19  47  1   
 45  20  21  1   
 46  20  22  2   
 47  21  23  2   
 48  21  48  1   
 49  22  24  1   
 50  22  49  1   
 51  23  24  1   
 52  24  50  1   
@<TRIPOS>SUBSTRUCTURE
  1 ****  13 GROUP 4 **** **** 0

# MOE 2024.06 (io_trps.svl 2023.06)
