@<TRIPOS>MOLECULE
NONAME
42 43 1 0 0 
SMALL
USER_CHARGES


@<TRIPOS>ATOM
  1 O        0.3180     0.4490    -0.7670 O.3   1 <1>  -0.6800 
  2 C        0.2690     1.7010    -0.1820 C.3   1 <1>   0.2000 
  3 C       -1.1660     2.2530    -0.2580 C.3   1 <1>  -0.0800 
  4 C        1.2620     2.5980    -0.9450 C.3   1 <1>   0.3430 
  5 C       -1.1710     3.7350     0.1810 C.3   1 <1>  -0.1600 
  6 C       -2.1440     1.4070     0.5770 C.3   1 <1>   0.1200 
  7 N        1.1850     4.0330    -0.5120 N.4   1 <1>  -0.9590 
  8 C       -0.1960     4.5850    -0.6340 C.3   1 <1>   0.3430 
  9 O       -3.4070     1.9610     0.4780 O.3   1 <1>  -0.6800 
 10 C        2.1750     4.8670    -1.2450 C.3   1 <1>   0.4860 
 11 C        2.3300     6.1800    -0.5030 C.ar  1 <1>  -0.1440 
 12 C        3.1600     6.2990     0.6110 C.ar  1 <1>  -0.1440 
 13 C        1.6220     7.2860    -0.9550 C.ar  1 <1>  -0.1500 
 14 C        3.2490     7.5230     1.2580 C.ar  1 <1>  -0.1500 
 15 C        4.0080     5.1490     1.1520 C.3   1 <1>  -0.0170 
 16 C        1.7180     8.4990    -0.2990 C.ar  1 <1>  -0.1500 
 17 C        2.5310     8.6160     0.8110 C.ar  1 <1>  -0.1500 
 18 C        5.3440     5.0700     0.4100 C.3   1 <1>  -0.2400 
 19 H       -0.2390    -0.2000    -0.2910 H     1 <1>   0.4000 
 20 H        0.5870     1.5980     0.8410 H     1 <1>   0.0800 
 21 H       -1.4850     2.2070    -1.2870 H     1 <1>   0.0800 
 22 H        1.0320     2.5320    -1.9960 H     1 <1>   0.0800 
 23 H        2.2590     2.2200    -0.7890 H     1 <1>   0.0800 
 24 H       -0.9360     3.8190     1.2270 H     1 <1>   0.0800 
 25 H       -2.1570     4.1460     0.0440 H     1 <1>   0.0800 
 26 H       -1.8640     1.3960     1.6170 H     1 <1>   0.0800 
 27 H       -2.1980     0.3980     0.2050 H     1 <1>   0.0800 
 28 H        1.4450     4.1090     0.4790 H     1 <1>   0.4500 
 29 H       -0.2220     5.6000    -0.2700 H     1 <1>   0.0800 
 30 H       -0.5010     4.5860    -1.6680 H     1 <1>   0.0800 
 31 H       -4.0720     1.4210     0.9530 H     1 <1>   0.4000 
 32 H        3.1290     4.3680    -1.2810 H     1 <1>   0.0800 
 33 H        1.8440     5.0450    -2.2550 H     1 <1>   0.0800 
 34 H        0.9900     7.2240    -1.8240 H     1 <1>   0.1500 
 35 H        3.8860     7.6390     2.1180 H     1 <1>   0.1500 
 36 H        4.2040     5.3090     2.2000 H     1 <1>   0.0800 
 37 H        3.4930     4.2100     1.0740 H     1 <1>   0.0800 
 38 H        1.1670     9.3540    -0.6520 H     1 <1>   0.1500 
 39 H        2.6110     9.5600     1.3240 H     1 <1>   0.1500 
 40 H        5.8850     5.9940     0.5290 H     1 <1>   0.0800 
 41 H        5.1960     4.8980    -0.6400 H     1 <1>   0.0800 
 42 H        5.9450     4.2730     0.8110 H     1 <1>   0.0800 
@<TRIPOS>BOND
  1   1   2  1   
  2   1  19  1   
  3   2   3  1   
  4   2   4  1   
  5   2  20  1   
  6   3   5  1   
  7   3   6  1   
  8   3  21  1   
  9   4   7  1   
 10   4  22  1   
 11   4  23  1   
 12   5   8  1   
 13   5  24  1   
 14   5  25  1   
 15   6   9  1   
 16   6  26  1   
 17   6  27  1   
 18   7   8  1   
 19   7  10  1   
 20   7  28  1   
 21   8  29  1   
 22   8  30  1   
 23   9  31  1   
 24  10  11  1   
 25  10  32  1   
 26  10  33  1   
 27  11  12  ar  
 28  11  13  ar  
 29  12  14  ar  
 30  12  15  1   
 31  13  16  ar  
 32  13  34  1   
 33  14  17  ar  
 34  14  35  1   
 35  15  18  1   
 36  15  36  1   
 37  15  37  1   
 38  16  17  ar  
 39  16  38  1   
 40  17  39  1   
 41  18  40  1   
 42  18  41  1   
 43  18  42  1   
@<TRIPOS>SUBSTRUCTURE
  1 ****   7 GROUP 4 **** **** 0

# MOE 2024.06 (io_trps.svl 2023.06)
