@<TRIPOS>MOLECULE
Untitled Document
65 68 1 0 0 
SMALL
USER_CHARGES


@<TRIPOS>ATOM
  1 F        3.7090    -0.0630    -3.9720 F     1 <1>  -0.1900 
  2 C        3.9570     0.9100    -3.1360 C.ar  1 <1>   0.1900 
  3 C        4.6080     0.6200    -1.9540 C.ar  1 <1>  -0.1500 
  4 C        3.5580     2.1900    -3.4720 C.ar  1 <1>  -0.1500 
  5 C        4.8810     1.6500    -1.0640 C.ar  1 <1>   0.1000 
  6 C        3.8210     3.2160    -2.5790 C.ar  1 <1>  -0.1500 
  7 N        5.5400     1.3790     0.1270 N.pl3 1 <1>  -0.8690 
  8 C        4.4730     2.9430    -1.3870 C.ar  1 <1>  -0.1500 
  9 C        6.7910     2.0930     0.4390 C.3   1 <1>   0.2890 
 10 C        7.9740     1.2820    -0.0850 C.3   1 <1>  -0.1600 
 11 C        6.8820     2.2820     1.9500 C.3   1 <1>  -0.1600 
 12 C        9.2980     1.9430     0.3070 C.3   1 <1>   0.1400 
 13 C        8.2110     2.9340     2.3340 C.3   1 <1>   0.1400 
 14 N        9.3440     2.1350     1.7850 N.am  1 <1>  -0.6600 
 15 C       10.3740     1.7200     2.6000 C.2   1 <1>   0.5690 
 16 O       10.3770     1.9610     3.7850 O.2   1 <1>  -0.5700 
 17 C       11.5610     0.9290     2.0600 C.3   1 <1>   0.0440 
 18 C       12.4600     1.7270     1.1180 C.ar  1 <1>  -0.1430 
 19 C       12.8100     3.0340     1.4180 C.ar  1 <1>  -0.1500 
 20 C       12.9410     1.1510    -0.0480 C.ar  1 <1>  -0.1500 
 21 C       13.6240     3.7550     0.5630 C.ar  1 <1>  -0.1500 
 22 C       13.7570     1.8720    -0.9030 C.ar  1 <1>  -0.1500 
 23 C       14.1070     3.1790    -0.6020 C.ar  1 <1>  -0.1430 
 24 C       15.0170     3.9730    -1.5290 C.3   1 <1>   0.2530 
 25 N       16.2400     4.4120    -0.8220 N.3   1 <1>  -0.8100 
 26 C       17.0760     5.2820    -1.6710 C.3   1 <1>   0.1100 
 27 C       17.0090     3.2770    -0.2680 C.3   1 <1>   0.1100 
 28 C       18.3130     5.8010    -0.8970 C.3   1 <1>   0.4230 
 29 C       18.2360     3.7730     0.5200 C.3   1 <1>   0.3430 
 30 N       19.0950     4.6790    -0.3130 N.4   1 <1>  -0.9060 
 31 C       19.2480     6.5960    -1.8000 C.3   1 <1>  -0.2400 
 32 H        4.8980    -0.3880    -1.7330 H     1 <1>   0.1500 
 33 H        3.0540     2.3730    -4.4030 H     1 <1>   0.1500 
 34 H        3.5150     4.2220    -2.8100 H     1 <1>   0.1500 
 35 H        5.6220     0.3830     0.3500 H     1 <1>   0.4000 
 36 H        4.6610     3.7370    -0.6890 H     1 <1>   0.1500 
 37 H        6.7880     3.0600    -0.0360 H     1 <1>   0.0800 
 38 H        7.9500     0.2870     0.3200 H     1 <1>   0.0800 
 39 H        7.9170     1.2190    -1.1570 H     1 <1>   0.0800 
 40 H        6.0720     2.9050     2.2820 H     1 <1>   0.0800 
 41 H        6.8060     1.3320     2.4480 H     1 <1>   0.0800 
 42 H        9.3860     2.9040    -0.1720 H     1 <1>   0.0800 
 43 H       10.1100     1.3300    -0.0370 H     1 <1>   0.0800 
 44 H        8.2750     3.0040     3.4070 H     1 <1>   0.0800 
 45 H        8.2620     3.9320     1.9350 H     1 <1>   0.0800 
 46 H       12.1550     0.5990     2.8930 H     1 <1>   0.0800 
 47 H       11.1860     0.0500     1.5720 H     1 <1>   0.0800 
 48 H       12.4510     3.4990     2.3210 H     1 <1>   0.1500 
 49 H       12.6860     0.1360    -0.2970 H     1 <1>   0.1500 
 50 H       13.8880     4.7690     0.8090 H     1 <1>   0.1500 
 51 H       14.1170     1.4050    -1.8020 H     1 <1>   0.1500 
 52 H       14.4760     4.8370    -1.8780 H     1 <1>   0.0800 
 53 H       15.2820     3.3770    -2.3860 H     1 <1>   0.0800 
 54 H       17.3910     4.7460    -2.5500 H     1 <1>   0.0800 
 55 H       16.4920     6.1290    -1.9910 H     1 <1>   0.0800 
 56 H       16.3880     2.7110     0.4080 H     1 <1>   0.0800 
 57 H       17.3180     2.6160    -1.0590 H     1 <1>   0.0800 
 58 H       17.9610     6.4420    -0.1040 H     1 <1>   0.0800 
 59 H       18.8090     2.9260     0.8590 H     1 <1>   0.0800 
 60 H       17.8830     4.3050     1.3890 H     1 <1>   0.0800 
 61 H       19.5050     4.1400    -1.0810 H     1 <1>   0.4500 
 62 H       19.8620     5.0570     0.2520 H     1 <1>   0.4500 
 63 H       19.6120     5.9940    -2.6140 H     1 <1>   0.0800 
 64 H       20.0790     6.9850    -1.2390 H     1 <1>   0.0800 
 65 H       18.7170     7.4340    -2.2180 H     1 <1>   0.0800 
@<TRIPOS>BOND
  1   1   2  1   
  2   2   3  ar  
  3   2   4  ar  
  4   3   5  ar  
  5   3  32  1   
  6   4   6  ar  
  7   4  33  1   
  8   5   7  1   
  9   5   8  ar  
 10   6   8  ar  
 11   6  34  1   
 12   7   9  1   
 13   7  35  1   
 14   8  36  1   
 15   9  10  1   
 16   9  11  1   
 17   9  37  1   
 18  10  12  1   
 19  10  38  1   
 20  10  39  1   
 21  11  13  1   
 22  11  40  1   
 23  11  41  1   
 24  12  14  1   
 25  12  42  1   
 26  12  43  1   
 27  13  14  1   
 28  13  44  1   
 29  13  45  1   
 30  14  15  am  
 31  15  16  2   
 32  15  17  1   
 33  17  18  1   
 34  17  46  1   
 35  17  47  1   
 36  18  19  ar  
 37  18  20  ar  
 38  19  21  ar  
 39  19  48  1   
 40  20  22  ar  
 41  20  49  1   
 42  21  23  ar  
 43  21  50  1   
 44  22  23  ar  
 45  22  51  1   
 46  23  24  1   
 47  24  25  1   
 48  24  52  1   
 49  24  53  1   
 50  25  26  1   
 51  25  27  1   
 52  26  28  1   
 53  26  54  1   
 54  26  55  1   
 55  27  29  1   
 56  27  56  1   
 57  27  57  1   
 58  28  30  1   
 59  28  31  1   
 60  28  58  1   
 61  29  30  1   
 62  29  59  1   
 63  29  60  1   
 64  30  61  1   
 65  30  62  1   
 66  31  63  1   
 67  31  64  1   
 68  31  65  1   
@<TRIPOS>SUBSTRUCTURE
  1 ****  12 GROUP 4 **** **** 0

# MOE 2024.06 (io_trps.svl 2023.06)
