@<TRIPOS>MOLECULE
NONAME
52 54 1 0 0 
SMALL
USER_CHARGES


@<TRIPOS>ATOM
  1 CL      -0.0700    -0.8430    -2.8160 Cl    1 <1>  -0.1770 
  2 C       -0.4600    -2.3620    -2.0490 C.ar  1 <1>   0.1770 
  3 C       -1.1660    -3.3170    -2.7570 C.ar  1 <1>  -0.1500 
  4 C       -0.0550    -2.5860    -0.7460 C.ar  1 <1>  -0.1500 
  5 C       -1.4750    -4.5190    -2.1430 C.ar  1 <1>  -0.1500 
  6 C       -0.3660    -3.7890    -0.1330 C.ar  1 <1>  -0.1500 
  7 C       -1.0840    -4.7600    -0.8330 C.ar  1 <1>   0.0830 
  8 O       -1.4400    -5.9570    -0.3080 O.3   1 <1>  -0.3630 
  9 C       -1.1260    -6.3010     1.0350 C.3   1 <1>   0.1810 
 10 C       -1.7390    -7.6430     1.4350 C.2   1 <1>   0.5690 
 11 O       -0.9690    -8.4790     1.8510 O.2   1 <1>  -0.5700 
 12 N       -3.0970    -7.8880     1.3680 N.am  1 <1>  -0.6600 
 13 C       -4.0840    -6.8600     0.9160 C.3   1 <1>   0.2200 
 14 C       -3.6120    -9.2470     1.7260 C.3   1 <1>   0.0600 
 15 C       -5.3530    -6.7700     1.7650 C.3   1 <1>  -0.1600 
 16 C       -4.5900    -7.1190    -0.5000 C.3   1 <1>  -0.1600 
 17 C       -6.3670    -6.0730     0.8470 C.3   1 <1>  -0.0800 
 18 C       -5.8900    -6.3080    -0.5920 C.3   1 <1>  -0.0800 
 19 C       -7.8000    -6.6220     0.9080 C.3   1 <1>  -0.1600 
 20 C       -7.0530    -7.0070    -1.3100 C.3   1 <1>  -0.1600 
 21 C       -8.3110    -6.5960    -0.5370 C.3   1 <1>   0.4230 
 22 N       -8.7470    -5.2150    -0.9250 N.4   1 <1>  -0.9590 
 23 C       -9.8910    -4.7130    -0.0970 C.3   1 <1>   0.2630 
 24 C       -9.1310    -5.1140    -2.3710 C.3   1 <1>   0.2630 
 25 H       -1.4630    -3.1200    -3.7710 H     1 <1>   0.1500 
 26 H        0.4960    -1.8260    -0.2230 H     1 <1>   0.1500 
 27 H       -2.0180    -5.2780    -2.6770 H     1 <1>   0.1500 
 28 H       -0.0400    -3.9490     0.8770 H     1 <1>   0.1500 
 29 H       -0.0560    -6.3590     1.1200 H     1 <1>   0.0800 
 30 H       -1.5000    -5.5340     1.6860 H     1 <1>   0.0800 
 31 H       -3.6330    -5.8830     0.9300 H     1 <1>   0.0800 
 32 H       -4.4220    -9.5310     1.0800 H     1 <1>   0.0800 
 33 H       -3.9530    -9.2460     2.7460 H     1 <1>   0.0800 
 34 H       -2.8350    -9.9860     1.6280 H     1 <1>   0.0800 
 35 H       -5.7070    -7.7500     2.0250 H     1 <1>   0.0800 
 36 H       -5.1790    -6.2060     2.6640 H     1 <1>   0.0800 
 37 H       -3.8720    -6.7960    -1.2330 H     1 <1>   0.0800 
 38 H       -4.7820    -8.1670    -0.6350 H     1 <1>   0.0800 
 39 H       -6.3620    -5.0130     1.0460 H     1 <1>   0.0800 
 40 H       -5.6840    -5.3550    -1.0520 H     1 <1>   0.0800 
 41 H       -8.4110    -6.0950     1.6160 H     1 <1>   0.0800 
 42 H       -7.7770    -7.6530     1.2160 H     1 <1>   0.0800 
 43 H       -6.9490    -8.0730    -1.2040 H     1 <1>   0.0800 
 44 H       -7.0740    -6.7930    -2.3610 H     1 <1>   0.0800 
 45 H       -9.1140    -7.3010    -0.6860 H     1 <1>   0.0800 
 46 H       -7.9330    -4.6050    -0.7620 H     1 <1>   0.4500 
 47 H      -10.7310    -5.3840    -0.1720 H     1 <1>   0.0800 
 48 H      -10.1980    -3.7380    -0.4390 H     1 <1>   0.0800 
 49 H       -9.6060    -4.6290     0.9380 H     1 <1>   0.0800 
 50 H       -9.9220    -5.8120    -2.5970 H     1 <1>   0.0800 
 51 H       -8.2890    -5.3280    -3.0070 H     1 <1>   0.0800 
 52 H       -9.4760    -4.1180    -2.5960 H     1 <1>   0.0800 
@<TRIPOS>BOND
  1   1   2  1   
  2   2   3  ar  
  3   2   4  ar  
  4   3   5  ar  
  5   3  25  1   
  6   4   6  ar  
  7   4  26  1   
  8   5   7  ar  
  9   5  27  1   
 10   6   7  ar  
 11   6  28  1   
 12   7   8  1   
 13   8   9  1   
 14   9  10  1   
 15   9  29  1   
 16   9  30  1   
 17  10  11  2   
 18  10  12  am  
 19  12  13  1   
 20  12  14  1   
 21  13  15  1   
 22  13  16  1   
 23  13  31  1   
 24  14  32  1   
 25  14  33  1   
 26  14  34  1   
 27  15  17  1   
 28  15  35  1   
 29  15  36  1   
 30  16  18  1   
 31  16  37  1   
 32  16  38  1   
 33  17  18  1   
 34  17  19  1   
 35  17  39  1   
 36  18  20  1   
 37  18  40  1   
 38  19  21  1   
 39  19  41  1   
 40  19  42  1   
 41  20  21  1   
 42  20  43  1   
 43  20  44  1   
 44  21  22  1   
 45  21  45  1   
 46  22  23  1   
 47  22  24  1   
 48  22  46  1   
 49  23  47  1   
 50  23  48  1   
 51  23  49  1   
 52  24  50  1   
 53  24  51  1   
 54  24  52  1   
@<TRIPOS>SUBSTRUCTURE
  1 ****  16 GROUP 4 **** **** 0

# MOE 2024.06 (io_trps.svl 2023.06)
