@<TRIPOS>MOLECULE
NONAME
39 42 1 0 0 
SMALL
USER_CHARGES


@<TRIPOS>ATOM
  1 CL       2.4620     0.3040    -2.8340 Cl    1 <1>  -0.1770 
  2 C        2.8190    -0.4890    -1.3160 C.ar  1 <1>   0.1770 
  3 C        2.9740     0.2510    -0.1390 C.ar  1 <1>  -0.1440 
  4 C        2.9250    -1.8720    -1.3390 C.ar  1 <1>  -0.1500 
  5 C        3.2150    -0.4300     1.0530 C.ar  1 <1>  -0.1500 
  6 C        2.8670     1.7750    -0.1200 C.3   1 <1>   0.2540 
  7 C        3.1830    -2.5070    -0.1430 C.ar  1 <1>   0.0830 
  8 C        3.3210    -1.8060     1.0190 C.ar  1 <1>   0.0830 
  9 N        4.1760     2.4530    -0.2170 N.3   1 <1>  -0.8100 
 10 O        3.3310    -3.8150     0.0890 O.3   1 <1>  -0.3630 
 11 O        3.5610    -2.6410     2.0350 O.3   1 <1>  -0.3630 
 12 C        5.0700     2.1710     0.9360 C.3   1 <1>   0.1100 
 13 C        4.8040     2.2750    -1.5440 C.3   1 <1>   0.1100 
 14 C        3.5840    -3.9570     1.4850 C.3   1 <1>   0.4000 
 15 C        6.3200     3.0830     1.0720 C.3   1 <1>   0.2200 
 16 C        5.9900     3.2200    -1.8280 C.3   1 <1>  -0.0190 
 17 N        6.1750     4.3770     0.3570 N.am  1 <1>  -0.7300 
 18 C        7.6100     2.3650     0.6200 C.3   1 <1>   0.1200 
 19 C        5.9710     4.4730    -0.9730 C.2   1 <1>   0.5690 
 20 C        7.3570     2.5210    -1.7380 C.3   1 <1>   0.1200 
 21 O        7.4720     1.7090    -0.6090 O.3   1 <1>  -0.5600 
 22 O        5.8050     5.5510    -1.4890 O.2   1 <1>  -0.5700 
 23 H        2.8100    -2.4290    -2.2500 H     1 <1>   0.1500 
 24 H        3.3220     0.0860     1.9890 H     1 <1>   0.1500 
 25 H        2.3900     2.0820     0.7940 H     1 <1>   0.0800 
 26 H        2.2350     2.1160    -0.9220 H     1 <1>   0.0800 
 27 H        4.4970     2.2900     1.8380 H     1 <1>   0.0800 
 28 H        5.3910     1.1440     0.8980 H     1 <1>   0.0800 
 29 H        5.1120     1.2510    -1.6680 H     1 <1>   0.0800 
 30 H        4.0570     2.4820    -2.2900 H     1 <1>   0.0800 
 31 H        2.8080    -4.5510     1.9350 H     1 <1>   0.0800 
 32 H        4.5560    -4.3930     1.6330 H     1 <1>   0.0800 
 33 H        6.4480     3.3070     2.1160 H     1 <1>   0.0800 
 34 H        5.8950     3.5460    -2.8470 H     1 <1>   0.0800 
 35 H        5.9990     5.2180     0.9060 H     1 <1>   0.3700 
 36 H        7.8550     1.6060     1.3410 H     1 <1>   0.0800 
 37 H        8.4340     3.0530     0.5630 H     1 <1>   0.0800 
 38 H        8.1610     3.2380    -1.7410 H     1 <1>   0.0800 
 39 H        7.4780     1.8760    -2.5910 H     1 <1>   0.0800 
@<TRIPOS>BOND
  1   1   2  1   
  2   2   3  ar  
  3   2   4  ar  
  4   3   5  ar  
  5   3   6  1   
  6   4   7  ar  
  7   4  23  1   
  8   5   8  ar  
  9   5  24  1   
 10   6   9  1   
 11   6  25  1   
 12   6  26  1   
 13   7   8  ar  
 14   7  10  1   
 15   8  11  1   
 16   9  12  1   
 17   9  13  1   
 18  10  14  1   
 19  11  14  1   
 20  12  15  1   
 21  12  27  1   
 22  12  28  1   
 23  13  16  1   
 24  13  29  1   
 25  13  30  1   
 26  14  31  1   
 27  14  32  1   
 28  15  17  1   
 29  15  18  1   
 30  15  33  1   
 31  16  19  1   
 32  16  20  1   
 33  16  34  1   
 34  17  19  am  
 35  17  35  1   
 36  18  21  1   
 37  18  36  1   
 38  18  37  1   
 39  19  22  2   
 40  20  21  1   
 41  20  38  1   
 42  20  39  1   
@<TRIPOS>SUBSTRUCTURE
  1 ****   9 GROUP 4 **** **** 0

# MOE 2024.06 (io_trps.svl 2023.06)
