@<TRIPOS>MOLECULE
NONAME
47 49 1 0 0 
SMALL
USER_CHARGES


@<TRIPOS>ATOM
  1 O       -0.5390     0.2450     0.3240 O.2   1 <1>  -0.5700 
  2 C       -1.4600     0.9010    -0.1230 C.2   1 <1>   0.5440 
  3 N       -2.5700     0.2460    -0.6130 N.am  1 <1>  -0.6600 
  4 C       -1.3700     2.3500    -0.1080 C.ar  1 <1>   0.0860 
  5 C       -3.9340     0.8560    -0.6770 C.3   1 <1>   0.1400 
  6 C       -2.5890    -1.2360    -0.8260 C.3   1 <1>   0.1400 
  7 C       -1.6760     3.1180    -1.2300 C.ar  1 <1>  -0.1500 
  8 C       -0.9630     3.0300     1.0390 C.ar  1 <1>  -0.1500 
  9 C       -4.9290     0.0680     0.1950 C.3   1 <1>   0.2950 
 10 C       -3.6660    -1.9100     0.0520 C.3   1 <1>   0.2000 
 11 C       -1.6000     4.4990    -1.2010 C.ar  1 <1>  -0.1500 
 12 C       -0.8870     4.4100     1.0710 C.ar  1 <1>  -0.1500 
 13 O       -4.9040    -1.2860    -0.1470 O.3   1 <1>  -0.5600 
 14 C       -6.3630     0.5680     0.0020 C.3   1 <1>  -0.1950 
 15 C       -3.8650    -3.3960    -0.2700 C.3   1 <1>  -0.1600 
 16 C       -1.2080     5.1700    -0.0480 C.ar  1 <1>   0.0730 
 17 C       -6.8880     1.7340     0.7830 C.3   1 <1>  -0.2000 
 18 C       -7.4070     0.3490     1.0510 C.3   1 <1>  -0.2000 
 19 C       -2.6260    -4.2510     0.0420 C.3   1 <1>  -0.1600 
 20 C       -1.1360     6.6020    -0.0150 C.1   1 <1>   0.4840 
 21 C       -2.9080    -5.7380    -0.2050 C.3   1 <1>  -0.1600 
 22 N       -1.0860     7.7410     0.0100 N.1   1 <1>  -0.5570 
 23 C       -1.6750    -6.5910     0.1030 C.3   1 <1>  -0.2400 
 24 H       -3.9150     1.8750    -0.3350 H     1 <1>   0.0800 
 25 H       -4.2760     0.8510    -1.6960 H     1 <1>   0.0800 
 26 H       -2.7990    -1.4390    -1.8610 H     1 <1>   0.0800 
 27 H       -1.6270    -1.6600    -0.6010 H     1 <1>   0.0800 
 28 H       -1.9730     2.6180    -2.1370 H     1 <1>   0.1500 
 29 H       -0.7030     2.4560     1.9130 H     1 <1>   0.1500 
 30 H       -4.6530     0.1570     1.2320 H     1 <1>   0.0800 
 31 H       -3.4010    -1.8050     1.0900 H     1 <1>   0.0800 
 32 H       -1.8460     5.0640    -2.0860 H     1 <1>   0.1500 
 33 H       -0.5710     4.9030     1.9750 H     1 <1>   0.1500 
 34 H       -6.6820     0.4830    -1.0230 H     1 <1>   0.1000 
 35 H       -4.6910    -3.7570     0.3180 H     1 <1>   0.0800 
 36 H       -4.1230    -3.5010    -1.3100 H     1 <1>   0.0800 
 37 H       -6.2730     2.1970     1.5350 H     1 <1>   0.1000 
 38 H       -7.5380     2.4380     0.2920 H     1 <1>   0.1000 
 39 H       -8.4030     0.0910     0.7320 H     1 <1>   0.1000 
 40 H       -7.1250    -0.1530     1.9610 H     1 <1>   0.1000 
 41 H       -1.8010    -3.9450    -0.5770 H     1 <1>   0.0800 
 42 H       -2.3430    -4.1090     1.0720 H     1 <1>   0.0800 
 43 H       -3.7250    -6.0600     0.4180 H     1 <1>   0.0800 
 44 H       -3.1940    -5.8860    -1.2330 H     1 <1>   0.0800 
 45 H       -1.3840    -6.4750     1.1320 H     1 <1>   0.0800 
 46 H       -0.8500    -6.3020    -0.5260 H     1 <1>   0.0800 
 47 H       -1.8920    -7.6300    -0.0750 H     1 <1>   0.0800 
@<TRIPOS>BOND
  1   1   2  2   
  2   2   3  am  
  3   2   4  1   
  4   3   5  1   
  5   3   6  1   
  6   4   7  ar  
  7   4   8  ar  
  8   5   9  1   
  9   5  24  1   
 10   5  25  1   
 11   6  10  1   
 12   6  26  1   
 13   6  27  1   
 14   7  11  ar  
 15   7  28  1   
 16   8  12  ar  
 17   8  29  1   
 18   9  13  1   
 19   9  14  1   
 20   9  30  1   
 21  10  13  1   
 22  10  15  1   
 23  10  31  1   
 24  11  16  ar  
 25  11  32  1   
 26  12  16  ar  
 27  12  33  1   
 28  14  17  1   
 29  14  18  1   
 30  14  34  1   
 31  15  19  1   
 32  15  35  1   
 33  15  36  1   
 34  16  20  1   
 35  17  18  1   
 36  17  37  1   
 37  17  38  1   
 38  18  39  1   
 39  18  40  1   
 40  19  21  1   
 41  19  41  1   
 42  19  42  1   
 43  20  22  3   
 44  21  23  1   
 45  21  43  1   
 46  21  44  1   
 47  23  45  1   
 48  23  46  1   
 49  23  47  1   
@<TRIPOS>SUBSTRUCTURE
  1 ****   3 GROUP 4 **** **** 0

# MOE 2024.06 (io_trps.svl 2023.06)
