@<TRIPOS>MOLECULE
NONAME
53 56 1 0 0 
SMALL
USER_CHARGES


@<TRIPOS>ATOM
  1 O       -1.8870     0.6330    -2.7960 O.2   1 <1>  -0.5700 
  2 C       -2.1530     1.0470    -1.6980 C.2   1 <1>   0.4950 
  3 C       -1.6880     2.2220    -1.0340 C.2   1 <1>  -0.1240 
  4 C       -3.0390     0.3240    -0.7080 C.3   1 <1>  -0.0190 
  5 C       -2.3570     2.4360     0.1050 C.2   1 <1>  -0.2880 
  6 C       -0.5620     3.0680    -1.5990 C.3   1 <1>  -0.1020 
  7 C       -3.4820     1.4300     0.3080 C.3   1 <1>   0.0580 
  8 C       -4.0360    -0.6980    -1.2680 C.3   1 <1>  -0.0220 
  9 C       -4.9390     2.0660     0.3290 C.3   1 <1>   0.2800 
 10 C       -4.8810    -1.2070    -0.1020 C.2   1 <1>  -0.2760 
 11 O       -5.1040     2.4880     1.6480 O.3   1 <1>  -0.6800 
 12 C       -6.0440     1.0100     0.0160 C.3   1 <1>   0.1530 
 13 C       -5.2860     3.3190    -0.5700 C.3   1 <1>  -0.0800 
 14 C       -5.7660    -0.4060     0.4990 C.2   1 <1>  -0.2880 
 15 C       -4.6190    -2.6380     0.3430 C.3   1 <1>   0.2580 
 16 C       -7.4640     1.4600     0.3910 C.3   1 <1>  -0.1950 
 17 C       -6.7050     3.8720    -0.2270 C.3   1 <1>   0.2950 
 18 C       -4.3100     4.5240    -0.5240 C.3   1 <1>  -0.2400 
 19 O       -3.3270    -2.7140     0.8220 O.3   1 <1>  -0.6800 
 20 C       -7.8510     2.8820     0.1100 C.3   1 <1>   0.0530 
 21 C       -8.4780     1.7700    -0.6790 C.3   1 <1>  -0.1900 
 22 O       -7.1590     4.6850    -1.2560 O.3   1 <1>  -0.6800 
 23 O       -8.7460     3.4860     0.9690 O.3   1 <1>  -0.5480 
 24 C       -8.2160     1.7360    -2.1950 C.3   1 <1>  -0.1450 
 25 C       -9.8990     1.2550    -0.3910 C.3   1 <1>  -0.1450 
 26 H       -2.3380    -0.2770    -0.1560 H     1 <1>   0.0800 
 27 H       -2.2230     3.2130     0.8390 H     1 <1>   0.1500 
 28 H       -0.8360     3.4360    -2.5720 H     1 <1>   0.0800 
 29 H        0.3300     2.4740    -1.6950 H     1 <1>   0.0800 
 30 H       -0.3580     3.9040    -0.9550 H     1 <1>   0.0800 
 31 H       -3.3370     0.9780     1.2760 H     1 <1>   0.0800 
 32 H       -3.4990    -1.5060    -1.7350 H     1 <1>   0.0800 
 33 H       -4.6370    -0.2550    -2.0410 H     1 <1>   0.0800 
 34 H       -5.2070     1.7100     2.2290 H     1 <1>   0.4000 
 35 H       -6.0510     0.9340    -1.0490 H     1 <1>   0.0800 
 36 H       -5.3060     2.9860    -1.5910 H     1 <1>   0.0800 
 37 H       -6.3500    -0.7030     1.3550 H     1 <1>   0.1500 
 38 H       -4.7280    -3.3300    -0.4740 H     1 <1>   0.0800 
 39 H       -5.2830    -2.9240     1.1410 H     1 <1>   0.0800 
 40 H       -7.7580     1.1240     1.3690 H     1 <1>   0.1000 
 41 H       -6.5840     4.5010     0.6390 H     1 <1>   0.0800 
 42 H       -4.0350     4.7510     0.4910 H     1 <1>   0.0800 
 43 H       -4.7620     5.4040    -0.9460 H     1 <1>   0.0800 
 44 H       -3.4330     4.3380    -1.1110 H     1 <1>   0.0800 
 45 H       -2.7050    -2.4510     0.1210 H     1 <1>   0.4000 
 46 H       -8.0660     4.9620    -1.0200 H     1 <1>   0.4000 
 47 H       -9.5220     2.9050     1.0600 H     1 <1>   0.4000 
 48 H       -8.2360     0.7220    -2.5530 H     1 <1>   0.0800 
 49 H       -7.2720     2.1710    -2.4580 H     1 <1>   0.0800 
 50 H       -8.9770     2.2950    -2.7090 H     1 <1>   0.0800 
 51 H      -10.0220     0.2720    -0.8090 H     1 <1>   0.0800 
 52 H      -10.6280     1.9090    -0.8360 H     1 <1>   0.0800 
 53 H      -10.0940     1.1860     0.6640 H     1 <1>   0.0800 
@<TRIPOS>BOND
  1   1   2  2   
  2   2   3  1   
  3   2   4  1   
  4   3   5  2   
  5   3   6  1   
  6   4   7  1   
  7   4   8  1   
  8   4  26  1   
  9   5   7  1   
 10   5  27  1   
 11   6  28  1   
 12   6  29  1   
 13   6  30  1   
 14   7   9  1   
 15   7  31  1   
 16   8  10  1   
 17   8  32  1   
 18   8  33  1   
 19   9  11  1   
 20   9  12  1   
 21   9  13  1   
 22  10  14  2   
 23  10  15  1   
 24  11  34  1   
 25  12  14  1   
 26  12  16  1   
 27  12  35  1   
 28  13  17  1   
 29  13  18  1   
 30  13  36  1   
 31  14  37  1   
 32  15  19  1   
 33  15  38  1   
 34  15  39  1   
 35  16  20  1   
 36  16  21  1   
 37  16  40  1   
 38  17  20  1   
 39  17  22  1   
 40  17  41  1   
 41  18  42  1   
 42  18  43  1   
 43  18  44  1   
 44  19  45  1   
 45  20  21  1   
 46  20  23  1   
 47  21  24  1   
 48  21  25  1   
 49  22  46  1   
 50  23  47  1   
 51  24  48  1   
 52  24  49  1   
 53  24  50  1   
 54  25  51  1   
 55  25  52  1   
 56  25  53  1   
@<TRIPOS>SUBSTRUCTURE
  1 ****   9 GROUP 4 **** **** 0

# MOE 2024.06 (io_trps.svl 2023.06)
