@<TRIPOS>MOLECULE
NONAME
58 60 1 0 0 
SMALL
USER_CHARGES


@<TRIPOS>ATOM
  1 O       -0.6090     1.6360    -1.8400 O.3   1 <1>  -0.6800 
  2 C       -0.2410     2.7300    -1.0680 C.3   1 <1>   0.2000 
  3 C       -1.3850     3.1240    -0.0920 C.3   1 <1>   0.0000 
  4 C        1.0840     2.4060    -0.3560 C.3   1 <1>   0.2090 
  5 C       -0.8550     4.2860     0.7910 C.3   1 <1>  -0.1600 
  6 C       -1.7580     1.8950     0.7880 C.3   1 <1>   0.1200 
  7 C       -2.6630     3.5740    -0.8610 C.3   1 <1>  -0.1600 
  8 N        1.4950     3.5450     0.5320 N.pl3 1 <1>  -0.8380 
  9 C        0.4490     3.9440     1.5220 C.3   1 <1>   0.2090 
 10 O       -2.7530     2.2040     1.7080 O.3   1 <1>  -0.6800 
 11 C       -2.4860     4.6700    -1.9300 C.3   1 <1>  -0.1600 
 12 C        2.6380     4.2590     0.3540 C.ar  1 <1>   0.4100 
 13 C       -3.8340     5.0310    -2.5600 C.3   1 <1>  -0.2400 
 14 N        2.6080     5.5490     0.6250 N.ar  1 <1>  -0.6200 
 15 C        3.8150     3.6400    -0.1090 C.ar  1 <1>  -0.1500 
 16 C        3.7030     6.2700     0.4280 C.ar  1 <1>   0.7710 
 17 C        4.9260     4.3880    -0.3070 C.ar  1 <1>   0.2180 
 18 N        4.8350     5.7100    -0.0340 N.ar  1 <1>  -0.1790 
 19 N        3.6870     7.6060     0.6890 N.pl3 1 <1>  -0.8380 
 20 C        6.2460     3.8260    -0.8060 C.3   1 <1>  -0.0970 
 21 C        4.8470     8.5510     0.6570 C.3   1 <1>   0.2090 
 22 C        2.4130     8.3280     1.0200 C.3   1 <1>   0.2090 
 23 C        4.6220     9.5820    -0.4540 C.3   1 <1>  -0.1600 
 24 C        2.1320     9.3690    -0.0680 C.3   1 <1>  -0.1600 
 25 C        3.3050    10.3440    -0.2470 C.3   1 <1>  -0.1600 
 26 H       -1.4370     1.8360    -2.3210 H     1 <1>   0.4000 
 27 H       -0.0410     3.5420    -1.7440 H     1 <1>   0.0800 
 28 H        1.8270     2.2290    -1.1120 H     1 <1>   0.0800 
 29 H        0.9810     1.5140     0.2350 H     1 <1>   0.0800 
 30 H       -1.5970     4.5770     1.5110 H     1 <1>   0.0800 
 31 H       -0.6540     5.1500     0.1840 H     1 <1>   0.0800 
 32 H       -0.9140     1.5200     1.3370 H     1 <1>   0.0800 
 33 H       -2.1340     1.0940     0.1740 H     1 <1>   0.0800 
 34 H       -3.1030     2.7130    -1.3350 H     1 <1>   0.0800 
 35 H       -3.3870     3.9240    -0.1450 H     1 <1>   0.0800 
 36 H        0.2930     3.1370     2.2160 H     1 <1>   0.0800 
 37 H        0.7710     4.7960     2.0960 H     1 <1>   0.0800 
 38 H       -2.4660     2.9200     2.3040 H     1 <1>   0.4000 
 39 H       -2.0660     5.5590    -1.4940 H     1 <1>   0.0800 
 40 H       -1.8290     4.3360    -2.7130 H     1 <1>   0.0800 
 41 H       -4.5130     5.4010    -1.8120 H     1 <1>   0.0800 
 42 H       -4.2750     4.1700    -3.0320 H     1 <1>   0.0800 
 43 H       -3.6990     5.7960    -3.3050 H     1 <1>   0.0800 
 44 H        3.8100     2.5810    -0.2830 H     1 <1>   0.1500 
 45 H        5.6060     6.3470    -0.1770 H     1 <1>   0.4570 
 46 H        6.1620     2.7670    -0.9790 H     1 <1>   0.0800 
 47 H        7.0220     3.9860    -0.0790 H     1 <1>   0.0800 
 48 H        6.5280     4.2950    -1.7330 H     1 <1>   0.0800 
 49 H        4.9110     9.0600     1.6060 H     1 <1>   0.0800 
 50 H        5.7810     8.0450     0.5000 H     1 <1>   0.0800 
 51 H        1.5710     7.6610     1.0920 H     1 <1>   0.0800 
 52 H        2.5190     8.8180     1.9740 H     1 <1>   0.0800 
 53 H        5.4380    10.2830    -0.4630 H     1 <1>   0.0800 
 54 H        4.6050     9.0850    -1.4070 H     1 <1>   0.0800 
 55 H        1.9370     8.8580    -0.9950 H     1 <1>   0.0800 
 56 H        1.2440     9.9200     0.1900 H     1 <1>   0.0800 
 57 H        3.1180    10.9900    -1.0880 H     1 <1>   0.0800 
 58 H        3.3860    10.9640     0.6310 H     1 <1>   0.0800 
@<TRIPOS>BOND
  1   1   2  1   
  2   1  26  1   
  3   2   3  1   
  4   2   4  1   
  5   2  27  1   
  6   3   5  1   
  7   3   6  1   
  8   3   7  1   
  9   4   8  1   
 10   4  28  1   
 11   4  29  1   
 12   5   9  1   
 13   5  30  1   
 14   5  31  1   
 15   6  10  1   
 16   6  32  1   
 17   6  33  1   
 18   7  11  1   
 19   7  34  1   
 20   7  35  1   
 21   8   9  1   
 22   8  12  1   
 23   9  36  1   
 24   9  37  1   
 25  10  38  1   
 26  11  13  1   
 27  11  39  1   
 28  11  40  1   
 29  12  14  ar  
 30  12  15  ar  
 31  13  41  1   
 32  13  42  1   
 33  13  43  1   
 34  14  16  ar  
 35  15  17  ar  
 36  15  44  1   
 37  16  18  ar  
 38  16  19  1   
 39  17  18  ar  
 40  17  20  1   
 41  18  45  1   
 42  19  21  1   
 43  19  22  1   
 44  20  46  1   
 45  20  47  1   
 46  20  48  1   
 47  21  23  1   
 48  21  49  1   
 49  21  50  1   
 50  22  24  1   
 51  22  51  1   
 52  22  52  1   
 53  23  25  1   
 54  23  53  1   
 55  23  54  1   
 56  24  25  1   
 57  24  55  1   
 58  24  56  1   
 59  25  57  1   
 60  25  58  1   
@<TRIPOS>SUBSTRUCTURE
  1 ****  14 GROUP 4 **** **** 0

# MOE 2024.06 (io_trps.svl 2023.06)
