@<TRIPOS>MOLECULE
NONAME
47 49 1 0 0 
SMALL
USER_CHARGES


@<TRIPOS>ATOM
  1 F        4.2040     1.5180    -0.9120 F     1 <1>  -0.1900 
  2 C        3.4960     2.5340    -0.4910 C.ar  1 <1>   0.1900 
  3 C        4.0630     3.7850    -0.4860 C.ar  1 <1>  -0.1500 
  4 C        2.1870     2.2860    -0.0650 C.ar  1 <1>  -0.1500 
  5 C        3.2800     4.8430    -0.0310 C.ar  1 <1>   0.2270 
  6 C        1.4150     3.3360     0.3850 C.ar  1 <1>  -0.1500 
  7 N        3.5910     6.1650     0.0760 N.2   1 <1>  -0.5650 
  8 C        1.9820     4.6150     0.3950 C.ar  1 <1>  -0.1520 
  9 C        2.5240     6.7080     0.5480 C.2   1 <1>   0.0060 
 10 N        1.5090     5.8310     0.7660 N.pl3 1 <1>   0.0330 
 11 C        2.3970     8.1910     0.8290 C.3   1 <1>   0.0200 
 12 C        2.0970     8.9480    -0.4680 C.3   1 <1>  -0.0990 
 13 C        2.0340    10.4350    -0.2130 C.2   1 <1>   0.5690 
 14 O        1.0170    10.8830     0.2560 O.2   1 <1>  -0.5700 
 15 N        3.1390    11.1830    -0.5130 N.am  1 <1>  -0.4940 
 16 C        3.3410    12.5790    -0.3660 C.2   1 <1>  -0.0880 
 17 N        4.4820    13.2460    -0.6930 N.pl3 1 <1>   0.3140 
 18 C        2.4890    13.5160     0.1110 C.2   1 <1>  -0.1500 
 19 N        4.3770    14.5700    -0.4390 N.2   1 <1>  -0.7070 
 20 C        5.7200    12.6840    -1.2680 C.3   1 <1>   0.0960 
 21 C        3.1840    14.7170     0.0400 C.2   1 <1>   0.1080 
 22 C        6.5710    12.0030    -0.1860 C.3   1 <1>  -0.1600 
 23 C        2.6420    16.0610     0.4640 C.3   1 <1>  -0.0590 
 24 C        7.8450    11.3940    -0.7840 C.3   1 <1>  -0.1600 
 25 C        8.6900    10.7180     0.2990 C.3   1 <1>  -0.2400 
 26 H        5.0690     3.9620    -0.8150 H     1 <1>   0.1500 
 27 H        1.8070     1.2810    -0.0960 H     1 <1>   0.1500 
 28 H        0.4040     3.1820     0.7210 H     1 <1>   0.1500 
 29 H        0.5770     6.0370     1.1340 H     1 <1>   0.2700 
 30 H        3.3250     8.5420     1.2460 H     1 <1>   0.0800 
 31 H        1.6200     8.3710     1.5520 H     1 <1>   0.0800 
 32 H        1.1520     8.6250    -0.8640 H     1 <1>   0.0800 
 33 H        2.8550     8.7300    -1.1990 H     1 <1>   0.0800 
 34 H        3.9290    10.6530    -0.8790 H     1 <1>   0.3700 
 35 H        1.4860    13.3800     0.4710 H     1 <1>   0.1500 
 36 H        6.2740    13.4890    -1.7170 H     1 <1>   0.0800 
 37 H        5.4520    11.9850    -2.0380 H     1 <1>   0.0800 
 38 H        5.9980    11.2300     0.2950 H     1 <1>   0.0800 
 39 H        6.8400    12.7370     0.5550 H     1 <1>   0.0800 
 40 H        1.6370    15.9630     0.8290 H     1 <1>   0.0800 
 41 H        2.6510    16.7310    -0.3750 H     1 <1>   0.0800 
 42 H        3.2620    16.4680     1.2420 H     1 <1>   0.0800 
 43 H        8.4300    12.1670    -1.2540 H     1 <1>   0.0800 
 44 H        7.5870    10.6660    -1.5350 H     1 <1>   0.0800 
 45 H        8.9800    11.4320     1.0510 H     1 <1>   0.0800 
 46 H        9.5800    10.3000    -0.1360 H     1 <1>   0.0800 
 47 H        8.1360     9.9250     0.7710 H     1 <1>   0.0800 
@<TRIPOS>BOND
  1   1   2  1   
  2   2   3  ar  
  3   2   4  ar  
  4   3   5  ar  
  5   3  26  1   
  6   4   6  ar  
  7   4  27  1   
  8   5   7  1   
  9   5   8  ar  
 10   6   8  ar  
 11   6  28  1   
 12   7   9  2   
 13   8  10  1   
 14   9  10  1   
 15   9  11  1   
 16  10  29  1   
 17  11  12  1   
 18  11  30  1   
 19  11  31  1   
 20  12  13  1   
 21  12  32  1   
 22  12  33  1   
 23  13  14  2   
 24  13  15  am  
 25  15  16  1   
 26  15  34  1   
 27  16  17  1   
 28  16  18  2   
 29  17  19  1   
 30  17  20  1   
 31  18  21  1   
 32  18  35  1   
 33  19  21  2   
 34  20  22  1   
 35  20  36  1   
 36  20  37  1   
 37  21  23  1   
 38  22  24  1   
 39  22  38  1   
 40  22  39  1   
 41  23  40  1   
 42  23  41  1   
 43  23  42  1   
 44  24  25  1   
 45  24  43  1   
 46  24  44  1   
 47  25  45  1   
 48  25  46  1   
 49  25  47  1   
@<TRIPOS>SUBSTRUCTURE
  1 ****  12 GROUP 4 **** **** 0

# MOE 2024.06 (io_trps.svl 2023.06)
