@<TRIPOS>MOLECULE
NONAME
48 50 1 0 0 
SMALL
USER_CHARGES


@<TRIPOS>ATOM
  1 S       -0.3750    -0.1340     0.3400 S.3   1 <1>  -0.3320 
  2 C        0.2970     1.5320     0.2120 C.ar  1 <1>   0.1020 
  3 C       -1.4430    -0.3860    -1.1610 C.3   1 <1>   0.1310 
  4 C        0.9690     2.0230     1.3170 C.ar  1 <1>  -0.1500 
  5 C        0.1560     2.2990    -0.9340 C.ar  1 <1>  -0.1500 
  6 C       -2.2190    -1.6940    -1.0740 C.2   1 <1>   0.5690 
  7 C        1.4990     3.3010     1.2820 C.ar  1 <1>  -0.1500 
  8 C        0.6890     3.5780    -0.9620 C.ar  1 <1>  -0.1500 
  9 O       -2.0140    -2.5070    -1.9470 O.2   1 <1>  -0.5700 
 10 N       -3.1390    -1.9390    -0.0790 N.am  1 <1>  -0.6600 
 11 C        1.3580     4.0770     0.1440 C.ar  1 <1>  -0.1500 
 12 C       -3.7720    -3.2860     0.0180 C.3   1 <1>   0.1400 
 13 C       -3.5440    -0.9460     0.9600 C.3   1 <1>   0.1400 
 14 C       -5.0430    -3.3620    -0.8410 C.3   1 <1>   0.1400 
 15 C       -5.0620    -0.8900     1.1900 C.3   1 <1>  -0.1600 
 16 N       -6.1740    -2.5690    -0.2560 N.am  1 <1>  -0.6600 
 17 C       -5.9050    -1.1130    -0.0700 C.3   1 <1>   0.1400 
 18 C       -7.3870    -3.0960     0.1430 C.2   1 <1>   0.5690 
 19 O       -8.1280    -2.4490     0.8540 O.2   1 <1>  -0.5700 
 20 C       -7.8160    -4.5310    -0.2550 C.3   1 <1>   0.2610 
 21 O       -9.1770    -4.6210    -0.5930 O.3   1 <1>  -0.5600 
 22 C       -7.6070    -5.5470     0.8770 C.3   1 <1>  -0.1600 
 23 C       -9.9070    -5.0810     0.4920 C.3   1 <1>   0.1200 
 24 C       -8.9970    -6.1020     1.1520 C.3   1 <1>  -0.1600 
 25 H       -2.1150     0.4470    -1.2310 H     1 <1>   0.0800 
 26 H       -0.7870    -0.4030    -2.0110 H     1 <1>   0.0800 
 27 H        1.0730     1.4090     2.1940 H     1 <1>   0.1500 
 28 H       -0.3500     1.9260    -1.8020 H     1 <1>   0.1500 
 29 H        2.0220     3.6900     2.1390 H     1 <1>   0.1500 
 30 H        0.5870     4.1850    -1.8450 H     1 <1>   0.1500 
 31 H        1.7700     5.0710     0.1180 H     1 <1>   0.1500 
 32 H       -3.0740    -4.0260    -0.3340 H     1 <1>   0.0800 
 33 H       -4.0010    -3.5210     1.0420 H     1 <1>   0.0800 
 34 H       -3.0490    -1.1850     1.8870 H     1 <1>   0.0800 
 35 H       -3.2220     0.0360     0.6680 H     1 <1>   0.0800 
 36 H       -5.3080    -4.3980    -0.9210 H     1 <1>   0.0800 
 37 H       -4.8260    -3.0050    -1.8330 H     1 <1>   0.0800 
 38 H       -5.3500    -1.5980     1.9460 H     1 <1>   0.0800 
 39 H       -5.2920     0.0840     1.5830 H     1 <1>   0.0800 
 40 H       -5.4120    -0.7140    -0.9400 H     1 <1>   0.0800 
 41 H       -6.8410    -0.5890     0.0360 H     1 <1>   0.0800 
 42 H       -7.2870    -4.8360    -1.1360 H     1 <1>   0.0800 
 43 H       -6.9220    -6.3210     0.5830 H     1 <1>   0.0800 
 44 H       -7.2200    -5.0520     1.7510 H     1 <1>   0.0800 
 45 H      -10.0990    -4.2440     1.1440 H     1 <1>   0.0800 
 46 H      -10.8330    -5.5050     0.1450 H     1 <1>   0.0800 
 47 H       -9.2060    -6.2000     2.2030 H     1 <1>   0.0800 
 48 H       -9.1260    -7.0550     0.6700 H     1 <1>   0.0800 
@<TRIPOS>BOND
  1   1   2  1   
  2   1   3  1   
  3   2   4  ar  
  4   2   5  ar  
  5   3   6  1   
  6   3  25  1   
  7   3  26  1   
  8   4   7  ar  
  9   4  27  1   
 10   5   8  ar  
 11   5  28  1   
 12   6   9  2   
 13   6  10  am  
 14   7  11  ar  
 15   7  29  1   
 16   8  11  ar  
 17   8  30  1   
 18  10  12  1   
 19  10  13  1   
 20  11  31  1   
 21  12  14  1   
 22  12  32  1   
 23  12  33  1   
 24  13  15  1   
 25  13  34  1   
 26  13  35  1   
 27  14  16  1   
 28  14  36  1   
 29  14  37  1   
 30  15  17  1   
 31  15  38  1   
 32  15  39  1   
 33  16  17  1   
 34  16  18  am  
 35  17  40  1   
 36  17  41  1   
 37  18  19  2   
 38  18  20  1   
 39  20  21  1   
 40  20  22  1   
 41  20  42  1   
 42  21  23  1   
 43  22  24  1   
 44  22  43  1   
 45  22  44  1   
 46  23  24  1   
 47  23  45  1   
 48  23  46  1   
 49  24  47  1   
 50  24  48  1   
@<TRIPOS>SUBSTRUCTURE
  1 ****  10 GROUP 4 **** **** 0

# MOE 2024.06 (io_trps.svl 2023.06)
