@<TRIPOS>MOLECULE
NONAME
62 66 1 0 0 
SMALL
USER_CHARGES


@<TRIPOS>ATOM
  1 O       -1.1420    -1.0280     2.0390 O.2   1 <1>  -0.5700 
  2 C       -1.6760    -1.4120     1.0170 C.2   1 <1>   0.5440 
  3 N       -0.8870    -1.9280     0.0250 N.am  1 <1>  -0.7300 
  4 C       -3.1080    -1.3070     0.8510 C.ar  1 <1>   0.0860 
  5 C        0.5760    -2.1010     0.1070 C.3   1 <1>   0.1400 
  6 C       -3.8490    -0.4170     1.6260 C.ar  1 <1>   0.1600 
  7 C       -3.8250    -2.0690    -0.0690 C.ar  1 <1>  -0.1500 
  8 C        0.9570    -3.3820    -0.6260 C.3   1 <1>  -0.2400 
  9 N       -5.1530    -0.2170     1.5540 N.ar  1 <1>  -0.6200 
 10 C       -5.1830    -1.8750    -0.1550 C.ar  1 <1>  -0.1500 
 11 C       -5.8200    -0.9380     0.6580 C.ar  1 <1>   0.4100 
 12 N       -7.1830    -0.7320     0.5700 N.pl3 1 <1>  -0.8380 
 13 C       -7.9360    -0.8930    -0.7080 C.3   1 <1>   0.2090 
 14 C       -7.8540     0.3010     1.4040 C.3   1 <1>   0.2090 
 15 C       -9.1800    -0.0110    -0.5750 C.3   1 <1>   0.2800 
 16 C       -9.3000     0.3720     0.8950 C.3   1 <1>  -0.0800 
 17 O       -9.0440     1.2330    -1.1660 O.3   1 <1>  -0.5600 
 18 C      -10.5180    -0.4750    -1.1560 C.3   1 <1>  -0.1600 
 19 C      -10.0250     1.7340     0.7950 C.3   1 <1>  -0.0800 
 20 C      -10.2010     1.8420    -0.7300 C.3   1 <1>   0.2000 
 21 C      -11.2640     0.8610    -1.2400 C.3   1 <1>  -0.1600 
 22 C       -9.2660     2.9370     1.3790 C.3   1 <1>   0.1400 
 23 N      -10.0530     4.1650     1.1460 N.am  1 <1>  -0.7300 
 24 C      -11.0900     4.5840     1.9200 C.2   1 <1>   0.5690 
 25 O      -11.2990     4.1270     3.0170 O.2   1 <1>  -0.5700 
 26 C      -12.0540     5.6070     1.3570 C.3   1 <1>   0.1570 
 27 N      -12.4420     5.1970    -0.0080 N.pl3 1 <1>   0.0480 
 28 C      -13.1890     4.1270    -0.3800 C.2   1 <1>   0.0060 
 29 C      -11.9850     5.7140    -1.1640 C.2   1 <1>  -0.3020 
 30 N      -13.2260     3.9410    -1.6570 N.2   1 <1>  -0.5650 
 31 C      -13.9100     3.2220     0.6010 C.3   1 <1>  -0.0600 
 32 C      -12.4750     4.9400    -2.1550 C.2   1 <1>   0.0770 
 33 H       -1.2960    -2.1230    -0.8880 H     1 <1>   0.3700 
 34 H        1.0620    -1.2520    -0.3430 H     1 <1>   0.0800 
 35 H        0.8820    -2.1620     1.1390 H     1 <1>   0.0800 
 36 H       -3.3150     0.1690     2.3550 H     1 <1>   0.1500 
 37 H       -3.3350    -2.7980    -0.6880 H     1 <1>   0.1500 
 38 H        0.6830    -3.3190    -1.6640 H     1 <1>   0.0800 
 39 H        0.4710    -4.2270    -0.1720 H     1 <1>   0.0800 
 40 H        2.0200    -3.5280    -0.5630 H     1 <1>   0.0800 
 41 H       -5.7650    -2.4530    -0.8440 H     1 <1>   0.1500 
 42 H       -7.3460    -0.5870    -1.5540 H     1 <1>   0.0800 
 43 H       -8.2270    -1.9220    -0.8110 H     1 <1>   0.0800 
 44 H       -7.8140     0.0290     2.4450 H     1 <1>   0.0800 
 45 H       -7.3320     1.2280     1.2590 H     1 <1>   0.0800 
 46 H       -9.8900    -0.3530     1.4270 H     1 <1>   0.0800 
 47 H      -10.3730    -0.8970    -2.1350 H     1 <1>   0.0800 
 48 H      -11.0090    -1.1890    -0.5200 H     1 <1>   0.0800 
 49 H      -10.9830     1.6720     1.2790 H     1 <1>   0.0800 
 50 H      -10.2980     2.8380    -1.1280 H     1 <1>   0.0800 
 51 H      -12.1540     0.8860    -0.6370 H     1 <1>   0.0800 
 52 H      -11.5220     1.1000    -2.2570 H     1 <1>   0.0800 
 53 H       -8.3070     3.0490     0.9020 H     1 <1>   0.0800 
 54 H       -9.1150     2.8000     2.4370 H     1 <1>   0.0800 
 55 H       -9.9800     4.5290     0.1910 H     1 <1>   0.3700 
 56 H      -11.5830     6.5710     1.3250 H     1 <1>   0.0800 
 57 H      -12.9310     5.6610     1.9750 H     1 <1>   0.0800 
 58 H      -11.3530     6.5810    -1.2250 H     1 <1>   0.1500 
 59 H      -14.4500     2.4620     0.0630 H     1 <1>   0.0800 
 60 H      -14.6110     3.7910     1.1820 H     1 <1>   0.0800 
 61 H      -13.2090     2.7430     1.2590 H     1 <1>   0.0800 
 62 H      -12.3250     5.0480    -3.2170 H     1 <1>   0.1500 
@<TRIPOS>BOND
  1   1   2  2   
  2   2   3  am  
  3   2   4  1   
  4   3   5  1   
  5   3  33  1   
  6   4   6  ar  
  7   4   7  ar  
  8   5   8  1   
  9   5  34  1   
 10   5  35  1   
 11   6   9  ar  
 12   6  36  1   
 13   7  10  ar  
 14   7  37  1   
 15   8  38  1   
 16   8  39  1   
 17   8  40  1   
 18   9  11  ar  
 19  10  11  ar  
 20  10  41  1   
 21  11  12  1   
 22  12  13  1   
 23  12  14  1   
 24  13  15  1   
 25  13  42  1   
 26  13  43  1   
 27  14  16  1   
 28  14  44  1   
 29  14  45  1   
 30  15  16  1   
 31  15  17  1   
 32  15  18  1   
 33  16  19  1   
 34  16  46  1   
 35  17  20  1   
 36  18  21  1   
 37  18  47  1   
 38  18  48  1   
 39  19  20  1   
 40  19  22  1   
 41  19  49  1   
 42  20  21  1   
 43  20  50  1   
 44  21  51  1   
 45  21  52  1   
 46  22  23  1   
 47  22  53  1   
 48  22  54  1   
 49  23  24  am  
 50  23  55  1   
 51  24  25  2   
 52  24  26  1   
 53  26  27  1   
 54  26  56  1   
 55  26  57  1   
 56  27  28  1   
 57  27  29  1   
 58  28  30  2   
 59  28  31  1   
 60  29  32  2   
 61  29  58  1   
 62  30  32  1   
 63  31  59  1   
 64  31  60  1   
 65  31  61  1   
 66  32  62  1   
@<TRIPOS>SUBSTRUCTURE
  1 ****  14 GROUP 4 **** **** 0

# MOE 2024.06 (io_trps.svl 2023.06)
