@<TRIPOS>MOLECULE
NONAME
47 49 1 0 0 
SMALL
USER_CHARGES


@<TRIPOS>ATOM
  1 S       -0.1190    -0.3550     1.8640 S.o2  1 <1>   1.5010 
  2 O       -0.8310    -1.4060     2.5670 O.2   1 <1>  -0.6500 
  3 O        0.2380     0.8340     2.6140 O.2   1 <1>  -0.6500 
  4 N       -1.1480     0.1580     0.6120 N.am  1 <1>  -0.8490 
  5 C        1.3390    -1.1060     1.0230 C.2   1 <1>   0.1640 
  6 C       -2.4880     0.4820     1.1270 C.3   1 <1>   0.1960 
  7 C       -0.5980     1.3100    -0.1100 C.3   1 <1>   0.1960 
  8 N        2.3130    -0.4090     0.3620 N.2   1 <1>  -0.5650 
  9 C        1.6250    -2.4320     0.9300 C.2   1 <1>  -0.3020 
 10 C       -3.4830     0.7560    -0.0170 C.3   1 <1>   0.0000 
 11 C       -1.4750     1.6540    -1.3180 C.3   1 <1>  -0.1600 
 12 C        3.1280    -1.3050    -0.0850 C.2   1 <1>   0.0060 
 13 N        2.7620    -2.5620     0.2290 N.pl3 1 <1>   0.0330 
 14 C       -4.8840     1.0510     0.5490 C.3   1 <1>   0.2000 
 15 C       -2.9350     1.9050    -0.9060 C.3   1 <1>  -0.1600 
 16 C       -3.7620    -0.5020    -0.8600 C.3   1 <1>  -0.1600 
 17 C        4.3770    -0.9870    -0.8870 C.3   1 <1>   0.0200 
 18 O       -5.0030     2.3720     0.9860 O.3   1 <1>  -0.5600 
 19 C       -5.8590     0.7440    -0.5900 C.3   1 <1>  -0.1600 
 20 C       -5.1530    -0.2970    -1.4710 C.3   1 <1>  -0.1600 
 21 C        5.6480    -1.3250    -0.1010 C.3   1 <1>  -0.2400 
 22 C       -6.1200     2.6340     1.7750 C.3   1 <1>   0.0400 
 23 H       -2.8590    -0.3410     1.7150 H     1 <1>   0.0800 
 24 H       -2.4310     1.3450     1.7710 H     1 <1>   0.0800 
 25 H       -0.5350     2.1610     0.5490 H     1 <1>   0.0800 
 26 H        0.3950     1.0860    -0.4610 H     1 <1>   0.0800 
 27 H        1.0710    -3.2640     1.3280 H     1 <1>   0.1500 
 28 H       -1.0840     2.5350    -1.7950 H     1 <1>   0.0800 
 29 H       -1.4150     0.8510    -2.0290 H     1 <1>   0.0800 
 30 H        3.2550    -3.4250    -0.0170 H     1 <1>   0.2700 
 31 H       -5.0750     0.3910     1.3790 H     1 <1>   0.0800 
 32 H       -3.5450     2.0390    -1.7810 H     1 <1>   0.0800 
 33 H       -2.9630     2.8260    -0.3500 H     1 <1>   0.0800 
 34 H       -3.0150    -0.6830    -1.6120 H     1 <1>   0.0800 
 35 H       -3.7920    -1.3630    -0.2130 H     1 <1>   0.0800 
 36 H        4.3580    -1.5340    -1.8130 H     1 <1>   0.0800 
 37 H        4.3780     0.0630    -1.1250 H     1 <1>   0.0800 
 38 H       -6.7860     0.3590    -0.2070 H     1 <1>   0.0800 
 39 H       -6.0430     1.6350    -1.1650 H     1 <1>   0.0800 
 40 H       -5.6970    -1.2250    -1.4990 H     1 <1>   0.0800 
 41 H       -5.0610     0.0820    -2.4750 H     1 <1>   0.0800 
 42 H        5.6940    -2.3770     0.1160 H     1 <1>   0.0800 
 43 H        5.6590    -0.7780     0.8260 H     1 <1>   0.0800 
 44 H        6.5170    -1.0510    -0.6720 H     1 <1>   0.0800 
 45 H       -6.0880     3.6690     2.0660 H     1 <1>   0.0800 
 46 H       -6.0910     2.0110     2.6520 H     1 <1>   0.0800 
 47 H       -7.0140     2.4480     1.2060 H     1 <1>   0.0800 
@<TRIPOS>BOND
  1   1   2  2   
  2   1   3  2   
  3   1   4  am  
  4   1   5  1   
  5   4   6  1   
  6   4   7  1   
  7   5   8  1   
  8   5   9  2   
  9   6  10  1   
 10   6  23  1   
 11   6  24  1   
 12   7  11  1   
 13   7  25  1   
 14   7  26  1   
 15   8  12  2   
 16   9  13  1   
 17   9  27  1   
 18  10  14  1   
 19  10  15  1   
 20  10  16  1   
 21  11  15  1   
 22  11  28  1   
 23  11  29  1   
 24  12  13  1   
 25  12  17  1   
 26  13  30  1   
 27  14  18  1   
 28  14  19  1   
 29  14  31  1   
 30  15  32  1   
 31  15  33  1   
 32  16  20  1   
 33  16  34  1   
 34  16  35  1   
 35  17  21  1   
 36  17  36  1   
 37  17  37  1   
 38  18  22  1   
 39  19  20  1   
 40  19  38  1   
 41  19  39  1   
 42  20  40  1   
 43  20  41  1   
 44  21  42  1   
 45  21  43  1   
 46  21  44  1   
 47  22  45  1   
 48  22  46  1   
 49  22  47  1   
@<TRIPOS>SUBSTRUCTURE
  1 ****   4 GROUP 4 **** **** 0

# MOE 2024.06 (io_trps.svl 2023.06)
