@<TRIPOS>MOLECULE
NONAME
51 53 1 0 0 
SMALL
USER_CHARGES


@<TRIPOS>ATOM
  1 S        0.6320     0.7360     1.3940 S.o2  1 <1>   1.3330 
  2 O        1.0590    -0.6120     1.6820 O.2   1 <1>  -0.6500 
  3 O        1.1640     1.8650     2.1210 O.2   1 <1>  -0.6500 
  4 N        0.9130     1.0090    -0.2960 N.am  1 <1>  -0.6930 
  5 C       -1.1440     0.7990     1.4780 C.3   1 <1>  -0.1350 
  6 C        1.4570     2.2140    -0.7010 C.ar  1 <1>   0.1990 
  7 C        1.0650    -0.1930    -1.1530 C.3   1 <1>   0.1160 
  8 C        2.7840     2.3070    -1.1070 C.ar  1 <1>  -0.1500 
  9 C        0.7000     3.3780    -0.6560 C.ar  1 <1>  -0.1500 
 10 C        3.3520     3.5330    -1.3890 C.ar  1 <1>  -0.1500 
 11 C        1.2690     4.6030    -0.9370 C.ar  1 <1>  -0.1500 
 12 C        2.6210     4.7170    -1.2690 C.ar  1 <1>   0.0860 
 13 C        3.2590     6.0090    -1.4140 C.2   1 <1>   0.5440 
 14 O        4.2820     6.1500    -2.0600 O.2   1 <1>  -0.5700 
 15 N        2.8420     7.0940    -0.6790 N.am  1 <1>  -0.6600 
 16 C        2.9240     6.9540     0.8210 C.3   1 <1>   0.2200 
 17 C        2.9490     8.4650    -1.2740 C.3   1 <1>   0.1400 
 18 C        2.0930     7.9990     1.5830 C.3   1 <1>   0.1200 
 19 C        4.4050     6.9810     1.2820 C.3   1 <1>   0.3430 
 20 C        3.7380     9.4810    -0.4230 C.3   1 <1>  -0.0800 
 21 O        2.8370     9.1600     1.7970 O.3   1 <1>  -0.5600 
 22 N        5.3270     7.5710     0.2450 N.4   1 <1>  -0.9590 
 23 C        2.8930    10.0460     0.7300 C.3   1 <1>   0.1200 
 24 C        5.1450     9.0430     0.0420 C.3   1 <1>   0.3430 
 25 C        6.7500     7.2190     0.5030 C.3   1 <1>   0.2630 
 26 H       -1.5730     0.0470     0.8450 H     1 <1>   0.0800 
 27 H       -1.4970     1.7610     1.1650 H     1 <1>   0.0800 
 28 H       -1.4690     0.6250     2.4860 H     1 <1>   0.0800 
 29 H        1.1810     0.0980    -2.1830 H     1 <1>   0.0800 
 30 H        0.1960    -0.8190    -1.0620 H     1 <1>   0.0800 
 31 H        1.9320    -0.7530    -0.8440 H     1 <1>   0.0800 
 32 H        3.3760     1.4130    -1.1750 H     1 <1>   0.1500 
 33 H       -0.3380     3.3160    -0.3850 H     1 <1>   0.1500 
 34 H        4.3840     3.5810    -1.6910 H     1 <1>   0.1500 
 35 H        0.6620     5.4900    -0.8860 H     1 <1>   0.1500 
 36 H        2.5160     5.9960     1.0940 H     1 <1>   0.0800 
 37 H        3.4120     8.3980    -2.2450 H     1 <1>   0.0800 
 38 H        1.9520     8.8400    -1.4390 H     1 <1>   0.0800 
 39 H        1.8510     7.6110     2.5580 H     1 <1>   0.0800 
 40 H        1.1710     8.2300     1.0760 H     1 <1>   0.0800 
 41 H        4.7040     5.9640     1.4780 H     1 <1>   0.0800 
 42 H        4.4870     7.5250     2.2090 H     1 <1>   0.0800 
 43 H        3.8970    10.3270    -1.0680 H     1 <1>   0.0800 
 44 H        5.0340     7.1270    -0.6550 H     1 <1>   0.4500 
 45 H        1.8890    10.2800     0.4150 H     1 <1>   0.0800 
 46 H        3.3420    10.9510     1.1020 H     1 <1>   0.0800 
 47 H        5.3860     9.5640     0.9550 H     1 <1>   0.0800 
 48 H        5.8500     9.3640    -0.7080 H     1 <1>   0.0800 
 49 H        7.0820     7.6550     1.4310 H     1 <1>   0.0800 
 50 H        7.3740     7.5830    -0.2960 H     1 <1>   0.0800 
 51 H        6.8630     6.1480     0.5620 H     1 <1>   0.0800 
@<TRIPOS>BOND
  1   1   2  2   
  2   1   3  2   
  3   1   4  am  
  4   1   5  1   
  5   4   6  1   
  6   4   7  1   
  7   5  26  1   
  8   5  27  1   
  9   5  28  1   
 10   6   8  ar  
 11   6   9  ar  
 12   7  29  1   
 13   7  30  1   
 14   7  31  1   
 15   8  10  ar  
 16   8  32  1   
 17   9  11  ar  
 18   9  33  1   
 19  10  12  ar  
 20  10  34  1   
 21  11  12  ar  
 22  11  35  1   
 23  12  13  1   
 24  13  14  2   
 25  13  15  am  
 26  15  16  1   
 27  15  17  1   
 28  16  18  1   
 29  16  19  1   
 30  16  36  1   
 31  17  20  1   
 32  17  37  1   
 33  17  38  1   
 34  18  21  1   
 35  18  39  1   
 36  18  40  1   
 37  19  22  1   
 38  19  41  1   
 39  19  42  1   
 40  20  23  1   
 41  20  24  1   
 42  20  43  1   
 43  21  23  1   
 44  22  24  1   
 45  22  25  1   
 46  22  44  1   
 47  23  45  1   
 48  23  46  1   
 49  24  47  1   
 50  24  48  1   
 51  25  49  1   
 52  25  50  1   
 53  25  51  1   
@<TRIPOS>SUBSTRUCTURE
  1 ****  12 GROUP 4 **** **** 0

# MOE 2024.06 (io_trps.svl 2023.06)
