@<TRIPOS>MOLECULE
NONAME
32 33 1 0 0 
SMALL
USER_CHARGES


@<TRIPOS>ATOM
  1 O        0.1880    -0.0570     0.2840 O.2   1 <1>  -0.5700 
  2 C        1.2740    -0.5870     0.1430 C.2   1 <1>   0.7150 
  3 N        2.3750     0.2010     0.1990 N.am  1 <1>  -0.7300 
  4 C        1.4320    -2.0010    -0.0820 C.2   1 <1>  -0.2370 
  5 C        2.3610     1.6780     0.3310 C.3   1 <1>   0.3210 
  6 N        0.3990    -2.9070    -0.1700 N.pl3 1 <1>   0.0480 
  7 C        2.6020    -2.7040    -0.2480 C.2   1 <1>  -0.1500 
  8 C        3.7270     2.2900     0.0210 C.2   1 <1>   0.3350 
  9 C        0.9300    -4.1350    -0.3850 C.2   1 <1>  -0.3020 
 10 C       -1.0490    -2.6420    -0.0570 C.3   1 <1>   0.0160 
 11 C        2.2840    -4.0440    -0.4380 C.2   1 <1>  -0.1500 
 12 N        4.7800     1.6360    -0.2860 N.2   1 <1>  -0.4100 
 13 N        3.9160     3.6030     0.0530 N.2   1 <1>  -0.5650 
 14 O        5.7310     2.5010    -0.4650 O.3   1 <1>  -0.0190 
 15 C        5.1560     3.6570    -0.2460 C.2   1 <1>   0.2980 
 16 C        5.9860     4.9240    -0.3870 C.3   1 <1>   0.3000 
 17 O        7.0860     4.8960     0.4790 O.3   1 <1>  -0.5600 
 18 C        7.8860     6.0330     0.4250 C.3   1 <1>   0.0400 
 19 H        3.2940    -0.2030     0.0150 H     1 <1>   0.3700 
 20 H        2.0810     1.9390     1.3360 H     1 <1>   0.0800 
 21 H        1.6300     2.0900    -0.3420 H     1 <1>   0.0800 
 22 H        3.6060    -2.3190    -0.2380 H     1 <1>   0.1500 
 23 H        0.3250    -5.0180    -0.4910 H     1 <1>   0.1500 
 24 H       -1.3430    -1.9490    -0.8230 H     1 <1>   0.0800 
 25 H       -1.2570    -2.2160     0.9080 H     1 <1>   0.0800 
 26 H       -1.5980    -3.5580    -0.1710 H     1 <1>   0.0800 
 27 H        2.9920    -4.8400    -0.5960 H     1 <1>   0.1500 
 28 H        5.3800     5.7790    -0.1450 H     1 <1>   0.0800 
 29 H        6.3460     5.0070    -1.3970 H     1 <1>   0.0800 
 30 H        8.6940     5.9050     1.1240 H     1 <1>   0.0800 
 31 H        7.3020     6.8940     0.7030 H     1 <1>   0.0800 
 32 H        8.2820     6.1450    -0.5690 H     1 <1>   0.0800 
@<TRIPOS>BOND
  1   1   2  2   
  2   2   3  am  
  3   2   4  1   
  4   3   5  1   
  5   3  19  1   
  6   4   6  1   
  7   4   7  2   
  8   5   8  1   
  9   5  20  1   
 10   5  21  1   
 11   6   9  1   
 12   6  10  1   
 13   7  11  1   
 14   7  22  1   
 15   8  12  2   
 16   8  13  1   
 17   9  11  2   
 18   9  23  1   
 19  10  24  1   
 20  10  25  1   
 21  10  26  1   
 22  11  27  1   
 23  12  14  1   
 24  13  15  2   
 25  14  15  1   
 26  15  16  1   
 27  16  17  1   
 28  16  28  1   
 29  16  29  1   
 30  17  18  1   
 31  18  30  1   
 32  18  31  1   
 33  18  32  1   
@<TRIPOS>SUBSTRUCTURE
  1 ****   3 GROUP 4 **** **** 0

# MOE 2024.06 (io_trps.svl 2023.06)
