@<TRIPOS>MOLECULE
NONAME
46 48 1 0 0 
SMALL
USER_CHARGES


@<TRIPOS>ATOM
  1 O        3.5140    -1.5360    -1.8960 O.2   1 <1>  -0.5700 
  2 C        2.8280    -1.3290    -0.9110 C.2   1 <1>   0.5440 
  3 N        2.9170    -0.0690    -0.3730 N.am  1 <1>  -0.6600 
  4 C        2.0590    -2.3780    -0.2560 C.ar  1 <1>   0.0860 
  5 C        3.6190     0.0530     0.9500 C.3   1 <1>   0.2200 
  6 C        2.8810     1.1190    -1.2850 C.3   1 <1>   0.1400 
  7 C        2.6640    -3.5780     0.1540 C.ar  1 <1>  -0.1440 
  8 C        0.6900    -2.2090     0.0090 C.ar  1 <1>  -0.1440 
  9 C        3.2830     1.3540     1.6970 C.3   1 <1>   0.1200 
 10 C        5.1520    -0.0930     0.7580 C.3   1 <1>   0.3430 
 11 C        4.0380     2.1180    -1.0950 C.3   1 <1>  -0.0800 
 12 C        1.9320    -4.5420     0.8260 C.ar  1 <1>  -0.1500 
 13 C        4.1330    -3.8780    -0.1270 C.3   1 <1>  -0.0970 
 14 C       -0.0230    -3.1830     0.6860 C.ar  1 <1>  -0.1500 
 15 C       -0.0700    -0.9660    -0.4450 C.3   1 <1>  -0.0960 
 16 O        4.1460     2.3820     1.3070 O.3   1 <1>  -0.5600 
 17 N        5.5790     0.1070    -0.6750 N.4   1 <1>  -0.9590 
 18 C        3.8200     3.0290     0.1240 C.3   1 <1>   0.1200 
 19 C        5.4630     1.5240    -1.1440 C.3   1 <1>   0.3430 
 20 C        0.5940    -4.3450     1.0980 C.ar  1 <1>  -0.1500 
 21 C        6.9320    -0.4540    -0.9410 C.3   1 <1>   0.2630 
 22 H        3.2820    -0.7530     1.5800 H     1 <1>   0.0800 
 23 H        2.8840     0.7800    -2.3090 H     1 <1>   0.0800 
 24 H        1.9440     1.6290    -1.1370 H     1 <1>   0.0800 
 25 H        3.4450     1.2060     2.7510 H     1 <1>   0.0800 
 26 H        2.2570     1.6490     1.5540 H     1 <1>   0.0800 
 27 H        5.4280    -1.0850     1.0710 H     1 <1>   0.0800 
 28 H        5.6670     0.6020     1.4000 H     1 <1>   0.0800 
 29 H        3.9750     2.7860    -1.9350 H     1 <1>   0.0800 
 30 H        2.3940    -5.4620     1.1420 H     1 <1>   0.1500 
 31 H        4.4440    -4.7860     0.3570 H     1 <1>   0.0800 
 32 H        4.7580    -3.0800     0.2250 H     1 <1>   0.0800 
 33 H        4.2810    -3.9990    -1.1860 H     1 <1>   0.0800 
 34 H       -1.0710    -3.0490     0.8950 H     1 <1>   0.1500 
 35 H       -1.1330    -1.1280    -0.4030 H     1 <1>   0.0800 
 36 H        0.1830    -0.7210    -1.4610 H     1 <1>   0.0800 
 37 H        0.1690    -0.1330     0.1910 H     1 <1>   0.0800 
 38 H        4.8780    -0.4340    -1.2340 H     1 <1>   0.4500 
 39 H        2.8030     3.3800     0.1840 H     1 <1>   0.0800 
 40 H        4.4640     3.8900     0.0550 H     1 <1>   0.0800 
 41 H        6.1210     2.1500    -0.5640 H     1 <1>   0.0800 
 42 H        5.7980     1.5640    -2.1670 H     1 <1>   0.0800 
 43 H        0.0320    -5.0990     1.6230 H     1 <1>   0.1500 
 44 H        7.6770     0.0760    -0.3700 H     1 <1>   0.0800 
 45 H        7.1700    -0.3680    -1.9890 H     1 <1>   0.0800 
 46 H        6.9620    -1.4970    -0.6710 H     1 <1>   0.0800 
@<TRIPOS>BOND
  1   1   2  2   
  2   2   3  am  
  3   2   4  1   
  4   3   5  1   
  5   3   6  1   
  6   4   7  ar  
  7   4   8  ar  
  8   5   9  1   
  9   5  10  1   
 10   5  22  1   
 11   6  11  1   
 12   6  23  1   
 13   6  24  1   
 14   7  12  ar  
 15   7  13  1   
 16   8  14  ar  
 17   8  15  1   
 18   9  16  1   
 19   9  25  1   
 20   9  26  1   
 21  10  17  1   
 22  10  27  1   
 23  10  28  1   
 24  11  18  1   
 25  11  19  1   
 26  11  29  1   
 27  12  20  ar  
 28  12  30  1   
 29  13  31  1   
 30  13  32  1   
 31  13  33  1   
 32  14  20  ar  
 33  14  34  1   
 34  15  35  1   
 35  15  36  1   
 36  15  37  1   
 37  16  18  1   
 38  17  19  1   
 39  17  21  1   
 40  17  38  1   
 41  18  39  1   
 42  18  40  1   
 43  19  41  1   
 44  19  42  1   
 45  20  43  1   
 46  21  44  1   
 47  21  45  1   
 48  21  46  1   
@<TRIPOS>SUBSTRUCTURE
  1 ****   3 GROUP 4 **** **** 0

# MOE 2024.06 (io_trps.svl 2023.06)
