@<TRIPOS>MOLECULE
NONAME
52 54 1 0 0 
SMALL
USER_CHARGES


@<TRIPOS>ATOM
  1 O       -0.3610     1.3310     0.8500 O.2   1 <1>  -0.5700 
  2 C       -0.1800     2.4600     0.4290 C.2   1 <1>   0.7160 
  3 N       -1.2670     3.2960     0.2670 N.am  1 <1>  -0.6600 
  4 C        1.1610     2.8930     0.1080 C.2   1 <1>  -0.0860 
  5 C       -2.6030     2.9770     0.8600 C.3   1 <1>   0.1400 
  6 C       -1.2690     4.4880    -0.6220 C.3   1 <1>   0.1400 
  7 C        2.1410     2.1530    -0.5650 C.2   1 <1>   0.1080 
  8 C        1.7970     4.0700     0.3690 C.2   1 <1>  -0.3020 
  9 C       -3.6650     2.7480    -0.2430 C.3   1 <1>   0.0000 
 10 C       -2.3060     4.3060    -1.7370 C.3   1 <1>  -0.1600 
 11 N        3.2510     2.8020    -0.7140 N.2   1 <1>  -0.7070 
 12 C        1.9630     0.7420    -1.0820 C.3   1 <1>  -0.0590 
 13 N        3.0390     3.9900    -0.1280 N.pl3 1 <1>   0.3140 
 14 C       -5.0490     2.4620     0.3660 C.3   1 <1>   0.2000 
 15 C       -3.7010     3.9740    -1.1810 C.3   1 <1>  -0.1600 
 16 C       -3.3850     1.4380    -1.0000 C.3   1 <1>  -0.1600 
 17 C        4.0900     5.0240    -0.0660 C.3   1 <1>   0.0960 
 18 O       -5.3010     3.2770     1.4720 O.3   1 <1>  -0.5600 
 19 C       -5.0350     0.9800     0.7540 C.3   1 <1>  -0.1600 
 20 C       -3.9540     0.3240    -0.1170 C.3   1 <1>  -0.1600 
 21 C        4.8280     4.9740     1.2790 C.3   1 <1>  -0.1600 
 22 C       -6.6280     3.3020     1.8930 C.3   1 <1>   0.0400 
 23 C        5.9200     6.0460     1.3580 C.3   1 <1>  -0.2400 
 24 H       -2.5380     2.1140     1.4990 H     1 <1>   0.0800 
 25 H       -2.8990     3.8060     1.4780 H     1 <1>   0.0800 
 26 H       -1.5120     5.3580    -0.0350 H     1 <1>   0.0800 
 27 H       -0.3030     4.6400    -1.0690 H     1 <1>   0.0800 
 28 H        1.4210     4.9330     0.8850 H     1 <1>   0.1500 
 29 H       -2.3590     5.2100    -2.3180 H     1 <1>   0.0800 
 30 H       -1.9750     3.5200    -2.3920 H     1 <1>   0.0800 
 31 H        1.0570     0.6710    -1.6550 H     1 <1>   0.0800 
 32 H        1.9090     0.0600    -0.2540 H     1 <1>   0.0800 
 33 H        2.7950     0.4710    -1.7060 H     1 <1>   0.0800 
 34 H       -5.8060     2.6380    -0.3810 H     1 <1>   0.0800 
 35 H       -4.3820     3.8010    -1.9950 H     1 <1>   0.0800 
 36 H       -4.0650     4.8210    -0.6250 H     1 <1>   0.0800 
 37 H       -3.9130     1.4400    -1.9380 H     1 <1>   0.0800 
 38 H       -2.3380     1.2850    -1.2010 H     1 <1>   0.0800 
 39 H        4.7790     4.8490    -0.8720 H     1 <1>   0.0800 
 40 H        3.6310     5.9850    -0.2070 H     1 <1>   0.0800 
 41 H       -4.7730     0.8690     1.7920 H     1 <1>   0.0800 
 42 H       -5.9950     0.5330     0.5720 H     1 <1>   0.0800 
 43 H       -3.1720    -0.0690     0.5130 H     1 <1>   0.0800 
 44 H       -4.3530    -0.4780    -0.7130 H     1 <1>   0.0800 
 45 H        4.1260     5.1230     2.0810 H     1 <1>   0.0800 
 46 H        5.2770     4.0010     1.3960 H     1 <1>   0.0800 
 47 H       -6.6990     3.9740     2.7300 H     1 <1>   0.0800 
 48 H       -6.9270     2.3140     2.1980 H     1 <1>   0.0800 
 49 H       -7.2500     3.6570     1.0900 H     1 <1>   0.0800 
 50 H        5.4940     7.0290     1.2610 H     1 <1>   0.0800 
 51 H        6.6460     5.9020     0.5770 H     1 <1>   0.0800 
 52 H        6.4250     5.9860     2.3070 H     1 <1>   0.0800 
@<TRIPOS>BOND
  1   1   2  2   
  2   2   3  am  
  3   2   4  1   
  4   3   5  1   
  5   3   6  1   
  6   4   7  1   
  7   4   8  2   
  8   5   9  1   
  9   5  24  1   
 10   5  25  1   
 11   6  10  1   
 12   6  26  1   
 13   6  27  1   
 14   7  11  2   
 15   7  12  1   
 16   8  13  1   
 17   8  28  1   
 18   9  14  1   
 19   9  15  1   
 20   9  16  1   
 21  10  15  1   
 22  10  29  1   
 23  10  30  1   
 24  11  13  1   
 25  12  31  1   
 26  12  32  1   
 27  12  33  1   
 28  13  17  1   
 29  14  18  1   
 30  14  19  1   
 31  14  34  1   
 32  15  35  1   
 33  15  36  1   
 34  16  20  1   
 35  16  37  1   
 36  16  38  1   
 37  17  21  1   
 38  17  39  1   
 39  17  40  1   
 40  18  22  1   
 41  19  20  1   
 42  19  41  1   
 43  19  42  1   
 44  20  43  1   
 45  20  44  1   
 46  21  23  1   
 47  21  45  1   
 48  21  46  1   
 49  22  47  1   
 50  22  48  1   
 51  22  49  1   
 52  23  50  1   
 53  23  51  1   
 54  23  52  1   
@<TRIPOS>SUBSTRUCTURE
  1 ****   3 GROUP 4 **** **** 0

# MOE 2024.06 (io_trps.svl 2023.06)
