@<TRIPOS>MOLECULE
NONAME
56 59 1 0 0 
SMALL
USER_CHARGES


@<TRIPOS>ATOM
  1 O       -1.4080     0.7510    -2.2220 O.2   1 <1>  -0.5700 
  2 C       -2.3130     1.1160    -1.4970 C.2   1 <1>   0.6160 
  3 N       -3.4760     0.3770    -1.4890 N.am  1 <1>  -0.6600 
  4 C       -2.1350     2.2490    -0.6430 C.2   1 <1>   0.0290 
  5 C       -3.3840    -1.1010    -1.4820 C.3   1 <1>   0.1400 
  6 C       -4.8130     0.9340    -1.1470 C.3   1 <1>   0.1400 
  7 C       -2.0450     1.9880     0.7580 C.2   1 <1>   0.6160 
  8 C       -2.0340     3.5420    -1.0910 C.2   1 <1>  -0.1500 
  9 C       -3.7790    -1.6190    -0.0800 C.3   1 <1>   0.4230 
 10 C       -5.2720     0.3940     0.2140 C.3   1 <1>  -0.1600 
 11 O       -2.1180     0.8700     1.2590 O.2   1 <1>  -0.5700 
 12 N       -1.8870     3.0490     1.6060 N.am  1 <1>  -0.5390 
 13 C       -1.8660     4.6060    -0.1770 C.2   1 <1>  -0.1380 
 14 N       -3.5190    -3.1060     0.1170 N.4   1 <1>  -0.9590 
 15 C       -5.2080    -1.1560     0.3400 C.3   1 <1>   0.0000 
 16 C       -1.8020     4.3430     1.1620 C.2   1 <1>  -0.0290 
 17 C       -1.7650     6.0220    -0.7320 C.3   1 <1>  -0.0220 
 18 C       -4.2540    -3.7070     1.2760 C.3   1 <1>   0.3430 
 19 C       -3.6890    -3.9610    -1.1030 C.3   1 <1>   0.2630 
 20 C       -5.4600    -1.5420     1.8290 C.3   1 <1>  -0.1600 
 21 C       -6.2730    -1.8150    -0.5820 C.3   1 <1>   0.1200 
 22 C       -1.6240     5.4240     2.2190 C.3   1 <1>  -0.0220 
 23 C       -1.1970     7.0080     0.2970 C.3   1 <1>  -0.1600 
 24 C       -4.5350    -2.6580     2.3480 C.3   1 <1>  -0.1600 
 25 O       -7.5380    -1.2980    -0.3580 O.3   1 <1>  -0.6800 
 26 C       -1.8800     6.8300     1.6580 C.3   1 <1>  -0.1600 
 27 H       -4.0250    -1.4900    -2.2510 H     1 <1>   0.0800 
 28 H       -2.3720    -1.4010    -1.6960 H     1 <1>   0.0800 
 29 H       -4.7740     2.0110    -1.1200 H     1 <1>   0.0800 
 30 H       -5.5180     0.6540    -1.9120 H     1 <1>   0.0800 
 31 H       -2.0770     3.7570    -2.1450 H     1 <1>   0.1500 
 32 H       -3.1140    -1.1110     0.6000 H     1 <1>   0.0800 
 33 H       -4.6540     0.8470     0.9670 H     1 <1>   0.0800 
 34 H       -6.2710     0.7480     0.4020 H     1 <1>   0.0800 
 35 H       -1.8090     2.8110     2.5950 H     1 <1>   0.3700 
 36 H       -2.5200    -3.1460     0.3710 H     1 <1>   0.4500 
 37 H       -1.1360     6.0280    -1.6050 H     1 <1>   0.0800 
 38 H       -2.7480     6.3430    -1.0290 H     1 <1>   0.0800 
 39 H       -5.1950    -4.1120     0.9400 H     1 <1>   0.0800 
 40 H       -3.6760    -4.5150     1.6970 H     1 <1>   0.0800 
 41 H       -4.7080    -3.9240    -1.4520 H     1 <1>   0.0800 
 42 H       -3.4400    -4.9860    -0.8770 H     1 <1>   0.0800 
 43 H       -3.0390    -3.6250    -1.8950 H     1 <1>   0.0800 
 44 H       -5.3180    -0.6890     2.4720 H     1 <1>   0.0800 
 45 H       -6.4830    -1.8470     1.9660 H     1 <1>   0.0800 
 46 H       -6.3280    -2.8770    -0.4230 H     1 <1>   0.0800 
 47 H       -6.0570    -1.6380    -1.6210 H     1 <1>   0.0800 
 48 H       -2.2950     5.2480     3.0400 H     1 <1>   0.0800 
 49 H       -0.6160     5.3690     2.5930 H     1 <1>   0.0800 
 50 H       -0.1390     6.8380     0.4060 H     1 <1>   0.0800 
 51 H       -1.3370     8.0160    -0.0550 H     1 <1>   0.0800 
 52 H       -4.9960    -3.1310     3.1980 H     1 <1>   0.0800 
 53 H       -3.6020    -2.2390     2.6870 H     1 <1>   0.0800 
 54 H       -7.8400    -1.4430     0.5600 H     1 <1>   0.4000 
 55 H       -2.9410     6.9780     1.5430 H     1 <1>   0.0800 
 56 H       -1.5160     7.5670     2.3530 H     1 <1>   0.0800 
@<TRIPOS>BOND
  1   1   2  2   
  2   2   3  am  
  3   2   4  1   
  4   3   5  1   
  5   3   6  1   
  6   4   7  1   
  7   4   8  2   
  8   5   9  1   
  9   5  27  1   
 10   5  28  1   
 11   6  10  1   
 12   6  29  1   
 13   6  30  1   
 14   7  11  2   
 15   7  12  am  
 16   8  13  1   
 17   8  31  1   
 18   9  14  1   
 19   9  15  1   
 20   9  32  1   
 21  10  15  1   
 22  10  33  1   
 23  10  34  1   
 24  12  16  1   
 25  12  35  1   
 26  13  16  2   
 27  13  17  1   
 28  14  18  1   
 29  14  19  1   
 30  14  36  1   
 31  15  20  1   
 32  15  21  1   
 33  16  22  1   
 34  17  23  1   
 35  17  37  1   
 36  17  38  1   
 37  18  24  1   
 38  18  39  1   
 39  18  40  1   
 40  19  41  1   
 41  19  42  1   
 42  19  43  1   
 43  20  24  1   
 44  20  44  1   
 45  20  45  1   
 46  21  25  1   
 47  21  46  1   
 48  21  47  1   
 49  22  26  1   
 50  22  48  1   
 51  22  49  1   
 52  23  26  1   
 53  23  50  1   
 54  23  51  1   
 55  24  52  1   
 56  24  53  1   
 57  25  54  1   
 58  26  55  1   
 59  26  56  1   
@<TRIPOS>SUBSTRUCTURE
  1 ****  11 GROUP 4 **** **** 0

# MOE 2024.06 (io_trps.svl 2023.06)
