@<TRIPOS>MOLECULE
NONAME
40 42 1 0 0 
SMALL
USER_CHARGES


@<TRIPOS>ATOM
  1 N       -0.1130     0.5460     1.2860 N.pl3 1 <1>   0.0330 
  2 C       -0.9580     0.2550     0.2680 C.ar  1 <1>  -0.1520 
  3 C       -0.0100     1.9030     1.3060 C.2   1 <1>   0.0060 
  4 C       -1.3230     1.4720    -0.2750 C.ar  1 <1>   0.2270 
  5 C       -1.4520    -0.9460    -0.2440 C.ar  1 <1>  -0.1500 
  6 N       -0.7150     2.4920     0.3950 N.2   1 <1>  -0.5650 
  7 C        0.8480     2.6590     2.3150 C.3   1 <1>   0.5230 
  8 C       -2.2000     1.5140    -1.3560 C.ar  1 <1>  -0.1500 
  9 C       -2.3200    -0.9000    -1.3150 C.ar  1 <1>  -0.1440 
 10 N        0.9050     4.0790     1.8700 N.4   1 <1>  -0.9590 
 11 C       -2.6910     0.3330    -1.8680 C.ar  1 <1>  -0.1500 
 12 C       -2.8900    -2.1730    -1.9140 C.3   1 <1>  -0.0970 
 13 C        1.9420     4.2640     0.8070 C.3   1 <1>   0.3430 
 14 C        1.0050     5.0470     3.0030 C.3   1 <1>   0.2630 
 15 C        1.6980     5.5290    -0.0200 C.3   1 <1>   0.0210 
 16 C        2.7820     5.6430    -1.0700 C.2   1 <1>  -0.1810 
 17 C        2.8860     4.8970    -2.2400 C.2   1 <1>   0.1390 
 18 C        3.8520     6.4660    -1.0910 C.2   1 <1>  -0.3020 
 19 N        3.9360     5.2140    -2.9290 N.2   1 <1>  -0.7070 
 20 N        4.5320     6.1930    -2.2230 N.pl3 1 <1>   0.3000 
 21 H        0.3280    -0.1520     1.8930 H     1 <1>   0.2700 
 22 H       -1.1570    -1.8830     0.1940 H     1 <1>   0.1500 
 23 H        1.8380     2.2380     2.3680 H     1 <1>   0.0800 
 24 H        0.3820     2.5920     3.2840 H     1 <1>   0.0800 
 25 H       -2.4770     2.4660    -1.7690 H     1 <1>   0.1500 
 26 H       -0.0110     4.1730     1.3850 H     1 <1>   0.4500 
 27 H       -3.3700     0.3520    -2.7030 H     1 <1>   0.1500 
 28 H       -2.5230    -3.0410    -1.3960 H     1 <1>   0.0800 
 29 H       -2.6100    -2.2490    -2.9490 H     1 <1>   0.0800 
 30 H       -3.9630    -2.1620    -1.8440 H     1 <1>   0.0800 
 31 H        1.9180     3.4220     0.1330 H     1 <1>   0.0800 
 32 H        2.9240     4.3100     1.2480 H     1 <1>   0.0800 
 33 H        1.9480     4.9330     3.5130 H     1 <1>   0.0800 
 34 H        0.2060     4.8800     3.7080 H     1 <1>   0.0800 
 35 H        0.9290     6.0590     2.6400 H     1 <1>   0.0800 
 36 H        1.7290     6.4030     0.6050 H     1 <1>   0.0800 
 37 H        0.7410     5.4750    -0.5070 H     1 <1>   0.0800 
 38 H        2.1870     4.1390    -2.5580 H     1 <1>   0.1500 
 39 H        4.1700     7.2180    -0.3910 H     1 <1>   0.1500 
 40 H        5.3960     6.6500    -2.5450 H     1 <1>   0.2700 
@<TRIPOS>BOND
  1   1   2  1   
  2   1   3  1   
  3   1  21  1   
  4   2   4  ar  
  5   2   5  ar  
  6   3   6  2   
  7   3   7  1   
  8   4   6  1   
  9   4   8  ar  
 10   5   9  ar  
 11   5  22  1   
 12   7  10  1   
 13   7  23  1   
 14   7  24  1   
 15   8  11  ar  
 16   8  25  1   
 17   9  11  ar  
 18   9  12  1   
 19  10  13  1   
 20  10  14  1   
 21  10  26  1   
 22  11  27  1   
 23  12  28  1   
 24  12  29  1   
 25  12  30  1   
 26  13  15  1   
 27  13  31  1   
 28  13  32  1   
 29  14  33  1   
 30  14  34  1   
 31  14  35  1   
 32  15  16  1   
 33  15  36  1   
 34  15  37  1   
 35  16  17  1   
 36  16  18  2   
 37  17  19  2   
 38  17  38  1   
 39  18  20  1   
 40  18  39  1   
 41  19  20  1   
 42  20  40  1   
@<TRIPOS>SUBSTRUCTURE
  1 ****   6 GROUP 4 **** **** 0

# MOE 2024.06 (io_trps.svl 2023.06)
