@<TRIPOS>MOLECULE
NONAME
46 48 1 0 0 
SMALL
USER_CHARGES


@<TRIPOS>ATOM
  1 N        0.9630    -1.1030     1.6660 N.2   1 <1>  -0.3380 
  2 N        0.4090    -2.2180     1.1980 N.2   1 <1>  -0.3380 
  3 C        1.8160    -0.7030     0.7900 C.2   1 <1>   0.0070 
  4 C        0.9410    -2.4510     0.0470 C.2   1 <1>   0.0060 
  5 N        1.8490    -1.5190    -0.2620 N.pl3 1 <1>   0.0330 
  6 C        2.6770     0.5360     0.9310 C.3   1 <1>  -0.0600 
  7 C        0.5710    -3.6430    -0.8230 C.3   1 <1>   0.5230 
  8 N       -0.7410    -4.1960    -0.3620 N.4   1 <1>  -0.9590 
  9 C       -1.0220    -5.6340    -0.6850 C.3   1 <1>   0.4230 
 10 C       -1.8360    -3.2620    -0.7630 C.3   1 <1>   0.3430 
 11 C       -2.3640    -6.0320    -0.0430 C.3   1 <1>  -0.1600 
 12 C        0.1510    -6.5230    -0.2080 C.3   1 <1>  -0.1600 
 13 C       -3.1330    -3.6430    -0.0600 C.3   1 <1>  -0.1600 
 14 C       -3.5190    -5.0850    -0.3840 C.3   1 <1>  -0.1600 
 15 C       -0.0190    -8.0500    -0.3720 C.3   1 <1>  -0.0170 
 16 C       -0.9120    -8.7060     0.6750 C.ar  1 <1>  -0.1440 
 17 C       -0.6550    -8.5500     2.0300 C.ar  1 <1>  -0.1500 
 18 C       -1.9890    -9.4860     0.2800 C.ar  1 <1>  -0.1500 
 19 C       -1.4770    -9.1420     2.9730 C.ar  1 <1>  -0.1500 
 20 C       -2.8110   -10.0800     1.2220 C.ar  1 <1>  -0.1500 
 21 C       -2.5580    -9.9050     2.5700 C.ar  1 <1>  -0.1500 
 22 H        2.4460    -1.4200    -1.0880 H     1 <1>   0.2700 
 23 H        2.4640     1.0220     1.8670 H     1 <1>   0.0800 
 24 H        2.4710     1.2270     0.1330 H     1 <1>   0.0800 
 25 H        3.7190     0.2710     0.9140 H     1 <1>   0.0800 
 26 H        1.3520    -4.3750    -0.7200 H     1 <1>   0.0800 
 27 H        0.5070    -3.3490    -1.8580 H     1 <1>   0.0800 
 28 H       -0.6940    -4.1150     0.6670 H     1 <1>   0.4500 
 29 H       -1.1210    -5.7390    -1.7530 H     1 <1>   0.0800 
 30 H       -1.9810    -3.3000    -1.8300 H     1 <1>   0.0800 
 31 H       -1.5790    -2.2500    -0.4880 H     1 <1>   0.0800 
 32 H       -2.2490    -6.0920     1.0260 H     1 <1>   0.0800 
 33 H       -2.6460    -7.0060    -0.3910 H     1 <1>   0.0800 
 34 H        0.3720    -6.3020     0.8200 H     1 <1>   0.0800 
 35 H        1.0190    -6.2810    -0.7900 H     1 <1>   0.0800 
 36 H       -3.9180    -2.9800    -0.3800 H     1 <1>   0.0800 
 37 H       -3.0170    -3.5160     1.0030 H     1 <1>   0.0800 
 38 H       -4.3950    -5.3640     0.1790 H     1 <1>   0.0800 
 39 H       -3.7610    -5.1700    -1.4310 H     1 <1>   0.0800 
 40 H        0.9500    -8.5120    -0.2890 H     1 <1>   0.0800 
 41 H       -0.3830    -8.2700    -1.3610 H     1 <1>   0.0800 
 42 H        0.1880    -7.9760     2.3690 H     1 <1>   0.1500 
 43 H       -2.2000    -9.6420    -0.7640 H     1 <1>   0.1500 
 44 H       -1.2730    -9.0140     4.0220 H     1 <1>   0.1500 
 45 H       -3.6460   -10.6820     0.9070 H     1 <1>   0.1500 
 46 H       -3.1960   -10.3670     3.3030 H     1 <1>   0.1500 
@<TRIPOS>BOND
  1   1   2  1   
  2   1   3  2   
  3   2   4  2   
  4   3   5  1   
  5   3   6  1   
  6   4   5  1   
  7   4   7  1   
  8   5  22  1   
  9   6  23  1   
 10   6  24  1   
 11   6  25  1   
 12   7   8  1   
 13   7  26  1   
 14   7  27  1   
 15   8   9  1   
 16   8  10  1   
 17   8  28  1   
 18   9  11  1   
 19   9  12  1   
 20   9  29  1   
 21  10  13  1   
 22  10  30  1   
 23  10  31  1   
 24  11  14  1   
 25  11  32  1   
 26  11  33  1   
 27  12  15  1   
 28  12  34  1   
 29  12  35  1   
 30  13  14  1   
 31  13  36  1   
 32  13  37  1   
 33  14  38  1   
 34  14  39  1   
 35  15  16  1   
 36  15  40  1   
 37  15  41  1   
 38  16  17  ar  
 39  16  18  ar  
 40  17  19  ar  
 41  17  42  1   
 42  18  20  ar  
 43  18  43  1   
 44  19  21  ar  
 45  19  44  1   
 46  20  21  ar  
 47  20  45  1   
 48  21  46  1   
@<TRIPOS>SUBSTRUCTURE
  1 ****   9 GROUP 4 **** **** 0

# MOE 2024.06 (io_trps.svl 2023.06)
