@<TRIPOS>MOLECULE
NONAME
56 58 1 0 0 
SMALL
USER_CHARGES


@<TRIPOS>ATOM
  1 CL      -0.6170    -0.3410     3.4520 Cl    1 <1>  -0.1770 
  2 C        0.5090    -0.7800     2.1950 C.ar  1 <1>   0.1770 
  3 C        0.9150    -2.0970     2.0890 C.ar  1 <1>  -0.1500 
  4 C        0.9560     0.1840     1.3160 C.ar  1 <1>  -0.1500 
  5 C        1.7630    -2.4920     1.0610 C.ar  1 <1>  -0.1440 
  6 C        1.8090    -0.1940     0.2960 C.ar  1 <1>  -0.1500 
  7 C        2.2090    -1.5160     0.1610 C.ar  1 <1>   0.0830 
  8 C        2.1680    -3.9640     1.0280 C.3   1 <1>   0.4870 
  9 O        2.9680    -1.7830    -0.9240 O.3   1 <1>  -0.3630 
 10 N        1.7490    -4.7490    -0.1800 N.4   1 <1>  -0.9590 
 11 C        4.3250    -2.2110    -0.8010 C.3   1 <1>   0.0140 
 12 C        0.3460    -4.8080    -0.6580 C.3   1 <1>   0.4230 
 13 C        2.3430    -6.1130    -0.0770 C.3   1 <1>   0.2630 
 14 C        4.4450    -3.7120    -0.9830 C.2   1 <1>   0.9060 
 15 C       -0.0180    -3.6280    -1.5540 C.3   1 <1>  -0.1600 
 16 C       -0.7070    -4.8810     0.4530 C.3   1 <1>  -0.1600 
 17 O        3.8090    -4.2690    -1.8880 O.co2 1 <1>  -0.9000 
 18 O        4.9620    -4.3830    -0.0860 O.co2 1 <1>  -0.9000 
 19 C       -1.4780    -3.2680    -1.2520 C.3   1 <1>  -0.0800 
 20 C       -1.9340    -4.1070    -0.0570 C.3   1 <1>  -0.0800 
 21 C       -1.6990    -1.8070    -0.8370 C.3   1 <1>  -0.1600 
 22 C       -2.5410    -3.1160     0.9550 C.3   1 <1>  -0.1600 
 23 C       -2.8470    -1.8320     0.1750 C.3   1 <1>   0.4230 
 24 N       -4.1780    -1.9320    -0.5070 N.4   1 <1>  -0.9590 
 25 C       -4.4390    -0.7900    -1.4430 C.3   1 <1>   0.2630 
 26 C       -5.3120    -1.9990     0.4720 C.3   1 <1>   0.2630 
 27 H        0.5600    -2.8000     2.8210 H     1 <1>   0.1500 
 28 H        0.6420     1.2070     1.4260 H     1 <1>   0.1500 
 29 H        2.1690     0.5340    -0.4110 H     1 <1>   0.1500 
 30 H        1.7590    -4.4440     1.8990 H     1 <1>   0.0800 
 31 H        3.2360    -4.0170     1.1370 H     1 <1>   0.0800 
 32 H        2.3240    -4.3420    -0.9650 H     1 <1>   0.4500 
 33 H        4.8930    -1.7270    -1.5710 H     1 <1>   0.0800 
 34 H        4.7030    -1.9240     0.1620 H     1 <1>   0.0800 
 35 H        0.2330    -5.6900    -1.2680 H     1 <1>   0.0800 
 36 H        1.8650    -6.6810     0.7020 H     1 <1>   0.0800 
 37 H        3.3980    -6.0370     0.1350 H     1 <1>   0.0800 
 38 H        2.2380    -6.6310    -1.0160 H     1 <1>   0.0800 
 39 H        0.6270    -2.7910    -1.3960 H     1 <1>   0.0800 
 40 H        0.0870    -3.9230    -2.5830 H     1 <1>   0.0800 
 41 H       -0.9670    -5.9080     0.6410 H     1 <1>   0.0800 
 42 H       -0.3490    -4.4560     1.3660 H     1 <1>   0.0800 
 43 H       -2.0940    -3.5000    -2.1070 H     1 <1>   0.0800 
 44 H       -2.6860    -4.8050    -0.3910 H     1 <1>   0.0800 
 45 H       -1.8430    -1.1570    -1.6790 H     1 <1>   0.0800 
 46 H       -0.8280    -1.4540    -0.3160 H     1 <1>   0.0800 
 47 H       -1.8100    -2.8570     1.6990 H     1 <1>   0.0800 
 48 H       -3.3810    -3.5360     1.4750 H     1 <1>   0.0800 
 49 H       -2.8190    -0.9660     0.8170 H     1 <1>   0.0800 
 50 H       -4.1660    -2.8030    -1.0550 H     1 <1>   0.4500 
 51 H       -4.3570     0.1500    -0.9200 H     1 <1>   0.0800 
 52 H       -5.4310    -0.8670    -1.8580 H     1 <1>   0.0800 
 53 H       -3.7350    -0.7950    -2.2590 H     1 <1>   0.0800 
 54 H       -5.3070    -1.1310     1.1110 H     1 <1>   0.0800 
 55 H       -5.2380    -2.8800     1.0870 H     1 <1>   0.0800 
 56 H       -6.2540    -2.0350    -0.0510 H     1 <1>   0.0800 
@<TRIPOS>BOND
  1   1   2  1   
  2   2   3  ar  
  3   2   4  ar  
  4   3   5  ar  
  5   3  27  1   
  6   4   6  ar  
  7   4  28  1   
  8   5   7  ar  
  9   5   8  1   
 10   6   7  ar  
 11   6  29  1   
 12   7   9  1   
 13   8  10  1   
 14   8  30  1   
 15   8  31  1   
 16   9  11  1   
 17  10  12  1   
 18  10  13  1   
 19  10  32  1   
 20  11  14  1   
 21  11  33  1   
 22  11  34  1   
 23  12  15  1   
 24  12  16  1   
 25  12  35  1   
 26  13  36  1   
 27  13  37  1   
 28  13  38  1   
 29  14  17  ar  
 30  14  18  ar  
 31  15  19  1   
 32  15  39  1   
 33  15  40  1   
 34  16  20  1   
 35  16  41  1   
 36  16  42  1   
 37  19  20  1   
 38  19  21  1   
 39  19  43  1   
 40  20  22  1   
 41  20  44  1   
 42  21  23  1   
 43  21  45  1   
 44  21  46  1   
 45  22  23  1   
 46  22  47  1   
 47  22  48  1   
 48  23  24  1   
 49  23  49  1   
 50  24  25  1   
 51  24  26  1   
 52  24  50  1   
 53  25  51  1   
 54  25  52  1   
 55  25  53  1   
 56  26  54  1   
 57  26  55  1   
 58  26  56  1   
@<TRIPOS>SUBSTRUCTURE
  1 ****   5 GROUP 4 **** **** 0

# MOE 2024.06 (io_trps.svl 2023.06)
