@<TRIPOS>MOLECULE
NONAME
45 47 1 0 0 
SMALL
USER_CHARGES


@<TRIPOS>ATOM
  1 O       -0.5120     2.3640     1.3840 O.2   1 <1>  -0.5700 
  2 C       -1.0390     2.1230     0.3090 C.2   1 <1>   0.5440 
  3 N       -0.3490     2.3570    -0.8600 N.am  1 <1>  -0.4200 
  4 C       -2.3750     1.6050     0.2120 C.ar  1 <1>   0.0860 
  5 C       -0.9560     2.1070    -2.0670 C.2   1 <1>   0.4500 
  6 C        1.0400     2.8750    -0.8270 C.3   1 <1>   0.1400 
  7 C       -2.8880     1.3840    -1.0720 C.ar  1 <1>   0.1790 
  8 C       -3.1770     1.3150     1.3190 C.ar  1 <1>  -0.1500 
  9 N       -2.1420     1.6510    -2.2040 N.2   1 <1>  -0.6290 
 10 C        1.0240     4.3990    -0.6670 C.3   1 <1>  -0.1600 
 11 C       -4.1780     0.8850    -1.2160 C.ar  1 <1>  -0.1500 
 12 C       -4.4550     0.8200     1.1610 C.ar  1 <1>  -0.1500 
 13 C        2.4420     4.9580    -0.4730 C.3   1 <1>  -0.0990 
 14 C       -4.9590     0.6040    -0.1140 C.ar  1 <1>  -0.1500 
 15 C        2.4320     6.4600    -0.2810 C.2   1 <1>   0.5690 
 16 O        2.8150     7.1730    -1.1770 O.2   1 <1>  -0.5700 
 17 N        1.9940     6.9620     0.9000 N.am  1 <1>  -0.7300 
 18 C        1.8690     8.4110     1.1830 C.3   1 <1>   0.1400 
 19 C        3.2280     8.9980     1.5700 C.3   1 <1>   0.0200 
 20 C        3.2490    10.4850     1.2800 C.2   1 <1>   0.0070 
 21 N        3.0750    11.4000     2.1710 N.2   1 <1>  -0.3380 
 22 N        3.4410    11.0100     0.0650 N.pl3 1 <1>   0.0480 
 23 N        3.1510    12.5750     1.5440 N.2   1 <1>  -0.3380 
 24 C        3.3670    12.3210     0.3000 C.2   1 <1>   0.0360 
 25 C        3.6630    10.3290    -1.2270 C.3   1 <1>   0.0160 
 26 H       -0.3720     2.3170    -2.9460 H     1 <1>   0.0600 
 27 H        1.5540     2.6020    -1.7330 H     1 <1>   0.0800 
 28 H        1.5640     2.4230     0.0000 H     1 <1>   0.0800 
 29 H       -2.7830     1.4840     2.3070 H     1 <1>   0.1500 
 30 H        0.4270     4.6580     0.1900 H     1 <1>   0.0800 
 31 H        0.5800     4.8490    -1.5390 H     1 <1>   0.0800 
 32 H       -4.5580     0.7210    -2.2090 H     1 <1>   0.1500 
 33 H       -5.0640     0.6000     2.0220 H     1 <1>   0.1500 
 34 H        3.0460     4.7270    -1.3330 H     1 <1>   0.0800 
 35 H        2.9030     4.5060     0.3870 H     1 <1>   0.0800 
 36 H       -5.9560     0.2180    -0.2390 H     1 <1>   0.1500 
 37 H        1.6700     6.3280     1.6350 H     1 <1>   0.3700 
 38 H        1.1550     8.5790     1.9720 H     1 <1>   0.0800 
 39 H        1.5030     8.9000     0.2960 H     1 <1>   0.0800 
 40 H        4.0170     8.5250     1.0140 H     1 <1>   0.0800 
 41 H        3.4060     8.8330     2.6170 H     1 <1>   0.0800 
 42 H        3.4760    13.0650    -0.4670 H     1 <1>   0.1500 
 43 H        4.4140     9.5690    -1.1120 H     1 <1>   0.0800 
 44 H        3.9880    11.0410    -1.9630 H     1 <1>   0.0800 
 45 H        2.7460     9.8710    -1.5530 H     1 <1>   0.0800 
@<TRIPOS>BOND
  1   1   2  2   
  2   2   3  am  
  3   2   4  1   
  4   3   5  1   
  5   3   6  1   
  6   4   7  ar  
  7   4   8  ar  
  8   5   9  2   
  9   5  26  1   
 10   6  10  1   
 11   6  27  1   
 12   6  28  1   
 13   7   9  1   
 14   7  11  ar  
 15   8  12  ar  
 16   8  29  1   
 17  10  13  1   
 18  10  30  1   
 19  10  31  1   
 20  11  14  ar  
 21  11  32  1   
 22  12  14  ar  
 23  12  33  1   
 24  13  15  1   
 25  13  34  1   
 26  13  35  1   
 27  14  36  1   
 28  15  16  2   
 29  15  17  am  
 30  17  18  1   
 31  17  37  1   
 32  18  19  1   
 33  18  38  1   
 34  18  39  1   
 35  19  20  1   
 36  19  40  1   
 37  19  41  1   
 38  20  21  2   
 39  20  22  1   
 40  21  23  1   
 41  22  24  1   
 42  22  25  1   
 43  23  24  2   
 44  24  42  1   
 45  25  43  1   
 46  25  44  1   
 47  25  45  1   
@<TRIPOS>SUBSTRUCTURE
  1 ****  10 GROUP 4 **** **** 0

# MOE 2024.06 (io_trps.svl 2023.06)
