@<TRIPOS>MOLECULE
NONAME
52 54 1 0 0 
SMALL
USER_CHARGES


@<TRIPOS>ATOM
  1 S       -0.3830     0.7340    -1.3940 S.o2  1 <1>   1.4470 
  2 O        0.2720     1.4910    -2.4380 O.2   1 <1>  -0.6500 
  3 O       -1.6550     0.1050    -1.7010 O.2   1 <1>  -0.6500 
  4 N       -0.7010     1.8120    -0.1200 N.am  1 <1>  -0.8490 
  5 C        0.7630    -0.4790    -0.6600 C.ar  1 <1>  -0.0090 
  6 C       -1.2940     1.1690     1.0680 C.3   1 <1>   0.1960 
  7 C       -1.3520     3.0580    -0.5460 C.3   1 <1>   0.1960 
  8 C        2.0610    -0.1610    -0.2520 C.ar  1 <1>  -0.1440 
  9 C        0.3270    -1.7880    -0.4730 C.ar  1 <1>  -0.1500 
 10 C       -2.4710     1.9550     1.6570 C.3   1 <1>  -0.1600 
 11 C       -2.8580     2.8480    -0.7010 C.3   1 <1>  -0.1600 
 12 C        2.8720    -1.1320     0.3160 C.ar  1 <1>  -0.1500 
 13 C        2.6320     1.2430    -0.4160 C.3   1 <1>  -0.0970 
 14 C        1.1330    -2.7590     0.0960 C.ar  1 <1>  -0.1440 
 15 C       -3.5260     2.3350     0.5970 C.3   1 <1>   0.2800 
 16 C        2.4130    -2.4230     0.4900 C.ar  1 <1>  -0.1500 
 17 C        0.6180    -4.1750     0.2790 C.3   1 <1>  -0.0970 
 18 O       -4.1890     3.4550     1.1450 O.3   1 <1>  -0.5600 
 19 C       -4.5290     1.1590     0.3560 C.3   1 <1>   0.2000 
 20 C       -5.5920     3.5080     1.1600 C.3   1 <1>   0.1200 
 21 O       -3.9330    -0.0100    -0.1450 O.3   1 <1>  -0.6800 
 22 C       -5.7890     1.5770    -0.4590 C.3   1 <1>   0.2800 
 23 C       -6.1560     3.0440    -0.1850 C.3   1 <1>  -0.1600 
 24 O       -6.8310     0.8030     0.0080 O.3   1 <1>  -0.6800 
 25 C       -5.7440     1.3070    -1.9700 C.3   1 <1>  -0.2400 
 26 H       -1.6290     0.1740     0.8300 H     1 <1>   0.0800 
 27 H       -0.5270     1.0670     1.8170 H     1 <1>   0.0800 
 28 H       -1.1710     3.8210     0.1930 H     1 <1>   0.0800 
 29 H       -0.9270     3.4080    -1.4730 H     1 <1>   0.0800 
 30 H       -0.6690    -2.0570    -0.7820 H     1 <1>   0.1500 
 31 H       -2.0790     2.8460     2.1140 H     1 <1>   0.0800 
 32 H       -2.9250     1.3720     2.4360 H     1 <1>   0.0800 
 33 H       -3.0110     2.1630    -1.5080 H     1 <1>   0.0800 
 34 H       -3.3030     3.7790    -1.0030 H     1 <1>   0.0800 
 35 H        3.8730    -0.8910     0.6280 H     1 <1>   0.1500 
 36 H        3.6130     1.3160     0.0180 H     1 <1>   0.0800 
 37 H        2.0030     1.9680     0.0690 H     1 <1>   0.0800 
 38 H        2.7110     1.4920    -1.4590 H     1 <1>   0.0800 
 39 H        3.0580    -3.1630     0.9310 H     1 <1>   0.1500 
 40 H        1.0870    -4.6400     1.1270 H     1 <1>   0.0800 
 41 H        0.8350    -4.7570    -0.5990 H     1 <1>   0.0800 
 42 H       -0.4450    -4.1730     0.4390 H     1 <1>   0.0800 
 43 H       -4.8800     0.8840     1.3360 H     1 <1>   0.0800 
 44 H       -5.9520     2.8870     1.9640 H     1 <1>   0.0800 
 45 H       -5.8770     4.5270     1.3590 H     1 <1>   0.0800 
 46 H       -3.2900     0.1820    -0.8740 H     1 <1>   0.4000 
 47 H       -5.7480     3.6820    -0.9480 H     1 <1>   0.0800 
 48 H       -7.2240     3.1700    -0.2030 H     1 <1>   0.0800 
 49 H       -6.5780    -0.1350    -0.0980 H     1 <1>   0.4000 
 50 H       -4.9950     1.9080    -2.4480 H     1 <1>   0.0800 
 51 H       -6.6920     1.5540    -2.4150 H     1 <1>   0.0800 
 52 H       -5.5260     0.2740    -2.1730 H     1 <1>   0.0800 
@<TRIPOS>BOND
  1   1   2  2   
  2   1   3  2   
  3   1   4  am  
  4   1   5  1   
  5   4   6  1   
  6   4   7  1   
  7   5   8  ar  
  8   5   9  ar  
  9   6  10  1   
 10   6  26  1   
 11   6  27  1   
 12   7  11  1   
 13   7  28  1   
 14   7  29  1   
 15   8  12  ar  
 16   8  13  1   
 17   9  14  ar  
 18   9  30  1   
 19  10  15  1   
 20  10  31  1   
 21  10  32  1   
 22  11  15  1   
 23  11  33  1   
 24  11  34  1   
 25  12  16  ar  
 26  12  35  1   
 27  13  36  1   
 28  13  37  1   
 29  13  38  1   
 30  14  16  ar  
 31  14  17  1   
 32  15  18  1   
 33  15  19  1   
 34  16  39  1   
 35  17  40  1   
 36  17  41  1   
 37  17  42  1   
 38  18  20  1   
 39  19  21  1   
 40  19  22  1   
 41  19  43  1   
 42  20  23  1   
 43  20  44  1   
 44  20  45  1   
 45  21  46  1   
 46  22  23  1   
 47  22  24  1   
 48  22  25  1   
 49  23  47  1   
 50  23  48  1   
 51  24  49  1   
 52  25  50  1   
 53  25  51  1   
 54  25  52  1   
@<TRIPOS>SUBSTRUCTURE
  1 ****   6 GROUP 4 **** **** 0

# MOE 2024.06 (io_trps.svl 2023.06)
