@<TRIPOS>MOLECULE
NONAME
49 51 1 0 0 
SMALL
USER_CHARGES


@<TRIPOS>ATOM
  1 O       -1.1440     0.9880    -0.6740 O.co2 1 <1>  -0.9000 
  2 C       -0.9420     1.5560     0.4050 C.2   1 <1>   0.9060 
  3 O       -1.2040     1.0020     1.4840 O.co2 1 <1>  -0.9000 
  4 C       -0.4300     2.9980     0.4370 C.3   1 <1>  -0.1060 
  5 C       -1.5140     3.8150     1.1740 C.3   1 <1>   0.2000 
  6 C       -0.3270     3.5460    -1.0070 C.3   1 <1>   0.1400 
  7 C        0.9510     3.0620     1.1570 C.3   1 <1>  -0.0650 
  8 O       -1.6020     3.4210     2.4940 O.3   1 <1>  -0.6800 
  9 C       -1.2790     5.3240     1.1430 C.3   1 <1>  -0.1600 
 10 N       -0.1310     5.0370    -1.0290 N.am  1 <1>  -0.6600 
 11 C        2.0430     2.1850     0.5240 C.3   1 <1>  -0.1950 
 12 C       -1.1850     5.8010    -0.3030 C.3   1 <1>   0.1400 
 13 C        0.9090     5.6170    -1.7190 C.2   1 <1>   0.5690 
 14 C        3.4700     2.3490     0.9420 C.3   1 <1>  -0.2000 
 15 C        3.0380     2.7490    -0.4380 C.3   1 <1>  -0.2000 
 16 O        1.5880     4.9930    -2.5030 O.2   1 <1>  -0.5700 
 17 C        1.2350     7.1020    -1.5760 C.3   1 <1>   0.1810 
 18 O        1.4450     7.4640    -0.2180 O.3   1 <1>  -0.3630 
 19 C        1.5740     8.7610     0.1500 C.ar  1 <1>   0.0820 
 20 C        1.7310     9.8100    -0.7510 C.ar  1 <1>  -0.1500 
 21 C        1.5410     9.0280     1.5080 C.ar  1 <1>  -0.1500 
 22 C        1.8440    11.1090    -0.2850 C.ar  1 <1>  -0.1500 
 23 C        1.6540    10.3280     1.9700 C.ar  1 <1>  -0.1500 
 24 C        1.8040    11.3750     1.0750 C.ar  1 <1>  -0.1430 
 25 C        1.9300    12.8010     1.5810 C.3   1 <1>  -0.0970 
 26 H       -2.4690     3.5990     0.7240 H     1 <1>   0.0800 
 27 H       -1.2350     3.3190    -1.5390 H     1 <1>   0.0800 
 28 H        0.4720     3.0460    -1.5270 H     1 <1>   0.0800 
 29 H        1.2980     4.0780     1.1970 H     1 <1>   0.0800 
 30 H        0.8280     2.7260     2.1710 H     1 <1>   0.0800 
 31 H       -1.5410     2.4200     2.4730 H     1 <1>   0.4000 
 32 H       -2.1000     5.8210     1.6260 H     1 <1>   0.0800 
 33 H       -0.3740     5.5790     1.6630 H     1 <1>   0.0800 
 34 H        1.7150     1.1700     0.3640 H     1 <1>   0.1000 
 35 H       -0.9910     6.8570    -0.3170 H     1 <1>   0.0800 
 36 H       -2.1280     5.6320    -0.7950 H     1 <1>   0.0800 
 37 H        3.7170     3.1210     1.6490 H     1 <1>   0.1000 
 38 H        4.0710     1.4650     1.0640 H     1 <1>   0.1000 
 39 H        3.3110     2.1460    -1.2850 H     1 <1>   0.1000 
 40 H        2.9990     3.7970    -0.6760 H     1 <1>   0.1000 
 41 H        0.4220     7.6830    -1.9660 H     1 <1>   0.0800 
 42 H        2.1350     7.3220    -2.1200 H     1 <1>   0.0800 
 43 H        1.7730     9.6390    -1.8090 H     1 <1>   0.1500 
 44 H        1.4250     8.2130     2.1990 H     1 <1>   0.1500 
 45 H        1.9660    11.9160    -0.9870 H     1 <1>   0.1500 
 46 H        1.6270    10.5180     3.0280 H     1 <1>   0.1500 
 47 H        1.5250    13.4920     0.8640 H     1 <1>   0.0800 
 48 H        2.9660    13.0380     1.7450 H     1 <1>   0.0800 
 49 H        1.3950    12.9210     2.5060 H     1 <1>   0.0800 
@<TRIPOS>BOND
  1   1   2  ar  
  2   2   3  ar  
  3   2   4  1   
  4   4   5  1   
  5   4   6  1   
  6   4   7  1   
  7   5   8  1   
  8   5   9  1   
  9   5  26  1   
 10   6  10  1   
 11   6  27  1   
 12   6  28  1   
 13   7  11  1   
 14   7  29  1   
 15   7  30  1   
 16   8  31  1   
 17   9  12  1   
 18   9  32  1   
 19   9  33  1   
 20  10  12  1   
 21  10  13  am  
 22  11  14  1   
 23  11  15  1   
 24  11  34  1   
 25  12  35  1   
 26  12  36  1   
 27  13  16  2   
 28  13  17  1   
 29  14  15  1   
 30  14  37  1   
 31  14  38  1   
 32  15  39  1   
 33  15  40  1   
 34  17  18  1   
 35  17  41  1   
 36  17  42  1   
 37  18  19  1   
 38  19  20  ar  
 39  19  21  ar  
 40  20  22  ar  
 41  20  43  1   
 42  21  23  ar  
 43  21  44  1   
 44  22  24  ar  
 45  22  45  1   
 46  23  24  ar  
 47  23  46  1   
 48  24  25  1   
 49  25  47  1   
 50  25  48  1   
 51  25  49  1   
@<TRIPOS>SUBSTRUCTURE
  1 ****  10 GROUP 4 **** **** 0

# MOE 2024.06 (io_trps.svl 2023.06)
