@<TRIPOS>MOLECULE
NONAME
44 46 1 0 0 
SMALL
USER_CHARGES


@<TRIPOS>ATOM
  1 S       -2.6320     0.7030     0.3790 S.o2  1 <1>   1.3330 
  2 O       -2.8640     0.0370     1.6340 O.2   1 <1>  -0.6500 
  3 O       -3.6830     1.4560    -0.2620 O.2   1 <1>  -0.6500 
  4 N       -2.1310    -0.4860    -0.6830 N.am  1 <1>  -0.9140 
  5 C       -1.1860     1.7290     0.5130 C.3   1 <1>  -0.1350 
  6 C       -3.2470    -1.1150    -1.4120 C.3   1 <1>   0.2570 
  7 C       -4.0760    -2.0890    -0.5540 C.2   1 <1>   0.5690 
  8 O       -3.4500    -3.0030    -0.0640 O.2   1 <1>  -0.5700 
  9 N       -5.4380    -1.9780    -0.3830 N.am  1 <1>  -0.6600 
 10 C       -6.2780    -0.7990    -0.7960 C.3   1 <1>   0.1400 
 11 C       -6.2220    -3.1360     0.1470 C.3   1 <1>   0.1400 
 12 C       -7.2570    -0.3530     0.3120 C.3   1 <1>   0.1430 
 13 C       -7.1600    -2.6980     1.2740 C.3   1 <1>  -0.1600 
 14 C       -8.1480     0.7430    -0.2450 C.ar  1 <1>   0.1670 
 15 C       -8.0800    -1.5550     0.8180 C.3   1 <1>  -0.1600 
 16 C       -6.5250     0.3660     1.4780 C.3   1 <1>  -0.1600 
 17 N       -9.0920     0.5720    -1.1420 N.ar  1 <1>  -0.6200 
 18 C       -7.8460     1.9600     0.2890 C.ar  1 <1>  -0.1430 
 19 C       -6.7110     1.8800     1.2770 C.3   1 <1>  -0.0170 
 20 C       -9.7220     1.6880    -1.4790 C.ar  1 <1>   0.7200 
 21 C       -8.5760     3.0450    -0.1330 C.ar  1 <1>   0.1600 
 22 N       -9.5340     2.9180    -1.0230 N.ar  1 <1>  -0.6200 
 23 N      -10.6960     1.5510    -2.3800 N.pl3 1 <1>  -0.9000 
 24 H       -1.7890    -1.2320    -0.0680 H     1 <1>   0.4200 
 25 H       -1.3740     2.5420     1.1860 H     1 <1>   0.0800 
 26 H       -0.9280     2.1290    -0.4470 H     1 <1>   0.0800 
 27 H       -0.3590     1.1580     0.8850 H     1 <1>   0.0800 
 28 H       -2.8230    -1.7030    -2.2060 H     1 <1>   0.0800 
 29 H       -3.8580    -0.3700    -1.8830 H     1 <1>   0.0800 
 30 H       -6.8470    -1.0760    -1.6670 H     1 <1>   0.0800 
 31 H       -5.6680     0.0430    -1.0580 H     1 <1>   0.0800 
 32 H       -5.5650    -3.9050     0.5170 H     1 <1>   0.0800 
 33 H       -6.7990    -3.5570    -0.6580 H     1 <1>   0.0800 
 34 H       -6.5700    -2.3940     2.1210 H     1 <1>   0.0800 
 35 H       -7.7570    -3.5380     1.5790 H     1 <1>   0.0800 
 36 H       -8.7080    -1.9110     0.0200 H     1 <1>   0.0800 
 37 H       -8.7240    -1.2510     1.6240 H     1 <1>   0.0800 
 38 H       -5.4860     0.0970     1.5300 H     1 <1>   0.0800 
 39 H       -6.9800     0.0980     2.4150 H     1 <1>   0.0800 
 40 H       -5.8280     2.3230     0.8510 H     1 <1>   0.0800 
 41 H       -6.9530     2.3730     2.2020 H     1 <1>   0.0800 
 42 H       -8.3710     4.0250     0.2630 H     1 <1>   0.1500 
 43 H      -11.3620     2.3180    -2.4080 H     1 <1>   0.4000 
 44 H      -11.0700     0.6120    -2.4730 H     1 <1>   0.4000 
@<TRIPOS>BOND
  1   1   2  2   
  2   1   3  2   
  3   1   4  am  
  4   1   5  1   
  5   4   6  1   
  6   4  24  1   
  7   5  25  1   
  8   5  26  1   
  9   5  27  1   
 10   6   7  1   
 11   6  28  1   
 12   6  29  1   
 13   7   8  2   
 14   7   9  am  
 15   9  10  1   
 16   9  11  1   
 17  10  12  1   
 18  10  30  1   
 19  10  31  1   
 20  11  13  1   
 21  11  32  1   
 22  11  33  1   
 23  12  14  1   
 24  12  15  1   
 25  12  16  1   
 26  13  15  1   
 27  13  34  1   
 28  13  35  1   
 29  14  17  ar  
 30  14  18  ar  
 31  15  36  1   
 32  15  37  1   
 33  16  19  1   
 34  16  38  1   
 35  16  39  1   
 36  17  20  ar  
 37  18  19  1   
 38  18  21  ar  
 39  19  40  1   
 40  19  41  1   
 41  20  22  ar  
 42  20  23  1   
 43  21  22  ar  
 44  21  42  1   
 45  23  43  1   
 46  23  44  1   
@<TRIPOS>SUBSTRUCTURE
  1 ****  10 GROUP 4 **** **** 0

# MOE 2024.06 (io_trps.svl 2023.06)
