@<TRIPOS>MOLECULE
NONAME
51 53 1 0 0 
SMALL
USER_CHARGES


@<TRIPOS>ATOM
  1 S       -0.0630    -0.5780     1.0040 S.o2  1 <1>   1.4470 
  2 O        0.4290    -1.8600     1.4520 O.2   1 <1>  -0.6500 
  3 O       -1.2120     0.0180     1.6410 O.2   1 <1>  -0.6500 
  4 N       -0.5500    -0.7060    -0.5990 N.am  1 <1>  -0.9140 
  5 C        1.3010     0.6150     0.9170 C.ar  1 <1>  -0.0090 
  6 C       -1.0610    -1.9870    -1.1010 C.3   1 <1>   0.2760 
  7 C        1.0860     1.9140     0.4850 C.ar  1 <1>  -0.1500 
  8 C        2.5970     0.2610     1.2630 C.ar  1 <1>  -0.1500 
  9 C       -2.1180    -2.6790    -0.2290 C.3   1 <1>  -0.0800 
 10 C        0.0080    -3.0600    -1.3290 C.3   1 <1>   0.1200 
 11 C        2.0970     2.8730     0.3730 C.ar  1 <1>   0.0860 
 12 C        3.6290     1.1730     1.1770 C.ar  1 <1>  -0.1500 
 13 C       -1.5100    -4.0670    -0.0010 C.3   1 <1>   0.1200 
 14 C       -3.4780    -2.7510    -0.9460 C.3   1 <1>  -0.0160 
 15 O       -0.6340    -4.2640    -1.0610 O.3   1 <1>  -0.5600 
 16 C        3.3980     2.4740     0.7340 C.ar  1 <1>   0.0820 
 17 C        1.7400     4.2020    -0.1100 C.2   1 <1>   0.5440 
 18 C       -4.5330    -3.4260    -0.0820 C.ar  1 <1>  -0.1440 
 19 O        4.4170     3.3660     0.6410 O.3   1 <1>  -0.3630 
 20 O        0.6750     4.3820    -0.6730 O.2   1 <1>  -0.5700 
 21 N        2.5590     5.2830     0.0560 N.am  1 <1>  -0.7300 
 22 C       -5.0190    -4.6850    -0.3700 C.ar  1 <1>  -0.1500 
 23 C       -5.0580    -2.8120     1.0370 C.ar  1 <1>  -0.1500 
 24 C        5.7660     3.0380     0.9030 C.3   1 <1>   0.0400 
 25 C        2.2940     6.6730    -0.3920 C.3   1 <1>   0.0600 
 26 C       -5.9790    -5.2540     0.4510 C.ar  1 <1>   0.1600 
 27 C       -6.0160    -3.4690     1.7930 C.ar  1 <1>   0.1600 
 28 N       -6.4890    -4.6750     1.5260 N.ar  1 <1>  -0.6200 
 29 H       -1.3160    -0.0360    -0.6510 H     1 <1>   0.4200 
 30 H       -1.4870    -1.7910    -2.0710 H     1 <1>   0.0800 
 31 H        0.0810     2.1990     0.2210 H     1 <1>   0.1500 
 32 H        2.7990    -0.7420     1.6040 H     1 <1>   0.1500 
 33 H       -2.2590    -2.2050     0.7230 H     1 <1>   0.0800 
 34 H        0.8390    -2.9690    -0.6550 H     1 <1>   0.0800 
 35 H        0.3560    -3.0730    -2.3460 H     1 <1>   0.0800 
 36 H        4.6110     0.8440     1.4600 H     1 <1>   0.1500 
 37 H       -2.2350    -4.8610     0.0120 H     1 <1>   0.0800 
 38 H       -0.9350    -4.0880     0.9100 H     1 <1>   0.0800 
 39 H       -3.3720    -3.2870    -1.8740 H     1 <1>   0.0800 
 40 H       -3.8150    -1.7560    -1.1800 H     1 <1>   0.0800 
 41 H        3.4930     5.0900     0.4350 H     1 <1>   0.3700 
 42 H       -4.6620    -5.2320    -1.2240 H     1 <1>   0.1500 
 43 H       -4.7320    -1.8310     1.3310 H     1 <1>   0.1500 
 44 H        6.3650     3.9120     0.7190 H     1 <1>   0.0800 
 45 H        6.0690     2.2450     0.2420 H     1 <1>   0.0800 
 46 H        5.8620     2.7420     1.9330 H     1 <1>   0.0800 
 47 H        1.2870     6.7640    -0.7620 H     1 <1>   0.0800 
 48 H        2.9780     6.9370    -1.1790 H     1 <1>   0.0800 
 49 H        2.4220     7.3510     0.4340 H     1 <1>   0.0800 
 50 H       -6.3470    -6.2370     0.2100 H     1 <1>   0.1500 
 51 H       -6.4120    -2.9750     2.6630 H     1 <1>   0.1500 
@<TRIPOS>BOND
  1   1   2  2   
  2   1   3  2   
  3   1   4  am  
  4   1   5  1   
  5   4   6  1   
  6   4  29  1   
  7   5   7  ar  
  8   5   8  ar  
  9   6   9  1   
 10   6  10  1   
 11   6  30  1   
 12   7  11  ar  
 13   7  31  1   
 14   8  12  ar  
 15   8  32  1   
 16   9  13  1   
 17   9  14  1   
 18   9  33  1   
 19  10  15  1   
 20  10  34  1   
 21  10  35  1   
 22  11  16  ar  
 23  11  17  1   
 24  12  16  ar  
 25  12  36  1   
 26  13  15  1   
 27  13  37  1   
 28  13  38  1   
 29  14  18  1   
 30  14  39  1   
 31  14  40  1   
 32  16  19  1   
 33  17  20  2   
 34  17  21  am  
 35  18  22  ar  
 36  18  23  ar  
 37  19  24  1   
 38  21  25  1   
 39  21  41  1   
 40  22  26  ar  
 41  22  42  1   
 42  23  27  ar  
 43  23  43  1   
 44  24  44  1   
 45  24  45  1   
 46  24  46  1   
 47  25  47  1   
 48  25  48  1   
 49  25  49  1   
 50  26  28  ar  
 51  26  50  1   
 52  27  28  ar  
 53  27  51  1   
@<TRIPOS>SUBSTRUCTURE
  1 ****   1 GROUP 4 **** **** 0

# MOE 2024.06 (io_trps.svl 2023.06)
