@<TRIPOS>MOLECULE
NONAME
44 45 1 0 0 
SMALL
USER_CHARGES


@<TRIPOS>ATOM
  1 S        0.4530     0.2380    -1.5190 S.o2  1 <1>   1.3330 
  2 O       -0.4730     1.1080    -2.2060 O.2   1 <1>  -0.6500 
  3 O        0.7720    -1.0570    -2.0760 O.2   1 <1>  -0.6500 
  4 N       -0.1530    -0.0040     0.0510 N.am  1 <1>  -0.8490 
  5 C        1.9930     1.1170    -1.2490 C.3   1 <1>  -0.0550 
  6 C       -1.0120    -1.1900     0.1340 C.3   1 <1>   0.1160 
  7 C       -0.8680     1.1620     0.5830 C.3   1 <1>   0.1160 
  8 C        3.0980     0.2740    -0.5740 C.3   1 <1>  -0.0800 
  9 C        4.4600     0.9500    -0.5000 C.3   1 <1>   0.2200 
 10 C        2.8290    -0.1090     0.8870 C.3   1 <1>   0.1200 
 11 N        4.3190     2.3720    -0.1060 N.am  1 <1>  -0.7300 
 12 C        5.0890     0.1810     0.6520 C.3   1 <1>   0.1200 
 13 O        4.0510    -0.0090     1.5620 O.3   1 <1>  -0.5600 
 14 C        4.3980     3.4240    -0.9530 C.2   1 <1>   0.5690 
 15 O        4.5800     3.2800    -2.1350 O.2   1 <1>  -0.5700 
 16 C        4.2440     4.8170    -0.4030 C.3   1 <1>  -0.0990 
 17 C        5.5800     5.5590    -0.4910 C.3   1 <1>   0.0960 
 18 N        5.4620     6.8970     0.1120 N.pl3 1 <1>   0.3140 
 19 N        5.2340     7.0590     1.4290 N.2   1 <1>  -0.7070 
 20 C        5.5440     8.0840    -0.5200 C.2   1 <1>  -0.3020 
 21 C        5.1810     8.3450     1.6010 C.2   1 <1>   0.1390 
 22 C        5.3680     9.0420     0.4140 C.2   1 <1>  -0.1500 
 23 H        2.3630     1.4430    -2.2020 H     1 <1>   0.0800 
 24 H        1.7980     1.9950    -0.6670 H     1 <1>   0.0800 
 25 H       -1.3710    -1.3220     1.1400 H     1 <1>   0.0800 
 26 H       -0.4540    -2.0690    -0.1410 H     1 <1>   0.0800 
 27 H       -1.8520    -1.0910    -0.5330 H     1 <1>   0.0800 
 28 H       -1.1490     0.9870     1.6080 H     1 <1>   0.0800 
 29 H       -1.7580     1.3560     0.0050 H     1 <1>   0.0800 
 30 H       -0.2380     2.0340     0.5480 H     1 <1>   0.0800 
 31 H        3.2160    -0.6390    -1.1320 H     1 <1>   0.0800 
 32 H        5.0230     0.8590    -1.4140 H     1 <1>   0.0800 
 33 H        2.4600    -1.1160     0.9740 H     1 <1>   0.0800 
 34 H        2.1430     0.5710     1.3610 H     1 <1>   0.0800 
 35 H        4.1560     2.5070     0.8960 H     1 <1>   0.3700 
 36 H        5.8950     0.7160     1.1230 H     1 <1>   0.0800 
 37 H        5.4290    -0.7870     0.3280 H     1 <1>   0.0800 
 38 H        3.5010     5.3360    -0.9810 H     1 <1>   0.0800 
 39 H        3.9170     4.7690     0.6200 H     1 <1>   0.0800 
 40 H        5.8830     5.6600    -1.5170 H     1 <1>   0.0800 
 41 H        6.3390     5.0180     0.0440 H     1 <1>   0.0800 
 42 H        5.7190     8.1800    -1.5760 H     1 <1>   0.1500 
 43 H        5.0110     8.8080     2.5590 H     1 <1>   0.1500 
 44 H        5.3670    10.1110     0.2980 H     1 <1>   0.1500 
@<TRIPOS>BOND
  1   1   2  2   
  2   1   3  2   
  3   1   4  am  
  4   1   5  1   
  5   4   6  1   
  6   4   7  1   
  7   5   8  1   
  8   5  23  1   
  9   5  24  1   
 10   6  25  1   
 11   6  26  1   
 12   6  27  1   
 13   7  28  1   
 14   7  29  1   
 15   7  30  1   
 16   8   9  1   
 17   8  10  1   
 18   8  31  1   
 19   9  11  1   
 20   9  12  1   
 21   9  32  1   
 22  10  13  1   
 23  10  33  1   
 24  10  34  1   
 25  11  14  am  
 26  11  35  1   
 27  12  13  1   
 28  12  36  1   
 29  12  37  1   
 30  14  15  2   
 31  14  16  1   
 32  16  17  1   
 33  16  38  1   
 34  16  39  1   
 35  17  18  1   
 36  17  40  1   
 37  17  41  1   
 38  18  19  1   
 39  18  20  1   
 40  19  21  2   
 41  20  22  2   
 42  20  42  1   
 43  21  22  1   
 44  21  43  1   
 45  22  44  1   
@<TRIPOS>SUBSTRUCTURE
  1 ****  11 GROUP 4 **** **** 0

# MOE 2024.06 (io_trps.svl 2023.06)
