@<TRIPOS>MOLECULE
NONAME
48 49 1 0 0 
SMALL
USER_CHARGES


@<TRIPOS>ATOM
  1 S        1.4210    -0.2750     0.6350 S.o2  1 <1>   1.3330 
  2 O        1.0270     0.5020     1.7880 O.2   1 <1>  -0.6500 
  3 O        2.4950    -1.2350     0.7560 O.2   1 <1>  -0.6500 
  4 N        0.0540    -1.1040     0.0640 N.am  1 <1>  -0.8490 
  5 C        1.7650     0.8710    -0.7010 C.3   1 <1>  -0.0550 
  6 C       -0.8020    -1.5810     1.1540 C.3   1 <1>   0.1160 
  7 C        0.3820    -2.2170    -0.8350 C.3   1 <1>   0.1160 
  8 C        2.9360     1.8310    -0.4100 C.3   1 <1>  -0.0800 
  9 C        3.0200     2.9210    -1.4650 C.3   1 <1>   0.2200 
 10 C        4.2920     1.1450    -0.5770 C.3   1 <1>   0.1200 
 11 N        3.7310     4.0870    -0.9010 N.am  1 <1>  -0.7300 
 12 C        3.8730     2.2640    -2.5500 C.3   1 <1>   0.1200 
 13 O        4.6040     1.2430    -1.9340 O.3   1 <1>  -0.5600 
 14 C        3.2160     5.3340    -0.7560 C.2   1 <1>   0.5690 
 15 O        2.0950     5.6020    -1.1140 O.2   1 <1>  -0.5700 
 16 C        4.0650     6.4270    -0.1280 C.3   1 <1>   0.0440 
 17 C        5.4590     5.9460     0.2670 C.ar  1 <1>  -0.1440 
 18 C        6.5170     6.0530    -0.6220 C.ar  1 <1>  -0.1500 
 19 C        5.6730     5.3760     1.5140 C.ar  1 <1>  -0.1500 
 20 C        7.7760     5.5950    -0.2750 C.ar  1 <1>  -0.1500 
 21 C        6.9300     4.9180     1.8630 C.ar  1 <1>  -0.1500 
 22 C        7.9890     5.0220     0.9760 C.ar  1 <1>   0.0820 
 23 O        9.1880     4.5470     1.3960 O.3   1 <1>  -0.3630 
 24 C       10.3280     4.5990     0.5680 C.3   1 <1>   0.0400 
 25 H        1.9650     0.3240    -1.6010 H     1 <1>   0.0800 
 26 H        0.8790     1.4550    -0.8650 H     1 <1>   0.0800 
 27 H       -1.6650    -2.0880     0.7580 H     1 <1>   0.0800 
 28 H       -1.1450    -0.7480     1.7450 H     1 <1>   0.0800 
 29 H       -0.2550    -2.2550     1.7920 H     1 <1>   0.0800 
 30 H       -0.5200    -2.6440    -1.2380 H     1 <1>   0.0800 
 31 H        0.9260    -2.9820    -0.3050 H     1 <1>   0.0800 
 32 H        0.9870    -1.8680    -1.6540 H     1 <1>   0.0800 
 33 H        2.8170     2.2480     0.5760 H     1 <1>   0.0800 
 34 H        2.0560     3.2220    -1.8420 H     1 <1>   0.0800 
 35 H        4.2980     0.1090    -0.2890 H     1 <1>   0.0800 
 36 H        5.0550     1.6710    -0.0290 H     1 <1>   0.0800 
 37 H        4.6980     3.9210    -0.6020 H     1 <1>   0.3700 
 38 H        4.5500     2.9580    -3.0160 H     1 <1>   0.0800 
 39 H        3.2490     1.8070    -3.2980 H     1 <1>   0.0800 
 40 H        4.1430     7.2380    -0.8280 H     1 <1>   0.0800 
 41 H        3.5490     6.7970     0.7380 H     1 <1>   0.0800 
 42 H        6.3670     6.4930    -1.5930 H     1 <1>   0.1500 
 43 H        4.8630     5.2830     2.2170 H     1 <1>   0.1500 
 44 H        8.5750     5.6920    -0.9850 H     1 <1>   0.1500 
 45 H        7.1010     4.4770     2.8280 H     1 <1>   0.1500 
 46 H       11.1520     4.1690     1.1080 H     1 <1>   0.0800 
 47 H       10.5420     5.6270     0.3340 H     1 <1>   0.0800 
 48 H       10.1380     4.0290    -0.3240 H     1 <1>   0.0800 
@<TRIPOS>BOND
  1   1   2  2   
  2   1   3  2   
  3   1   4  am  
  4   1   5  1   
  5   4   6  1   
  6   4   7  1   
  7   5   8  1   
  8   5  25  1   
  9   5  26  1   
 10   6  27  1   
 11   6  28  1   
 12   6  29  1   
 13   7  30  1   
 14   7  31  1   
 15   7  32  1   
 16   8   9  1   
 17   8  10  1   
 18   8  33  1   
 19   9  11  1   
 20   9  12  1   
 21   9  34  1   
 22  10  13  1   
 23  10  35  1   
 24  10  36  1   
 25  11  14  am  
 26  11  37  1   
 27  12  13  1   
 28  12  38  1   
 29  12  39  1   
 30  14  15  2   
 31  14  16  1   
 32  16  17  1   
 33  16  40  1   
 34  16  41  1   
 35  17  18  ar  
 36  17  19  ar  
 37  18  20  ar  
 38  18  42  1   
 39  19  21  ar  
 40  19  43  1   
 41  20  22  ar  
 42  20  44  1   
 43  21  22  ar  
 44  21  45  1   
 45  22  23  1   
 46  23  24  1   
 47  24  46  1   
 48  24  47  1   
 49  24  48  1   
@<TRIPOS>SUBSTRUCTURE
  1 ****  11 GROUP 4 **** **** 0

# MOE 2024.06 (io_trps.svl 2023.06)
