@<TRIPOS>MOLECULE
NONAME
52 53 1 0 0 
SMALL
USER_CHARGES


@<TRIPOS>ATOM
  1 O        0.4190     1.9840    -0.5450 O.2   1 <1>  -0.5700 
  2 C       -0.7890     2.0290    -0.3910 C.2   1 <1>   0.5440 
  3 N       -1.4650     3.0520    -0.9950 N.am  1 <1>  -0.7300 
  4 C       -1.4790     1.0460     0.4270 C.ar  1 <1>   0.0860 
  5 C       -0.8950     3.9480    -2.0550 C.3   1 <1>   0.2010 
  6 C       -2.6750     1.3390     1.0880 C.ar  1 <1>  -0.1500 
  7 C       -0.9610    -0.2400     0.5850 C.ar  1 <1>  -0.1500 
  8 C       -0.7390     5.4350    -1.6900 C.2   1 <1>   0.5690 
  9 C       -3.3230     0.3920     1.8600 C.ar  1 <1>  -0.1500 
 10 C       -1.6040    -1.1910     1.3570 C.ar  1 <1>  -0.1500 
 11 O       -1.3620     6.2160    -2.3680 O.2   1 <1>  -0.5700 
 12 N        0.1210     5.8850    -0.7070 N.am  1 <1>  -0.6600 
 13 C       -2.7890    -0.8770     1.9960 C.ar  1 <1>  -0.1500 
 14 C        0.7520     5.0170     0.3290 C.3   1 <1>   0.1400 
 15 C        0.4600     7.3310    -0.5970 C.3   1 <1>   0.1400 
 16 C        2.0460     4.3740    -0.1980 C.3   1 <1>   0.3430 
 17 C        1.9780     7.5510    -0.5540 C.3   1 <1>  -0.1600 
 18 N        3.1560     5.3510    -0.4810 N.4   1 <1>  -0.9590 
 19 C        2.7820     6.5150    -1.3480 C.3   1 <1>   0.3430 
 20 C        4.3180     4.6250    -1.0290 C.3   1 <1>   0.4810 
 21 C        5.5310     5.4550    -0.6860 C.2   1 <1>  -0.2880 
 22 C        6.3560     5.2840     0.3540 C.2   1 <1>  -0.2760 
 23 C        7.5550     6.1900     0.5850 C.3   1 <1>  -0.1020 
 24 C        6.2380     4.2020     1.4200 C.3   1 <1>  -0.1020 
 25 H       -2.4840     3.0950    -0.9050 H     1 <1>   0.3700 
 26 H        0.0640     3.5790    -2.3650 H     1 <1>   0.0800 
 27 H       -1.5380     3.8890    -2.9160 H     1 <1>   0.0800 
 28 H       -3.1070     2.3200     1.0090 H     1 <1>   0.1500 
 29 H       -0.0390    -0.4970     0.0930 H     1 <1>   0.1500 
 30 H       -4.2450     0.6380     2.3610 H     1 <1>   0.1500 
 31 H       -1.1820    -2.1760     1.4610 H     1 <1>   0.1500 
 32 H       -3.2920    -1.6160     2.5960 H     1 <1>   0.1500 
 33 H        0.9660     5.5910     1.2140 H     1 <1>   0.0800 
 34 H        0.0620     4.2530     0.6300 H     1 <1>   0.0800 
 35 H        0.0610     7.8640    -1.4450 H     1 <1>   0.0800 
 36 H       -0.0040     7.7440     0.2830 H     1 <1>   0.0800 
 37 H        1.8070     3.8260    -1.0940 H     1 <1>   0.0800 
 38 H        2.3840     3.6540     0.5300 H     1 <1>   0.0800 
 39 H        2.3200     7.5960     0.4650 H     1 <1>   0.0800 
 40 H        2.1670     8.5210    -0.9790 H     1 <1>   0.0800 
 41 H        3.4980     5.7310     0.4100 H     1 <1>   0.4500 
 42 H        3.6800     6.9930    -1.7030 H     1 <1>   0.0800 
 43 H        2.2170     6.1850    -2.2060 H     1 <1>   0.0800 
 44 H        4.4030     3.6600    -0.5580 H     1 <1>   0.0800 
 45 H        4.2290     4.4810    -2.0940 H     1 <1>   0.0800 
 46 H        5.6880     6.2460    -1.3990 H     1 <1>   0.1500 
 47 H        8.4640     5.6140     0.5700 H     1 <1>   0.0800 
 48 H        7.4770     6.6810     1.5390 H     1 <1>   0.0800 
 49 H        7.6250     6.9450    -0.1790 H     1 <1>   0.0800 
 50 H        6.1480     4.6510     2.3940 H     1 <1>   0.0800 
 51 H        7.1210     3.5860     1.4150 H     1 <1>   0.0800 
 52 H        5.3880     3.5640     1.2660 H     1 <1>   0.0800 
@<TRIPOS>BOND
  1   1   2  2   
  2   2   3  am  
  3   2   4  1   
  4   3   5  1   
  5   3  25  1   
  6   4   6  ar  
  7   4   7  ar  
  8   5   8  1   
  9   5  26  1   
 10   5  27  1   
 11   6   9  ar  
 12   6  28  1   
 13   7  10  ar  
 14   7  29  1   
 15   8  11  2   
 16   8  12  am  
 17   9  13  ar  
 18   9  30  1   
 19  10  13  ar  
 20  10  31  1   
 21  12  14  1   
 22  12  15  1   
 23  13  32  1   
 24  14  16  1   
 25  14  33  1   
 26  14  34  1   
 27  15  17  1   
 28  15  35  1   
 29  15  36  1   
 30  16  18  1   
 31  16  37  1   
 32  16  38  1   
 33  17  19  1   
 34  17  39  1   
 35  17  40  1   
 36  18  19  1   
 37  18  20  1   
 38  18  41  1   
 39  19  42  1   
 40  19  43  1   
 41  20  21  1   
 42  20  44  1   
 43  20  45  1   
 44  21  22  2   
 45  21  46  1   
 46  22  23  1   
 47  22  24  1   
 48  23  47  1   
 49  23  48  1   
 50  23  49  1   
 51  24  50  1   
 52  24  51  1   
 53  24  52  1   
@<TRIPOS>SUBSTRUCTURE
  1 ****  16 GROUP 4 **** **** 0

# MOE 2024.06 (io_trps.svl 2023.06)
