@<TRIPOS>MOLECULE
NONAME
41 43 1 0 0 
SMALL
USER_CHARGES


@<TRIPOS>ATOM
  1 O       -0.1780     0.3490     0.1710 O.3   1 <1>  -0.3630 
  2 C       -1.2730    -0.4330    -0.0140 C.ar  1 <1>   0.0830 
  3 C       -0.4090     1.7180     0.4250 C.3   1 <1>   0.2000 
  4 C       -2.5250     0.1330    -0.2660 C.ar  1 <1>   0.0830 
  5 C       -1.1370    -1.8090     0.0570 C.ar  1 <1>  -0.1500 
  6 C       -1.4980     2.2380    -0.5300 C.3   1 <1>   0.1200 
  7 C        0.9430     2.4320     0.2630 C.3   1 <1>   0.3430 
  8 O       -2.6750     1.4790    -0.3640 O.3   1 <1>  -0.3630 
  9 C       -3.6320    -0.6820    -0.4260 C.ar  1 <1>  -0.1500 
 10 C       -2.2480    -2.6200    -0.1090 C.ar  1 <1>  -0.1500 
 11 N        0.9240     3.9140     0.5600 N.4   1 <1>  -0.9590 
 12 C       -3.4930    -2.0580    -0.3470 C.ar  1 <1>  -0.1500 
 13 C        2.2570     4.5050     0.2330 C.3   1 <1>   0.3430 
 14 C        0.5370     4.1830     1.9890 C.3   1 <1>   0.2630 
 15 C        2.1560     6.0280     0.1300 C.3   1 <1>  -0.1600 
 16 C        3.5170     6.6720    -0.2020 C.3   1 <1>   0.0960 
 17 N        3.4150     8.1470    -0.1970 N.pl3 1 <1>   0.3140 
 18 N        2.9310     8.8230     0.8200 N.2   1 <1>  -0.4180 
 19 C        3.7510     9.0180    -1.1290 C.2   1 <1>   0.0360 
 20 N        2.9780    10.0630     0.4860 N.2   1 <1>   0.0000 
 21 N        3.4890    10.2030    -0.7330 N.2   1 <1>  -0.3380 
 22 H       -0.7500     1.7910     1.4430 H     1 <1>   0.0800 
 23 H       -0.1710    -2.2420     0.2450 H     1 <1>   0.1500 
 24 H       -1.1870     2.1440    -1.5560 H     1 <1>   0.0800 
 25 H       -1.7490     3.2620    -0.3240 H     1 <1>   0.0800 
 26 H        1.2750     2.2790    -0.7510 H     1 <1>   0.0800 
 27 H        1.6520     1.9510     0.9180 H     1 <1>   0.0800 
 28 H       -4.5940    -0.2400    -0.6130 H     1 <1>   0.1500 
 29 H       -2.1450    -3.6900    -0.0520 H     1 <1>   0.1500 
 30 H        0.2290     4.3650    -0.0550 H     1 <1>   0.4500 
 31 H       -4.3530    -2.6920    -0.4730 H     1 <1>   0.1500 
 32 H        2.6040     4.1140    -0.7110 H     1 <1>   0.0800 
 33 H        2.9740     4.2330     0.9930 H     1 <1>   0.0800 
 34 H        1.2490     3.7350     2.6630 H     1 <1>   0.0800 
 35 H       -0.4390     3.7760     2.2020 H     1 <1>   0.0800 
 36 H        0.5040     5.2430     2.1820 H     1 <1>   0.0800 
 37 H        1.8170     6.4270     1.0700 H     1 <1>   0.0800 
 38 H        1.4510     6.2940    -0.6380 H     1 <1>   0.0800 
 39 H        3.8610     6.3550    -1.1710 H     1 <1>   0.0800 
 40 H        4.2520     6.3950     0.5330 H     1 <1>   0.0800 
 41 H        4.1800     8.7600    -2.0790 H     1 <1>   0.1500 
@<TRIPOS>BOND
  1   1   2  1   
  2   1   3  1   
  3   2   4  ar  
  4   2   5  ar  
  5   3   6  1   
  6   3   7  1   
  7   3  22  1   
  8   4   8  1   
  9   4   9  ar  
 10   5  10  ar  
 11   5  23  1   
 12   6   8  1   
 13   6  24  1   
 14   6  25  1   
 15   7  11  1   
 16   7  26  1   
 17   7  27  1   
 18   9  12  ar  
 19   9  28  1   
 20  10  12  ar  
 21  10  29  1   
 22  11  13  1   
 23  11  14  1   
 24  11  30  1   
 25  12  31  1   
 26  13  15  1   
 27  13  32  1   
 28  13  33  1   
 29  14  34  1   
 30  14  35  1   
 31  14  36  1   
 32  15  16  1   
 33  15  37  1   
 34  15  38  1   
 35  16  17  1   
 36  16  39  1   
 37  16  40  1   
 38  17  18  1   
 39  17  19  1   
 40  18  20  2   
 41  19  21  2   
 42  19  41  1   
 43  20  21  1   
@<TRIPOS>SUBSTRUCTURE
  1 ****  11 GROUP 4 **** **** 0

# MOE 2024.06 (io_trps.svl 2023.06)
