@<TRIPOS>MOLECULE
NONAME
57 61 1 0 0 
SMALL
USER_CHARGES


@<TRIPOS>ATOM
  1 O        0.0230     1.6680     1.9510 O.2   1 <1>  -0.5700 
  2 C        0.0150     2.5980     1.1670 C.2   1 <1>   0.7150 
  3 N       -1.1850     3.0500     0.6630 N.am  1 <1>  -0.6600 
  4 C        1.2520     3.2030     0.7960 C.2   1 <1>  -0.2370 
  5 C       -2.4910     2.5170     1.1550 C.3   1 <1>   0.1400 
  6 C       -1.3140     3.9760    -0.4940 C.3   1 <1>   0.1400 
  7 N        2.2740     2.4950     0.2530 N.pl3 1 <1>   0.5930 
  8 C        1.6910     4.4830     0.9000 C.2   1 <1>  -0.1500 
  9 C       -3.2020     1.7220     0.0440 C.3   1 <1>   0.0000 
 10 C       -2.0270     3.2660    -1.6520 C.3   1 <1>  -0.1600 
 11 N        3.3330     3.2960     0.0090 N.2   1 <1>  -0.7070 
 12 C        2.2700     1.1220    -0.1170 C.ar  1 <1>  -0.0230 
 13 C        2.9880     4.4980     0.3990 C.2   1 <1>   0.2350 
 14 C       -4.5400     1.1600     0.5630 C.3   1 <1>   0.2000 
 15 C       -3.3580     2.6260    -1.2130 C.3   1 <1>  -0.1600 
 16 C       -2.4540     0.4210    -0.3030 C.3   1 <1>  -0.1600 
 17 C        1.3680     0.6380    -1.0620 C.ar  1 <1>  -0.1500 
 18 C        3.1730     0.2340     0.4590 C.ar  1 <1>  -0.1500 
 19 C        3.8560     5.6590     0.3100 C.ar  1 <1>   0.0540 
 20 O       -5.5740     2.0760     0.4990 O.3   1 <1>  -0.6800 
 21 C       -4.8590    -0.0620    -0.2960 C.3   1 <1>  -0.1600 
 22 C       -3.5130    -0.5350    -0.8620 C.3   1 <1>  -0.1600 
 23 C        1.3610    -0.7010    -1.4110 C.ar  1 <1>  -0.1500 
 24 C        3.1680    -1.1050     0.1100 C.ar  1 <1>  -0.1500 
 25 C        5.2290     5.5110     0.1070 C.ar  1 <1>  -0.1500 
 26 C        3.3670     6.9630     0.4190 C.ar  1 <1>  -0.1500 
 27 C        2.2600    -1.5740    -0.8240 C.ar  1 <1>  -0.1500 
 28 C        6.0740     6.6030     0.0240 C.ar  1 <1>  -0.1500 
 29 C        4.2060     8.0600     0.3370 C.ar  1 <1>  -0.1500 
 30 C        5.5630     7.8830     0.1400 C.ar  1 <1>  -0.1500 
 31 H       -2.3460     1.8910     2.0190 H     1 <1>   0.0800 
 32 H       -3.1130     3.3420     1.4560 H     1 <1>   0.0800 
 33 H       -1.8870     4.8350    -0.1880 H     1 <1>   0.0800 
 34 H       -0.3520     4.3200    -0.8300 H     1 <1>   0.0800 
 35 H        1.1540     5.3210     1.3040 H     1 <1>   0.1500 
 36 H       -2.2180     3.9800    -2.4330 H     1 <1>   0.0800 
 37 H       -1.3720     2.5200    -2.0620 H     1 <1>   0.0800 
 38 H       -4.4340     0.8540     1.5910 H     1 <1>   0.0800 
 39 H       -3.7750     2.0670    -2.0320 H     1 <1>   0.0800 
 40 H       -4.0360     3.4310    -0.9890 H     1 <1>   0.0800 
 41 H       -1.6430     0.5630    -0.9920 H     1 <1>   0.0800 
 42 H       -2.0470    -0.0050     0.5990 H     1 <1>   0.0800 
 43 H        0.6710     1.3110    -1.5250 H     1 <1>   0.1500 
 44 H        3.8810     0.5970     1.1840 H     1 <1>   0.1500 
 45 H       -5.7550     2.2980    -0.4330 H     1 <1>   0.4000 
 46 H       -5.3110    -0.8300     0.3070 H     1 <1>   0.0800 
 47 H       -5.5200     0.1920    -1.1060 H     1 <1>   0.0800 
 48 H       -3.2990    -1.5510    -0.5760 H     1 <1>   0.0800 
 49 H       -3.5300    -0.4750    -1.9370 H     1 <1>   0.0800 
 50 H        0.6570    -1.0650    -2.1390 H     1 <1>   0.1500 
 51 H        3.8690    -1.7820     0.5650 H     1 <1>   0.1500 
 52 H        5.6370     4.5200     0.0140 H     1 <1>   0.1500 
 53 H        2.3170     7.1300     0.5660 H     1 <1>   0.1500 
 54 H        2.2560    -2.6150    -1.0940 H     1 <1>   0.1500 
 55 H        7.1280     6.4560    -0.1320 H     1 <1>   0.1500 
 56 H        3.8040     9.0550     0.4260 H     1 <1>   0.1500 
 57 H        6.2180     8.7350     0.0760 H     1 <1>   0.1500 
@<TRIPOS>BOND
  1   1   2  2   
  2   2   3  am  
  3   2   4  1   
  4   3   5  1   
  5   3   6  1   
  6   4   7  1   
  7   4   8  2   
  8   5   9  1   
  9   5  31  1   
 10   5  32  1   
 11   6  10  1   
 12   6  33  1   
 13   6  34  1   
 14   7  11  1   
 15   7  12  1   
 16   8  13  1   
 17   8  35  1   
 18   9  14  1   
 19   9  15  1   
 20   9  16  1   
 21  10  15  1   
 22  10  36  1   
 23  10  37  1   
 24  11  13  2   
 25  12  17  ar  
 26  12  18  ar  
 27  13  19  1   
 28  14  20  1   
 29  14  21  1   
 30  14  38  1   
 31  15  39  1   
 32  15  40  1   
 33  16  22  1   
 34  16  41  1   
 35  16  42  1   
 36  17  23  ar  
 37  17  43  1   
 38  18  24  ar  
 39  18  44  1   
 40  19  25  ar  
 41  19  26  ar  
 42  20  45  1   
 43  21  22  1   
 44  21  46  1   
 45  21  47  1   
 46  22  48  1   
 47  22  49  1   
 48  23  27  ar  
 49  23  50  1   
 50  24  27  ar  
 51  24  51  1   
 52  25  28  ar  
 53  25  52  1   
 54  26  29  ar  
 55  26  53  1   
 56  27  54  1   
 57  28  30  ar  
 58  28  55  1   
 59  29  30  ar  
 60  29  56  1   
 61  30  57  1   
@<TRIPOS>SUBSTRUCTURE
  1 ****   4 GROUP 4 **** **** 0

# MOE 2024.06 (io_trps.svl 2023.06)
