@<TRIPOS>MOLECULE
NONAME
48 52 1 0 0 
SMALL
USER_CHARGES


@<TRIPOS>ATOM
  1 O       -2.7890     0.7940    -1.8020 O.2   1 <1>  -0.5700 
  2 C       -2.1690     0.7710    -0.7540 C.2   1 <1>   0.7150 
  3 N       -1.9670    -0.4330    -0.1460 N.am  1 <1>  -0.7300 
  4 C       -1.6740     1.9850    -0.1630 C.2   1 <1>   0.0550 
  5 C       -2.4620    -1.7340    -0.6470 C.3   1 <1>   0.2200 
  6 O       -1.0320     1.9750     0.9840 O.3   1 <1>  -0.0190 
  7 C       -1.7210     3.2780    -0.5540 C.2   1 <1>  -0.1500 
  8 C       -3.8170    -2.0230    -0.0260 C.3   1 <1>  -0.0800 
  9 C       -1.6100    -2.8690    -0.0880 C.3   1 <1>   0.1200 
 10 N       -0.6590     3.1580     1.3680 N.2   1 <1>  -0.4100 
 11 C       -1.0620     3.9670     0.4520 C.2   1 <1>   0.2030 
 12 C       -3.4260    -2.6420     1.3180 C.3   1 <1>   0.1200 
 13 C       -4.6430    -2.9890    -0.8980 C.3   1 <1>  -0.0160 
 14 O       -2.1490    -3.1890     1.1600 O.3   1 <1>  -0.5600 
 15 C       -0.8430     5.4690     0.4860 C.3   1 <1>  -0.0140 
 16 C       -6.0430    -3.1970    -0.3300 C.ar  1 <1>  -0.1440 
 17 C       -0.4030     6.2070    -0.7430 C.3   1 <1>  -0.2000 
 18 C        0.5480     6.0180     0.3970 C.3   1 <1>  -0.2000 
 19 C       -7.0620    -2.2210    -0.4510 C.ar  1 <1>   0.0000 
 20 C       -6.3540    -4.3540     0.3220 C.ar  1 <1>  -0.1500 
 21 C       -8.3200    -2.5100     0.1310 C.ar  1 <1>   0.3100 
 22 C       -6.9080    -0.9810    -1.1150 C.ar  1 <1>  -0.1500 
 23 C       -7.6340    -4.5420     0.8560 C.ar  1 <1>   0.1600 
 24 N       -8.5890    -3.6710     0.7790 N.ar  1 <1>  -0.6200 
 25 C       -9.3470    -1.5570     0.0370 C.ar  1 <1>  -0.1500 
 26 C       -7.9310    -0.0750    -1.1900 C.ar  1 <1>  -0.1500 
 27 C       -9.1670    -0.3630    -0.6060 C.ar  1 <1>  -0.1500 
 28 H       -1.5270    -0.4560     0.7770 H     1 <1>   0.3700 
 29 H       -2.4800    -1.7320    -1.7250 H     1 <1>   0.0800 
 30 H       -2.1630     3.6950    -1.4400 H     1 <1>   0.1500 
 31 H       -4.3770    -1.1170     0.1240 H     1 <1>   0.0800 
 32 H       -0.5750    -2.5970     0.0220 H     1 <1>   0.0800 
 33 H       -1.6910    -3.7440    -0.7090 H     1 <1>   0.0800 
 34 H       -4.1020    -3.4140     1.6430 H     1 <1>   0.0800 
 35 H       -3.3610    -1.8840     2.0790 H     1 <1>   0.0800 
 36 H       -4.1390    -3.9370    -0.9670 H     1 <1>   0.0800 
 37 H       -4.7240    -2.6050    -1.9000 H     1 <1>   0.0800 
 38 H       -1.5240     5.9630     1.1570 H     1 <1>   0.1000 
 39 H       -0.2200     5.6600    -1.6520 H     1 <1>   0.1000 
 40 H       -0.8040     7.1890    -0.9260 H     1 <1>   0.1000 
 41 H        0.8040     6.8620     1.0130 H     1 <1>   0.1000 
 42 H        1.3620     5.3220     0.2920 H     1 <1>   0.1000 
 43 H       -5.6340    -5.1430     0.4460 H     1 <1>   0.1500 
 44 H       -5.9690    -0.7360    -1.5760 H     1 <1>   0.1500 
 45 H       -7.8360    -5.4700     1.3640 H     1 <1>   0.1500 
 46 H      -10.2890    -1.8010     0.4910 H     1 <1>   0.1500 
 47 H       -7.7980     0.8660    -1.6970 H     1 <1>   0.1500 
 48 H       -9.9630     0.3580    -0.6710 H     1 <1>   0.1500 
@<TRIPOS>BOND
  1   1   2  2   
  2   2   3  am  
  3   2   4  1   
  4   3   5  1   
  5   3  28  1   
  6   4   6  1   
  7   4   7  2   
  8   5   8  1   
  9   5   9  1   
 10   5  29  1   
 11   6  10  1   
 12   7  11  1   
 13   7  30  1   
 14   8  12  1   
 15   8  13  1   
 16   8  31  1   
 17   9  14  1   
 18   9  32  1   
 19   9  33  1   
 20  10  11  2   
 21  11  15  1   
 22  12  14  1   
 23  12  34  1   
 24  12  35  1   
 25  13  16  1   
 26  13  36  1   
 27  13  37  1   
 28  15  17  1   
 29  15  18  1   
 30  15  38  1   
 31  16  19  ar  
 32  16  20  ar  
 33  17  18  1   
 34  17  39  1   
 35  17  40  1   
 36  18  41  1   
 37  18  42  1   
 38  19  21  ar  
 39  19  22  ar  
 40  20  23  ar  
 41  20  43  1   
 42  21  24  ar  
 43  21  25  ar  
 44  22  26  ar  
 45  22  44  1   
 46  23  24  ar  
 47  23  45  1   
 48  25  27  ar  
 49  25  46  1   
 50  26  27  ar  
 51  26  47  1   
 52  27  48  1   
@<TRIPOS>SUBSTRUCTURE
  1 ****   8 GROUP 4 **** **** 0

# MOE 2024.06 (io_trps.svl 2023.06)
