@<TRIPOS>MOLECULE
NONAME
66 69 1 0 0 
SMALL
USER_CHARGES


@<TRIPOS>ATOM
  1 F       -1.4420    -0.1510    -1.8960 F     1 <1>  -0.1900 
  2 C       -2.4730     0.2290    -1.1860 C.ar  1 <1>   0.1900 
  3 C       -2.3580     1.1630    -0.1500 C.ar  1 <1>   0.0830 
  4 C       -3.6880    -0.3400    -1.5150 C.ar  1 <1>  -0.1500 
  5 O       -1.2210     1.7920     0.2660 O.3   1 <1>  -0.3630 
  6 C       -3.5100     1.5010     0.5410 C.ar  1 <1>  -0.1500 
  7 C       -4.8180     0.0210    -0.8040 C.ar  1 <1>  -0.1500 
  8 C        0.0480     1.5370    -0.2930 C.3   1 <1>   0.0400 
  9 C       -4.7540     0.9430     0.2410 C.ar  1 <1>   0.0530 
 10 C       -5.9260     1.3310     0.9840 C.2   1 <1>   0.0870 
 11 O       -6.1060     2.5930     1.2780 O.3   1 <1>  -0.0190 
 12 C       -6.9900     0.6480     1.4940 C.2   1 <1>  -0.0860 
 13 N       -7.2110     2.8140     1.9370 N.2   1 <1>  -0.4100 
 14 C       -7.7630     1.6610     2.0800 C.2   1 <1>   0.3720 
 15 C       -7.2950    -0.7520     1.4920 C.2   1 <1>   0.7160 
 16 N       -8.9780     1.4830     2.7620 N.pl3 1 <1>  -0.8210 
 17 O       -6.4870    -1.5840     1.1240 O.2   1 <1>  -0.5700 
 18 N       -8.5170    -1.1910     1.9030 N.am  1 <1>  -0.7300 
 19 C       -8.8090     1.5760     4.2380 C.3   1 <1>   0.1290 
 20 C      -10.0550     2.4000     2.2900 C.3   1 <1>   0.1290 
 21 C       -8.9020    -2.5960     2.1280 C.3   1 <1>   0.1400 
 22 C       -9.3410    -3.2060     0.7910 C.3   1 <1>  -0.1600 
 23 C       -9.7990    -4.6820     0.8810 C.3   1 <1>  -0.0800 
 24 C      -10.4530    -5.2280    -0.4320 C.3   1 <1>   0.4230 
 25 C       -8.6640    -5.6050     1.3770 C.3   1 <1>  -0.1600 
 26 N      -10.2100    -6.6980    -0.5960 N.4   1 <1>  -0.9590 
 27 C       -9.9900    -4.5540    -1.7380 C.3   1 <1>  -0.1600 
 28 C       -9.1720    -7.0450     1.5920 C.3   1 <1>  -0.1600 
 29 C      -10.3400    -7.4370     0.6810 C.3   1 <1>   0.3430 
 30 C      -11.0370    -7.2860    -1.6820 C.3   1 <1>   0.3430 
 31 C      -10.7180    -5.1230    -2.9670 C.3   1 <1>  -0.1600 
 32 C      -10.6220    -6.6540    -3.0100 C.3   1 <1>  -0.1600 
 33 H       -3.7470    -1.0560    -2.3150 H     1 <1>   0.1500 
 34 H       -3.4360     2.2180     1.3390 H     1 <1>   0.1500 
 35 H       -5.7650    -0.4200    -1.0620 H     1 <1>   0.1500 
 36 H        0.7700     2.1400     0.2270 H     1 <1>   0.0800 
 37 H        0.0330     1.8050    -1.3350 H     1 <1>   0.0800 
 38 H        0.2840     0.4950    -0.1650 H     1 <1>   0.0800 
 39 H       -9.1240    -0.4510     2.2920 H     1 <1>   0.3700 
 40 H       -9.7300     1.3210     4.7330 H     1 <1>   0.0800 
 41 H       -8.5230     2.5770     4.5160 H     1 <1>   0.0800 
 42 H       -8.0410     0.8950     4.5620 H     1 <1>   0.0800 
 43 H      -11.0050     2.0910     2.6900 H     1 <1>   0.0800 
 44 H      -10.1090     2.3770     1.2140 H     1 <1>   0.0800 
 45 H       -9.8490     3.4100     2.6030 H     1 <1>   0.0800 
 46 H       -8.0510    -3.1210     2.5280 H     1 <1>   0.0800 
 47 H       -9.7020    -2.6370     2.8470 H     1 <1>   0.0800 
 48 H      -10.1540    -2.6070     0.4190 H     1 <1>   0.0800 
 49 H       -8.5160    -3.1270     0.1040 H     1 <1>   0.0800 
 50 H      -10.5750    -4.7070     1.6280 H     1 <1>   0.0800 
 51 H      -11.5150    -5.0620    -0.3480 H     1 <1>   0.0800 
 52 H       -7.8690    -5.6050     0.6500 H     1 <1>   0.0800 
 53 H       -8.2460    -5.2560     2.3040 H     1 <1>   0.0800 
 54 H       -9.2280    -6.7790    -0.8820 H     1 <1>   0.4500 
 55 H      -10.1970    -3.5000    -1.7050 H     1 <1>   0.0800 
 56 H       -8.9260    -4.6720    -1.8510 H     1 <1>   0.0800 
 57 H       -9.4980    -7.1610     2.6110 H     1 <1>   0.0800 
 58 H       -8.3570    -7.7330     1.4470 H     1 <1>   0.0800 
 59 H      -11.2750    -7.1790     1.1520 H     1 <1>   0.0800 
 60 H      -10.3240    -8.5020     0.5110 H     1 <1>   0.0800 
 61 H      -10.8850    -8.3530    -1.7300 H     1 <1>   0.0800 
 62 H      -12.0820    -7.0960    -1.4940 H     1 <1>   0.0800 
 63 H      -11.7550    -4.8340    -2.9300 H     1 <1>   0.0800 
 64 H      -10.2970    -4.7060    -3.8670 H     1 <1>   0.0800 
 65 H       -9.6150    -6.9510    -3.2460 H     1 <1>   0.0800 
 66 H      -11.2580    -7.0280    -3.7930 H     1 <1>   0.0800 
@<TRIPOS>BOND
  1   1   2  1   
  2   2   3  ar  
  3   2   4  ar  
  4   3   5  1   
  5   3   6  ar  
  6   4   7  ar  
  7   4  33  1   
  8   5   8  1   
  9   6   9  ar  
 10   6  34  1   
 11   7   9  ar  
 12   7  35  1   
 13   8  36  1   
 14   8  37  1   
 15   8  38  1   
 16   9  10  1   
 17  10  11  1   
 18  10  12  2   
 19  11  13  1   
 20  12  14  1   
 21  12  15  1   
 22  13  14  2   
 23  14  16  1   
 24  15  17  2   
 25  15  18  am  
 26  16  19  1   
 27  16  20  1   
 28  18  21  1   
 29  18  39  1   
 30  19  40  1   
 31  19  41  1   
 32  19  42  1   
 33  20  43  1   
 34  20  44  1   
 35  20  45  1   
 36  21  22  1   
 37  21  46  1   
 38  21  47  1   
 39  22  23  1   
 40  22  48  1   
 41  22  49  1   
 42  23  24  1   
 43  23  25  1   
 44  23  50  1   
 45  24  26  1   
 46  24  27  1   
 47  24  51  1   
 48  25  28  1   
 49  25  52  1   
 50  25  53  1   
 51  26  29  1   
 52  26  30  1   
 53  26  54  1   
 54  27  31  1   
 55  27  55  1   
 56  27  56  1   
 57  28  29  1   
 58  28  57  1   
 59  28  58  1   
 60  29  59  1   
 61  29  60  1   
 62  30  32  1   
 63  30  61  1   
 64  30  62  1   
 65  31  32  1   
 66  31  63  1   
 67  31  64  1   
 68  32  65  1   
 69  32  66  1   
@<TRIPOS>SUBSTRUCTURE
  1 ****  17 GROUP 4 **** **** 0

# MOE 2024.06 (io_trps.svl 2023.06)
