@<TRIPOS>MOLECULE
NONAME
57 60 1 0 0 
SMALL
USER_CHARGES


@<TRIPOS>ATOM
  1 S       -0.7380     0.1310     0.5220 S.3   1 <1>  -0.3320 
  2 C        0.8680     0.8820     0.2440 C.ar  1 <1>   0.4120 
  3 C       -0.7540    -1.4660    -0.4030 C.3   1 <1>   0.0700 
  4 N        1.1660     1.8440     1.0550 N.ar  1 <1>  -0.6200 
  5 C        1.6920     0.4180    -0.7930 C.ar  1 <1>  -0.1500 
  6 C       -2.0030    -2.2380     0.0140 C.3   1 <1>  -0.0990 
  7 C        2.3760     2.4300     0.8830 C.ar  1 <1>   0.3100 
  8 C        2.9150     0.9870    -0.9890 C.ar  1 <1>  -0.1440 
  9 C       -1.9890    -3.6120    -0.6100 C.2   1 <1>   0.5690 
 10 C        3.2940     2.0380    -0.1220 C.ar  1 <1>   0.0000 
 11 C        2.7310     3.4740     1.7490 C.ar  1 <1>  -0.1500 
 12 C        3.8290     0.5030    -2.1060 C.3   1 <1>  -0.0970 
 13 O       -2.0160    -3.7120    -1.8110 O.2   1 <1>  -0.5700 
 14 N       -1.9390    -4.6950     0.1990 N.am  1 <1>  -0.7300 
 15 C        4.5280     2.7220    -0.2000 C.ar  1 <1>  -0.1500 
 16 C        3.9350     4.1180     1.6480 C.ar  1 <1>  -0.1500 
 17 C       -1.8670    -6.1000    -0.2640 C.3   1 <1>   0.2200 
 18 C        4.8490     3.7380     0.6610 C.ar  1 <1>  -0.1430 
 19 C       -3.1910    -6.8220    -0.0480 C.3   1 <1>  -0.0800 
 20 C       -0.9700    -6.8780     0.6870 C.3   1 <1>   0.1200 
 21 C        6.1770     4.4680     0.5720 C.3   1 <1>  -0.0970 
 22 C       -3.1020    -7.2790     1.4140 C.3   1 <1>   0.1200 
 23 C       -4.4600    -6.0190    -0.3870 C.3   1 <1>  -0.0170 
 24 O       -1.7670    -7.1270     1.8030 O.3   1 <1>  -0.5600 
 25 C       -5.7050    -6.8750    -0.2160 C.ar  1 <1>  -0.1430 
 26 C       -6.4920    -6.8080     0.9160 C.ar  1 <1>  -0.1500 
 27 C       -6.1120    -7.7660    -1.1880 C.ar  1 <1>  -0.1500 
 28 C       -7.6120    -7.6170     1.0210 C.ar  1 <1>   0.1600 
 29 C       -7.2490    -8.5300    -0.9840 C.ar  1 <1>   0.1600 
 30 N       -8.0080    -8.4790     0.0980 N.ar  1 <1>  -0.6200 
 31 H       -0.7670    -1.2400    -1.4550 H     1 <1>   0.0800 
 32 H        0.1420    -1.9990    -0.1390 H     1 <1>   0.0800 
 33 H        1.3530    -0.3740    -1.4280 H     1 <1>   0.1500 
 34 H       -2.0370    -2.3210     1.0840 H     1 <1>   0.0800 
 35 H       -2.8800    -1.7130    -0.3190 H     1 <1>   0.0800 
 36 H        2.0190     3.7550     2.5030 H     1 <1>   0.1500 
 37 H        3.3700    -0.2950    -2.6610 H     1 <1>   0.0800 
 38 H        4.7540     0.1400    -1.6940 H     1 <1>   0.0800 
 39 H        4.0390     1.3100    -2.7850 H     1 <1>   0.0800 
 40 H       -1.9350    -4.6000     1.2180 H     1 <1>   0.3700 
 41 H        5.2310     2.4320    -0.9580 H     1 <1>   0.1500 
 42 H        4.1860     4.9160     2.3240 H     1 <1>   0.1500 
 43 H       -1.5260    -6.1500    -1.2850 H     1 <1>   0.0800 
 44 H       -3.1840    -7.7070    -0.6600 H     1 <1>   0.0800 
 45 H       -0.0920    -6.3290     0.9790 H     1 <1>   0.0800 
 46 H       -0.6880    -7.8260     0.2620 H     1 <1>   0.0800 
 47 H        6.7180     4.3570     1.4940 H     1 <1>   0.0800 
 48 H        6.0070     5.5150     0.3910 H     1 <1>   0.0800 
 49 H        6.7790     4.0770    -0.2280 H     1 <1>   0.0800 
 50 H       -3.3840    -8.3120     1.5250 H     1 <1>   0.0800 
 51 H       -3.7030    -6.6670     2.0630 H     1 <1>   0.0800 
 52 H       -4.4020    -5.6740    -1.4050 H     1 <1>   0.0800 
 53 H       -4.5370    -5.1510     0.2430 H     1 <1>   0.0800 
 54 H       -6.2490    -6.1350     1.7180 H     1 <1>   0.1500 
 55 H       -5.5560    -7.8730    -2.1010 H     1 <1>   0.1500 
 56 H       -8.2130    -7.5520     1.9110 H     1 <1>   0.1500 
 57 H       -7.5500    -9.2200    -1.7540 H     1 <1>   0.1500 
@<TRIPOS>BOND
  1   1   2  1   
  2   1   3  1   
  3   2   4  ar  
  4   2   5  ar  
  5   3   6  1   
  6   3  31  1   
  7   3  32  1   
  8   4   7  ar  
  9   5   8  ar  
 10   5  33  1   
 11   6   9  1   
 12   6  34  1   
 13   6  35  1   
 14   7  10  ar  
 15   7  11  ar  
 16   8  10  ar  
 17   8  12  1   
 18   9  13  2   
 19   9  14  am  
 20  10  15  ar  
 21  11  16  ar  
 22  11  36  1   
 23  12  37  1   
 24  12  38  1   
 25  12  39  1   
 26  14  17  1   
 27  14  40  1   
 28  15  18  ar  
 29  15  41  1   
 30  16  18  ar  
 31  16  42  1   
 32  17  19  1   
 33  17  20  1   
 34  17  43  1   
 35  18  21  1   
 36  19  22  1   
 37  19  23  1   
 38  19  44  1   
 39  20  24  1   
 40  20  45  1   
 41  20  46  1   
 42  21  47  1   
 43  21  48  1   
 44  21  49  1   
 45  22  24  1   
 46  22  50  1   
 47  22  51  1   
 48  23  25  1   
 49  23  52  1   
 50  23  53  1   
 51  25  26  ar  
 52  25  27  ar  
 53  26  28  ar  
 54  26  54  1   
 55  27  29  ar  
 56  27  55  1   
 57  28  30  ar  
 58  28  56  1   
 59  29  30  ar  
 60  29  57  1   
@<TRIPOS>SUBSTRUCTURE
  1 ****   6 GROUP 4 **** **** 0

# MOE 2024.06 (io_trps.svl 2023.06)
