@<TRIPOS>MOLECULE
NONAME
51 53 1 0 0 
SMALL
USER_CHARGES


@<TRIPOS>ATOM
  1 F        0.1940     0.9490     1.7070 F     1 <1>  -0.3400 
  2 C       -0.1570     2.1500     1.2560 C.3   1 <1>   1.1640 
  3 F       -1.1570     1.9200     0.4110 F     1 <1>  -0.3400 
  4 F       -0.6710     2.7750     2.3090 F     1 <1>  -0.3400 
  5 C        1.0260     2.8900     0.6200 C.ar  1 <1>  -0.1440 
  6 C        0.8110     4.1810     0.0890 C.ar  1 <1>   0.3100 
  7 C        2.2770     2.3150     0.5630 C.ar  1 <1>  -0.1500 
  8 N       -0.4270     4.7290     0.1640 N.ar  1 <1>  -0.6200 
  9 C        1.8980     4.8710    -0.5060 C.ar  1 <1>   0.0000 
 10 C        3.3480     2.9950    -0.0160 C.ar  1 <1>  -0.1500 
 11 C       -0.6020     5.9140    -0.3380 C.ar  1 <1>   0.1600 
 12 C        1.6740     6.1690    -1.0370 C.ar  1 <1>   0.1000 
 13 C        3.1600     4.2430    -0.5350 C.ar  1 <1>  -0.1500 
 14 C        0.4000     6.6640    -0.9420 C.ar  1 <1>  -0.1500 
 15 N        2.7000     6.8840    -1.6410 N.pl3 1 <1>  -0.8690 
 16 C        2.8270     8.3520    -1.6910 C.3   1 <1>   0.2090 
 17 C        4.1120     8.7330    -0.9600 C.3   1 <1>  -0.1600 
 18 C        4.2350    10.2520    -0.8460 C.3   1 <1>   0.3430 
 19 N        5.4070    10.6280     0.0050 N.4   1 <1>  -0.9590 
 20 C        5.3660    12.0620     0.4820 C.3   1 <1>   0.4230 
 21 C        6.6870    10.3420    -0.7200 C.3   1 <1>   0.3430 
 22 C        6.5710    12.3190     1.4080 C.3   1 <1>  -0.1600 
 23 C        4.0460    12.4210     1.2150 C.3   1 <1>   0.1200 
 24 C        7.8830    10.5510     0.2050 C.3   1 <1>  -0.1600 
 25 C        7.9120    11.9790     0.7500 C.3   1 <1>  -0.1600 
 26 O        4.0420    13.7710     1.5380 O.3   1 <1>  -0.6800 
 27 H        2.4690     1.3320     0.9600 H     1 <1>   0.1500 
 28 H        4.3160     2.5230    -0.0440 H     1 <1>   0.1500 
 29 H       -1.5910     6.3380    -0.2830 H     1 <1>   0.1500 
 30 H        3.9950     4.7560    -0.9740 H     1 <1>   0.1500 
 31 H        0.1430     7.6240    -1.3420 H     1 <1>   0.1500 
 32 H        3.4770     6.3470    -2.0420 H     1 <1>   0.4000 
 33 H        1.9810     8.8100    -1.2090 H     1 <1>   0.0800 
 34 H        2.8560     8.6720    -2.7200 H     1 <1>   0.0800 
 35 H        4.9440     8.3240    -1.5020 H     1 <1>   0.0800 
 36 H        4.0770     8.3030     0.0260 H     1 <1>   0.0800 
 37 H        3.3260    10.6210    -0.4030 H     1 <1>   0.0800 
 38 H        4.3320    10.6920    -1.8260 H     1 <1>   0.0800 
 39 H        5.4030    10.0400     0.8480 H     1 <1>   0.4500 
 40 H        5.4480    12.7100    -0.3750 H     1 <1>   0.0800 
 41 H        6.7770    10.9960    -1.5730 H     1 <1>   0.0800 
 42 H        6.6980     9.3240    -1.0730 H     1 <1>   0.0800 
 43 H        6.4570    11.7510     2.3150 H     1 <1>   0.0800 
 44 H        6.5890    13.3590     1.6870 H     1 <1>   0.0800 
 45 H        3.9530    11.8610     2.1300 H     1 <1>   0.0800 
 46 H        3.1870    12.2540     0.5920 H     1 <1>   0.0800 
 47 H        8.7900    10.3630    -0.3440 H     1 <1>   0.0800 
 48 H        7.8440     9.8430     1.0150 H     1 <1>   0.0800 
 49 H        8.7090    12.0820     1.4690 H     1 <1>   0.0800 
 50 H        8.1040    12.6710    -0.0530 H     1 <1>   0.0800 
 51 H        3.2440    14.0260     2.0490 H     1 <1>   0.4000 
@<TRIPOS>BOND
  1   1   2  1   
  2   2   3  1   
  3   2   4  1   
  4   2   5  1   
  5   5   6  ar  
  6   5   7  ar  
  7   6   8  ar  
  8   6   9  ar  
  9   7  10  ar  
 10   7  27  1   
 11   8  11  ar  
 12   9  12  ar  
 13   9  13  ar  
 14  10  13  ar  
 15  10  28  1   
 16  11  14  ar  
 17  11  29  1   
 18  12  14  ar  
 19  12  15  1   
 20  13  30  1   
 21  14  31  1   
 22  15  16  1   
 23  15  32  1   
 24  16  17  1   
 25  16  33  1   
 26  16  34  1   
 27  17  18  1   
 28  17  35  1   
 29  17  36  1   
 30  18  19  1   
 31  18  37  1   
 32  18  38  1   
 33  19  20  1   
 34  19  21  1   
 35  19  39  1   
 36  20  22  1   
 37  20  23  1   
 38  20  40  1   
 39  21  24  1   
 40  21  41  1   
 41  21  42  1   
 42  22  25  1   
 43  22  43  1   
 44  22  44  1   
 45  23  26  1   
 46  23  45  1   
 47  23  46  1   
 48  24  25  1   
 49  24  47  1   
 50  24  48  1   
 51  25  49  1   
 52  25  50  1   
 53  26  51  1   
@<TRIPOS>SUBSTRUCTURE
  1 ****  15 GROUP 4 **** **** 0

# MOE 2024.06 (io_trps.svl 2023.06)
