@<TRIPOS>MOLECULE
NONAME
51 53 1 0 0 
SMALL
USER_CHARGES


@<TRIPOS>ATOM
  1 CL      -3.8560    -4.9350    -3.5030 Cl    1 <1>  -0.1770 
  2 C       -3.9840    -3.8970    -2.1070 C.ar  1 <1>   0.1770 
  3 C       -3.8200    -4.4340    -0.8440 C.ar  1 <1>  -0.1500 
  4 C       -4.2490    -2.5530    -2.2840 C.ar  1 <1>  -0.1500 
  5 C       -3.9330    -3.6090     0.2620 C.ar  1 <1>  -0.1500 
  6 C       -4.3600    -1.7320    -1.1740 C.ar  1 <1>  -0.1500 
  7 C       -4.2100    -2.2580     0.1030 C.ar  1 <1>  -0.1430 
  8 C       -4.3520    -1.3600     1.3300 C.3   1 <1>   0.0440 
  9 C       -5.2790    -1.9300     2.4020 C.2   1 <1>   0.5690 
 10 O       -4.7660    -2.1880     3.4670 O.2   1 <1>  -0.5700 
 11 N       -6.6270    -2.1360     2.1860 N.am  1 <1>  -0.6600 
 12 C       -7.3040    -1.8240     0.8890 C.3   1 <1>   0.2200 
 13 C       -7.4580    -2.7200     3.2870 C.3   1 <1>   0.0600 
 14 C       -8.6510    -1.1150     1.0180 C.3   1 <1>  -0.1600 
 15 C       -7.6320    -3.0720     0.0790 C.3   1 <1>  -0.1600 
 16 C       -9.3270    -1.3410    -0.3430 C.3   1 <1>  -0.0800 
 17 C       -8.6720    -2.5960    -0.9460 C.3   1 <1>  -0.0800 
 18 C      -10.8300    -1.6350    -0.2520 C.3   1 <1>  -0.1600 
 19 C       -9.7980    -3.6060    -1.1980 C.3   1 <1>  -0.1600 
 20 C      -10.9250    -3.1610    -0.2710 C.3   1 <1>   0.4230 
 21 N      -12.2610    -3.7010    -0.6750 N.4   1 <1>  -0.9590 
 22 C      -12.7640    -3.2410    -2.0120 C.3   1 <1>   0.2630 
 23 C      -13.2840    -3.4220     0.3800 C.3   1 <1>   0.2630 
 24 H       -3.6080    -5.4820    -0.7310 H     1 <1>   0.1500 
 25 H       -4.3640    -2.1590    -3.2780 H     1 <1>   0.1500 
 26 H       -3.8060    -4.0240     1.2490 H     1 <1>   0.1500 
 27 H       -4.5620    -0.6840    -1.3140 H     1 <1>   0.1500 
 28 H       -4.7080    -0.3860     1.0540 H     1 <1>   0.0800 
 29 H       -3.3770    -1.2260     1.7620 H     1 <1>   0.0800 
 30 H       -6.6780    -1.1930     0.2860 H     1 <1>   0.0800 
 31 H       -8.1790    -3.4120     2.8950 H     1 <1>   0.0800 
 32 H       -7.9670    -1.9300     3.8110 H     1 <1>   0.0800 
 33 H       -6.8400    -3.2500     3.9910 H     1 <1>   0.0800 
 34 H       -9.2420    -1.5590     1.7970 H     1 <1>   0.0800 
 35 H       -8.5180    -0.0670     1.2240 H     1 <1>   0.0800 
 36 H       -6.7580    -3.4650    -0.4080 H     1 <1>   0.0800 
 37 H       -8.0470    -3.8280     0.7200 H     1 <1>   0.0800 
 38 H       -9.1440    -0.4890    -0.9780 H     1 <1>   0.0800 
 39 H       -8.1710    -2.3460    -1.8680 H     1 <1>   0.0800 
 40 H      -11.3010    -1.2070    -1.1170 H     1 <1>   0.0800 
 41 H      -11.2670    -1.2120     0.6360 H     1 <1>   0.0800 
 42 H       -9.4850    -4.6150    -0.9970 H     1 <1>   0.0800 
 43 H      -10.0870    -3.5240    -2.2290 H     1 <1>   0.0800 
 44 H      -10.6840    -3.5150     0.7190 H     1 <1>   0.0800 
 45 H      -12.1440    -4.7240    -0.7300 H     1 <1>   0.4500 
 46 H      -12.9280    -2.1760    -2.0090 H     1 <1>   0.0800 
 47 H      -13.6980    -3.7270    -2.2450 H     1 <1>   0.0800 
 48 H      -12.0570    -3.4800    -2.7890 H     1 <1>   0.0800 
 49 H      -13.4480    -2.3600     0.4710 H     1 <1>   0.0800 
 50 H      -12.9550    -3.8040     1.3330 H     1 <1>   0.0800 
 51 H      -14.2210    -3.8930     0.1270 H     1 <1>   0.0800 
@<TRIPOS>BOND
  1   1   2  1   
  2   2   3  ar  
  3   2   4  ar  
  4   3   5  ar  
  5   3  24  1   
  6   4   6  ar  
  7   4  25  1   
  8   5   7  ar  
  9   5  26  1   
 10   6   7  ar  
 11   6  27  1   
 12   7   8  1   
 13   8   9  1   
 14   8  28  1   
 15   8  29  1   
 16   9  10  2   
 17   9  11  am  
 18  11  12  1   
 19  11  13  1   
 20  12  14  1   
 21  12  15  1   
 22  12  30  1   
 23  13  31  1   
 24  13  32  1   
 25  13  33  1   
 26  14  16  1   
 27  14  34  1   
 28  14  35  1   
 29  15  17  1   
 30  15  36  1   
 31  15  37  1   
 32  16  17  1   
 33  16  18  1   
 34  16  38  1   
 35  17  19  1   
 36  17  39  1   
 37  18  20  1   
 38  18  40  1   
 39  18  41  1   
 40  19  20  1   
 41  19  42  1   
 42  19  43  1   
 43  20  21  1   
 44  20  44  1   
 45  21  22  1   
 46  21  23  1   
 47  21  45  1   
 48  22  46  1   
 49  22  47  1   
 50  22  48  1   
 51  23  49  1   
 52  23  50  1   
 53  23  51  1   
@<TRIPOS>SUBSTRUCTURE
  1 ****  15 GROUP 4 **** **** 0

# MOE 2024.06 (io_trps.svl 2023.06)
