@<TRIPOS>MOLECULE
NONAME
43 45 1 0 0 
SMALL
USER_CHARGES


@<TRIPOS>ATOM
  1 O        0.0420    -0.4900     0.3970 O.3   1 <1>  -0.3630 
  2 C        0.0310    -1.8360     0.4750 C.ar  1 <1>   0.3920 
  3 C        0.8890     0.2270    -0.4730 C.3   1 <1>   0.0400 
  4 N       -0.7470    -2.3160     1.4330 N.ar  1 <1>  -0.6200 
  5 C        0.7770    -2.6430    -0.3830 C.ar  1 <1>  -0.1500 
  6 C       -0.7860    -3.6270     1.5520 C.ar  1 <1>   0.1600 
  7 C        0.7160    -4.0130    -0.2560 C.ar  1 <1>  -0.1500 
  8 C       -0.1000    -4.5170     0.7410 C.ar  1 <1>  -0.1440 
  9 C       -0.2590    -6.0070     0.9520 C.3   1 <1>   0.4870 
 10 N       -1.1370    -6.5490    -0.1230 N.4   1 <1>  -0.9590 
 11 C       -2.5200    -5.9680    -0.1170 C.3   1 <1>   0.3430 
 12 C       -1.2650    -8.0400    -0.0840 C.3   1 <1>   0.3430 
 13 C       -3.4380    -7.1080    -0.5520 C.3   1 <1>   0.2000 
 14 C       -2.7620    -8.3700    -0.0340 C.3   1 <1>  -0.0800 
 15 O       -4.7120    -6.9870    -0.0210 O.3   1 <1>  -0.6800 
 16 C       -3.1470    -9.6260    -0.8410 C.3   1 <1>  -0.0170 
 17 C       -2.5060   -10.8930    -0.2880 C.ar  1 <1>   0.1670 
 18 N       -1.1820   -10.9390    -0.3000 N.ar  1 <1>  -0.6200 
 19 C       -3.3090   -11.9290     0.1890 C.ar  1 <1>   0.1600 
 20 C       -0.7220   -12.0870     0.1770 C.ar  1 <1>   0.1600 
 21 N       -2.8470   -13.0650     0.6800 N.ar  1 <1>  -0.6200 
 22 C       -1.5280   -13.1140     0.6530 C.ar  1 <1>   0.1600 
 23 H        0.7290     1.2760    -0.3010 H     1 <1>   0.0800 
 24 H        0.6370    -0.0160    -1.4900 H     1 <1>   0.0800 
 25 H        1.9120    -0.0250    -0.2550 H     1 <1>   0.0800 
 26 H        1.3990    -2.2120    -1.1430 H     1 <1>   0.1500 
 27 H       -1.4110    -4.0000     2.3460 H     1 <1>   0.1500 
 28 H        1.2920    -4.6460    -0.9110 H     1 <1>   0.1500 
 29 H       -0.6910    -6.2000     1.9200 H     1 <1>   0.0800 
 30 H        0.7100    -6.4780     0.9110 H     1 <1>   0.0800 
 31 H       -0.7010    -6.2900    -1.0180 H     1 <1>   0.4500 
 32 H       -2.7860    -5.6620     0.8810 H     1 <1>   0.0800 
 33 H       -2.5960    -5.1250    -0.7860 H     1 <1>   0.0800 
 34 H       -0.8320    -8.4670    -0.9750 H     1 <1>   0.0800 
 35 H       -0.7630    -8.4660     0.7710 H     1 <1>   0.0800 
 36 H       -3.5240    -7.1140    -1.6270 H     1 <1>   0.0800 
 37 H       -3.0210    -8.5230     1.0000 H     1 <1>   0.0800 
 38 H       -4.7470    -7.1410     0.9440 H     1 <1>   0.4000 
 39 H       -2.8460    -9.5140    -1.8680 H     1 <1>   0.0800 
 40 H       -4.2190    -9.7320    -0.8330 H     1 <1>   0.0800 
 41 H       -4.3790   -11.8190     0.1640 H     1 <1>   0.1500 
 42 H        0.3450   -12.2270     0.1950 H     1 <1>   0.1500 
 43 H       -1.0620   -14.0110     1.0240 H     1 <1>   0.1500 
@<TRIPOS>BOND
  1   1   2  1   
  2   1   3  1   
  3   2   4  ar  
  4   2   5  ar  
  5   3  23  1   
  6   3  24  1   
  7   3  25  1   
  8   4   6  ar  
  9   5   7  ar  
 10   5  26  1   
 11   6   8  ar  
 12   6  27  1   
 13   7   8  ar  
 14   7  28  1   
 15   8   9  1   
 16   9  10  1   
 17   9  29  1   
 18   9  30  1   
 19  10  11  1   
 20  10  12  1   
 21  10  31  1   
 22  11  13  1   
 23  11  32  1   
 24  11  33  1   
 25  12  14  1   
 26  12  34  1   
 27  12  35  1   
 28  13  14  1   
 29  13  15  1   
 30  13  36  1   
 31  14  16  1   
 32  14  37  1   
 33  15  38  1   
 34  16  17  1   
 35  16  39  1   
 36  16  40  1   
 37  17  18  ar  
 38  17  19  ar  
 39  18  20  ar  
 40  19  21  ar  
 41  19  41  1   
 42  20  22  ar  
 43  20  42  1   
 44  21  22  ar  
 45  22  43  1   
@<TRIPOS>SUBSTRUCTURE
  1 ****  10 GROUP 4 **** **** 0

# MOE 2024.06 (io_trps.svl 2023.06)
