@<TRIPOS>MOLECULE
NONAME
17 17 1 0 0 
SMALL
USER_CHARGES


@<TRIPOS>ATOM
  1 CL       1.3170     0.2300     2.1720 Cl    1 <1>  -0.1770 
  2 C        2.2340     1.0170     0.9260 C.ar  1 <1>   0.7970 
  3 N        3.0020     0.2490     0.2120 N.ar  1 <1>  -0.6200 
  4 N        2.0630     2.3120     0.8270 N.ar  1 <1>  -0.6200 
  5 C        3.6510     0.9140    -0.6980 C.ar  1 <1>   0.7200 
  6 C        2.7830     2.8450    -0.1260 C.ar  1 <1>   0.4770 
  7 N        4.4640     0.2120    -1.4830 N.pl3 1 <1>  -0.9000 
  8 N        3.5920     2.2000    -0.9190 N.ar  1 <1>  -0.6200 
  9 C        2.6650     4.3480    -0.3210 C.3   1 <1>  -0.0170 
 10 C        3.6460     5.1250     0.5690 C.3   1 <1>  -0.2400 
 11 H        5.0720     0.6940    -2.1410 H     1 <1>   0.4000 
 12 H        4.6300    -0.7730    -1.2930 H     1 <1>   0.4000 
 13 H        1.6590     4.6530    -0.0970 H     1 <1>   0.0800 
 14 H        2.8560     4.5840    -1.3530 H     1 <1>   0.0800 
 15 H        3.4520     4.9130     1.6060 H     1 <1>   0.0800 
 16 H        3.5380     6.1820     0.4050 H     1 <1>   0.0800 
 17 H        4.6580     4.8400     0.3420 H     1 <1>   0.0800 
@<TRIPOS>BOND
  1   1   2  1   
  2   2   3  ar  
  3   2   4  ar  
  4   3   5  ar  
  5   4   6  ar  
  6   5   7  1   
  7   5   8  ar  
  8   6   8  ar  
  9   6   9  1   
 10   7  11  1   
 11   7  12  1   
 12   9  10  1   
 13   9  13  1   
 14   9  14  1   
 15  10  15  1   
 16  10  16  1   
 17  10  17  1   
@<TRIPOS>SUBSTRUCTURE
  1 ****   6 GROUP 4 **** **** 0

# MOE 2024.06 (io_trps.svl 2023.06)
