@<TRIPOS>MOLECULE
NONAME
43 45 1 0 0 
SMALL
USER_CHARGES


@<TRIPOS>ATOM
  1 O        0.3450    -0.5450     1.7840 O.2   1 <1>  -0.5700 
  2 C        1.2600    -0.9080     1.0800 C.2   1 <1>   0.5690 
  3 N        2.3790    -0.1390     0.8630 N.am  1 <1>  -0.4940 
  4 C        1.1870    -2.2840     0.3850 C.3   1 <1>   0.2810 
  5 C        2.6610     1.1760     1.3180 C.2   1 <1>  -0.0880 
  6 N        0.0770    -2.4730    -0.6020 N.am  1 <1>  -0.6600 
  7 C        1.0110    -3.4390     1.3780 C.3   1 <1>  -0.1600 
  8 N        3.7810     1.8910     1.0110 N.pl3 1 <1>   0.3140 
  9 C        1.9100     1.9750     2.1120 C.2   1 <1>  -0.1500 
 10 C       -0.3080    -1.6400    -1.6160 C.2   1 <1>   0.5690 
 11 C       -0.6300    -3.7490    -0.3530 C.3   1 <1>   0.1400 
 12 C        0.2770    -4.5230     0.5940 C.3   1 <1>  -0.1600 
 13 N        3.7510     3.1190     1.5870 N.2   1 <1>  -0.7070 
 14 C        4.9070     1.4210     0.1480 C.3   1 <1>   0.1760 
 15 C        2.6310     3.1530     2.2400 C.2   1 <1>   0.1390 
 16 O       -1.2150    -1.9270    -2.3580 O.2   1 <1>  -0.5700 
 17 C        0.4050    -0.3330    -1.8710 C.3   1 <1>  -0.1790 
 18 C        6.1880     2.2550     0.2360 C.3   1 <1>  -0.1600 
 19 C        4.5540     1.4590    -1.3410 C.3   1 <1>  -0.1600 
 20 C        6.9570     1.8950    -1.0350 C.3   1 <1>  -0.1600 
 21 C        5.8940     1.5450    -2.0830 C.3   1 <1>  -0.1600 
 22 H        3.0890    -0.5580     0.2660 H     1 <1>   0.3700 
 23 H        2.1070    -2.4480    -0.1460 H     1 <1>   0.0800 
 24 H        0.3930    -3.1180     2.2000 H     1 <1>   0.0800 
 25 H        1.9520    -3.7810     1.7690 H     1 <1>   0.0800 
 26 H        0.9540     1.7700     2.5590 H     1 <1>   0.1500 
 27 H       -0.8000    -4.2840    -1.2730 H     1 <1>   0.0800 
 28 H       -1.5760    -3.5350     0.1170 H     1 <1>   0.0800 
 29 H       -0.2850    -5.1830     1.2320 H     1 <1>   0.0800 
 30 H        0.9750    -5.1030     0.0170 H     1 <1>   0.0800 
 31 H        5.1470     0.4130     0.4300 H     1 <1>   0.0800 
 32 H        2.3060     4.0040     2.8140 H     1 <1>   0.1500 
 33 H        1.4650    -0.4840    -1.9060 H     1 <1>   0.0800 
 34 H        0.1530     0.3730    -1.1020 H     1 <1>   0.0800 
 35 H        0.0860     0.0690    -2.8160 H     1 <1>   0.0800 
 36 H        6.7510     2.0370     1.1260 H     1 <1>   0.0800 
 37 H        5.9500     3.3050     0.2080 H     1 <1>   0.0800 
 38 H        3.9850     2.3500    -1.5470 H     1 <1>   0.0800 
 39 H        3.9900     0.5960    -1.6450 H     1 <1>   0.0800 
 40 H        7.5770     1.0340    -0.8490 H     1 <1>   0.0800 
 41 H        7.5830     2.7100    -1.3570 H     1 <1>   0.0800 
 42 H        5.8470     2.3060    -2.8440 H     1 <1>   0.0800 
 43 H        6.1350     0.6050    -2.5520 H     1 <1>   0.0800 
@<TRIPOS>BOND
  1   1   2  2   
  2   2   3  am  
  3   2   4  1   
  4   3   5  1   
  5   3  22  1   
  6   4   6  1   
  7   4   7  1   
  8   4  23  1   
  9   5   8  1   
 10   5   9  2   
 11   6  10  am  
 12   6  11  1   
 13   7  12  1   
 14   7  24  1   
 15   7  25  1   
 16   8  13  1   
 17   8  14  1   
 18   9  15  1   
 19   9  26  1   
 20  10  16  2   
 21  10  17  1   
 22  11  12  1   
 23  11  27  1   
 24  11  28  1   
 25  12  29  1   
 26  12  30  1   
 27  13  15  2   
 28  14  18  1   
 29  14  19  1   
 30  14  31  1   
 31  15  32  1   
 32  17  33  1   
 33  17  34  1   
 34  17  35  1   
 35  18  20  1   
 36  18  36  1   
 37  18  37  1   
 38  19  21  1   
 39  19  38  1   
 40  19  39  1   
 41  20  21  1   
 42  20  40  1   
 43  20  41  1   
 44  21  42  1   
 45  21  43  1   
@<TRIPOS>SUBSTRUCTURE
  1 ****   3 GROUP 4 **** **** 0

# MOE 2024.06 (io_trps.svl 2023.06)
