@<TRIPOS>MOLECULE
NONAME
37 39 1 0 0 
SMALL
USER_CHARGES


@<TRIPOS>ATOM
  1 S        0.3080     0.6320     0.1860 S.3   1 <1>  -0.4600 
  2 C        1.6050     0.8630     1.4520 C.3   1 <1>   0.1310 
  3 C       -0.0880    -1.1310     0.3110 C.3   1 <1>   0.1650 
  4 C        1.9650     2.3320     1.6380 C.2   1 <1>   0.5690 
  5 C       -1.1660    -1.4420    -0.7260 C.3   1 <1>  -0.1950 
  6 O        1.9760     2.7770     2.7630 O.2   1 <1>  -0.5700 
  7 N        2.2890     3.1050     0.5670 N.am  1 <1>  -0.5100 
  8 C       -2.6110    -1.1910    -0.4330 C.3   1 <1>  -0.2000 
  9 C       -2.0970    -2.5990    -0.5410 C.3   1 <1>  -0.2000 
 10 C        2.9870     4.4290     0.5340 C.3   1 <1>   0.3330 
 11 C        2.7810     2.7680    -0.8030 C.3   1 <1>   0.2250 
 12 C        2.0830     5.5890     0.1060 C.ar  1 <1>  -0.1080 
 13 C        3.8740     3.8400    -0.5950 C.3   1 <1>   0.0000 
 14 C        0.7010     5.5350     0.2790 C.ar  1 <1>  -0.1500 
 15 C        2.6550     6.7280    -0.4520 C.ar  1 <1>  -0.1500 
 16 C       -0.1010     6.5950    -0.1120 C.ar  1 <1>  -0.1500 
 17 C        1.8640     7.7950    -0.8470 C.ar  1 <1>  -0.1500 
 18 C        0.4980     7.7060    -0.6700 C.ar  1 <1>   0.1900 
 19 F       -0.2520     8.7080    -1.0420 F     1 <1>  -0.1900 
 20 H        2.4660     0.3040     1.1380 H     1 <1>   0.0800 
 21 H        1.2230     0.4620     2.3730 H     1 <1>   0.0800 
 22 H       -0.4340    -1.3160     1.3130 H     1 <1>   0.0800 
 23 H        0.8140    -1.6850     0.1170 H     1 <1>   0.0800 
 24 H       -0.8300    -1.2400    -1.7290 H     1 <1>   0.1000 
 25 H       -3.2310    -0.7980    -1.2200 H     1 <1>   0.1000 
 26 H       -2.8840    -0.8060     0.5350 H     1 <1>   0.1000 
 27 H       -2.0390    -3.1900     0.3570 H     1 <1>   0.1000 
 28 H       -2.3730    -3.1830    -1.4020 H     1 <1>   0.1000 
 29 H        3.5310     4.6150     1.4430 H     1 <1>   0.0000 
 30 H        2.0530     3.0260    -1.5520 H     1 <1>   0.0000 
 31 H        3.1590     1.7640    -0.8700 H     1 <1>   0.0000 
 32 H        4.7960     3.4250    -0.2260 H     1 <1>   0.0000 
 33 H        4.0160     4.4800    -1.4480 H     1 <1>   0.0000 
 34 H        0.2400     4.6690     0.7230 H     1 <1>   0.1500 
 35 H        3.7220     6.7910    -0.5800 H     1 <1>   0.1500 
 36 H       -1.1670     6.5600     0.0150 H     1 <1>   0.1500 
 37 H        2.2950     8.6790    -1.2820 H     1 <1>   0.1500 
@<TRIPOS>BOND
  1   1   2  1   
  2   1   3  1   
  3   2   4  1   
  4   2  20  1   
  5   2  21  1   
  6   3   5  1   
  7   3  22  1   
  8   3  23  1   
  9   4   6  2   
 10   4   7  am  
 11   5   8  1   
 12   5   9  1   
 13   5  24  1   
 14   7  10  1   
 15   7  11  1   
 16   8   9  1   
 17   8  25  1   
 18   8  26  1   
 19   9  27  1   
 20   9  28  1   
 21  10  12  1   
 22  10  13  1   
 23  10  29  1   
 24  11  13  1   
 25  11  30  1   
 26  11  31  1   
 27  12  14  ar  
 28  12  15  ar  
 29  13  32  1   
 30  13  33  1   
 31  14  16  ar  
 32  14  34  1   
 33  15  17  ar  
 34  15  35  1   
 35  16  18  ar  
 36  16  36  1   
 37  17  18  ar  
 38  17  37  1   
 39  18  19  1   
@<TRIPOS>SUBSTRUCTURE
  1 ****   7 GROUP 4 **** **** 0

# MOE 2024.06 (io_trps.svl 2023.06)
