@<TRIPOS>MOLECULE
NONAME
56 59 1 0 0 
SMALL
USER_CHARGES


@<TRIPOS>ATOM
  1 F        2.5150    -4.6130     1.6770 F     1 <1>  -0.3400 
  2 C        2.0940    -3.4850     1.1190 C.3   1 <1>   1.1640 
  3 F        1.8730    -2.6300     2.1060 F     1 <1>  -0.3400 
  4 F        3.1260    -3.0130     0.4280 F     1 <1>  -0.3400 
  5 C        0.8490    -3.7360     0.2520 C.ar  1 <1>  -0.1440 
  6 C       -0.3150    -4.2220     0.8420 C.ar  1 <1>  -0.1500 
  7 C        0.8490    -3.5040    -1.1200 C.ar  1 <1>  -0.1500 
  8 C       -1.4440    -4.4950     0.0840 C.ar  1 <1>  -0.1440 
  9 C       -0.2780    -3.7620    -1.8800 C.ar  1 <1>  -0.1500 
 10 C       -1.4200    -4.2580    -1.2810 C.ar  1 <1>  -0.1500 
 11 C       -2.6920    -5.0520     0.7570 C.3   1 <1>   0.2840 
 12 N       -2.4340    -6.4460     1.2350 N.am  1 <1>  -0.6600 
 13 C       -2.4040    -6.7040     2.5840 C.2   1 <1>   0.5690 
 14 C       -2.2540    -7.4610     0.1470 C.3   1 <1>   0.1400 
 15 O       -2.4200    -5.8000     3.3830 O.2   1 <1>  -0.5700 
 16 C       -2.3260    -8.0990     3.1780 C.3   1 <1>  -0.0990 
 17 C       -1.1660    -8.5440     0.4200 C.3   1 <1>   0.2800 
 18 C       -2.6310    -9.2630     2.2380 C.3   1 <1>   0.1200 
 19 O       -1.5760    -9.5030     1.3490 O.3   1 <1>  -0.5600 
 20 C       -0.8740    -9.3450    -0.8590 C.3   1 <1>  -0.1600 
 21 C        0.1690    -7.9750     0.9280 C.3   1 <1>  -0.1600 
 22 C       -0.1510    -8.5220    -1.9270 C.3   1 <1>   0.3430 
 23 C        0.8230    -7.0950    -0.1230 C.3   1 <1>   0.3430 
 24 N        1.0650    -7.8800    -1.3620 N.4   1 <1>  -0.9590 
 25 C        1.8060    -7.0550    -2.3580 C.3   1 <1>   0.5240 
 26 C        3.1840    -6.7560    -1.7820 C.2   1 <1>   0.0460 
 27 N        3.8720    -7.7310    -1.1520 N.2   1 <1>  -0.5650 
 28 C        3.8730    -5.5930    -1.7640 C.2   1 <1>  -0.3020 
 29 C        4.9610    -7.1450    -0.7700 C.2   1 <1>   0.0360 
 30 N        5.0250    -5.8400    -1.1120 N.pl3 1 <1>   0.0330 
 31 H       -0.3500    -4.3970     1.9080 H     1 <1>   0.1500 
 32 H        1.7230    -3.1060    -1.6110 H     1 <1>   0.1500 
 33 H       -0.2710    -3.5600    -2.9390 H     1 <1>   0.1500 
 34 H       -2.2950    -4.4450    -1.8820 H     1 <1>   0.1500 
 35 H       -3.5190    -5.0610     0.0680 H     1 <1>   0.0800 
 36 H       -2.9700    -4.4060     1.5740 H     1 <1>   0.0800 
 37 H       -1.9810    -6.9350    -0.7480 H     1 <1>   0.0800 
 38 H       -3.1980    -7.9320    -0.0630 H     1 <1>   0.0800 
 39 H       -3.0450    -8.1330     3.9760 H     1 <1>   0.0800 
 40 H       -1.3610    -8.2410     3.6260 H     1 <1>   0.0800 
 41 H       -3.5470    -9.1130     1.6940 H     1 <1>   0.0800 
 42 H       -2.7450   -10.1610     2.8220 H     1 <1>   0.0800 
 43 H       -1.7960    -9.7180    -1.2680 H     1 <1>   0.0800 
 44 H       -0.2620   -10.1960    -0.6150 H     1 <1>   0.0800 
 45 H        0.8390    -8.7780     1.1800 H     1 <1>   0.0800 
 46 H        0.0310    -7.3850     1.8120 H     1 <1>   0.0800 
 47 H       -0.8160    -7.7620    -2.3040 H     1 <1>   0.0800 
 48 H        0.1230    -9.1650    -2.7490 H     1 <1>   0.0800 
 49 H        1.7560    -6.7160     0.2640 H     1 <1>   0.0800 
 50 H        0.1830    -6.2610    -0.3470 H     1 <1>   0.0800 
 51 H        1.7640    -8.5980    -1.0990 H     1 <1>   0.4500 
 52 H        1.2800    -6.1390    -2.5660 H     1 <1>   0.0800 
 53 H        1.9300    -7.6090    -3.2730 H     1 <1>   0.0800 
 54 H        3.6300    -4.6230    -2.1640 H     1 <1>   0.1500 
 55 H        5.7570    -7.6310    -0.2310 H     1 <1>   0.1500 
 56 H        5.7920    -5.1880    -0.9110 H     1 <1>   0.2700 
@<TRIPOS>BOND
  1   1   2  1   
  2   2   3  1   
  3   2   4  1   
  4   2   5  1   
  5   5   6  ar  
  6   5   7  ar  
  7   6   8  ar  
  8   6  31  1   
  9   7   9  ar  
 10   7  32  1   
 11   8  10  ar  
 12   8  11  1   
 13   9  10  ar  
 14   9  33  1   
 15  10  34  1   
 16  11  12  1   
 17  11  35  1   
 18  11  36  1   
 19  12  13  am  
 20  12  14  1   
 21  13  15  2   
 22  13  16  1   
 23  14  17  1   
 24  14  37  1   
 25  14  38  1   
 26  16  18  1   
 27  16  39  1   
 28  16  40  1   
 29  17  19  1   
 30  17  20  1   
 31  17  21  1   
 32  18  19  1   
 33  18  41  1   
 34  18  42  1   
 35  20  22  1   
 36  20  43  1   
 37  20  44  1   
 38  21  23  1   
 39  21  45  1   
 40  21  46  1   
 41  22  24  1   
 42  22  47  1   
 43  22  48  1   
 44  23  24  1   
 45  23  49  1   
 46  23  50  1   
 47  24  25  1   
 48  24  51  1   
 49  25  26  1   
 50  25  52  1   
 51  25  53  1   
 52  26  27  1   
 53  26  28  2   
 54  27  29  2   
 55  28  30  1   
 56  28  54  1   
 57  29  30  1   
 58  29  55  1   
 59  30  56  1   
@<TRIPOS>SUBSTRUCTURE
  1 ****  23 GROUP 4 **** **** 0

# MOE 2024.06 (io_trps.svl 2023.06)
