@<TRIPOS>MOLECULE
NONAME
52 55 1 0 0 
SMALL
USER_CHARGES


@<TRIPOS>ATOM
  1 O        1.9480     2.6360    -0.7870 O.2   1 <1>  -0.5700 
  2 C        0.8100     2.5470    -0.3740 C.2   1 <1>   0.7800 
  3 O        0.3180     1.4300     0.1320 O.3   1 <1>  -0.4300 
  4 N       -0.0760     3.5630    -0.3210 N.am  1 <1>  -0.6600 
  5 C       -1.0200     1.6190     0.5610 C.3   1 <1>   0.1200 
  6 C       -1.3470     3.0840     0.2320 C.3   1 <1>   0.1400 
  7 C        0.0290     4.8260    -1.1120 C.3   1 <1>   0.2010 
  8 C        0.2860     6.1220    -0.3250 C.2   1 <1>   0.5690 
  9 O       -0.4820     7.0300    -0.5380 O.2   1 <1>  -0.5700 
 10 N        1.3810     6.3160     0.4950 N.am  1 <1>  -0.6600 
 11 C        2.3150     5.2600     0.9870 C.3   1 <1>   0.1400 
 12 C        1.7700     7.6860     0.9200 C.3   1 <1>   0.1400 
 13 C        3.5060     5.0500     0.0350 C.3   1 <1>   0.3430 
 14 C        2.7530     8.3000    -0.0880 C.3   1 <1>  -0.1600 
 15 N        4.2830     6.3120    -0.2330 N.4   1 <1>  -0.9590 
 16 C        3.4930     7.3210    -1.0070 C.3   1 <1>   0.3430 
 17 C        5.5590     5.9880    -0.9250 C.3   1 <1>   0.4860 
 18 C        6.4560     7.2090    -0.8680 C.ar  1 <1>  -0.1440 
 19 C        7.0630     7.5710     0.3320 C.ar  1 <1>  -0.1500 
 20 C        6.6690     7.9720    -2.0150 C.ar  1 <1>  -0.1500 
 21 C        7.8610     8.6990     0.3630 C.ar  1 <1>  -0.1440 
 22 C        7.4710     9.1010    -1.9700 C.ar  1 <1>  -0.1500 
 23 C        8.0540     9.4460    -0.7680 C.ar  1 <1>   0.0820 
 24 C        8.6360     9.3260     1.4850 C.3   1 <1>  -0.0170 
 25 O        8.8520    10.5050    -0.5680 O.3   1 <1>  -0.3620 
 26 C        9.2960    10.5270     0.7820 C.3   1 <1>   0.1200 
 27 H       -1.0760     1.4260     1.6170 H     1 <1>   0.0800 
 28 H       -1.6560     0.9380     0.0240 H     1 <1>   0.0800 
 29 H       -2.1360     3.1490    -0.4970 H     1 <1>   0.0800 
 30 H       -1.6150     3.6360     1.1170 H     1 <1>   0.0800 
 31 H       -0.8820     4.9530    -1.6700 H     1 <1>   0.0800 
 32 H        0.8200     4.7210    -1.8310 H     1 <1>   0.0800 
 33 H        1.7910     4.3380     1.1340 H     1 <1>   0.0800 
 34 H        2.6890     5.5330     1.9570 H     1 <1>   0.0800 
 35 H        2.2200     7.6490     1.8980 H     1 <1>   0.0800 
 36 H        0.8970     8.3130     1.0040 H     1 <1>   0.0800 
 37 H        3.1390     4.6440    -0.8940 H     1 <1>   0.0800 
 38 H        4.1550     4.3090     0.4720 H     1 <1>   0.0800 
 39 H        3.4590     8.9230     0.4300 H     1 <1>   0.0800 
 40 H        2.1850     8.9580    -0.7220 H     1 <1>   0.0800 
 41 H        4.5430     6.7550     0.6540 H     1 <1>   0.4500 
 42 H        4.1500     7.8950    -1.6400 H     1 <1>   0.0800 
 43 H        2.7830     6.8180    -1.6430 H     1 <1>   0.0800 
 44 H        5.3720     5.7080    -1.9490 H     1 <1>   0.0800 
 45 H        6.0530     5.1670    -0.4310 H     1 <1>   0.0800 
 46 H        6.9330     6.9930     1.2310 H     1 <1>   0.1500 
 47 H        6.2200     7.6980    -2.9550 H     1 <1>   0.1500 
 48 H        7.6510     9.7060    -2.8410 H     1 <1>   0.1500 
 49 H        9.3790     8.6550     1.8750 H     1 <1>   0.0800 
 50 H        7.9870     9.6570     2.2760 H     1 <1>   0.0800 
 51 H       10.3690    10.4440     0.7810 H     1 <1>   0.0800 
 52 H        8.9950    11.4620     1.2200 H     1 <1>   0.0800 
@<TRIPOS>BOND
  1   1   2  2   
  2   2   3  1   
  3   2   4  am  
  4   3   5  1   
  5   4   6  1   
  6   4   7  1   
  7   5   6  1   
  8   5  27  1   
  9   5  28  1   
 10   6  29  1   
 11   6  30  1   
 12   7   8  1   
 13   7  31  1   
 14   7  32  1   
 15   8   9  2   
 16   8  10  am  
 17  10  11  1   
 18  10  12  1   
 19  11  13  1   
 20  11  33  1   
 21  11  34  1   
 22  12  14  1   
 23  12  35  1   
 24  12  36  1   
 25  13  15  1   
 26  13  37  1   
 27  13  38  1   
 28  14  16  1   
 29  14  39  1   
 30  14  40  1   
 31  15  16  1   
 32  15  17  1   
 33  15  41  1   
 34  16  42  1   
 35  16  43  1   
 36  17  18  1   
 37  17  44  1   
 38  17  45  1   
 39  18  19  ar  
 40  18  20  ar  
 41  19  21  ar  
 42  19  46  1   
 43  20  22  ar  
 44  20  47  1   
 45  21  23  ar  
 46  21  24  1   
 47  22  23  ar  
 48  22  48  1   
 49  23  25  1   
 50  24  26  1   
 51  24  49  1   
 52  24  50  1   
 53  25  26  1   
 54  26  51  1   
 55  26  52  1   
@<TRIPOS>SUBSTRUCTURE
  1 ****  15 GROUP 4 **** **** 0

# MOE 2024.06 (io_trps.svl 2023.06)
