@<TRIPOS>MOLECULE
NONAME
45 48 1 0 0 
SMALL
USER_CHARGES


@<TRIPOS>ATOM
  1 O       -0.9410    -0.8620    -2.5410 O.co2 1 <1>  -0.9000 
  2 C       -0.6860    -0.8980    -1.3320 C.2   1 <1>   0.9060 
  3 O       -0.0210    -0.0480    -0.7410 O.co2 1 <1>  -0.9000 
  4 C       -1.3870    -1.9880    -0.5190 C.3   1 <1>   0.2370 
  5 N       -2.7760    -2.3160    -1.0510 N.4   1 <1>  -0.9590 
  6 C       -3.6490    -1.0890    -1.0550 C.3   1 <1>   0.3430 
  7 C       -3.3880    -3.5130    -0.4080 C.3   1 <1>   0.3430 
  8 C       -4.0900    -0.6300     0.3550 C.3   1 <1>   0.1440 
  9 C       -4.4370    -3.1420     0.6550 C.3   1 <1>  -0.1600 
 10 C       -5.4420     0.0270     0.1610 C.ar  1 <1>   0.1670 
 11 C       -4.1410    -1.8070     1.3610 C.3   1 <1>  -0.1600 
 12 C       -3.2370     0.5470     0.9000 C.3   1 <1>  -0.1600 
 13 N       -6.5600    -0.6100    -0.0870 N.ar  1 <1>  -0.6200 
 14 C       -5.3640     1.3820     0.2430 C.ar  1 <1>  -0.1440 
 15 C       -3.9560     1.8490     0.5080 C.3   1 <1>  -0.0170 
 16 C       -7.6480     0.1580    -0.2400 C.ar  1 <1>   0.6200 
 17 C       -6.5190     2.1000     0.0690 C.ar  1 <1>   0.1600 
 18 N       -7.6610     1.4970    -0.1720 N.ar  1 <1>  -0.6200 
 19 C       -8.9100    -0.5160    -0.5060 C.ar  1 <1>   0.0000 
 20 C       -9.8990     0.0690    -1.3010 C.ar  1 <1>  -0.1500 
 21 C       -9.1890    -1.7810     0.0210 C.ar  1 <1>  -0.1500 
 22 C      -11.0980    -0.5710    -1.5590 C.ar  1 <1>  -0.1500 
 23 C      -10.3850    -2.4270    -0.2330 C.ar  1 <1>  -0.1500 
 24 C      -11.3440    -1.8230    -1.0250 C.ar  1 <1>  -0.1500 
 25 H       -1.4430    -1.6510     0.4990 H     1 <1>   0.0800 
 26 H       -0.7630    -2.8620    -0.5570 H     1 <1>   0.0800 
 27 H       -2.5790    -2.4900    -2.0550 H     1 <1>   0.4500 
 28 H       -4.5390    -1.3140    -1.6190 H     1 <1>   0.0800 
 29 H       -3.1490    -0.2780    -1.5600 H     1 <1>   0.0800 
 30 H       -2.6100    -4.1010     0.0500 H     1 <1>   0.0800 
 31 H       -3.8610    -4.1250    -1.1590 H     1 <1>   0.0800 
 32 H       -4.4910    -3.9350     1.3810 H     1 <1>   0.0800 
 33 H       -5.4020    -3.0880     0.1820 H     1 <1>   0.0800 
 34 H       -4.8910    -1.6120     2.1100 H     1 <1>   0.0800 
 35 H       -3.1950    -1.8940     1.8670 H     1 <1>   0.0800 
 36 H       -2.2250     0.5430     0.5380 H     1 <1>   0.0800 
 37 H       -3.2060     0.5010     1.9750 H     1 <1>   0.0800 
 38 H       -3.5300     2.2620    -0.3900 H     1 <1>   0.0800 
 39 H       -3.9150     2.5770     1.3000 H     1 <1>   0.0800 
 40 H       -6.5090     3.1750     0.1260 H     1 <1>   0.1500 
 41 H       -9.7260     1.0440    -1.7230 H     1 <1>   0.1500 
 42 H       -8.4560    -2.2640     0.6430 H     1 <1>   0.1500 
 43 H      -11.8410    -0.0950    -2.1750 H     1 <1>   0.1500 
 44 H      -10.5720    -3.4000     0.1870 H     1 <1>   0.1500 
 45 H      -12.2760    -2.3230    -1.2240 H     1 <1>   0.1500 
@<TRIPOS>BOND
  1   1   2  ar  
  2   2   3  ar  
  3   2   4  1   
  4   4   5  1   
  5   4  25  1   
  6   4  26  1   
  7   5   6  1   
  8   5   7  1   
  9   5  27  1   
 10   6   8  1   
 11   6  28  1   
 12   6  29  1   
 13   7   9  1   
 14   7  30  1   
 15   7  31  1   
 16   8  10  1   
 17   8  11  1   
 18   8  12  1   
 19   9  11  1   
 20   9  32  1   
 21   9  33  1   
 22  10  13  ar  
 23  10  14  ar  
 24  11  34  1   
 25  11  35  1   
 26  12  15  1   
 27  12  36  1   
 28  12  37  1   
 29  13  16  ar  
 30  14  15  1   
 31  14  17  ar  
 32  15  38  1   
 33  15  39  1   
 34  16  18  ar  
 35  16  19  1   
 36  17  18  ar  
 37  17  40  1   
 38  19  20  ar  
 39  19  21  ar  
 40  20  22  ar  
 41  20  41  1   
 42  21  23  ar  
 43  21  42  1   
 44  22  24  ar  
 45  22  43  1   
 46  23  24  ar  
 47  23  44  1   
 48  24  45  1   
@<TRIPOS>SUBSTRUCTURE
  1 ****  10 GROUP 4 **** **** 0

# MOE 2024.06 (io_trps.svl 2023.06)
