@<TRIPOS>MOLECULE
NONAME
50 52 1 0 0 
SMALL
USER_CHARGES


@<TRIPOS>ATOM
  1 F       -0.8630     0.8860    -2.3690 F     1 <1>  -0.3400 
  2 C       -0.5840     0.7870    -1.0720 C.3   1 <1>   1.1640 
  3 F       -1.3410    -0.2100    -0.6170 F     1 <1>  -0.3400 
  4 F        0.6700     0.3480    -0.9940 F     1 <1>  -0.3400 
  5 C       -0.8100     2.1170    -0.3060 C.ar  1 <1>   0.1660 
  6 N       -0.0460     3.1660    -0.5720 N.ar  1 <1>  -0.6200 
  7 C       -1.8040     2.2160     0.6490 C.ar  1 <1>  -0.1500 
  8 C       -0.2710     4.2850     0.1100 C.ar  1 <1>   0.7200 
  9 C       -1.9640     3.4140     1.3020 C.ar  1 <1>   0.1660 
 10 N       -1.2060     4.4440     1.0410 N.ar  1 <1>  -0.6200 
 11 N        0.5330     5.3670    -0.1710 N.pl3 1 <1>  -0.8380 
 12 C       -3.0320     3.5990     2.3600 C.3   1 <1>  -0.0970 
 13 C        0.7080     6.5120     0.7850 C.3   1 <1>   0.2090 
 14 C        1.5720     5.3640    -1.2560 C.3   1 <1>   0.2090 
 15 C        2.1430     6.5590     1.3490 C.3   1 <1>   0.2090 
 16 C        2.9950     5.4080    -0.6680 C.3   1 <1>   0.2090 
 17 N        3.1630     6.5680     0.2600 N.pl3 1 <1>  -0.8380 
 18 C        4.4420     6.9330     0.6020 C.ar  1 <1>   0.4100 
 19 N        5.2130     5.9870     1.0990 N.ar  1 <1>  -0.6200 
 20 C        4.9040     8.2330     0.4410 C.ar  1 <1>  -0.1430 
 21 C        6.4330     6.3530     1.4300 C.ar  1 <1>   0.4770 
 22 C        6.1960     8.4810     0.8240 C.ar  1 <1>   0.1600 
 23 C        4.0360     9.3430    -0.1420 C.3   1 <1>  -0.0160 
 24 N        6.9820     7.5500     1.3260 N.ar  1 <1>  -0.6200 
 25 C        7.3100     5.2630     1.9980 C.3   1 <1>  -0.0970 
 26 C        4.0440     9.2910    -1.6740 C.3   1 <1>  -0.1600 
 27 C        3.1850    10.4050    -2.2810 C.3   1 <1>  -0.2400 
 28 H       -2.4440     1.3860     0.8870 H     1 <1>   0.1500 
 29 H       -3.5980     2.6980     2.5040 H     1 <1>   0.0800 
 30 H       -3.7000     4.3860     2.0610 H     1 <1>   0.0800 
 31 H       -2.5700     3.8730     3.2910 H     1 <1>   0.0800 
 32 H        0.0180     6.4490     1.6070 H     1 <1>   0.0800 
 33 H        0.5080     7.4310     0.2660 H     1 <1>   0.0800 
 34 H        1.4290     6.2320    -1.8740 H     1 <1>   0.0800 
 35 H        1.4790     4.5020    -1.8900 H     1 <1>   0.0800 
 36 H        2.3020     5.6980     1.9750 H     1 <1>   0.0800 
 37 H        2.2600     7.4380     1.9580 H     1 <1>   0.0800 
 38 H        3.7120     5.4840    -1.4660 H     1 <1>   0.0800 
 39 H        3.1840     4.4930    -0.1350 H     1 <1>   0.0800 
 40 H        6.6100     9.4690     0.7180 H     1 <1>   0.1500 
 41 H        4.4010    10.2990     0.1880 H     1 <1>   0.0800 
 42 H        3.0270     9.2400     0.2180 H     1 <1>   0.0800 
 43 H        6.7930     4.7680     2.7980 H     1 <1>   0.0800 
 44 H        8.2280     5.6740     2.3740 H     1 <1>   0.0800 
 45 H        7.5320     4.5500     1.2270 H     1 <1>   0.0800 
 46 H        3.6660     8.3350    -1.9960 H     1 <1>   0.0800 
 47 H        5.0560     9.3830    -2.0300 H     1 <1>   0.0800 
 48 H        2.1650    10.3130    -1.9520 H     1 <1>   0.0800 
 49 H        3.2040    10.3380    -3.3540 H     1 <1>   0.0800 
 50 H        3.5590    11.3710    -1.9910 H     1 <1>   0.0800 
@<TRIPOS>BOND
  1   1   2  1   
  2   2   3  1   
  3   2   4  1   
  4   2   5  1   
  5   5   6  ar  
  6   5   7  ar  
  7   6   8  ar  
  8   7   9  ar  
  9   7  28  1   
 10   8  10  ar  
 11   8  11  1   
 12   9  10  ar  
 13   9  12  1   
 14  11  13  1   
 15  11  14  1   
 16  12  29  1   
 17  12  30  1   
 18  12  31  1   
 19  13  15  1   
 20  13  32  1   
 21  13  33  1   
 22  14  16  1   
 23  14  34  1   
 24  14  35  1   
 25  15  17  1   
 26  15  36  1   
 27  15  37  1   
 28  16  17  1   
 29  16  38  1   
 30  16  39  1   
 31  17  18  1   
 32  18  19  ar  
 33  18  20  ar  
 34  19  21  ar  
 35  20  22  ar  
 36  20  23  1   
 37  21  24  ar  
 38  21  25  1   
 39  22  24  ar  
 40  22  40  1   
 41  23  26  1   
 42  23  41  1   
 43  23  42  1   
 44  25  43  1   
 45  25  44  1   
 46  25  45  1   
 47  26  27  1   
 48  26  46  1   
 49  26  47  1   
 50  27  48  1   
 51  27  49  1   
 52  27  50  1   
@<TRIPOS>SUBSTRUCTURE
  1 ****  16 GROUP 4 **** **** 0

# MOE 2024.06 (io_trps.svl 2023.06)
