@<TRIPOS>MOLECULE
NONAME
47 48 1 0 0 
SMALL
USER_CHARGES


@<TRIPOS>ATOM
  1 O        0.2780     0.4850    -1.5190 O.2   1 <1>  -0.5700 
  2 C        0.1710     1.6880    -1.5210 C.2   1 <1>   0.5690 
  3 N       -0.6820     2.3530    -0.6800 N.am  1 <1>  -0.6600 
  4 C        1.0140     2.4850    -2.5150 C.3   1 <1>   0.1810 
  5 C       -0.8110     3.8490    -0.7150 C.3   1 <1>   0.3640 
  6 C       -1.4850     1.6440     0.3590 C.3   1 <1>   0.0600 
  7 O        1.2220     3.8110    -2.0980 O.3   1 <1>  -0.5600 
  8 C       -2.2930     4.2280    -0.8340 C.ar  1 <1>  -0.1430 
  9 C        0.0180     4.5200    -1.8420 C.3   1 <1>   0.2610 
 10 C       -2.9250     5.0860     0.0680 C.ar  1 <1>  -0.1430 
 11 C       -3.0330     3.6890    -1.8810 C.ar  1 <1>  -0.1500 
 12 C        0.3360     5.9640    -1.4490 C.2   1 <1>   0.5690 
 13 C       -4.2690     5.3850    -0.1000 C.ar  1 <1>  -0.1500 
 14 C       -2.1930     5.7200     1.2440 C.3   1 <1>  -0.0960 
 15 C       -4.3720     3.9930    -2.0400 C.ar  1 <1>  -0.1500 
 16 O       -0.4780     6.8330    -1.6480 O.2   1 <1>  -0.5700 
 17 N        1.5370     6.2360    -0.8700 N.am  1 <1>  -0.7300 
 18 C       -4.9910     4.8450    -1.1470 C.ar  1 <1>  -0.1500 
 19 C        2.0400     7.5850    -0.5060 C.3   1 <1>   0.1400 
 20 C        1.2270     8.1780     0.6450 C.3   1 <1>   0.1200 
 21 O        1.8750     9.3240     1.0970 O.3   1 <1>  -0.5600 
 22 C        1.1790    10.0110     2.0800 C.3   1 <1>   0.1200 
 23 C        2.0160    11.2220     2.4740 C.3   1 <1>  -0.2400 
 24 H        0.5310     2.4960    -3.4750 H     1 <1>   0.0800 
 25 H        1.9780     2.0190    -2.6160 H     1 <1>   0.0800 
 26 H       -0.4200     4.2090     0.2180 H     1 <1>   0.0800 
 27 H       -1.3370     2.1080     1.3180 H     1 <1>   0.0800 
 28 H       -1.1900     0.6100     0.4290 H     1 <1>   0.0800 
 29 H       -2.5300     1.6840     0.1060 H     1 <1>   0.0800 
 30 H       -0.5510     4.5410    -2.7540 H     1 <1>   0.0800 
 31 H       -2.5690     3.0180    -2.5820 H     1 <1>   0.1500 
 32 H       -4.7670     6.0480     0.5840 H     1 <1>   0.1500 
 33 H       -2.8540     6.3460     1.8160 H     1 <1>   0.0800 
 34 H       -1.3840     6.3320     0.8910 H     1 <1>   0.0800 
 35 H       -1.8080     4.9580     1.8980 H     1 <1>   0.0800 
 36 H       -4.9300     3.5680    -2.8560 H     1 <1>   0.1500 
 37 H        2.2310     5.4800    -0.8780 H     1 <1>   0.3700 
 38 H       -6.0330     5.0870    -1.2660 H     1 <1>   0.1500 
 39 H        3.0710     7.5070    -0.2100 H     1 <1>   0.0800 
 40 H        1.9680     8.2340    -1.3620 H     1 <1>   0.0800 
 41 H        1.1680     7.4790     1.4610 H     1 <1>   0.0800 
 42 H        0.2420     8.4450     0.3030 H     1 <1>   0.0800 
 43 H        0.2270    10.3210     1.6810 H     1 <1>   0.0800 
 44 H        1.0320     9.3590     2.9250 H     1 <1>   0.0800 
 45 H        2.1670    11.8570     1.6210 H     1 <1>   0.0800 
 46 H        2.9680    10.9020     2.8570 H     1 <1>   0.0800 
 47 H        1.5090    11.7840     3.2370 H     1 <1>   0.0800 
@<TRIPOS>BOND
  1   1   2  2   
  2   2   3  am  
  3   2   4  1   
  4   3   5  1   
  5   3   6  1   
  6   4   7  1   
  7   4  24  1   
  8   4  25  1   
  9   5   8  1   
 10   5   9  1   
 11   5  26  1   
 12   6  27  1   
 13   6  28  1   
 14   6  29  1   
 15   7   9  1   
 16   8  10  ar  
 17   8  11  ar  
 18   9  12  1   
 19   9  30  1   
 20  10  13  ar  
 21  10  14  1   
 22  11  15  ar  
 23  11  31  1   
 24  12  16  2   
 25  12  17  am  
 26  13  18  ar  
 27  13  32  1   
 28  14  33  1   
 29  14  34  1   
 30  14  35  1   
 31  15  18  ar  
 32  15  36  1   
 33  17  19  1   
 34  17  37  1   
 35  18  38  1   
 36  19  20  1   
 37  19  39  1   
 38  19  40  1   
 39  20  21  1   
 40  20  41  1   
 41  20  42  1   
 42  21  22  1   
 43  22  23  1   
 44  22  43  1   
 45  22  44  1   
 46  23  45  1   
 47  23  46  1   
 48  23  47  1   
@<TRIPOS>SUBSTRUCTURE
  1 ****   5 GROUP 4 **** **** 0

# MOE 2024.06 (io_trps.svl 2023.06)
