@<TRIPOS>MOLECULE
Untitled Document
60 64 1 0 0 
SMALL
USER_CHARGES


@<TRIPOS>ATOM
  1 O        1.7310    -2.0910    -1.4160 O.2   1 <1>  -0.5700 
  2 C        1.1650    -2.0030    -0.3590 C.2   1 <1>   0.4480 
  3 C       -0.2840    -2.4570    -0.1150 C.3   1 <1>   0.1990 
  4 C        1.8300    -1.3600     0.8110 C.3   1 <1>   0.2140 
  5 C       -0.9980    -2.3540     1.2600 C.2   1 <1>  -0.2880 
  6 C       -0.2260    -4.0210    -0.1950 C.3   1 <1>   0.2800 
  7 C       -1.0930    -1.5270    -1.0900 C.3   1 <1>  -0.0800 
  8 C        2.0770    -2.4770     1.8250 C.2   1 <1>  -0.2880 
  9 C        1.0470    -0.0990     1.2660 C.3   1 <1>  -0.1950 
 10 C       -1.6500    -3.4540     1.6170 C.2   1 <1>  -0.2760 
 11 O       -0.3320    -4.4840    -1.5160 O.3   1 <1>  -0.6800 
 12 C        1.0360    -4.5990     0.5880 C.3   1 <1>   0.3380 
 13 C       -1.4580    -4.5440     0.6090 C.3   1 <1>   0.3380 
 14 C       -0.5880    -0.0450    -0.9870 C.3   1 <1>  -0.0650 
 15 C       -2.6360    -1.5490    -1.0130 C.3   1 <1>  -0.2400 
 16 C        1.7910    -3.7890     1.6730 C.2   1 <1>  -0.2760 
 17 C        1.1250     1.2460     0.5980 C.3   1 <1>  -0.1900 
 18 C       -0.1180     0.4390     0.4200 C.3   1 <1>  -0.1950 
 19 C       -2.4990    -3.7030     2.8510 C.3   1 <1>  -0.1020 
 20 O        2.0470    -5.1200    -0.2160 O.3   1 <1>  -0.5600 
 21 O       -2.6160    -4.6120    -0.1440 O.3   1 <1>  -0.6800 
 22 C        2.4340    -4.8180     2.5810 C.3   1 <1>   0.2580 
 23 C        1.0140     2.4930     1.4820 C.3   1 <1>  -0.1450 
 24 C        2.1350     1.4810    -0.5370 C.3   1 <1>  -0.1450 
 25 C        3.1160    -5.7400     0.4480 C.3   1 <1>   0.5600 
 26 O        2.8280    -5.9290     1.8160 O.3   1 <1>  -0.5600 
 27 C        3.2650    -7.1250    -0.1600 C.3   1 <1>  -0.2400 
 28 C        4.3890    -4.9170     0.2610 C.3   1 <1>  -0.2400 
 29 H        2.8030    -1.0340     0.4930 H     1 <1>   0.0800 
 30 H       -0.9880    -1.4480     1.8310 H     1 <1>   0.1500 
 31 H       -0.8510    -1.8520    -2.0900 H     1 <1>   0.0800 
 32 H        2.6250    -2.1050     2.6740 H     1 <1>   0.1500 
 33 H        0.9450    -0.0750     2.3370 H     1 <1>   0.1000 
 34 H       -1.2740    -4.7040    -1.6760 H     1 <1>   0.4000 
 35 H        0.6510    -5.4680     1.0900 H     1 <1>   0.0800 
 36 H       -1.3070    -5.5070     1.0650 H     1 <1>   0.0800 
 37 H       -1.3420     0.6340    -1.3410 H     1 <1>   0.0800 
 38 H        0.2180     0.0600    -1.6890 H     1 <1>   0.0800 
 39 H       -2.9940    -1.3210    -0.0250 H     1 <1>   0.0800 
 40 H       -3.0190    -2.4960    -1.3350 H     1 <1>   0.0800 
 41 H       -3.0460    -0.8170    -1.6850 H     1 <1>   0.0800 
 42 H       -0.9790     0.7410     0.9940 H     1 <1>   0.1000 
 43 H       -3.5020    -3.9680     2.5660 H     1 <1>   0.0800 
 44 H       -2.5370    -2.8190     3.4620 H     1 <1>   0.0800 
 45 H       -2.0810    -4.5050     3.4340 H     1 <1>   0.0800 
 46 H       -3.0450    -3.7360    -0.0870 H     1 <1>   0.4000 
 47 H        1.7380    -5.1660     3.3240 H     1 <1>   0.0800 
 48 H        3.3050    -4.4180     3.0700 H     1 <1>   0.0800 
 49 H        0.6620     3.3260     0.9010 H     1 <1>   0.0800 
 50 H        1.9740     2.7410     1.8970 H     1 <1>   0.0800 
 51 H        0.3260     2.3320     2.2930 H     1 <1>   0.0800 
 52 H        1.7930     2.2770    -1.1730 H     1 <1>   0.0800 
 53 H        2.2820     0.6080    -1.1450 H     1 <1>   0.0800 
 54 H        3.0900     1.7580    -0.1280 H     1 <1>   0.0800 
 55 H        4.0790    -7.6460     0.3070 H     1 <1>   0.0800 
 56 H        3.4670    -7.0400    -1.2120 H     1 <1>   0.0800 
 57 H        2.3580    -7.6830    -0.0210 H     1 <1>   0.0800 
 58 H        5.2090    -5.3920     0.7660 H     1 <1>   0.0800 
 59 H        4.2680    -3.9200     0.6370 H     1 <1>   0.0800 
 60 H        4.6220    -4.8560    -0.7860 H     1 <1>   0.0800 
@<TRIPOS>BOND
  1   1   2  2   
  2   2   3  1   
  3   2   4  1   
  4   3   5  1   
  5   3   6  1   
  6   3   7  1   
  7   4   8  1   
  8   4   9  1   
  9   4  29  1   
 10   5  10  2   
 11   5  30  1   
 12   6  11  1   
 13   6  12  1   
 14   6  13  1   
 15   7  14  1   
 16   7  15  1   
 17   7  31  1   
 18   8  16  2   
 19   8  32  1   
 20   9  17  1   
 21   9  18  1   
 22   9  33  1   
 23  10  13  1   
 24  10  19  1   
 25  11  34  1   
 26  12  16  1   
 27  12  20  1   
 28  12  35  1   
 29  13  21  1   
 30  13  36  1   
 31  14  18  1   
 32  14  37  1   
 33  14  38  1   
 34  15  39  1   
 35  15  40  1   
 36  15  41  1   
 37  16  22  1   
 38  17  18  1   
 39  17  23  1   
 40  17  24  1   
 41  18  42  1   
 42  19  43  1   
 43  19  44  1   
 44  19  45  1   
 45  20  25  1   
 46  21  46  1   
 47  22  26  1   
 48  22  47  1   
 49  22  48  1   
 50  23  49  1   
 51  23  50  1   
 52  23  51  1   
 53  24  52  1   
 54  24  53  1   
 55  24  54  1   
 56  25  26  1   
 57  25  27  1   
 58  25  28  1   
 59  27  55  1   
 60  27  56  1   
 61  27  57  1   
 62  28  58  1   
 63  28  59  1   
 64  28  60  1   
@<TRIPOS>SUBSTRUCTURE
  1 ****   3 GROUP 4 **** **** 0

# MOE 2024.06 (io_trps.svl 2023.06)
