@<TRIPOS>MOLECULE
NONAME
40 41 1 0 0 
SMALL
USER_CHARGES


@<TRIPOS>ATOM
  1 O       -1.9460     0.8500    -1.1530 O.co2 1 <1>  -0.9000 
  2 C       -1.4670     1.0700    -0.0310 C.2   1 <1>   0.9060 
  3 O       -1.0470     0.1880     0.7180 O.co2 1 <1>  -0.9000 
  4 C       -1.4480     2.5370     0.4270 C.3   1 <1>   0.3170 
  5 N       -2.5420     3.3580    -0.2650 N.4   1 <1>  -0.9590 
  6 C       -0.0340     3.0760     0.1300 C.3   1 <1>   0.1100 
  7 C       -2.3370     4.8350    -0.1500 C.3   1 <1>   0.3430 
  8 C       -3.8830     2.9020     0.1940 C.3   1 <1>   0.2630 
  9 N        0.0830     4.5410     0.3170 N.3   1 <1>  -0.8100 
 10 C       -0.9030     5.2510    -0.5210 C.3   1 <1>   0.1100 
 11 C        1.4730     4.9910     0.0930 C.3   1 <1>   0.2900 
 12 C        1.6300     6.4880     0.3010 C.2   1 <1>  -0.0400 
 13 O        1.2870     7.0360     1.4360 O.3   1 <1>  -0.0190 
 14 C        2.0830     7.4600    -0.5060 C.2   1 <1>  -0.1500 
 15 N        1.4810     8.3230     1.4300 N.2   1 <1>  -0.4100 
 16 C        1.9650     8.6110     0.2710 C.2   1 <1>   0.1080 
 17 C        2.3580    10.0110    -0.1900 C.3   1 <1>   0.1010 
 18 C        3.4730    10.5820     0.6950 C.3   1 <1>  -0.2400 
 19 C        1.1440    10.9470    -0.1910 C.3   1 <1>  -0.2400 
 20 H       -1.5990     2.5470     1.4900 H     1 <1>   0.0800 
 21 H       -2.4460     3.0280    -1.2440 H     1 <1>   0.4500 
 22 H        0.2320     2.8150    -0.8820 H     1 <1>   0.0800 
 23 H        0.6580     2.5710     0.7850 H     1 <1>   0.0800 
 24 H       -2.5210     5.1430     0.8650 H     1 <1>   0.0800 
 25 H       -3.0340     5.3500    -0.7890 H     1 <1>   0.0800 
 26 H       -4.0030     3.0930     1.2470 H     1 <1>   0.0800 
 27 H       -3.9870     1.8420     0.0190 H     1 <1>   0.0800 
 28 H       -4.6590     3.4150    -0.3490 H     1 <1>   0.0800 
 29 H       -0.8190     6.3130    -0.3620 H     1 <1>   0.0800 
 30 H       -0.7210     5.0510    -1.5630 H     1 <1>   0.0800 
 31 H        1.7830     4.7350    -0.9050 H     1 <1>   0.0800 
 32 H        2.1210     4.4840     0.7880 H     1 <1>   0.0800 
 33 H        2.4550     7.4050    -1.5120 H     1 <1>   0.1500 
 34 H        2.7310     9.9430    -1.1970 H     1 <1>   0.0800 
 35 H        3.1300    10.6750     1.7110 H     1 <1>   0.0800 
 36 H        3.7760    11.5510     0.3410 H     1 <1>   0.0800 
 37 H        4.3250     9.9270     0.6830 H     1 <1>   0.0800 
 38 H        0.7490    11.0440     0.8050 H     1 <1>   0.0800 
 39 H        0.3730    10.5500    -0.8260 H     1 <1>   0.0800 
 40 H        1.4190    11.9220    -0.5510 H     1 <1>   0.0800 
@<TRIPOS>BOND
  1   1   2  ar  
  2   2   3  ar  
  3   2   4  1   
  4   4   5  1   
  5   4   6  1   
  6   4  20  1   
  7   5   7  1   
  8   5   8  1   
  9   5  21  1   
 10   6   9  1   
 11   6  22  1   
 12   6  23  1   
 13   7  10  1   
 14   7  24  1   
 15   7  25  1   
 16   8  26  1   
 17   8  27  1   
 18   8  28  1   
 19   9  10  1   
 20   9  11  1   
 21  10  29  1   
 22  10  30  1   
 23  11  12  1   
 24  11  31  1   
 25  11  32  1   
 26  12  13  1   
 27  12  14  2   
 28  13  15  1   
 29  14  16  1   
 30  14  33  1   
 31  15  16  2   
 32  16  17  1   
 33  17  18  1   
 34  17  19  1   
 35  17  34  1   
 36  18  35  1   
 37  18  36  1   
 38  18  37  1   
 39  19  38  1   
 40  19  39  1   
 41  19  40  1   
@<TRIPOS>SUBSTRUCTURE
  1 ****   9 GROUP 4 **** **** 0

# MOE 2024.06 (io_trps.svl 2023.06)
