@<TRIPOS>MOLECULE
NONAME
66 69 1 0 0 
SMALL
USER_CHARGES


@<TRIPOS>ATOM
  1 O        0.1180     0.0610     1.0960 O.2   1 <1>  -0.5700 
  2 C        0.8530    -0.4960     0.3030 C.2   1 <1>   0.5440 
  3 N        0.3920    -1.6020    -0.3870 N.am  1 <1>  -0.6600 
  4 C        2.1940     0.0170     0.0980 C.ar  1 <1>   0.0860 
  5 C        1.2170    -2.3600    -1.3680 C.3   1 <1>   0.1400 
  6 C       -0.9850    -2.1290    -0.1890 C.3   1 <1>   0.1400 
  7 C        3.2740    -0.3740     0.8970 C.ar  1 <1>  -0.1440 
  8 C        2.4350     0.9200    -0.9370 C.ar  1 <1>  -0.1500 
  9 C        1.2920    -3.8320    -0.9510 C.3   1 <1>  -0.1600 
 10 C       -0.9160    -3.5960     0.2430 C.3   1 <1>  -0.1600 
 11 C        4.5440     0.1210     0.6470 C.ar  1 <1>  -0.1500 
 12 C        3.0610    -1.3420     2.0540 C.3   1 <1>  -0.0970 
 13 C        3.7030     1.4120    -1.1840 C.ar  1 <1>  -0.1500 
 14 C       -0.1100    -4.4440    -0.7590 C.3   1 <1>  -0.0190 
 15 C        4.7610     1.0100    -0.3910 C.ar  1 <1>  -0.1500 
 16 C       -0.0350    -5.9090    -0.3160 C.2   1 <1>   0.5690 
 17 O        0.7050    -6.2120     0.5940 O.2   1 <1>  -0.5700 
 18 N       -0.8150    -6.8700    -0.9100 N.am  1 <1>  -0.6600 
 19 C       -0.5420    -8.2960    -0.6210 C.3   1 <1>   0.1400 
 20 C       -2.2380    -6.6420    -1.2950 C.3   1 <1>   0.1400 
 21 C       -1.5490    -8.6520     0.4790 C.3   1 <1>   0.4230 
 22 C       -3.1900    -7.3330    -0.2790 C.3   1 <1>  -0.1600 
 23 N       -1.0480    -9.5230     1.6030 N.4   1 <1>  -0.9590 
 24 C       -2.9830    -8.9420    -0.1680 C.3   1 <1>   0.0000 
 25 C       -0.5700   -10.8390     1.1590 C.3   1 <1>   0.3430 
 26 C       -0.0120    -8.8000     2.4100 C.3   1 <1>   0.2630 
 27 C       -2.7780   -10.5450    -0.1400 C.3   1 <1>  -0.1600 
 28 C       -4.4590    -9.1670    -0.7530 C.3   1 <1>   0.1200 
 29 C       -1.4080   -11.2630    -0.0300 C.3   1 <1>  -0.1600 
 30 O       -5.3660    -8.9100     0.2730 O.3   1 <1>  -0.6800 
 31 H        0.7630    -2.2770    -2.3410 H     1 <1>   0.0800 
 32 H        2.2130    -1.9600    -1.4330 H     1 <1>   0.0800 
 33 H       -1.5100    -1.5610     0.5610 H     1 <1>   0.0800 
 34 H       -1.5300    -2.0390    -1.1130 H     1 <1>   0.0800 
 35 H        1.6090     1.2350    -1.5500 H     1 <1>   0.1500 
 36 H        1.8280    -4.3850    -1.7020 H     1 <1>   0.0800 
 37 H        1.8510    -3.9020    -0.0350 H     1 <1>   0.0800 
 38 H       -0.4540    -3.6450     1.2150 H     1 <1>   0.0800 
 39 H       -1.9140    -3.9810     0.3380 H     1 <1>   0.0800 
 40 H        5.3750    -0.1800     1.2610 H     1 <1>   0.1500 
 41 H        3.9780    -1.5250     2.5820 H     1 <1>   0.0800 
 42 H        2.6830    -2.2790     1.6880 H     1 <1>   0.0800 
 43 H        2.3470    -0.9300     2.7460 H     1 <1>   0.0800 
 44 H        3.8660     2.1080    -1.9890 H     1 <1>   0.1500 
 45 H       -0.6020    -4.4060    -1.7140 H     1 <1>   0.0800 
 46 H        5.7510     1.3890    -0.5780 H     1 <1>   0.1500 
 47 H       -0.7040    -8.8800    -1.5100 H     1 <1>   0.0800 
 48 H        0.4740    -8.4290    -0.2940 H     1 <1>   0.0800 
 49 H       -2.4590    -5.5900    -1.3280 H     1 <1>   0.0800 
 50 H       -2.4030    -7.0410    -2.2830 H     1 <1>   0.0800 
 51 H       -1.6120    -7.7220     1.0130 H     1 <1>   0.0800 
 52 H       -3.1140    -6.8480     0.6830 H     1 <1>   0.0800 
 53 H       -4.1570    -6.9550    -0.5730 H     1 <1>   0.0800 
 54 H       -1.8720    -9.6830     2.1990 H     1 <1>   0.4500 
 55 H        0.4690   -10.7920     0.8710 H     1 <1>   0.0800 
 56 H       -0.6720   -11.5530     1.9610 H     1 <1>   0.0800 
 57 H        0.8590    -8.5890     1.8090 H     1 <1>   0.0800 
 58 H        0.2880    -9.3930     3.2590 H     1 <1>   0.0800 
 59 H       -0.4040    -7.8610     2.7670 H     1 <1>   0.0800 
 60 H       -3.4100   -10.9510     0.6370 H     1 <1>   0.0800 
 61 H       -3.0870   -10.9910    -1.0730 H     1 <1>   0.0800 
 62 H       -4.7610   -10.1350    -1.1140 H     1 <1>   0.0800 
 63 H       -4.6890    -8.5360    -1.5980 H     1 <1>   0.0800 
 64 H       -0.8380   -11.0970    -0.9280 H     1 <1>   0.0800 
 65 H       -1.5630   -12.3270     0.0290 H     1 <1>   0.0800 
 66 H       -6.2900    -9.0410    -0.0280 H     1 <1>   0.4000 
@<TRIPOS>BOND
  1   1   2  2   
  2   2   3  am  
  3   2   4  1   
  4   3   5  1   
  5   3   6  1   
  6   4   7  ar  
  7   4   8  ar  
  8   5   9  1   
  9   5  31  1   
 10   5  32  1   
 11   6  10  1   
 12   6  33  1   
 13   6  34  1   
 14   7  11  ar  
 15   7  12  1   
 16   8  13  ar  
 17   8  35  1   
 18   9  14  1   
 19   9  36  1   
 20   9  37  1   
 21  10  14  1   
 22  10  38  1   
 23  10  39  1   
 24  11  15  ar  
 25  11  40  1   
 26  12  41  1   
 27  12  42  1   
 28  12  43  1   
 29  13  15  ar  
 30  13  44  1   
 31  14  16  1   
 32  14  45  1   
 33  15  46  1   
 34  16  17  2   
 35  16  18  am  
 36  18  19  1   
 37  18  20  1   
 38  19  21  1   
 39  19  47  1   
 40  19  48  1   
 41  20  22  1   
 42  20  49  1   
 43  20  50  1   
 44  21  23  1   
 45  21  24  1   
 46  21  51  1   
 47  22  24  1   
 48  22  52  1   
 49  22  53  1   
 50  23  25  1   
 51  23  26  1   
 52  23  54  1   
 53  24  27  1   
 54  24  28  1   
 55  25  29  1   
 56  25  55  1   
 57  25  56  1   
 58  26  57  1   
 59  26  58  1   
 60  26  59  1   
 61  27  29  1   
 62  27  60  1   
 63  27  61  1   
 64  28  30  1   
 65  28  62  1   
 66  28  63  1   
 67  29  64  1   
 68  29  65  1   
 69  30  66  1   
@<TRIPOS>SUBSTRUCTURE
  1 ****  14 GROUP 4 **** **** 0

# MOE 2024.06 (io_trps.svl 2023.06)
