@<TRIPOS>MOLECULE
NONAME
54 57 1 0 0 
SMALL
USER_CHARGES


@<TRIPOS>ATOM
  1 O        0.2880    -0.6670    -2.0110 O.3   1 <1>  -0.3630 
  2 C        1.3040    -1.2500    -1.3270 C.ar  1 <1>   0.0830 
  3 C        0.0620     0.7230    -1.9380 C.3   1 <1>   0.0400 
  4 C        1.4710    -2.6120    -1.5000 C.ar  1 <1>  -0.1500 
  5 C        2.1640    -0.5650    -0.4770 C.ar  1 <1>  -0.1500 
  6 C        2.4710    -3.3100    -0.8410 C.ar  1 <1>  -0.1430 
  7 C        3.1690    -1.2490     0.1800 C.ar  1 <1>  -0.1500 
  8 C        3.3420    -2.6210     0.0100 C.ar  1 <1>  -0.0230 
  9 C        2.5650    -4.8160    -1.0790 C.3   1 <1>   0.2540 
 10 N        4.4080    -3.2620     0.7040 N.pl3 1 <1>   0.5930 
 11 N        1.3030    -5.4460    -0.6630 N.3   1 <1>  -0.6890 
 12 N        4.2380    -4.2340     1.6390 N.2   1 <1>  -0.7070 
 13 C        5.7270    -2.9960     0.5560 C.2   1 <1>  -0.3020 
 14 C        1.1250    -5.4030     0.8180 C.3   1 <1>   0.2100 
 15 C        1.3900    -6.9220    -0.5220 C.3   1 <1>   0.2100 
 16 C        5.4310    -4.5350     2.0480 C.2   1 <1>   0.1390 
 17 C        6.4110    -3.7920     1.4020 C.2   1 <1>  -0.1500 
 18 C        0.3650    -6.7510     0.6490 C.3   1 <1>   0.4720 
 19 N       -1.0870    -6.5540     0.2590 N.4   1 <1>  -0.9280 
 20 C       -2.0300    -6.5030     1.4190 C.3   1 <1>   0.4230 
 21 C       -1.5220    -7.5570    -0.7580 C.3   1 <1>   0.3430 
 22 C       -3.4410    -6.1570     0.9220 C.3   1 <1>  -0.1600 
 23 C       -1.6080    -5.4780     2.4720 C.3   1 <1>  -0.2400 
 24 C       -2.9170    -7.2220    -1.2830 C.3   1 <1>  -0.1600 
 25 C       -3.9380    -7.1350    -0.1470 C.3   1 <1>  -0.1600 
 26 H       -0.7740     0.9590    -2.5710 H     1 <1>   0.0800 
 27 H        0.9400     1.2390    -2.2850 H     1 <1>   0.0800 
 28 H       -0.1640     0.9870    -0.9200 H     1 <1>   0.0800 
 29 H        0.7970    -3.1270    -2.1620 H     1 <1>   0.1500 
 30 H        2.0640     0.4920    -0.3160 H     1 <1>   0.1500 
 31 H        3.8280    -0.7080     0.8390 H     1 <1>   0.1500 
 32 H        3.3960    -5.2540    -0.5550 H     1 <1>   0.0800 
 33 H        2.7130    -4.9940    -2.1300 H     1 <1>   0.0800 
 34 H        6.0860    -2.2600    -0.1390 H     1 <1>   0.1500 
 35 H        0.5360    -4.5610     1.1270 H     1 <1>   0.0000 
 36 H        2.0480    -5.5160     1.3580 H     1 <1>   0.0000 
 37 H        2.3630    -7.2480    -0.1900 H     1 <1>   0.0000 
 38 H        1.0440    -7.4430    -1.3940 H     1 <1>   0.0000 
 39 H        5.6340    -5.2770     2.8030 H     1 <1>   0.1500 
 40 H        7.4720    -3.8610     1.5650 H     1 <1>   0.1500 
 41 H        0.4900    -7.4510     1.4550 H     1 <1>   0.0000 
 42 H       -1.0890    -5.6350    -0.2050 H     1 <1>   0.4500 
 43 H       -2.0620    -7.4760     1.8830 H     1 <1>   0.0800 
 44 H       -1.5280    -8.5410    -0.3190 H     1 <1>   0.0800 
 45 H       -0.8420    -7.5610    -1.5930 H     1 <1>   0.0800 
 46 H       -3.4490    -5.1560     0.5270 H     1 <1>   0.0800 
 47 H       -4.1250    -6.1780     1.7520 H     1 <1>   0.0800 
 48 H       -1.5290    -4.4940     2.0450 H     1 <1>   0.0800 
 49 H       -0.6820    -5.7520     2.9430 H     1 <1>   0.0800 
 50 H       -2.3500    -5.4380     3.2490 H     1 <1>   0.0800 
 51 H       -3.2230    -7.9830    -1.9800 H     1 <1>   0.0800 
 52 H       -2.8820    -6.2890    -1.8200 H     1 <1>   0.0800 
 53 H       -4.8890    -6.8060    -0.5320 H     1 <1>   0.0800 
 54 H       -4.0790    -8.1100     0.2910 H     1 <1>   0.0800 
@<TRIPOS>BOND
  1   1   2  1   
  2   1   3  1   
  3   2   4  ar  
  4   2   5  ar  
  5   3  26  1   
  6   3  27  1   
  7   3  28  1   
  8   4   6  ar  
  9   4  29  1   
 10   5   7  ar  
 11   5  30  1   
 12   6   8  ar  
 13   6   9  1   
 14   7   8  ar  
 15   7  31  1   
 16   8  10  1   
 17   9  11  1   
 18   9  32  1   
 19   9  33  1   
 20  10  12  1   
 21  10  13  1   
 22  11  14  1   
 23  11  15  1   
 24  12  16  2   
 25  13  17  2   
 26  13  34  1   
 27  14  18  1   
 28  14  35  1   
 29  14  36  1   
 30  15  18  1   
 31  15  37  1   
 32  15  38  1   
 33  16  17  1   
 34  16  39  1   
 35  17  40  1   
 36  18  19  1   
 37  18  41  1   
 38  19  20  1   
 39  19  21  1   
 40  19  42  1   
 41  20  22  1   
 42  20  23  1   
 43  20  43  1   
 44  21  24  1   
 45  21  44  1   
 46  21  45  1   
 47  22  25  1   
 48  22  46  1   
 49  22  47  1   
 50  23  48  1   
 51  23  49  1   
 52  23  50  1   
 53  24  25  1   
 54  24  51  1   
 55  24  52  1   
 56  25  53  1   
 57  25  54  1   
@<TRIPOS>SUBSTRUCTURE
  1 ****  11 GROUP 4 **** **** 0

# MOE 2024.06 (io_trps.svl 2023.06)
