@<TRIPOS>MOLECULE
NONAME
49 51 1 0 0 
SMALL
USER_CHARGES


@<TRIPOS>ATOM
  1 O       -0.7260    -1.1050    -1.0110 O.3   1 <1>  -0.6800 
  2 C        0.4800    -1.7450    -1.2490 C.3   1 <1>   0.1200 
  3 C        1.3180    -1.8470     0.0610 C.3   1 <1>   0.0000 
  4 C        2.6950    -2.5080    -0.2130 C.3   1 <1>   0.4230 
  5 C        1.5960    -0.4270     0.6190 C.3   1 <1>  -0.1600 
  6 C        0.5650    -2.6730     1.1470 C.3   1 <1>  -0.1600 
  7 N        2.6050    -3.9580    -0.6780 N.4   1 <1>  -0.9590 
  8 C        3.6080    -1.6170    -1.0920 C.3   1 <1>   0.1100 
  9 C        2.5100     0.4100    -0.2810 C.3   1 <1>   0.1100 
 10 C        1.0110    -4.1450     1.2320 C.3   1 <1>  -0.1600 
 11 C        1.4170    -4.6950    -0.1320 C.3   1 <1>   0.3430 
 12 C        2.6940    -4.1710    -2.1590 C.3   1 <1>   0.2630 
 13 N        3.7970    -0.2880    -0.4860 N.3   1 <1>  -0.8100 
 14 C        4.7150     0.5360    -1.3130 C.3   1 <1>   0.2900 
 15 C        4.9760     1.9100    -0.7180 C.2   1 <1>   0.0060 
 16 N        4.6850     3.0140    -1.3110 N.2   1 <1>  -0.5650 
 17 N        5.5310     2.1330     0.4830 N.pl3 1 <1>   0.3140 
 18 C        5.0920     3.9160    -0.4100 C.2   1 <1>   0.3660 
 19 N        5.6030     3.4430     0.6770 N.2   1 <1>  -0.7070 
 20 C        6.0040     1.1700     1.5010 C.3   1 <1>   0.0960 
 21 C        7.4330     0.6980     1.2020 C.3   1 <1>  -0.2400 
 22 H       -1.2270    -0.9450    -1.8370 H     1 <1>   0.4000 
 23 H        0.2490    -2.7180    -1.6420 H     1 <1>   0.0800 
 24 H        0.9980    -1.1810    -2.0040 H     1 <1>   0.0800 
 25 H        3.1820    -2.5320     0.7490 H     1 <1>   0.0800 
 26 H        2.0700    -0.4930     1.5840 H     1 <1>   0.0800 
 27 H        0.6710     0.1040     0.7650 H     1 <1>   0.0800 
 28 H        0.7070    -2.2370     2.1220 H     1 <1>   0.0800 
 29 H       -0.4960    -2.6390     0.9650 H     1 <1>   0.0800 
 30 H        3.4290    -4.4140    -0.2590 H     1 <1>   0.4500 
 31 H        3.1860    -1.4980    -2.0750 H     1 <1>   0.0800 
 32 H        4.5710    -2.0900    -1.1810 H     1 <1>   0.0800 
 33 H        2.6770     1.3580     0.2050 H     1 <1>   0.0800 
 34 H        2.0350     0.6130    -1.2270 H     1 <1>   0.0800 
 35 H        0.2010    -4.7340     1.6270 H     1 <1>   0.0800 
 36 H        1.8370    -4.2450     1.9150 H     1 <1>   0.0800 
 37 H        0.5790    -4.5880    -0.8030 H     1 <1>   0.0800 
 38 H        1.6430    -5.7470    -0.0500 H     1 <1>   0.0800 
 39 H        1.8750    -3.6840    -2.6600 H     1 <1>   0.0800 
 40 H        2.6570    -5.2240    -2.3860 H     1 <1>   0.0800 
 41 H        3.6200    -3.7760    -2.5440 H     1 <1>   0.0800 
 42 H        5.6570     0.0280    -1.4220 H     1 <1>   0.0800 
 43 H        4.2960     0.6690    -2.2970 H     1 <1>   0.0800 
 44 H        4.9890     4.9720    -0.6030 H     1 <1>   0.1500 
 45 H        5.9770     1.6600     2.4580 H     1 <1>   0.0800 
 46 H        5.3300     0.3350     1.5330 H     1 <1>   0.0800 
 47 H        8.1010     1.5420     1.1800 H     1 <1>   0.0800 
 48 H        7.4750     0.1860     0.2580 H     1 <1>   0.0800 
 49 H        7.7620     0.0240     1.9720 H     1 <1>   0.0800 
@<TRIPOS>BOND
  1   1   2  1   
  2   1  22  1   
  3   2   3  1   
  4   2  23  1   
  5   2  24  1   
  6   3   4  1   
  7   3   5  1   
  8   3   6  1   
  9   4   7  1   
 10   4   8  1   
 11   4  25  1   
 12   5   9  1   
 13   5  26  1   
 14   5  27  1   
 15   6  10  1   
 16   6  28  1   
 17   6  29  1   
 18   7  11  1   
 19   7  12  1   
 20   7  30  1   
 21   8  13  1   
 22   8  31  1   
 23   8  32  1   
 24   9  13  1   
 25   9  33  1   
 26   9  34  1   
 27  10  11  1   
 28  10  35  1   
 29  10  36  1   
 30  11  37  1   
 31  11  38  1   
 32  12  39  1   
 33  12  40  1   
 34  12  41  1   
 35  13  14  1   
 36  14  15  1   
 37  14  42  1   
 38  14  43  1   
 39  15  16  2   
 40  15  17  1   
 41  16  18  1   
 42  17  19  1   
 43  17  20  1   
 44  18  19  2   
 45  18  44  1   
 46  20  21  1   
 47  20  45  1   
 48  20  46  1   
 49  21  47  1   
 50  21  48  1   
 51  21  49  1   
@<TRIPOS>SUBSTRUCTURE
  1 ****  13 GROUP 4 **** **** 0

# MOE 2024.06 (io_trps.svl 2023.06)
