@<TRIPOS>MOLECULE
NONAME
33 34 1 0 0 
SMALL
USER_CHARGES


@<TRIPOS>ATOM
  1 N       -0.5520    -0.0440     0.5410 N.ar  1 <1>  -0.6200 
  2 C       -1.3720     0.6210    -0.2640 C.ar  1 <1>   0.7200 
  3 C        0.4810     0.6300     0.9810 C.ar  1 <1>   0.1670 
  4 N       -1.2620     1.8760    -0.6670 N.ar  1 <1>  -0.6200 
  5 N       -2.4650    -0.0090    -0.7570 N.pl3 1 <1>  -0.8690 
  6 C        0.6930     1.9420     0.6260 C.ar  1 <1>  -0.1500 
  7 C        1.4360    -0.0990     1.9020 C.3   1 <1>  -0.0970 
  8 C       -0.2220     2.5310    -0.2140 C.ar  1 <1>   0.1670 
  9 C       -2.6380    -1.4560    -1.0100 C.3   1 <1>   0.2890 
 10 C       -0.0710     3.9710    -0.6570 C.3   1 <1>  -0.0970 
 11 C       -2.7230    -2.2330     0.3120 C.3   1 <1>   0.0960 
 12 C       -1.5270    -1.9390    -1.9480 C.3   1 <1>  -0.2400 
 13 N       -3.0190    -3.6510     0.0620 N.pl3 1 <1>   0.3140 
 14 N       -4.1610    -4.0760    -0.4630 N.2   1 <1>  -0.7070 
 15 C       -2.2350    -4.7090     0.2880 C.2   1 <1>   0.0370 
 16 C       -3.9850    -5.3560    -0.5130 C.2   1 <1>   0.3660 
 17 N       -2.8070    -5.8050    -0.0610 N.2   1 <1>  -0.5650 
 18 H       -2.9470     0.5960    -1.4200 H     1 <1>   0.4000 
 19 H        1.5420     2.4870     0.9920 H     1 <1>   0.1500 
 20 H        1.8400    -0.9560     1.3950 H     1 <1>   0.0800 
 21 H        0.9080    -0.4300     2.7780 H     1 <1>   0.0800 
 22 H        2.2450     0.5400     2.2040 H     1 <1>   0.0800 
 23 H       -3.5820    -1.5780    -1.5160 H     1 <1>   0.0800 
 24 H       -0.9320     4.5340    -0.3470 H     1 <1>   0.0800 
 25 H        0.0010     4.0110    -1.7290 H     1 <1>   0.0800 
 26 H        0.8090     4.4170    -0.2320 H     1 <1>   0.0800 
 27 H       -3.5120    -1.8260     0.9160 H     1 <1>   0.0800 
 28 H       -1.7990    -2.1720     0.8510 H     1 <1>   0.0800 
 29 H       -0.5720    -1.9130    -1.4560 H     1 <1>   0.0800 
 30 H       -1.4900    -1.3170    -2.8240 H     1 <1>   0.0800 
 31 H       -1.7210    -2.9480    -2.2640 H     1 <1>   0.0800 
 32 H       -1.2500    -4.6290     0.7090 H     1 <1>   0.1500 
 33 H       -4.7260    -6.0410    -0.8910 H     1 <1>   0.1500 
@<TRIPOS>BOND
  1   1   2  ar  
  2   1   3  ar  
  3   2   4  ar  
  4   2   5  1   
  5   3   6  ar  
  6   3   7  1   
  7   4   8  ar  
  8   5   9  1   
  9   5  18  1   
 10   6   8  ar  
 11   6  19  1   
 12   7  20  1   
 13   7  21  1   
 14   7  22  1   
 15   8  10  1   
 16   9  11  1   
 17   9  12  1   
 18   9  23  1   
 19  10  24  1   
 20  10  25  1   
 21  10  26  1   
 22  11  13  1   
 23  11  27  1   
 24  11  28  1   
 25  12  29  1   
 26  12  30  1   
 27  12  31  1   
 28  13  14  1   
 29  13  15  1   
 30  14  16  2   
 31  15  17  2   
 32  15  32  1   
 33  16  17  1   
 34  16  33  1   
@<TRIPOS>SUBSTRUCTURE
  1 ****   9 GROUP 4 **** **** 0

# MOE 2024.06 (io_trps.svl 2023.06)
