@<TRIPOS>MOLECULE
NONAME
53 55 1 0 0 
SMALL
USER_CHARGES


@<TRIPOS>ATOM
  1 O       -0.6240    -0.0240     0.6830 O.3   1 <1>  -0.5600 
  2 C       -0.2170    -1.3750     0.6300 C.3   1 <1>   0.2800 
  3 C       -1.9690     0.2980     0.4750 C.3   1 <1>   0.1200 
  4 C       -1.4070    -2.3250     0.2790 C.3   1 <1>   0.2000 
  5 C        0.3440    -1.6880     2.0370 C.3   1 <1>  -0.1600 
  6 C        0.9060    -1.4170    -0.4310 C.3   1 <1>  -0.1600 
  7 C       -2.4120    -0.2780    -0.8720 C.3   1 <1>  -0.1600 
  8 O       -1.0050    -3.6540     0.0860 O.3   1 <1>  -0.6800 
  9 C       -2.2830    -1.8130    -0.9010 C.3   1 <1>   0.2800 
 10 C        1.5350    -2.6450     1.9630 C.3   1 <1>   0.1100 
 11 C        2.2550    -1.0540     0.1860 C.3   1 <1>   0.1100 
 12 O       -3.5440    -2.3420    -0.7070 O.3   1 <1>  -0.6800 
 13 C       -1.8620    -2.2920    -2.2990 C.3   1 <1>  -0.2400 
 14 N        2.6630    -2.0570     1.2020 N.3   1 <1>  -0.8100 
 15 C        3.5160    -3.1350     0.6280 C.3   1 <1>   0.2540 
 16 C        4.9480    -2.6640     0.3240 C.cat 1 <1>   0.6560 
 17 N        5.4490    -1.5600     0.8450 N.pl3 1 <1>  -0.7000 
 18 N        5.8600    -3.2470    -0.4560 N.pl3 1 <1>  -0.7640 
 19 C        6.7260    -1.4050     0.3990 C.2   1 <1>   0.1820 
 20 C        6.9880    -2.4560    -0.4140 C.2   1 <1>   0.1820 
 21 C        5.7260    -4.5100    -1.2350 C.3   1 <1>   0.2740 
 22 C        7.5620    -0.2160     0.8300 C.3   1 <1>  -0.0720 
 23 C        8.2500    -2.8000    -1.1850 C.3   1 <1>  -0.0720 
 24 H       -2.5540    -0.0930     1.2910 H     1 <1>   0.0800 
 25 H       -2.0490     1.3710     0.4720 H     1 <1>   0.0800 
 26 H       -2.0410    -2.3440     1.1490 H     1 <1>   0.0800 
 27 H        0.6720    -0.7840     2.5190 H     1 <1>   0.0800 
 28 H       -0.4180    -2.1250     2.6550 H     1 <1>   0.0800 
 29 H        0.9860    -2.3960    -0.8660 H     1 <1>   0.0800 
 30 H        0.6780    -0.7290    -1.2240 H     1 <1>   0.0800 
 31 H       -1.7780     0.1600    -1.6230 H     1 <1>   0.0800 
 32 H       -3.4200     0.0290    -1.0860 H     1 <1>   0.0800 
 33 H       -1.8060    -4.1770    -0.1210 H     1 <1>   0.4000 
 34 H        1.2050    -3.5580     1.4940 H     1 <1>   0.0800 
 35 H        1.8680    -2.8840     2.9590 H     1 <1>   0.0800 
 36 H        2.1630    -0.0920     0.6640 H     1 <1>   0.0800 
 37 H        3.0000    -0.9610    -0.5850 H     1 <1>   0.0800 
 38 H       -4.1170    -2.1060    -1.4610 H     1 <1>   0.4000 
 39 H       -0.8670    -1.9600    -2.5260 H     1 <1>   0.0800 
 40 H       -2.5200    -1.8950    -3.0500 H     1 <1>   0.0800 
 41 H       -1.8740    -3.3660    -2.3570 H     1 <1>   0.0800 
 42 H        3.5920    -3.9400     1.3370 H     1 <1>   0.0800 
 43 H        3.0600    -3.5170    -0.2670 H     1 <1>   0.0800 
 44 H        4.8870    -0.9680     1.4680 H     1 <1>   0.4500 
 45 H        6.4790    -5.2140    -0.9220 H     1 <1>   0.0800 
 46 H        5.8520    -4.3060    -2.2850 H     1 <1>   0.0800 
 47 H        4.7580    -4.9550    -1.0840 H     1 <1>   0.0800 
 48 H        8.5400    -0.2530     0.3890 H     1 <1>   0.0800 
 49 H        7.6670    -0.2130     1.9000 H     1 <1>   0.0800 
 50 H        7.0820     0.6970     0.5260 H     1 <1>   0.0800 
 51 H        9.0110    -2.0590    -1.0240 H     1 <1>   0.0800 
 52 H        8.0380    -2.8430    -2.2380 H     1 <1>   0.0800 
 53 H        8.6310    -3.7520    -0.8630 H     1 <1>   0.0800 
@<TRIPOS>BOND
  1   1   2  1   
  2   1   3  1   
  3   2   4  1   
  4   2   5  1   
  5   2   6  1   
  6   3   7  1   
  7   3  24  1   
  8   3  25  1   
  9   4   8  1   
 10   4   9  1   
 11   4  26  1   
 12   5  10  1   
 13   5  27  1   
 14   5  28  1   
 15   6  11  1   
 16   6  29  1   
 17   6  30  1   
 18   7   9  1   
 19   7  31  1   
 20   7  32  1   
 21   8  33  1   
 22   9  12  1   
 23   9  13  1   
 24  10  14  1   
 25  10  34  1   
 26  10  35  1   
 27  11  14  1   
 28  11  36  1   
 29  11  37  1   
 30  12  38  1   
 31  13  39  1   
 32  13  40  1   
 33  13  41  1   
 34  14  15  1   
 35  15  16  1   
 36  15  42  1   
 37  15  43  1   
 38  16  17  ar  
 39  16  18  ar  
 40  17  19  1   
 41  17  44  1   
 42  18  20  1   
 43  18  21  1   
 44  19  20  2   
 45  19  22  1   
 46  20  23  1   
 47  21  45  1   
 48  21  46  1   
 49  21  47  1   
 50  22  48  1   
 51  22  49  1   
 52  22  50  1   
 53  23  51  1   
 54  23  52  1   
 55  23  53  1   
@<TRIPOS>SUBSTRUCTURE
  1 ****  11 GROUP 4 **** **** 0

# MOE 2024.06 (io_trps.svl 2023.06)
