@<TRIPOS>MOLECULE
NONAME
45 47 1 0 0 
SMALL
USER_CHARGES


@<TRIPOS>ATOM
  1 O       -0.2040     0.2210     0.5830 O.2   1 <1>  -0.5700 
  2 C       -1.1880     0.8660     0.2500 C.2   1 <1>   0.7160 
  3 N       -2.3940     0.1870     0.2620 N.am  1 <1>  -0.6600 
  4 C       -1.0650     2.2790    -0.1320 C.2   1 <1>   0.2030 
  5 C       -3.7230     0.7600    -0.0700 C.3   1 <1>   0.1400 
  6 C       -2.5020    -1.2750     0.4830 C.3   1 <1>   0.1400 
  7 N       -1.9130     2.9470    -0.9010 N.2   1 <1>  -0.7070 
  8 C       -0.0150     3.1360     0.2600 C.2   1 <1>  -0.1810 
  9 C       -4.7190    -0.3220     0.3410 C.3   1 <1>   0.2000 
 10 C       -3.9480    -1.6270     0.1120 C.3   1 <1>  -0.0800 
 11 N       -1.4150     4.1840    -1.0000 N.pl3 1 <1>   0.3000 
 12 C       -0.2700     4.3310    -0.3120 C.2   1 <1>  -0.3320 
 13 C        1.1600     2.7700     1.1550 C.3   1 <1>  -0.0590 
 14 O       -4.9870    -0.1750     1.6940 O.3   1 <1>  -0.6800 
 15 C       -4.5040    -2.8510     0.8640 C.3   1 <1>   0.0200 
 16 C        0.4960     5.6430    -0.2740 C.3   1 <1>   0.0200 
 17 C       -3.7980    -4.1460     0.4970 C.2   1 <1>  -0.0400 
 18 C       -0.2420     6.6660     0.5900 C.3   1 <1>  -0.2400 
 19 O       -4.0800    -5.2270     1.1740 O.3   1 <1>  -0.0190 
 20 C       -2.8840    -4.4750    -0.4320 C.2   1 <1>  -0.1500 
 21 N       -3.4040    -6.2570     0.7540 N.2   1 <1>  -0.4100 
 22 C       -2.6740    -5.8330    -0.2140 C.2   1 <1>   0.1080 
 23 C       -1.7200    -6.7020    -1.0020 C.3   1 <1>  -0.0590 
 24 H       -3.9000     1.6880     0.4480 H     1 <1>   0.0800 
 25 H       -3.7750     0.9270    -1.1320 H     1 <1>   0.0800 
 26 H       -1.7910    -1.8040    -0.1280 H     1 <1>   0.0800 
 27 H       -2.3050    -1.4870     1.5210 H     1 <1>   0.0800 
 28 H       -5.6480    -0.2710    -0.2010 H     1 <1>   0.0800 
 29 H       -3.9740    -1.8340    -0.9430 H     1 <1>   0.0800 
 30 H       -1.8760     4.9210    -1.5480 H     1 <1>   0.2700 
 31 H        0.8020     2.3100     2.0590 H     1 <1>   0.0800 
 32 H        1.7330     3.6370     1.4220 H     1 <1>   0.0800 
 33 H        1.8020     2.0740     0.6460 H     1 <1>   0.0800 
 34 H       -4.1450    -0.0060     2.1640 H     1 <1>   0.4000 
 35 H       -5.5510    -2.9610     0.6440 H     1 <1>   0.0800 
 36 H       -4.4100    -2.7040     1.9260 H     1 <1>   0.0800 
 37 H        1.4810     5.4850     0.1280 H     1 <1>   0.0800 
 38 H        0.6140     6.0240    -1.2740 H     1 <1>   0.0800 
 39 H       -0.3610     6.2830     1.5880 H     1 <1>   0.0800 
 40 H       -1.2140     6.8770     0.1830 H     1 <1>   0.0800 
 41 H        0.3200     7.5820     0.6380 H     1 <1>   0.0800 
 42 H       -2.4030    -3.8760    -1.1820 H     1 <1>   0.1500 
 43 H       -1.9900    -6.6910    -2.0420 H     1 <1>   0.0800 
 44 H       -1.7630    -7.7140    -0.6420 H     1 <1>   0.0800 
 45 H       -0.7160    -6.3360    -0.8910 H     1 <1>   0.0800 
@<TRIPOS>BOND
  1   1   2  2   
  2   2   3  am  
  3   2   4  1   
  4   3   5  1   
  5   3   6  1   
  6   4   7  2   
  7   4   8  1   
  8   5   9  1   
  9   5  24  1   
 10   5  25  1   
 11   6  10  1   
 12   6  26  1   
 13   6  27  1   
 14   7  11  1   
 15   8  12  2   
 16   8  13  1   
 17   9  10  1   
 18   9  14  1   
 19   9  28  1   
 20  10  15  1   
 21  10  29  1   
 22  11  12  1   
 23  11  30  1   
 24  12  16  1   
 25  13  31  1   
 26  13  32  1   
 27  13  33  1   
 28  14  34  1   
 29  15  17  1   
 30  15  35  1   
 31  15  36  1   
 32  16  18  1   
 33  16  37  1   
 34  16  38  1   
 35  17  19  1   
 36  17  20  2   
 37  18  39  1   
 38  18  40  1   
 39  18  41  1   
 40  19  21  1   
 41  20  22  1   
 42  20  42  1   
 43  21  22  2   
 44  22  23  1   
 45  23  43  1   
 46  23  44  1   
 47  23  45  1   
@<TRIPOS>SUBSTRUCTURE
  1 ****   3 GROUP 4 **** **** 0

# MOE 2024.06 (io_trps.svl 2023.06)
