@<TRIPOS>MOLECULE
NONAME
49 52 1 0 0 
SMALL
USER_CHARGES


@<TRIPOS>ATOM
  1 O        0.5980    -0.1520     1.5270 O.3   1 <1>  -0.0190 
  2 N        0.7880     1.0410     1.0660 N.2   1 <1>  -0.4100 
  3 C        1.3480    -1.0350     0.9340 C.2   1 <1>  -0.0400 
  4 C        1.7050     0.9550     0.1500 C.2   1 <1>   0.2350 
  5 C        2.0970    -0.3870     0.0300 C.2   1 <1>  -0.1500 
  6 C        1.2500    -2.4920     1.3440 C.3   1 <1>   0.5230 
  7 C        2.2200     2.0780    -0.6120 C.ar  1 <1>   0.0540 
  8 N       -0.0430    -3.0820     0.8810 N.4   1 <1>  -0.9590 
  9 C        3.2990     1.9880    -1.4820 C.ar  1 <1>  -0.1500 
 10 C        1.6600     3.3450    -0.5200 C.ar  1 <1>  -0.1500 
 11 C       -1.2080    -2.5800     1.6710 C.3   1 <1>   0.3430 
 12 C        0.0110    -4.5700     0.8800 C.3   1 <1>   0.3430 
 13 C        3.7340     3.1010    -2.1770 C.ar  1 <1>   0.1600 
 14 C        2.1690     4.3960    -1.2580 C.ar  1 <1>   0.1600 
 15 C       -2.5050    -3.0980     1.0520 C.3   1 <1>  -0.1600 
 16 C       -1.2620    -5.1340     0.2470 C.3   1 <1>  -0.1600 
 17 N        3.1950     4.3040    -2.0880 N.ar  1 <1>  -0.6200 
 18 C       -2.5380    -4.6330     0.9500 C.3   1 <1>  -0.0800 
 19 C       -3.8130    -5.0680     0.2020 C.3   1 <1>  -0.1600 
 20 C       -4.0390    -6.5900     0.1850 C.3   1 <1>   0.0960 
 21 N       -5.1830    -6.9250    -0.6800 N.pl3 1 <1>   0.3140 
 22 N       -5.0600    -6.9540    -2.0190 N.2   1 <1>  -0.7070 
 23 C       -6.4410    -7.2210    -0.2960 C.2   1 <1>  -0.3020 
 24 C       -6.2410    -7.2700    -2.4540 C.2   1 <1>   0.1390 
 25 C       -7.1520    -7.4500    -1.4200 C.2   1 <1>  -0.1500 
 26 H        2.8380    -0.7660    -0.6490 H     1 <1>   0.1500 
 27 H        1.3400    -2.5750     2.4150 H     1 <1>   0.0800 
 28 H        2.0710    -3.0260     0.8940 H     1 <1>   0.0800 
 29 H       -0.1880    -2.7680    -0.0880 H     1 <1>   0.4500 
 30 H        3.8140     1.0590    -1.6270 H     1 <1>   0.1500 
 31 H        0.8220     3.5170     0.1300 H     1 <1>   0.1500 
 32 H       -1.2300    -1.5020     1.6710 H     1 <1>   0.0800 
 33 H       -1.1350    -2.9170     2.6930 H     1 <1>   0.0800 
 34 H        0.0990    -4.9350     1.8910 H     1 <1>   0.0800 
 35 H        0.8670    -4.9110     0.3190 H     1 <1>   0.0800 
 36 H        4.5740     2.9990    -2.8450 H     1 <1>   0.1500 
 37 H        1.7100     5.3660    -1.1630 H     1 <1>   0.1500 
 38 H       -2.6260    -2.6580     0.0770 H     1 <1>   0.0800 
 39 H       -3.3310    -2.7620     1.6560 H     1 <1>   0.0800 
 40 H       -1.2110    -6.2070     0.3010 H     1 <1>   0.0800 
 41 H       -1.2850    -4.8680    -0.7970 H     1 <1>   0.0800 
 42 H       -2.5690    -5.0390     1.9490 H     1 <1>   0.0800 
 43 H       -3.7650    -4.7160    -0.8160 H     1 <1>   0.0800 
 44 H       -4.6710    -4.6110     0.6650 H     1 <1>   0.0800 
 45 H       -4.2330    -6.9580     1.1760 H     1 <1>   0.0800 
 46 H       -3.1830    -7.1010    -0.2130 H     1 <1>   0.0800 
 47 H       -6.7550    -7.2520     0.7300 H     1 <1>   0.1500 
 48 H       -6.4780    -7.3770    -3.5000 H     1 <1>   0.1500 
 49 H       -8.1890    -7.7140    -1.5260 H     1 <1>   0.1500 
@<TRIPOS>BOND
  1   1   2  1   
  2   1   3  1   
  3   2   4  2   
  4   3   5  2   
  5   3   6  1   
  6   4   5  1   
  7   4   7  1   
  8   5  26  1   
  9   6   8  1   
 10   6  27  1   
 11   6  28  1   
 12   7   9  ar  
 13   7  10  ar  
 14   8  11  1   
 15   8  12  1   
 16   8  29  1   
 17   9  13  ar  
 18   9  30  1   
 19  10  14  ar  
 20  10  31  1   
 21  11  15  1   
 22  11  32  1   
 23  11  33  1   
 24  12  16  1   
 25  12  34  1   
 26  12  35  1   
 27  13  17  ar  
 28  13  36  1   
 29  14  17  ar  
 30  14  37  1   
 31  15  18  1   
 32  15  38  1   
 33  15  39  1   
 34  16  18  1   
 35  16  40  1   
 36  16  41  1   
 37  18  19  1   
 38  18  42  1   
 39  19  20  1   
 40  19  43  1   
 41  19  44  1   
 42  20  21  1   
 43  20  45  1   
 44  20  46  1   
 45  21  22  1   
 46  21  23  1   
 47  22  24  2   
 48  23  25  2   
 49  23  47  1   
 50  24  25  1   
 51  24  48  1   
 52  25  49  1   
@<TRIPOS>SUBSTRUCTURE
  1 ****   8 GROUP 4 **** **** 0

# MOE 2024.06 (io_trps.svl 2023.06)
