@<TRIPOS>MOLECULE
NONAME
63 66 1 0 0 
SMALL
USER_CHARGES


@<TRIPOS>ATOM
  1 O       -2.1040     0.6810     1.9620 O.2   1 <1>  -0.5700 
  2 C       -2.3610     1.0920     0.8550 C.2   1 <1>   0.5690 
  3 N       -2.7220     0.2540    -0.1640 N.am  1 <1>  -0.6600 
  4 C       -2.1760     2.5850     0.6260 C.3   1 <1>  -0.0990 
  5 C       -2.3800    -1.2030    -0.0250 C.3   1 <1>   0.3640 
  6 C       -3.5510     0.6880    -1.3330 C.3   1 <1>   0.1400 
  7 C       -0.7440     3.0290     0.9980 C.3   1 <1>  -0.0800 
  8 C       -0.8870    -1.3610    -0.3360 C.ar  1 <1>  -0.1440 
  9 C       -3.2290    -2.1880    -0.8830 C.3   1 <1>   0.2000 
 10 C       -3.9960    -0.4600    -2.2510 C.3   1 <1>   0.1200 
 11 C       -0.5410     4.5330     0.7660 C.3   1 <1>  -0.1600 
 12 C        0.3240     2.2340     0.2230 C.3   1 <1>  -0.1600 
 13 C       -0.3530    -0.9870    -1.5630 C.ar  1 <1>  -0.1500 
 14 C       -0.0400    -1.8810     0.6320 C.ar  1 <1>  -0.1500 
 15 O       -4.3320    -1.5760    -1.4970 O.3   1 <1>  -0.5600 
 16 C       -3.7710    -3.3590    -0.0500 C.3   1 <1>   0.1200 
 17 C        0.8870     4.9620     1.1120 C.3   1 <1>   0.3430 
 18 C        1.7350     2.6940     0.5800 C.3   1 <1>   0.3430 
 19 C        0.9990    -1.1360    -1.8190 C.ar  1 <1>  -0.1500 
 20 C        1.3130    -2.0310     0.3790 C.ar  1 <1>  -0.1500 
 21 O       -2.7290    -4.0740     0.5360 O.3   1 <1>  -0.6800 
 22 N        1.8650     4.1560     0.3210 N.4   1 <1>  -0.9590 
 23 C        1.8340    -1.6590    -0.8480 C.ar  1 <1>  -0.1500 
 24 C        3.2610     4.6210     0.5410 C.3   1 <1>   0.4860 
 25 C        3.3830     6.0410     0.0260 C.ar  1 <1>  -0.1430 
 26 C        3.4600     7.1030     0.9170 C.ar  1 <1>  -0.1500 
 27 C        3.4100     6.2910    -1.3390 C.ar  1 <1>  -0.1500 
 28 C        3.5510     8.4010     0.4470 C.ar  1 <1>  -0.1500 
 29 C        3.5010     7.5900    -1.8070 C.ar  1 <1>  -0.1500 
 30 C        3.5680     8.6450    -0.9150 C.ar  1 <1>  -0.1500 
 31 H       -2.3760     2.8480    -0.3940 H     1 <1>   0.0800 
 32 H       -2.8870     3.1020     1.2460 H     1 <1>   0.0800 
 33 H       -2.5310    -1.4780     1.0050 H     1 <1>   0.0800 
 34 H       -4.4330     1.1790    -0.9590 H     1 <1>   0.0800 
 35 H       -3.0020     1.3980    -1.9250 H     1 <1>   0.0800 
 36 H       -0.6070     2.8320     2.0500 H     1 <1>   0.0800 
 37 H       -2.6210    -2.5940    -1.6710 H     1 <1>   0.0800 
 38 H       -3.2200    -0.7280    -2.9460 H     1 <1>   0.0800 
 39 H       -4.8660    -0.1660    -2.8120 H     1 <1>   0.0800 
 40 H       -1.2260     5.0870     1.3840 H     1 <1>   0.0800 
 41 H       -0.7510     4.7890    -0.2580 H     1 <1>   0.0800 
 42 H        0.1700     2.3230    -0.8380 H     1 <1>   0.0800 
 43 H        0.2550     1.1890     0.4700 H     1 <1>   0.0800 
 44 H       -0.9880    -0.5770    -2.3260 H     1 <1>   0.1500 
 45 H       -0.4350    -2.1750     1.5910 H     1 <1>   0.1500 
 46 H       -4.3340    -4.0340    -0.6710 H     1 <1>   0.0800 
 47 H       -4.4000    -2.9890     0.7410 H     1 <1>   0.0800 
 48 H        1.0600     4.8150     2.1660 H     1 <1>   0.0800 
 49 H        1.0060     6.0110     0.8910 H     1 <1>   0.0800 
 50 H        2.4490     2.1430    -0.0110 H     1 <1>   0.0800 
 51 H        1.9220     2.4870     1.6210 H     1 <1>   0.0800 
 52 H        1.4010    -0.8530    -2.7760 H     1 <1>   0.1500 
 53 H        1.9560    -2.4420     1.1380 H     1 <1>   0.1500 
 54 H       -2.1860    -4.5260    -0.1400 H     1 <1>   0.4000 
 55 H        1.6530     4.3280    -0.6680 H     1 <1>   0.4500 
 56 H        2.8840    -1.7850    -1.0460 H     1 <1>   0.1500 
 57 H        3.5070     4.5840     1.5890 H     1 <1>   0.0800 
 58 H        3.9520     3.9900     0.0050 H     1 <1>   0.0800 
 59 H        3.4540     6.9380     1.9810 H     1 <1>   0.1500 
 60 H        3.3670     5.4870    -2.0540 H     1 <1>   0.1500 
 61 H        3.6110     9.2260     1.1370 H     1 <1>   0.1500 
 62 H        3.5220     7.7860    -2.8660 H     1 <1>   0.1500 
 63 H        3.6400     9.6560    -1.2800 H     1 <1>   0.1500 
@<TRIPOS>BOND
  1   1   2  2   
  2   2   3  am  
  3   2   4  1   
  4   3   5  1   
  5   3   6  1   
  6   4   7  1   
  7   4  31  1   
  8   4  32  1   
  9   5   8  1   
 10   5   9  1   
 11   5  33  1   
 12   6  10  1   
 13   6  34  1   
 14   6  35  1   
 15   7  11  1   
 16   7  12  1   
 17   7  36  1   
 18   8  13  ar  
 19   8  14  ar  
 20   9  15  1   
 21   9  16  1   
 22   9  37  1   
 23  10  15  1   
 24  10  38  1   
 25  10  39  1   
 26  11  17  1   
 27  11  40  1   
 28  11  41  1   
 29  12  18  1   
 30  12  42  1   
 31  12  43  1   
 32  13  19  ar  
 33  13  44  1   
 34  14  20  ar  
 35  14  45  1   
 36  16  21  1   
 37  16  46  1   
 38  16  47  1   
 39  17  22  1   
 40  17  48  1   
 41  17  49  1   
 42  18  22  1   
 43  18  50  1   
 44  18  51  1   
 45  19  23  ar  
 46  19  52  1   
 47  20  23  ar  
 48  20  53  1   
 49  21  54  1   
 50  22  24  1   
 51  22  55  1   
 52  23  56  1   
 53  24  25  1   
 54  24  57  1   
 55  24  58  1   
 56  25  26  ar  
 57  25  27  ar  
 58  26  28  ar  
 59  26  59  1   
 60  27  29  ar  
 61  27  60  1   
 62  28  30  ar  
 63  28  61  1   
 64  29  30  ar  
 65  29  62  1   
 66  30  63  1   
@<TRIPOS>SUBSTRUCTURE
  1 ****  12 GROUP 4 **** **** 0

# MOE 2024.06 (io_trps.svl 2023.06)
