@<TRIPOS>MOLECULE
NONAME
46 48 1 0 0 
SMALL
USER_CHARGES


@<TRIPOS>ATOM
  1 CL       3.7410     0.1000     1.4970 Cl    1 <1>  -0.1770 
  2 C        4.6760     1.4300     0.8640 C.ar  1 <1>   0.1770 
  3 C        4.1860     2.7150     0.9750 C.ar  1 <1>  -0.1500 
  4 C        5.8920     1.1720     0.2600 C.ar  1 <1>  -0.1500 
  5 C        4.9110     3.7920     0.4720 C.ar  1 <1>   0.0860 
  6 C        6.6310     2.2300    -0.2380 C.ar  1 <1>  -0.1500 
  7 C        4.3940     5.1420     0.5890 C.2   1 <1>   0.5440 
  8 C        6.1430     3.5210    -0.1280 C.ar  1 <1>  -0.1500 
  9 O        4.4080     5.6750     1.6820 O.2   1 <1>  -0.5700 
 10 N        3.8820     5.8360    -0.4890 N.am  1 <1>  -0.6600 
 11 C        3.9620     5.3440    -1.9050 C.3   1 <1>   0.1400 
 12 C        3.2940     7.1950    -0.3110 C.3   1 <1>   0.1400 
 13 C        4.5480     6.3850    -2.8750 C.3   1 <1>   0.1400 
 14 C        4.3910     8.2700    -0.2990 C.3   1 <1>  -0.1600 
 15 N        5.6170     7.1980    -2.2240 N.am  1 <1>  -0.6600 
 16 C        5.1500     8.4770    -1.6200 C.3   1 <1>   0.1400 
 17 C        6.8900     6.6950    -2.0810 C.2   1 <1>   0.6160 
 18 O        7.2080     5.7040    -2.7120 O.2   1 <1>  -0.5700 
 19 C        7.8500     7.2920    -1.1810 C.2   1 <1>   0.0140 
 20 C        8.9450     7.9870    -1.6170 C.2   1 <1>  -0.1360 
 21 C        7.6800     7.1540     0.2290 C.2   1 <1>  -0.1500 
 22 C        9.8630     8.5690    -0.7100 C.2   1 <1>   0.6160 
 23 C        8.5560     7.7090     1.1050 C.2   1 <1>  -0.0290 
 24 O       10.8410     9.2100    -1.0620 O.2   1 <1>  -0.5700 
 25 N        9.6330     8.4120     0.6260 N.am  1 <1>  -0.5390 
 26 C        8.4140     7.5930     2.6090 C.3   1 <1>  -0.1020 
 27 H        3.2400     2.8880     1.4560 H     1 <1>   0.1500 
 28 H        6.2520     0.1610     0.1860 H     1 <1>   0.1500 
 29 H        7.5820     2.0530    -0.7110 H     1 <1>   0.1500 
 30 H        6.7270     4.3360    -0.5170 H     1 <1>   0.1500 
 31 H        2.9780     5.0650    -2.2380 H     1 <1>   0.0800 
 32 H        4.5750     4.4640    -1.9640 H     1 <1>   0.0800 
 33 H        2.7650     7.2250     0.6270 H     1 <1>   0.0800 
 34 H        2.5810     7.3940    -1.0920 H     1 <1>   0.0800 
 35 H        3.7630     7.0320    -3.2220 H     1 <1>   0.0800 
 36 H        4.9480     5.8810    -3.7390 H     1 <1>   0.0800 
 37 H        5.0830     8.0520     0.4910 H     1 <1>   0.0800 
 38 H        3.9310     9.2060    -0.0400 H     1 <1>   0.0800 
 39 H        5.9900     9.1280    -1.4470 H     1 <1>   0.0800 
 40 H        4.5060     8.9740    -2.3250 H     1 <1>   0.0800 
 41 H        9.1510     8.1170    -2.6620 H     1 <1>   0.1500 
 42 H        6.8320     6.5900     0.5760 H     1 <1>   0.1500 
 43 H       10.3260     8.8440     1.2370 H     1 <1>   0.3700 
 44 H        9.2700     7.0920     3.0230 H     1 <1>   0.0800 
 45 H        7.5320     7.0300     2.8630 H     1 <1>   0.0800 
 46 H        8.3320     8.5710     3.0480 H     1 <1>   0.0800 
@<TRIPOS>BOND
  1   1   2  1   
  2   2   3  ar  
  3   2   4  ar  
  4   3   5  ar  
  5   3  27  1   
  6   4   6  ar  
  7   4  28  1   
  8   5   7  1   
  9   5   8  ar  
 10   6   8  ar  
 11   6  29  1   
 12   7   9  2   
 13   7  10  am  
 14   8  30  1   
 15  10  11  1   
 16  10  12  1   
 17  11  13  1   
 18  11  31  1   
 19  11  32  1   
 20  12  14  1   
 21  12  33  1   
 22  12  34  1   
 23  13  15  1   
 24  13  35  1   
 25  13  36  1   
 26  14  16  1   
 27  14  37  1   
 28  14  38  1   
 29  15  16  1   
 30  15  17  am  
 31  16  39  1   
 32  16  40  1   
 33  17  18  2   
 34  17  19  1   
 35  19  20  2   
 36  19  21  1   
 37  20  22  1   
 38  20  41  1   
 39  21  23  2   
 40  21  42  1   
 41  22  24  2   
 42  22  25  am  
 43  23  25  1   
 44  23  26  1   
 45  25  43  1   
 46  26  44  1   
 47  26  45  1   
 48  26  46  1   
@<TRIPOS>SUBSTRUCTURE
  1 ****  21 GROUP 4 **** **** 0

# MOE 2024.06 (io_trps.svl 2023.06)
