@<TRIPOS>MOLECULE
NONAME
36 38 1 0 0 
SMALL
USER_CHARGES


@<TRIPOS>ATOM
  1 S        0.0420     0.2900     0.5560 S.3   1 <1>  -0.0800 
  2 C       -0.4280    -1.3470     0.9500 C.2   1 <1>  -0.1100 
  3 C        1.5540    -0.2680    -0.1250 C.2   1 <1>  -0.1100 
  4 C        0.5070    -2.2530     0.5650 C.2   1 <1>  -0.0860 
  5 C        1.6430    -1.6070    -0.0410 C.2   1 <1>  -0.1500 
  6 C        0.4550    -3.6930     0.7230 C.2   1 <1>   0.7160 
  7 O        1.4670    -4.3040     1.0050 O.2   1 <1>  -0.5700 
  8 N       -0.7120    -4.4020     0.5400 N.am  1 <1>  -0.6600 
  9 C       -1.8580    -3.9320    -0.2840 C.3   1 <1>   0.1400 
 10 C       -0.7690    -5.8810     0.6900 C.3   1 <1>   0.1400 
 11 C       -2.8240    -5.1150    -0.3200 C.3   1 <1>   0.2000 
 12 C       -1.9060    -6.3380    -0.2310 C.3   1 <1>  -0.0800 
 13 O       -3.6240    -5.0510     0.8110 O.3   1 <1>  -0.6800 
 14 C       -2.5960    -7.6380     0.2240 C.3   1 <1>   0.0200 
 15 C       -1.6820    -8.8500     0.1680 C.2   1 <1>  -0.0400 
 16 O       -2.1070    -9.9780     0.6720 O.3   1 <1>  -0.0190 
 17 C       -0.4450    -9.0610    -0.3130 C.2   1 <1>  -0.1500 
 18 N       -1.2250   -10.9280     0.5570 N.2   1 <1>  -0.4100 
 19 C       -0.2120   -10.4040    -0.0330 C.2   1 <1>   0.1080 
 20 C        1.0510   -11.1640    -0.3660 C.3   1 <1>  -0.0590 
 21 H       -1.3720    -1.4770     1.4480 H     1 <1>   0.1500 
 22 H        2.2270     0.4750    -0.5170 H     1 <1>   0.1500 
 23 H        2.4790    -2.1960    -0.3820 H     1 <1>   0.1500 
 24 H       -2.3300    -3.0600     0.1310 H     1 <1>   0.0800 
 25 H       -1.5080    -3.7130    -1.2790 H     1 <1>   0.0800 
 26 H        0.1670    -6.3370     0.4140 H     1 <1>   0.0800 
 27 H       -0.9860    -6.1200     1.7170 H     1 <1>   0.0800 
 28 H       -3.4600    -5.1160    -1.1890 H     1 <1>   0.0800 
 29 H       -1.4900    -6.4990    -1.2100 H     1 <1>   0.0800 
 30 H       -3.0580    -4.9060     1.5960 H     1 <1>   0.4000 
 31 H       -3.4500    -7.8280    -0.4020 H     1 <1>   0.0800 
 32 H       -2.9540    -7.5310     1.2340 H     1 <1>   0.0800 
 33 H        0.2370    -8.3930    -0.8050 H     1 <1>   0.1500 
 34 H        1.7640   -10.5200    -0.8470 H     1 <1>   0.0800 
 35 H        0.8160   -11.9820    -1.0220 H     1 <1>   0.0800 
 36 H        1.4840   -11.5560     0.5370 H     1 <1>   0.0800 
@<TRIPOS>BOND
  1   1   2  1   
  2   1   3  1   
  3   2   4  2   
  4   2  21  1   
  5   3   5  2   
  6   3  22  1   
  7   4   5  1   
  8   4   6  1   
  9   5  23  1   
 10   6   7  2   
 11   6   8  am  
 12   8   9  1   
 13   8  10  1   
 14   9  11  1   
 15   9  24  1   
 16   9  25  1   
 17  10  12  1   
 18  10  26  1   
 19  10  27  1   
 20  11  12  1   
 21  11  13  1   
 22  11  28  1   
 23  12  14  1   
 24  12  29  1   
 25  13  30  1   
 26  14  15  1   
 27  14  31  1   
 28  14  32  1   
 29  15  16  1   
 30  15  17  2   
 31  16  18  1   
 32  17  19  1   
 33  17  33  1   
 34  18  19  2   
 35  19  20  1   
 36  20  34  1   
 37  20  35  1   
 38  20  36  1   
@<TRIPOS>SUBSTRUCTURE
  1 ****  10 GROUP 4 **** **** 0

# MOE 2024.06 (io_trps.svl 2023.06)
