@<TRIPOS>MOLECULE
NONAME
49 51 1 0 0 
SMALL
USER_CHARGES


@<TRIPOS>ATOM
  1 O       -1.0700     0.0600    -0.2820 O.2   1 <1>  -0.5700 
  2 C       -2.0840     0.6540     0.0370 C.2   1 <1>   0.5440 
  3 N       -2.1700     2.0040    -0.2320 N.am  1 <1>  -0.6600 
  4 C       -3.1580    -0.0760     0.6660 C.ar  1 <1>   0.0860 
  5 C       -0.9670     2.8170    -0.5900 C.3   1 <1>   0.1400 
  6 C       -3.4560     2.7170    -0.5000 C.3   1 <1>   0.1400 
  7 C       -3.4950    -1.3520     0.2260 C.ar  1 <1>   0.1600 
  8 C       -3.8950     0.4290     1.7330 C.ar  1 <1>  -0.1500 
  9 C       -1.1140     3.4090    -2.0010 C.3   1 <1>   0.1200 
 10 C       -3.4550     3.3280    -1.9120 C.3   1 <1>   0.1200 
 11 N       -4.4680    -2.1080     0.7020 N.ar  1 <1>  -0.6200 
 12 C       -4.9060    -0.3470     2.2460 C.ar  1 <1>  -0.1500 
 13 O       -2.3170     4.1170    -2.1130 O.3   1 <1>  -0.5600 
 14 C       -5.1800    -1.6040     1.7060 C.ar  1 <1>   0.4100 
 15 N       -6.2070    -2.3830     2.2030 N.pl3 1 <1>  -0.8380 
 16 C       -6.2020    -3.8790     2.0510 C.3   1 <1>   0.3530 
 17 C       -7.4640    -1.8120     2.7630 C.3   1 <1>   0.1290 
 18 C       -7.2800    -4.3770     1.0870 C.ar  1 <1>   0.1670 
 19 N       -8.2360    -5.1500     1.5910 N.ar  1 <1>  -0.6200 
 20 C       -7.2180    -4.0060    -0.2480 C.ar  1 <1>  -0.1500 
 21 C       -9.1520    -5.5640     0.7300 C.ar  1 <1>   0.1600 
 22 C       -8.1800    -4.4460    -1.1300 C.ar  1 <1>  -0.1500 
 23 C       -9.1770    -5.2520    -0.6220 C.ar  1 <1>  -0.1430 
 24 C      -10.2780    -5.7830    -1.5260 C.3   1 <1>  -0.0170 
 25 C      -11.4540    -4.8050    -1.5720 C.3   1 <1>  -0.2400 
 26 H       -0.0740     2.2180    -0.5460 H     1 <1>   0.0800 
 27 H       -0.8590     3.6180     0.1190 H     1 <1>   0.0800 
 28 H       -3.5830     3.5030     0.2240 H     1 <1>   0.0800 
 29 H       -4.2900     2.0440    -0.4160 H     1 <1>   0.0800 
 30 H       -2.9130    -1.7660    -0.5810 H     1 <1>   0.1500 
 31 H       -3.6670     1.3970     2.1430 H     1 <1>   0.1500 
 32 H       -1.0990     2.6270    -2.7400 H     1 <1>   0.0800 
 33 H       -0.3090     4.0930    -2.2020 H     1 <1>   0.0800 
 34 H       -4.3170     3.9580    -2.0460 H     1 <1>   0.0800 
 35 H       -3.4730     2.5540    -2.6600 H     1 <1>   0.0800 
 36 H       -5.4860     0.0040     3.0760 H     1 <1>   0.1500 
 37 H       -6.3680    -4.3220     3.0170 H     1 <1>   0.0800 
 38 H       -5.2430    -4.2240     1.7080 H     1 <1>   0.0800 
 39 H       -7.5600    -0.7740     2.5000 H     1 <1>   0.0800 
 40 H       -7.4600    -1.9090     3.8350 H     1 <1>   0.0800 
 41 H       -8.3200    -2.3340     2.3710 H     1 <1>   0.0800 
 42 H       -6.4190    -3.3700    -0.5870 H     1 <1>   0.1500 
 43 H       -9.9320    -6.1900     1.1260 H     1 <1>   0.1500 
 44 H       -8.1490    -4.1670    -2.1690 H     1 <1>   0.1500 
 45 H      -10.6160    -6.7390    -1.1650 H     1 <1>   0.0800 
 46 H       -9.8910    -5.9290    -2.5190 H     1 <1>   0.0800 
 47 H      -11.8600    -4.6640    -0.5860 H     1 <1>   0.0800 
 48 H      -12.2270    -5.1860    -2.2150 H     1 <1>   0.0800 
 49 H      -11.1280    -3.8520    -1.9500 H     1 <1>   0.0800 
@<TRIPOS>BOND
  1   1   2  2   
  2   2   3  am  
  3   2   4  1   
  4   3   5  1   
  5   3   6  1   
  6   4   7  ar  
  7   4   8  ar  
  8   5   9  1   
  9   5  26  1   
 10   5  27  1   
 11   6  10  1   
 12   6  28  1   
 13   6  29  1   
 14   7  11  ar  
 15   7  30  1   
 16   8  12  ar  
 17   8  31  1   
 18   9  13  1   
 19   9  32  1   
 20   9  33  1   
 21  10  13  1   
 22  10  34  1   
 23  10  35  1   
 24  11  14  ar  
 25  12  14  ar  
 26  12  36  1   
 27  14  15  1   
 28  15  16  1   
 29  15  17  1   
 30  16  18  1   
 31  16  37  1   
 32  16  38  1   
 33  17  39  1   
 34  17  40  1   
 35  17  41  1   
 36  18  19  ar  
 37  18  20  ar  
 38  19  21  ar  
 39  20  22  ar  
 40  20  42  1   
 41  21  23  ar  
 42  21  43  1   
 43  22  23  ar  
 44  22  44  1   
 45  23  24  1   
 46  24  25  1   
 47  24  45  1   
 48  24  46  1   
 49  25  47  1   
 50  25  48  1   
 51  25  49  1   
@<TRIPOS>SUBSTRUCTURE
  1 ****  11 GROUP 4 **** **** 0

# MOE 2024.06 (io_trps.svl 2023.06)
