@<TRIPOS>MOLECULE
NONAME
60 63 1 0 0 
SMALL
USER_CHARGES


@<TRIPOS>ATOM
  1 F        0.2440    -0.4760     0.4690 F     1 <1>  -0.1900 
  2 C        1.1780    -1.3520     0.1780 C.ar  1 <1>   0.1900 
  3 C        0.8390    -2.7040     0.0430 C.ar  1 <1>   0.1000 
  4 C        2.4670    -0.8830     0.0190 C.ar  1 <1>  -0.1500 
  5 N       -0.4570    -3.2170     0.1970 N.pl3 1 <1>  -0.8380 
  6 C        1.8710    -3.5820    -0.2630 C.ar  1 <1>  -0.1500 
  7 C        3.4730    -1.7850    -0.2860 C.ar  1 <1>  -0.1500 
  8 C       -1.4230    -2.7850    -0.8360 C.3   1 <1>   0.2090 
  9 C       -0.9880    -3.1560     1.5760 C.3   1 <1>   0.2090 
 10 C        3.1710    -3.1310    -0.4260 C.ar  1 <1>  -0.1500 
 11 C       -2.5870    -3.7690    -0.8150 C.3   1 <1>  -0.1600 
 12 C       -2.1420    -4.1490     1.6700 C.3   1 <1>  -0.1600 
 13 C       -3.1910    -3.8350     0.5930 C.3   1 <1>   0.4230 
 14 N       -4.3150    -4.8200     0.6050 N.4   1 <1>  -0.9590 
 15 C       -3.9120    -6.2640     0.4500 C.3   1 <1>   0.3430 
 16 C       -5.2630    -4.5720     1.7320 C.3   1 <1>   0.3430 
 17 C       -5.1100    -7.2610     0.3260 C.3   1 <1>   0.4230 
 18 C       -6.3320    -5.6750     1.8510 C.3   1 <1>  -0.1600 
 19 N       -5.1220    -8.1810    -0.8910 N.4   1 <1>  -0.9590 
 20 C       -6.4970    -6.6200     0.6270 C.3   1 <1>   0.0000 
 21 C       -6.4080    -8.9510    -1.0370 C.3   1 <1>   0.3430 
 22 C       -4.7880    -7.5260    -2.2010 C.3   1 <1>   0.2630 
 23 C       -7.4460    -7.7870     1.0230 C.3   1 <1>  -0.1600 
 24 C       -7.1830    -5.8560    -0.5520 C.3   1 <1>   0.1200 
 25 C       -7.1210    -9.1220     0.3100 C.3   1 <1>  -0.1600 
 26 O       -6.3340    -4.9790    -1.2180 O.3   1 <1>  -0.6800 
 27 H        2.6780     0.1640     0.1330 H     1 <1>   0.1500 
 28 H        1.6460    -4.6260    -0.3730 H     1 <1>   0.1500 
 29 H        4.4860    -1.4420    -0.4150 H     1 <1>   0.1500 
 30 H       -1.7600    -1.7820    -0.6290 H     1 <1>   0.0800 
 31 H       -0.9450    -2.7910    -1.8030 H     1 <1>   0.0800 
 32 H       -0.2100    -3.4200     2.2750 H     1 <1>   0.0800 
 33 H       -1.3190    -2.1550     1.7990 H     1 <1>   0.0800 
 34 H        3.9530    -3.8320    -0.6640 H     1 <1>   0.1500 
 35 H       -2.2040    -4.7240    -1.1230 H     1 <1>   0.0800 
 36 H       -3.3260    -3.4400    -1.5220 H     1 <1>   0.0800 
 37 H       -2.5700    -4.0760     2.6520 H     1 <1>   0.0800 
 38 H       -1.7240    -5.1300     1.5410 H     1 <1>   0.0800 
 39 H       -3.5900    -2.8560     0.8070 H     1 <1>   0.0800 
 40 H       -4.8870    -4.6080    -0.2380 H     1 <1>   0.4500 
 41 H       -3.2730    -6.3710    -0.4080 H     1 <1>   0.0800 
 42 H       -3.3390    -6.5480     1.3170 H     1 <1>   0.0800 
 43 H       -4.7240    -4.5060     2.6640 H     1 <1>   0.0800 
 44 H       -5.7540    -3.6250     1.5730 H     1 <1>   0.0800 
 45 H       -4.9540    -7.9240     1.1620 H     1 <1>   0.0800 
 46 H       -6.0700    -6.2590     2.7170 H     1 <1>   0.0800 
 47 H       -7.2740    -5.2100     2.0870 H     1 <1>   0.0800 
 48 H       -4.3980    -8.8990    -0.7260 H     1 <1>   0.4500 
 49 H       -7.0690    -8.4300    -1.7100 H     1 <1>   0.0800 
 50 H       -6.2080    -9.9210    -1.4680 H     1 <1>   0.0800 
 51 H       -5.5360    -6.7970    -2.4630 H     1 <1>   0.0800 
 52 H       -4.7500    -8.2650    -2.9870 H     1 <1>   0.0800 
 53 H       -3.8290    -7.0370    -2.1540 H     1 <1>   0.0800 
 54 H       -7.4020    -7.9760     2.0830 H     1 <1>   0.0800 
 55 H       -8.4690    -7.5150     0.8170 H     1 <1>   0.0800 
 56 H       -8.0180    -5.2840    -0.1800 H     1 <1>   0.0800 
 57 H       -7.5690    -6.5400    -1.2870 H     1 <1>   0.0800 
 58 H       -8.0360    -9.6680     0.1540 H     1 <1>   0.0800 
 59 H       -6.5060    -9.7350     0.9480 H     1 <1>   0.0800 
 60 H       -6.8530    -4.4530    -1.8730 H     1 <1>   0.4000 
@<TRIPOS>BOND
  1   1   2  1   
  2   2   3  ar  
  3   2   4  ar  
  4   3   5  1   
  5   3   6  ar  
  6   4   7  ar  
  7   4  27  1   
  8   5   8  1   
  9   5   9  1   
 10   6  10  ar  
 11   6  28  1   
 12   7  10  ar  
 13   7  29  1   
 14   8  11  1   
 15   8  30  1   
 16   8  31  1   
 17   9  12  1   
 18   9  32  1   
 19   9  33  1   
 20  10  34  1   
 21  11  13  1   
 22  11  35  1   
 23  11  36  1   
 24  12  13  1   
 25  12  37  1   
 26  12  38  1   
 27  13  14  1   
 28  13  39  1   
 29  14  15  1   
 30  14  16  1   
 31  14  40  1   
 32  15  17  1   
 33  15  41  1   
 34  15  42  1   
 35  16  18  1   
 36  16  43  1   
 37  16  44  1   
 38  17  19  1   
 39  17  20  1   
 40  17  45  1   
 41  18  20  1   
 42  18  46  1   
 43  18  47  1   
 44  19  21  1   
 45  19  22  1   
 46  19  48  1   
 47  20  23  1   
 48  20  24  1   
 49  21  25  1   
 50  21  49  1   
 51  21  50  1   
 52  22  51  1   
 53  22  52  1   
 54  22  53  1   
 55  23  25  1   
 56  23  54  1   
 57  23  55  1   
 58  24  26  1   
 59  24  56  1   
 60  24  57  1   
 61  25  58  1   
 62  25  59  1   
 63  26  60  1   
@<TRIPOS>SUBSTRUCTURE
  1 ****  13 GROUP 4 **** **** 0

# MOE 2024.06 (io_trps.svl 2023.06)
