@<TRIPOS>MOLECULE
NONAME
58 62 1 0 0 
SMALL
USER_CHARGES


@<TRIPOS>ATOM
  1 O       -0.4060    -0.2420     0.4280 O.3   1 <1>  -0.5600 
  2 C        0.4850     0.8150     0.3150 C.3   1 <1>   0.1200 
  3 C       -1.6840     0.2250     0.7370 C.3   1 <1>   0.1200 
  4 C       -0.3560     1.9420    -0.2660 C.3   1 <1>   0.2890 
  5 C       -1.6920     1.7290     0.4300 C.3   1 <1>  -0.0800 
  6 N        0.1940     3.2910     0.0230 N.pl3 1 <1>  -0.8690 
  7 C       -2.8890     2.1820    -0.4280 C.3   1 <1>  -0.0170 
  8 C        0.8000     4.2120    -0.7310 C.ar  1 <1>   0.7710 
  9 C       -4.2750     2.0420     0.2130 C.ar  1 <1>  -0.1440 
 10 N        1.0780     5.3470    -0.1280 N.ar  1 <1>  -0.6200 
 11 N        1.1020     3.9720    -2.0200 N.ar  1 <1>  -0.1790 
 12 C       -5.4370     2.2350    -0.5770 C.ar  1 <1>   0.0000 
 13 C       -4.4690     1.7480     1.5340 C.ar  1 <1>  -0.1500 
 14 C        1.6670     6.2990    -0.8300 C.ar  1 <1>   0.4100 
 15 C        1.7290     4.9110    -2.7690 C.ar  1 <1>   0.2110 
 16 C       -6.6990     2.0840     0.0480 C.ar  1 <1>   0.3100 
 17 C       -5.4230     2.5750    -1.9520 C.ar  1 <1>  -0.1500 
 18 C       -5.7630     1.6260     2.0540 C.ar  1 <1>   0.1600 
 19 N        1.9180     7.4820    -0.2070 N.pl3 1 <1>  -0.8380 
 20 C        2.0230     6.0930    -2.1780 C.ar  1 <1>  -0.1500 
 21 N       -6.8440     1.7780     1.3600 N.ar  1 <1>  -0.6200 
 22 C       -7.8650     2.2610    -0.7130 C.ar  1 <1>  -0.1500 
 23 C       -6.5790     2.7430    -2.6650 C.ar  1 <1>  -0.1500 
 24 C        1.9210     8.8120    -0.8880 C.3   1 <1>   0.2090 
 25 C        2.0990     7.5820     1.2760 C.3   1 <1>   0.2090 
 26 C       -7.8170     2.5830    -2.0420 C.ar  1 <1>  -0.1500 
 27 C        0.7980     9.6780    -0.3150 C.3   1 <1>  -0.1600 
 28 C        0.9680     8.4190     1.8710 C.3   1 <1>  -0.1600 
 29 C        0.9270     9.7920     1.2030 C.3   1 <1>   0.2000 
 30 O       -0.1620    10.4810     1.6840 O.3   1 <1>  -0.6800 
 31 H        0.8430     1.0530     1.3020 H     1 <1>   0.0800 
 32 H        1.2970     0.5190    -0.3250 H     1 <1>   0.0800 
 33 H       -2.3910    -0.3220     0.1350 H     1 <1>   0.0800 
 34 H       -1.8730     0.0300     1.7790 H     1 <1>   0.0800 
 35 H       -0.4590     1.7790    -1.3250 H     1 <1>   0.0800 
 36 H       -1.6920     2.2620     1.3650 H     1 <1>   0.0800 
 37 H        0.0540     3.5940     0.9940 H     1 <1>   0.4000 
 38 H       -2.8790     1.6050    -1.3360 H     1 <1>   0.0800 
 39 H       -2.7550     3.2170    -0.6910 H     1 <1>   0.0800 
 40 H        0.8580     3.0580    -2.3840 H     1 <1>   0.4570 
 41 H       -3.6640     1.6000     2.2270 H     1 <1>   0.1500 
 42 H        1.9780     4.6920    -3.7960 H     1 <1>   0.1500 
 43 H       -4.4880     2.7110    -2.4580 H     1 <1>   0.1500 
 44 H       -5.8660     1.3900     3.1000 H     1 <1>   0.1500 
 45 H        2.5380     6.8690    -2.7110 H     1 <1>   0.1500 
 46 H       -8.8070     2.1340    -0.2110 H     1 <1>   0.1500 
 47 H       -6.5530     3.0010    -3.7110 H     1 <1>   0.1500 
 48 H        2.8730     9.2920    -0.7290 H     1 <1>   0.0800 
 49 H        1.7680     8.7110    -1.9470 H     1 <1>   0.0800 
 50 H        2.1110     6.6080     1.7350 H     1 <1>   0.0800 
 51 H        3.0460     8.0500     1.4840 H     1 <1>   0.0800 
 52 H       -8.7200     2.7160    -2.6130 H     1 <1>   0.1500 
 53 H       -0.1450     9.2320    -0.5760 H     1 <1>   0.0800 
 54 H        0.8490    10.6590    -0.7530 H     1 <1>   0.0800 
 55 H        1.1340     8.5380     2.9270 H     1 <1>   0.0800 
 56 H        0.0410     7.8970     1.7210 H     1 <1>   0.0800 
 57 H        1.8090    10.3560     1.4590 H     1 <1>   0.0800 
 58 H       -0.9820     9.9860     1.4970 H     1 <1>   0.4000 
@<TRIPOS>BOND
  1   1   2  1   
  2   1   3  1   
  3   2   4  1   
  4   2  31  1   
  5   2  32  1   
  6   3   5  1   
  7   3  33  1   
  8   3  34  1   
  9   4   5  1   
 10   4   6  1   
 11   4  35  1   
 12   5   7  1   
 13   5  36  1   
 14   6   8  1   
 15   6  37  1   
 16   7   9  1   
 17   7  38  1   
 18   7  39  1   
 19   8  10  ar  
 20   8  11  ar  
 21   9  12  ar  
 22   9  13  ar  
 23  10  14  ar  
 24  11  15  ar  
 25  11  40  1   
 26  12  16  ar  
 27  12  17  ar  
 28  13  18  ar  
 29  13  41  1   
 30  14  19  1   
 31  14  20  ar  
 32  15  20  ar  
 33  15  42  1   
 34  16  21  ar  
 35  16  22  ar  
 36  17  23  ar  
 37  17  43  1   
 38  18  21  ar  
 39  18  44  1   
 40  19  24  1   
 41  19  25  1   
 42  20  45  1   
 43  22  26  ar  
 44  22  46  1   
 45  23  26  ar  
 46  23  47  1   
 47  24  27  1   
 48  24  48  1   
 49  24  49  1   
 50  25  28  1   
 51  25  50  1   
 52  25  51  1   
 53  26  52  1   
 54  27  29  1   
 55  27  53  1   
 56  27  54  1   
 57  28  29  1   
 58  28  55  1   
 59  28  56  1   
 60  29  30  1   
 61  29  57  1   
 62  30  58  1   
@<TRIPOS>SUBSTRUCTURE
  1 ****   6 GROUP 4 **** **** 0

# MOE 2024.06 (io_trps.svl 2023.06)
