@<TRIPOS>MOLECULE
NONAME
49 51 1 0 0 
SMALL
USER_CHARGES


@<TRIPOS>ATOM
  1 O        2.3810     2.0830     1.5160 O.co2 1 <1>  -0.9000 
  2 C        2.1100     0.9310     1.1730 C.2   1 <1>   0.9060 
  3 O        1.8640     0.0610     2.0140 O.co2 1 <1>  -0.9000 
  4 C        2.4750     0.4780    -0.2570 C.3   1 <1>  -0.1060 
  5 C        3.6120    -0.5440    -0.0540 C.3   1 <1>   0.4230 
  6 C        3.0450     1.6530    -1.1200 C.3   1 <1>  -0.1600 
  7 C        1.2720    -0.1450    -1.0130 C.3   1 <1>  -0.1600 
  8 N        3.0690    -1.8010     0.5810 N.4   1 <1>  -0.9590 
  9 C        4.7750     0.1370     0.7540 C.3   1 <1>   0.3430 
 10 C        4.4780     2.1100    -0.7740 C.3   1 <1>   0.3430 
 11 C        0.8400    -1.5000    -0.4350 C.3   1 <1>  -0.1600 
 12 C        2.0200    -2.4540    -0.2490 C.3   1 <1>   0.3430 
 13 C        4.0630    -2.7920     1.0840 C.3   1 <1>   0.2630 
 14 N        4.8430     1.6360     0.5890 N.4   1 <1>  -0.9590 
 15 C        6.0350     2.2790     1.1950 C.3   1 <1>   0.5240 
 16 C        5.9830     3.7740     0.9700 C.2   1 <1>  -0.1810 
 17 C        6.8570     4.5860     0.3310 C.2   1 <1>  -0.3320 
 18 C        4.9600     4.6140     1.3980 C.2   1 <1>   0.1390 
 19 N        6.3420     5.8360     0.4020 N.pl3 1 <1>   0.3140 
 20 C        8.1780     4.2600    -0.3520 C.3   1 <1>  -0.0600 
 21 N        5.1700     5.8440     1.0530 N.2   1 <1>  -0.7070 
 22 C        6.9190     7.0810    -0.1270 C.3   1 <1>   0.0160 
 23 H        3.9980    -0.8030    -1.0250 H     1 <1>   0.0800 
 24 H        2.3900     2.5040    -1.0220 H     1 <1>   0.0800 
 25 H        3.0410     1.3960    -2.1640 H     1 <1>   0.0800 
 26 H        0.4370     0.5370    -0.9810 H     1 <1>   0.0800 
 27 H        1.5260    -0.2940    -2.0490 H     1 <1>   0.0800 
 28 H        2.5300    -1.4100     1.4050 H     1 <1>   0.4500 
 29 H        5.7090    -0.3020     0.4510 H     1 <1>   0.0800 
 30 H        4.6180    -0.0730     1.8000 H     1 <1>   0.0800 
 31 H        4.5170     3.1880    -0.8230 H     1 <1>   0.0800 
 32 H        5.1760     1.7170    -1.4940 H     1 <1>   0.0800 
 33 H        0.1190    -1.9550    -1.0910 H     1 <1>   0.0800 
 34 H        0.3500    -1.3560     0.5140 H     1 <1>   0.0800 
 35 H        2.4250    -2.7250    -1.2100 H     1 <1>   0.0800 
 36 H        1.6700    -3.3500     0.2390 H     1 <1>   0.0800 
 37 H        4.6510    -3.1830     0.2700 H     1 <1>   0.0800 
 38 H        3.5530    -3.6120     1.5640 H     1 <1>   0.0800 
 39 H        4.7170    -2.3360     1.8080 H     1 <1>   0.0800 
 40 H        4.0370     2.0150     1.1590 H     1 <1>   0.4500 
 41 H        6.0590     2.0830     2.2550 H     1 <1>   0.0800 
 42 H        6.9330     1.8860     0.7510 H     1 <1>   0.0800 
 43 H        4.0800     4.3000     1.9440 H     1 <1>   0.1500 
 44 H        8.4000     3.2120    -0.2860 H     1 <1>   0.0800 
 45 H        8.9790     4.8050     0.1170 H     1 <1>   0.0800 
 46 H        8.1370     4.5360    -1.3910 H     1 <1>   0.0800 
 47 H        7.8680     7.2580     0.3430 H     1 <1>   0.0800 
 48 H        6.2540     7.8960     0.0900 H     1 <1>   0.0800 
 49 H        7.0430     6.9920    -1.1890 H     1 <1>   0.0800 
@<TRIPOS>BOND
  1   1   2  ar  
  2   2   3  ar  
  3   2   4  1   
  4   4   5  1   
  5   4   6  1   
  6   4   7  1   
  7   5   8  1   
  8   5   9  1   
  9   5  23  1   
 10   6  10  1   
 11   6  24  1   
 12   6  25  1   
 13   7  11  1   
 14   7  26  1   
 15   7  27  1   
 16   8  12  1   
 17   8  13  1   
 18   8  28  1   
 19   9  14  1   
 20   9  29  1   
 21   9  30  1   
 22  10  14  1   
 23  10  31  1   
 24  10  32  1   
 25  11  12  1   
 26  11  33  1   
 27  11  34  1   
 28  12  35  1   
 29  12  36  1   
 30  13  37  1   
 31  13  38  1   
 32  13  39  1   
 33  14  15  1   
 34  14  40  1   
 35  15  16  1   
 36  15  41  1   
 37  15  42  1   
 38  16  17  2   
 39  16  18  1   
 40  17  19  1   
 41  17  20  1   
 42  18  21  2   
 43  18  43  1   
 44  19  21  1   
 45  19  22  1   
 46  20  44  1   
 47  20  45  1   
 48  20  46  1   
 49  22  47  1   
 50  22  48  1   
 51  22  49  1   
@<TRIPOS>SUBSTRUCTURE
  1 ****  14 GROUP 4 **** **** 0

# MOE 2024.06 (io_trps.svl 2023.06)
