@<TRIPOS>MOLECULE
NONAME
57 60 1 0 0 
SMALL
USER_CHARGES


@<TRIPOS>ATOM
  1 O       -0.8960     0.7540    -0.8220 O.2   1 <1>  -0.5700 
  2 C       -0.6730     1.8450    -0.3490 C.2   1 <1>   0.5690 
  3 N       -1.6510     2.6460     0.1770 N.am  1 <1>  -0.5090 
  4 C        0.7700     2.3470    -0.3910 C.3   1 <1>   0.1810 
  5 C       -1.3730     4.0570     0.5900 C.3   1 <1>   0.3640 
  6 C       -3.0480     2.1800     0.3670 C.3   1 <1>   0.0490 
  7 O        1.0090     3.4480     0.4540 O.3   1 <1>  -0.5600 
  8 C       -2.3200     5.0120    -0.1390 C.ar  1 <1>  -0.1440 
  9 C        0.0860     4.5090     0.3110 C.3   1 <1>   0.2610 
 10 C       -3.6390     2.2160     1.7430 C.3   1 <1>  -0.2000 
 11 C       -3.3060     0.9050     1.1070 C.3   1 <1>  -0.2000 
 12 C       -2.9420     6.0370     0.5610 C.ar  1 <1>   0.1600 
 13 C       -2.5650     4.8980    -1.4960 C.ar  1 <1>  -0.1500 
 14 C        0.4990     5.7030     1.1960 C.2   1 <1>   0.5690 
 15 N       -3.7520     6.9370     0.0280 N.ar  1 <1>  -0.6200 
 16 C       -3.4140     5.8230    -2.0640 C.ar  1 <1>  -0.1500 
 17 O       -0.2380     6.0440     2.0920 O.2   1 <1>  -0.5700 
 18 N        1.6740     6.3960     0.9820 N.am  1 <1>  -0.6600 
 19 C       -3.9720     6.8080    -1.2690 C.ar  1 <1>   0.1600 
 20 C        2.7030     6.0510    -0.0470 C.3   1 <1>   0.1400 
 21 C        2.0760     7.5110     1.9010 C.3   1 <1>   0.1400 
 22 C        3.1750     7.3090    -0.8090 C.3   1 <1>   0.3430 
 23 C        2.5280     8.7490     1.1090 C.3   1 <1>   0.3430 
 24 N        3.6130     8.4170     0.1130 N.4   1 <1>  -0.9590 
 25 C        4.0530     9.6100    -0.6660 C.3   1 <1>   0.3430 
 26 C        4.8080    10.5860     0.2330 C.3   1 <1>  -0.1600 
 27 C        5.4340    11.7030    -0.6010 C.3   1 <1>   0.1200 
 28 O        6.2300    12.4520     0.2370 O.3   1 <1>  -0.6800 
 29 H        1.0190     2.6270    -1.3980 H     1 <1>   0.0800 
 30 H        1.4250     1.5520    -0.0830 H     1 <1>   0.0800 
 31 H       -1.5590     4.1130     1.6480 H     1 <1>   0.0800 
 32 H       -3.6820     2.4120    -0.4730 H     1 <1>   0.1000 
 33 H        0.1390     4.8340    -0.7110 H     1 <1>   0.0800 
 34 H       -3.0430     2.5240     2.5840 H     1 <1>   0.1000 
 35 H       -4.6760     2.4790     1.8520 H     1 <1>   0.1000 
 36 H       -4.1110     0.2750     0.7730 H     1 <1>   0.1000 
 37 H       -2.4640     0.3420     1.4670 H     1 <1>   0.1000 
 38 H       -2.7630     6.1320     1.6200 H     1 <1>   0.1500 
 39 H       -2.1250     4.1180    -2.0940 H     1 <1>   0.1500 
 40 H       -3.6470     5.7820    -3.1130 H     1 <1>   0.1500 
 41 H       -4.6350     7.5260    -1.7230 H     1 <1>   0.1500 
 42 H        3.5440     5.5860     0.4400 H     1 <1>   0.0800 
 43 H        2.3150     5.3440    -0.7570 H     1 <1>   0.0800 
 44 H        1.2560     7.7980     2.5380 H     1 <1>   0.0800 
 45 H        2.8730     7.1730     2.5400 H     1 <1>   0.0800 
 46 H        2.3610     7.6560    -1.4240 H     1 <1>   0.0800 
 47 H        3.9870     7.0360    -1.4630 H     1 <1>   0.0800 
 48 H        2.8790     9.4930     1.8040 H     1 <1>   0.0800 
 49 H        1.6730     9.1550     0.5940 H     1 <1>   0.0800 
 50 H        4.4250     8.0730     0.6470 H     1 <1>   0.4500 
 51 H        4.7120     9.2950    -1.4600 H     1 <1>   0.0800 
 52 H        3.2020    10.1000    -1.1120 H     1 <1>   0.0800 
 53 H        5.6000    10.0630     0.7410 H     1 <1>   0.0800 
 54 H        4.1430    11.0260     0.9540 H     1 <1>   0.0800 
 55 H        4.6950    12.3500    -1.0450 H     1 <1>   0.0800 
 56 H        6.0710    11.3010    -1.3720 H     1 <1>   0.0800 
 57 H        5.7120    13.0960     0.7610 H     1 <1>   0.4000 
@<TRIPOS>BOND
  1   1   2  2   
  2   2   3  am  
  3   2   4  1   
  4   3   5  1   
  5   3   6  1   
  6   4   7  1   
  7   4  29  1   
  8   4  30  1   
  9   5   8  1   
 10   5   9  1   
 11   5  31  1   
 12   6  10  1   
 13   6  11  1   
 14   6  32  1   
 15   7   9  1   
 16   8  12  ar  
 17   8  13  ar  
 18   9  14  1   
 19   9  33  1   
 20  10  11  1   
 21  10  34  1   
 22  10  35  1   
 23  11  36  1   
 24  11  37  1   
 25  12  15  ar  
 26  12  38  1   
 27  13  16  ar  
 28  13  39  1   
 29  14  17  2   
 30  14  18  am  
 31  15  19  ar  
 32  16  19  ar  
 33  16  40  1   
 34  18  20  1   
 35  18  21  1   
 36  19  41  1   
 37  20  22  1   
 38  20  42  1   
 39  20  43  1   
 40  21  23  1   
 41  21  44  1   
 42  21  45  1   
 43  22  24  1   
 44  22  46  1   
 45  22  47  1   
 46  23  24  1   
 47  23  48  1   
 48  23  49  1   
 49  24  25  1   
 50  24  50  1   
 51  25  26  1   
 52  25  51  1   
 53  25  52  1   
 54  26  27  1   
 55  26  53  1   
 56  26  54  1   
 57  27  28  1   
 58  27  55  1   
 59  27  56  1   
 60  28  57  1   
@<TRIPOS>SUBSTRUCTURE
  1 ****  14 GROUP 4 **** **** 0

# MOE 2024.06 (io_trps.svl 2023.06)
