@<TRIPOS>MOLECULE
NONAME
58 61 1 0 0 
SMALL
USER_CHARGES


@<TRIPOS>ATOM
  1 O       -0.1450    -0.2370    -0.5340 O.2   1 <1>  -0.5700 
  2 C       -1.2370    -0.7720    -0.4790 C.2   1 <1>   0.5440 
  3 N       -2.3360     0.0360    -0.4040 N.am  1 <1>  -0.7300 
  4 C       -1.3650    -2.2220    -0.4740 C.ar  1 <1>   0.0860 
  5 C       -2.3770     1.5060    -0.6440 C.3   1 <1>   0.2200 
  6 C       -2.5210    -2.9090    -0.8910 C.ar  1 <1>   0.0830 
  7 C       -0.2980    -3.0000    -0.0220 C.ar  1 <1>  -0.1500 
  8 C       -1.6070     2.3370     0.3880 C.3   1 <1>   0.2000 
  9 C       -3.8000     2.0610    -0.5650 C.3   1 <1>   0.1400 
 10 O       -3.5860    -2.2100    -1.3580 O.3   1 <1>  -0.3620 
 11 C       -2.5790    -4.2980    -0.8540 C.ar  1 <1>  -0.1500 
 12 C       -0.3540    -4.3800     0.0270 C.ar  1 <1>   0.0830 
 13 O       -0.2620     2.4050     0.0560 O.3   1 <1>  -0.6800 
 14 C       -2.2650     3.7170     0.3420 C.3   1 <1>   0.1400 
 15 N       -3.6560     3.4720    -0.1280 N.am  1 <1>  -0.6600 
 16 C       -4.9070    -2.5570    -1.0030 C.3   1 <1>   0.1200 
 17 C       -1.5060    -5.0350    -0.3950 C.ar  1 <1>  -0.1500 
 18 O        0.7480    -5.0210     0.4940 O.3   1 <1>  -0.3630 
 19 C       -4.6250     4.4390    -0.0950 C.2   1 <1>   0.5690 
 20 C       -5.6120    -1.2430    -0.6820 C.3   1 <1>  -0.1600 
 21 C        0.8140    -6.4290     0.5400 C.3   1 <1>   0.0400 
 22 O       -4.3720     5.5740     0.2280 O.2   1 <1>  -0.5700 
 23 C       -6.0670     4.1130    -0.4620 C.3   1 <1>  -0.0990 
 24 C       -7.0900    -1.4100    -0.3060 C.3   1 <1>   0.0960 
 25 C       -7.0080     4.2040     0.7550 C.3   1 <1>  -0.1600 
 26 N       -7.5560    -0.1510     0.3020 N.pl3 1 <1>   0.3140 
 27 C       -8.2920     3.3780     0.5720 C.3   1 <1>   0.0210 
 28 N       -7.4220     0.0810     1.6090 N.2   1 <1>  -0.4180 
 29 C       -7.9140     0.9770    -0.3160 C.2   1 <1>  -0.3020 
 30 C       -7.9850     1.8930     0.6620 C.2   1 <1>   0.0460 
 31 N       -7.6930     1.3180     1.8330 N.2   1 <1>  -0.2270 
 32 H       -3.2230    -0.4540    -0.5460 H     1 <1>   0.3700 
 33 H       -1.9870     1.7190    -1.6260 H     1 <1>   0.0800 
 34 H        0.6070    -2.5160     0.3030 H     1 <1>   0.1500 
 35 H       -1.7040     1.9110     1.3710 H     1 <1>   0.0800 
 36 H       -4.3740     1.5310     0.1760 H     1 <1>   0.0800 
 37 H       -4.2790     2.0060    -1.5260 H     1 <1>   0.0800 
 38 H       -3.4580    -4.8140    -1.1950 H     1 <1>   0.1500 
 39 H        0.0480     1.4800    -0.1350 H     1 <1>   0.4000 
 40 H       -1.7610     4.3550    -0.3650 H     1 <1>   0.0800 
 41 H       -2.2710     4.1790     1.3140 H     1 <1>   0.0800 
 42 H       -5.3580    -3.0650    -1.8390 H     1 <1>   0.0800 
 43 H       -4.8910    -3.1990    -0.1380 H     1 <1>   0.0800 
 44 H       -1.5790    -6.1060    -0.3750 H     1 <1>   0.1500 
 45 H       -5.1010    -0.7990     0.1570 H     1 <1>   0.0800 
 46 H       -5.5400    -0.5850    -1.5300 H     1 <1>   0.0800 
 47 H        1.7790    -6.7050     0.9240 H     1 <1>   0.0800 
 48 H        0.6930    -6.8180    -0.4560 H     1 <1>   0.0800 
 49 H        0.0430    -6.7940     1.1950 H     1 <1>   0.0800 
 50 H       -6.3890     4.8120    -1.2120 H     1 <1>   0.0800 
 51 H       -6.1240     3.1360    -0.8970 H     1 <1>   0.0800 
 52 H       -7.2080    -2.1930     0.4220 H     1 <1>   0.0800 
 53 H       -7.6900    -1.6340    -1.1680 H     1 <1>   0.0800 
 54 H       -6.4940     3.8520     1.6340 H     1 <1>   0.0800 
 55 H       -7.2580     5.2370     0.9240 H     1 <1>   0.0800 
 56 H       -8.7480     3.6050    -0.3740 H     1 <1>   0.0800 
 57 H       -8.9930     3.6280     1.3490 H     1 <1>   0.0800 
 58 H       -8.0710     1.0630    -1.3740 H     1 <1>   0.1500 
@<TRIPOS>BOND
  1   1   2  2   
  2   2   3  am  
  3   2   4  1   
  4   3   5  1   
  5   3  32  1   
  6   4   6  ar  
  7   4   7  ar  
  8   5   8  1   
  9   5   9  1   
 10   5  33  1   
 11   6  10  1   
 12   6  11  ar  
 13   7  12  ar  
 14   7  34  1   
 15   8  13  1   
 16   8  14  1   
 17   8  35  1   
 18   9  15  1   
 19   9  36  1   
 20   9  37  1   
 21  10  16  1   
 22  11  17  ar  
 23  11  38  1   
 24  12  17  ar  
 25  12  18  1   
 26  13  39  1   
 27  14  15  1   
 28  14  40  1   
 29  14  41  1   
 30  15  19  am  
 31  16  20  1   
 32  16  42  1   
 33  16  43  1   
 34  17  44  1   
 35  18  21  1   
 36  19  22  2   
 37  19  23  1   
 38  20  24  1   
 39  20  45  1   
 40  20  46  1   
 41  21  47  1   
 42  21  48  1   
 43  21  49  1   
 44  23  25  1   
 45  23  50  1   
 46  23  51  1   
 47  24  26  1   
 48  24  52  1   
 49  24  53  1   
 50  25  27  1   
 51  25  54  1   
 52  25  55  1   
 53  26  28  1   
 54  26  29  1   
 55  27  30  1   
 56  27  56  1   
 57  27  57  1   
 58  28  31  2   
 59  29  30  2   
 60  29  58  1   
 61  30  31  1   
@<TRIPOS>SUBSTRUCTURE
  1 ****   3 GROUP 4 **** **** 0

# MOE 2024.06 (io_trps.svl 2023.06)
