@<TRIPOS>MOLECULE
NONAME
53 55 1 0 0 
SMALL
USER_CHARGES


@<TRIPOS>ATOM
  1 O       -0.2090    -0.1820     2.8510 O.2   1 <1>  -0.5700 
  2 C       -0.7600     0.6840     2.2130 C.2   1 <1>   0.5690 
  3 N       -1.5290     0.3830     1.1200 N.am  1 <1>  -0.6600 
  4 C       -0.5740     2.1270     2.6670 C.3   1 <1>   0.0440 
  5 C       -2.2000     1.3500     0.2150 C.3   1 <1>   0.1400 
  6 C       -1.7480    -1.0040     0.6530 C.3   1 <1>   0.1400 
  7 C        0.1450     2.9870     1.6330 C.ar  1 <1>  -0.1440 
  8 C       -2.9440     0.4920    -0.8120 C.3   1 <1>   0.2000 
  9 C       -2.9900    -0.9230    -0.2340 C.3   1 <1>  -0.0800 
 10 C       -0.4000     4.1910     1.2180 C.ar  1 <1>  -0.1500 
 11 C        1.3470     2.5620     1.0900 C.ar  1 <1>  -0.1500 
 12 O       -4.2350     0.9510    -1.0200 O.3   1 <1>  -0.6800 
 13 C       -3.0570    -2.0030    -1.3280 C.3   1 <1>  -0.0170 
 14 C        0.2310     4.9680     0.2610 C.ar  1 <1>   0.0830 
 15 C        2.0060     3.3280     0.1320 C.ar  1 <1>   0.0830 
 16 C       -3.1370    -3.4010    -0.7370 C.ar  1 <1>   0.1670 
 17 O       -0.4190     6.1150    -0.0820 O.3   1 <1>  -0.3630 
 18 C        1.4530     4.5450    -0.2760 C.ar  1 <1>   0.0830 
 19 O        3.1850     2.9290    -0.4300 O.3   1 <1>  -0.3630 
 20 N       -1.9910    -3.9600    -0.3820 N.ar  1 <1>  -0.6200 
 21 C       -4.3740    -4.0260    -0.5910 C.ar  1 <1>   0.1600 
 22 C       -0.4450     6.5320    -1.4300 C.3   1 <1>   0.0400 
 23 O        2.1160     5.3080    -1.1880 O.3   1 <1>  -0.3630 
 24 C        3.6890     1.6260    -0.2370 C.3   1 <1>   0.0400 
 25 C       -2.1630    -5.1680     0.1260 C.ar  1 <1>   0.1600 
 26 N       -4.5490    -5.2350    -0.0830 N.ar  1 <1>  -0.6200 
 27 C        3.1820     6.0710    -0.6720 C.3   1 <1>   0.0400 
 28 C       -3.4000    -5.7850     0.2710 C.ar  1 <1>   0.1600 
 29 H       -1.5400     2.5360     2.8940 H     1 <1>   0.0800 
 30 H       -0.0010     2.1300     3.5760 H     1 <1>   0.0800 
 31 H       -2.8800     1.9650     0.7770 H     1 <1>   0.0800 
 32 H       -1.4680     1.9630    -0.2810 H     1 <1>   0.0800 
 33 H       -0.8890    -1.3240     0.0880 H     1 <1>   0.0800 
 34 H       -1.8940    -1.6760     1.4830 H     1 <1>   0.0800 
 35 H       -2.4190     0.5180    -1.7530 H     1 <1>   0.0800 
 36 H       -3.8440    -1.0180     0.4130 H     1 <1>   0.0800 
 37 H       -1.3290     4.5450     1.6280 H     1 <1>   0.1500 
 38 H        1.7570     1.6280     1.4270 H     1 <1>   0.1500 
 39 H       -4.7330     0.9540    -0.1800 H     1 <1>   0.4000 
 40 H       -2.1890    -1.9400    -1.9610 H     1 <1>   0.0800 
 41 H       -3.9190    -1.8250    -1.9460 H     1 <1>   0.0800 
 42 H       -5.2600    -3.5030    -0.9070 H     1 <1>   0.1500 
 43 H       -1.2990     7.1680    -1.5680 H     1 <1>   0.0800 
 44 H       -0.5200     5.6680    -2.0670 H     1 <1>   0.0800 
 45 H        0.4540     7.0820    -1.6420 H     1 <1>   0.0800 
 46 H        4.5640     1.5120    -0.8500 H     1 <1>   0.0800 
 47 H        2.9390     0.9130    -0.5340 H     1 <1>   0.0800 
 48 H        3.9500     1.5010     0.7990 H     1 <1>   0.0800 
 49 H       -1.2820    -5.6980     0.4440 H     1 <1>   0.1500 
 50 H        3.6010     6.6500    -1.4740 H     1 <1>   0.0800 
 51 H        3.9260     5.4080    -0.2680 H     1 <1>   0.0800 
 52 H        2.8010     6.7210     0.0970 H     1 <1>   0.0800 
 53 H       -3.4380    -6.7720     0.6970 H     1 <1>   0.1500 
@<TRIPOS>BOND
  1   1   2  2   
  2   2   3  am  
  3   2   4  1   
  4   3   5  1   
  5   3   6  1   
  6   4   7  1   
  7   4  29  1   
  8   4  30  1   
  9   5   8  1   
 10   5  31  1   
 11   5  32  1   
 12   6   9  1   
 13   6  33  1   
 14   6  34  1   
 15   7  10  ar  
 16   7  11  ar  
 17   8   9  1   
 18   8  12  1   
 19   8  35  1   
 20   9  13  1   
 21   9  36  1   
 22  10  14  ar  
 23  10  37  1   
 24  11  15  ar  
 25  11  38  1   
 26  12  39  1   
 27  13  16  1   
 28  13  40  1   
 29  13  41  1   
 30  14  17  1   
 31  14  18  ar  
 32  15  18  ar  
 33  15  19  1   
 34  16  20  ar  
 35  16  21  ar  
 36  17  22  1   
 37  18  23  1   
 38  19  24  1   
 39  20  25  ar  
 40  21  26  ar  
 41  21  42  1   
 42  22  43  1   
 43  22  44  1   
 44  22  45  1   
 45  23  27  1   
 46  24  46  1   
 47  24  47  1   
 48  24  48  1   
 49  25  28  ar  
 50  25  49  1   
 51  26  28  ar  
 52  27  50  1   
 53  27  51  1   
 54  27  52  1   
 55  28  53  1   
@<TRIPOS>SUBSTRUCTURE
  1 ****   3 GROUP 4 **** **** 0

# MOE 2024.06 (io_trps.svl 2023.06)
