@<TRIPOS>MOLECULE
NONAME
50 54 1 0 0 
SMALL
USER_CHARGES


@<TRIPOS>ATOM
  1 O       -2.2470     0.5870    -2.5190 O.2   1 <1>  -0.5700 
  2 C       -1.9410     0.9870    -1.4120 C.2   1 <1>   0.5440 
  3 N       -2.0540     0.0830    -0.3770 N.am  1 <1>  -0.6600 
  4 C       -1.5980     2.3830    -1.2140 C.ar  1 <1>   0.0860 
  5 C       -2.6490     0.4630     0.9350 C.3   1 <1>   0.1400 
  6 C       -2.0880    -1.3800    -0.6480 C.3   1 <1>   0.1400 
  7 C       -0.5750     2.8080    -0.3560 C.ar  1 <1>   0.0830 
  8 C       -2.3160     3.3670    -1.9000 C.ar  1 <1>  -0.1500 
  9 C       -4.1070    -0.0470     1.0350 C.3   1 <1>   0.4230 
 10 C       -3.5410    -1.8780    -0.5970 C.3   1 <1>   0.3430 
 11 O        0.1540     1.8910     0.3330 O.3   1 <1>  -0.3630 
 12 C       -0.2990     4.1710    -0.2070 C.ar  1 <1>   0.0820 
 13 C       -2.0540     4.7140    -1.7350 C.ar  1 <1>  -0.1500 
 14 N       -4.2210    -1.5300     0.7130 N.4   1 <1>  -0.9590 
 15 C       -5.0370     0.7890     0.1240 C.3   1 <1>   0.1200 
 16 C        1.0510     2.3390     1.3350 C.3   1 <1>   0.1200 
 17 O        0.7100     4.6020     0.5900 O.3   1 <1>  -0.3630 
 18 C       -1.0430     5.1180    -0.8820 C.ar  1 <1>  -0.1500 
 19 C       -5.6670    -1.9410     0.7410 C.3   1 <1>   0.5180 
 20 O       -6.3540     0.3270     0.2240 O.3   1 <1>  -0.5600 
 21 C        1.7080     3.6580     0.9170 C.3   1 <1>   0.1200 
 22 C       -5.7810    -3.4410     0.4020 C.3   1 <1>  -0.1950 
 23 C       -6.5330    -1.0120    -0.1470 C.3   1 <1>   0.1200 
 24 C       -5.9110    -3.9990    -0.9870 C.3   1 <1>  -0.2000 
 25 C       -7.0660    -4.0820    -0.0300 C.3   1 <1>  -0.2000 
 26 H       -2.0560     0.0380     1.7260 H     1 <1>   0.0800 
 27 H       -2.6320     1.5320     1.0610 H     1 <1>   0.0800 
 28 H       -1.6690    -1.5890    -1.6190 H     1 <1>   0.0800 
 29 H       -1.4880    -1.8970     0.0800 H     1 <1>   0.0800 
 30 H       -3.0950     3.0650    -2.5800 H     1 <1>   0.1500 
 31 H       -4.4370     0.1170     2.0470 H     1 <1>   0.0800 
 32 H       -3.5460    -2.9450    -0.7450 H     1 <1>   0.0800 
 33 H       -4.0750    -1.4280    -1.4190 H     1 <1>   0.0800 
 34 H       -2.6270     5.4500    -2.2730 H     1 <1>   0.1500 
 35 H       -3.7440    -2.0530     1.4530 H     1 <1>   0.4500 
 36 H       -4.7300     0.7410    -0.9070 H     1 <1>   0.0800 
 37 H       -5.0310     1.8200     0.4310 H     1 <1>   0.0800 
 38 H        0.4970     2.4750     2.2460 H     1 <1>   0.0800 
 39 H        1.7930     1.5750     1.4830 H     1 <1>   0.0800 
 40 H       -0.8230     6.1620    -0.7470 H     1 <1>   0.1500 
 41 H       -6.0320    -1.8200     1.7470 H     1 <1>   0.0800 
 42 H        2.3300     3.5120     0.0510 H     1 <1>   0.0800 
 43 H        2.3020     4.0630     1.7160 H     1 <1>   0.0800 
 44 H       -5.2210    -4.0270     1.1110 H     1 <1>   0.1000 
 45 H       -7.5760    -1.2410    -0.0150 H     1 <1>   0.0800 
 46 H       -6.2900    -1.1170    -1.1890 H     1 <1>   0.0800 
 47 H       -6.0320    -3.3610    -1.8460 H     1 <1>   0.1000 
 48 H       -5.4030    -4.9170    -1.2370 H     1 <1>   0.1000 
 49 H       -7.3250    -5.0500     0.3700 H     1 <1>   0.1000 
 50 H       -7.9430    -3.4990    -0.2550 H     1 <1>   0.1000 
@<TRIPOS>BOND
  1   1   2  2   
  2   2   3  am  
  3   2   4  1   
  4   3   5  1   
  5   3   6  1   
  6   4   7  ar  
  7   4   8  ar  
  8   5   9  1   
  9   5  26  1   
 10   5  27  1   
 11   6  10  1   
 12   6  28  1   
 13   6  29  1   
 14   7  11  1   
 15   7  12  ar  
 16   8  13  ar  
 17   8  30  1   
 18   9  14  1   
 19   9  15  1   
 20   9  31  1   
 21  10  14  1   
 22  10  32  1   
 23  10  33  1   
 24  11  16  1   
 25  12  17  1   
 26  12  18  ar  
 27  13  18  ar  
 28  13  34  1   
 29  14  19  1   
 30  14  35  1   
 31  15  20  1   
 32  15  36  1   
 33  15  37  1   
 34  16  21  1   
 35  16  38  1   
 36  16  39  1   
 37  17  21  1   
 38  18  40  1   
 39  19  22  1   
 40  19  23  1   
 41  19  41  1   
 42  20  23  1   
 43  21  42  1   
 44  21  43  1   
 45  22  24  1   
 46  22  25  1   
 47  22  44  1   
 48  23  45  1   
 49  23  46  1   
 50  24  25  1   
 51  24  47  1   
 52  24  48  1   
 53  25  49  1   
 54  25  50  1   
@<TRIPOS>SUBSTRUCTURE
  1 ****   3 GROUP 4 **** **** 0

# MOE 2024.06 (io_trps.svl 2023.06)
