@<TRIPOS>MOLECULE
NONAME
46 47 1 0 0 
SMALL
USER_CHARGES


@<TRIPOS>ATOM
  1 S        2.1820     1.6210     1.0020 S.3   1 <1>  -0.3320 
  2 C        2.9370     0.1260     0.3790 C.ar  1 <1>   0.7220 
  3 C        0.3810     1.2260     1.1250 C.3   1 <1>  -0.0100 
  4 N        4.2380     0.2040     0.2290 N.ar  1 <1>  -0.6200 
  5 N        2.1110    -0.8810     0.1400 N.ar  1 <1>  -0.6200 
  6 C        4.7980    -0.8960    -0.2260 C.ar  1 <1>   0.4100 
  7 C        2.7090    -1.9560    -0.3320 C.ar  1 <1>   0.1600 
  8 N        6.1570    -0.8260    -0.3360 N.pl3 1 <1>  -0.8380 
  9 C        4.0620    -2.0220    -0.5640 C.ar  1 <1>  -0.1790 
 10 C        6.6990    -0.5250    -1.6850 C.3   1 <1>   0.2090 
 11 C        6.9930    -1.7490     0.4540 C.3   1 <1>   0.2090 
 12 C        4.6410    -3.2080    -1.1180 C.2   1 <1>   0.9790 
 13 C        7.5200     0.7780    -1.6870 C.3   1 <1>   0.3430 
 14 C        8.0960    -0.9470     1.1460 C.3   1 <1>  -0.1600 
 15 O        5.4720    -3.1630    -2.0450 O.co2 1 <1>  -0.9000 
 16 O        4.3020    -4.3140    -0.6730 O.co2 1 <1>  -0.9000 
 17 N        8.2180     1.1390    -0.3880 N.4   1 <1>  -0.9590 
 18 C        8.9350    -0.0380     0.2240 C.3   1 <1>   0.3430 
 19 C        7.2630     1.7970     0.5680 C.3   1 <1>   0.3430 
 20 C        6.8220     3.1950     0.0990 C.3   1 <1>  -0.0800 
 21 C        8.0080     4.1250    -0.2130 C.3   1 <1>  -0.2400 
 22 C        5.9410     3.8340     1.1800 C.3   1 <1>  -0.2400 
 23 H       -0.1220     2.0980     1.5000 H     1 <1>   0.0800 
 24 H        0.2720     0.3950     1.7980 H     1 <1>   0.0800 
 25 H        0.0330     0.9700     0.1400 H     1 <1>   0.0800 
 26 H        2.1060    -2.8240    -0.5500 H     1 <1>   0.1500 
 27 H        5.8920    -0.4380    -2.3930 H     1 <1>   0.0800 
 28 H        7.3120    -1.3430    -2.0240 H     1 <1>   0.0800 
 29 H        7.4090    -2.5090    -0.1880 H     1 <1>   0.0800 
 30 H        6.3860    -2.2480     1.1930 H     1 <1>   0.0800 
 31 H        6.8540     1.5760    -1.9630 H     1 <1>   0.0800 
 32 H        8.2500     0.6990    -2.4750 H     1 <1>   0.0800 
 33 H        8.7630    -1.6600     1.5950 H     1 <1>   0.0800 
 34 H        7.6700    -0.3870     1.9570 H     1 <1>   0.0800 
 35 H        8.9170     1.8540    -0.6110 H     1 <1>   0.4500 
 36 H        9.3580    -0.6420    -0.5620 H     1 <1>   0.0800 
 37 H        9.7560     0.3390     0.8110 H     1 <1>   0.0800 
 38 H        7.7410     1.8990     1.5280 H     1 <1>   0.0800 
 39 H        6.3900     1.1830     0.7090 H     1 <1>   0.0800 
 40 H        6.2090     3.0930    -0.7800 H     1 <1>   0.0800 
 41 H        8.6590     4.2140     0.6400 H     1 <1>   0.0800 
 42 H        7.6460     5.1090    -0.4600 H     1 <1>   0.0800 
 43 H        8.5750     3.7710    -1.0540 H     1 <1>   0.0800 
 44 H        6.4900     3.9760     2.0950 H     1 <1>   0.0800 
 45 H        5.0890     3.2060     1.3840 H     1 <1>   0.0800 
 46 H        5.5740     4.7910     0.8500 H     1 <1>   0.0800 
@<TRIPOS>BOND
  1   1   2  1   
  2   1   3  1   
  3   2   4  ar  
  4   2   5  ar  
  5   3  23  1   
  6   3  24  1   
  7   3  25  1   
  8   4   6  ar  
  9   5   7  ar  
 10   6   8  1   
 11   6   9  ar  
 12   7   9  ar  
 13   7  26  1   
 14   8  10  1   
 15   8  11  1   
 16   9  12  1   
 17  10  13  1   
 18  10  27  1   
 19  10  28  1   
 20  11  14  1   
 21  11  29  1   
 22  11  30  1   
 23  12  15  ar  
 24  12  16  ar  
 25  13  17  1   
 26  13  31  1   
 27  13  32  1   
 28  14  18  1   
 29  14  33  1   
 30  14  34  1   
 31  17  18  1   
 32  17  19  1   
 33  17  35  1   
 34  18  36  1   
 35  18  37  1   
 36  19  20  1   
 37  19  38  1   
 38  19  39  1   
 39  20  21  1   
 40  20  22  1   
 41  20  40  1   
 42  21  41  1   
 43  21  42  1   
 44  21  43  1   
 45  22  44  1   
 46  22  45  1   
 47  22  46  1   
@<TRIPOS>SUBSTRUCTURE
  1 ****   6 GROUP 4 **** **** 0

# MOE 2024.06 (io_trps.svl 2023.06)
