@<TRIPOS>MOLECULE
NONAME
45 47 1 0 0 
SMALL
USER_CHARGES


@<TRIPOS>ATOM
  1 F       -0.1760    -4.1680     0.4690 F     1 <1>  -0.1900 
  2 C       -1.3440    -3.5970     0.5850 C.ar  1 <1>   0.1900 
  3 C       -1.5290    -2.2970     0.1440 C.ar  1 <1>  -0.1440 
  4 C       -2.3590    -4.3510     1.1420 C.ar  1 <1>  -0.1500 
  5 C       -2.8050    -1.7540     0.2790 C.ar  1 <1>  -0.1500 
  6 C       -0.3580    -1.5230    -0.4640 C.3   1 <1>   1.1640 
  7 C       -3.6280    -3.8030     1.2510 C.ar  1 <1>  -0.1440 
  8 C       -3.8400    -2.4990     0.8240 C.ar  1 <1>  -0.1500 
  9 F       -0.6980    -0.2980    -0.8450 F     1 <1>  -0.3400 
 10 F        0.6510    -1.3780     0.3840 F     1 <1>  -0.3400 
 11 F        0.1310    -2.1200    -1.5440 F     1 <1>  -0.3400 
 12 C       -4.7600    -4.6430     1.8080 C.3   1 <1>   0.4870 
 13 N       -5.1190    -5.6260     0.7630 N.4   1 <1>  -0.9590 
 14 C       -5.8200    -5.0760    -0.4330 C.3   1 <1>   0.3430 
 15 C       -5.8580    -6.8340     1.1840 C.3   1 <1>   0.3430 
 16 C       -6.5870    -6.2590    -1.0410 C.3   1 <1>   0.2000 
 17 C       -6.3140    -7.4660    -0.1310 C.3   1 <1>  -0.0800 
 18 O       -7.9480    -5.9780    -1.0260 O.3   1 <1>  -0.6800 
 19 C       -5.2520    -8.4290    -0.7180 C.3   1 <1>   0.0210 
 20 C       -3.8130    -7.9260    -0.7000 C.2   1 <1>   0.1080 
 21 N       -3.4280    -6.8060    -1.2340 N.2   1 <1>  -0.7070 
 22 C       -2.7520    -8.6150    -0.1210 C.2   1 <1>  -0.1500 
 23 N       -2.0860    -6.7810    -1.0600 N.pl3 1 <1>   0.3000 
 24 C       -1.6650    -7.8520    -0.3610 C.2   1 <1>  -0.3320 
 25 C       -0.2150    -8.0960     0.0180 C.3   1 <1>  -0.0600 
 26 H       -2.1450    -5.3520     1.4740 H     1 <1>   0.1500 
 27 H       -3.0060    -0.7430    -0.0420 H     1 <1>   0.1500 
 28 H       -4.8150    -2.0460     0.9070 H     1 <1>   0.1500 
 29 H       -5.6080    -4.0260     2.0570 H     1 <1>   0.0800 
 30 H       -4.4230    -5.1500     2.6970 H     1 <1>   0.0800 
 31 H       -4.2300    -5.9810     0.3490 H     1 <1>   0.4500 
 32 H       -6.5080    -4.2950    -0.1590 H     1 <1>   0.0800 
 33 H       -5.0980    -4.6970    -1.1390 H     1 <1>   0.0800 
 34 H       -5.2330    -7.5040     1.7520 H     1 <1>   0.0800 
 35 H       -6.7170    -6.5530     1.7720 H     1 <1>   0.0800 
 36 H       -6.2960    -6.4280    -2.0650 H     1 <1>   0.0800 
 37 H       -7.2140    -8.0370     0.0220 H     1 <1>   0.0800 
 38 H       -8.3410    -6.0120    -0.1330 H     1 <1>   0.4000 
 39 H       -5.5120    -8.6700    -1.7340 H     1 <1>   0.0800 
 40 H       -5.2870    -9.3520    -0.1650 H     1 <1>   0.0800 
 41 H       -2.8030    -9.5610     0.3910 H     1 <1>   0.1500 
 42 H       -1.4830    -6.0330    -1.4320 H     1 <1>   0.2700 
 43 H       -0.1240    -9.0130     0.5730 H     1 <1>   0.0800 
 44 H        0.1580    -7.2900     0.6250 H     1 <1>   0.0800 
 45 H        0.3930    -8.1750    -0.8670 H     1 <1>   0.0800 
@<TRIPOS>BOND
  1   1   2  1   
  2   2   3  ar  
  3   2   4  ar  
  4   3   5  ar  
  5   3   6  1   
  6   4   7  ar  
  7   4  26  1   
  8   5   8  ar  
  9   5  27  1   
 10   6   9  1   
 11   6  10  1   
 12   6  11  1   
 13   7   8  ar  
 14   7  12  1   
 15   8  28  1   
 16  12  13  1   
 17  12  29  1   
 18  12  30  1   
 19  13  14  1   
 20  13  15  1   
 21  13  31  1   
 22  14  16  1   
 23  14  32  1   
 24  14  33  1   
 25  15  17  1   
 26  15  34  1   
 27  15  35  1   
 28  16  17  1   
 29  16  18  1   
 30  16  36  1   
 31  17  19  1   
 32  17  37  1   
 33  18  38  1   
 34  19  20  1   
 35  19  39  1   
 36  19  40  1   
 37  20  21  2   
 38  20  22  1   
 39  21  23  1   
 40  22  24  2   
 41  22  41  1   
 42  23  24  1   
 43  23  42  1   
 44  24  25  1   
 45  25  43  1   
 46  25  44  1   
 47  25  45  1   
@<TRIPOS>SUBSTRUCTURE
  1 ****   4 GROUP 4 **** **** 0

# MOE 2024.06 (io_trps.svl 2023.06)
