@<TRIPOS>MOLECULE
NONAME
46 48 1 0 0 
SMALL
USER_CHARGES


@<TRIPOS>ATOM
  1 O       -1.2970     0.4760     2.4960 O.2   1 <1>  -0.5700 
  2 C       -1.6890     0.9840     1.4640 C.2   1 <1>   0.5440 
  3 N       -2.3320     0.1880     0.5460 N.am  1 <1>  -0.6600 
  4 C       -1.5070     2.4030     1.2260 C.ar  1 <1>   0.0860 
  5 C       -3.0810     0.6760    -0.6390 C.3   1 <1>   0.1400 
  6 C       -2.5730    -1.2600     0.7550 C.3   1 <1>   0.1400 
  7 C       -0.6420     2.9170     0.2490 C.ar  1 <1>  -0.1440 
  8 C       -2.2430     3.3020     1.9950 C.ar  1 <1>  -0.1500 
  9 C       -4.1440    -0.3960    -0.8720 C.3   1 <1>   0.2000 
 10 C       -3.4550    -1.6910    -0.4250 C.3   1 <1>  -0.0800 
 11 C       -0.5670     4.2910     0.0350 C.ar  1 <1>   0.0830 
 12 C        0.2400     1.9890    -0.5890 C.3   1 <1>  -0.0960 
 13 C       -2.1590     4.6650     1.7940 C.ar  1 <1>  -0.1500 
 14 O       -5.2150    -0.1280    -0.0320 O.3   1 <1>  -0.6800 
 15 C       -4.4100    -2.8540    -0.0970 C.3   1 <1>   0.0200 
 16 O        0.2640     4.7340    -0.9480 O.3   1 <1>  -0.3630 
 17 C       -1.3270     5.1620     0.8110 C.ar  1 <1>  -0.1500 
 18 C       -3.6850    -4.1570     0.1960 C.2   1 <1>  -0.0400 
 19 C        0.4700     6.1080    -1.1920 C.3   1 <1>   0.0400 
 20 O       -4.3830    -5.1830     0.6050 O.3   1 <1>  -0.0190 
 21 C       -2.4000    -4.5410     0.1280 C.2   1 <1>  -0.1500 
 22 N       -3.6370    -6.2280     0.8180 N.2   1 <1>  -0.4100 
 23 C       -2.4360    -5.8710     0.5390 C.2   1 <1>   0.1080 
 24 C       -1.2320    -6.7800     0.6470 C.3   1 <1>  -0.0590 
 25 H       -3.5190     1.6460    -0.4750 H     1 <1>   0.0800 
 26 H       -2.4130     0.7200    -1.4810 H     1 <1>   0.0800 
 27 H       -1.6400    -1.7950     0.7780 H     1 <1>   0.0800 
 28 H       -3.0830    -1.3990     1.6930 H     1 <1>   0.0800 
 29 H       -2.8910     2.9160     2.7640 H     1 <1>   0.1500 
 30 H       -4.5030    -0.4260    -1.8870 H     1 <1>   0.0800 
 31 H       -2.8050    -2.0000    -1.2240 H     1 <1>   0.0800 
 32 H        0.3090     1.0020    -0.1710 H     1 <1>   0.0800 
 33 H        1.2390     2.3830    -0.6440 H     1 <1>   0.0800 
 34 H       -0.1530     1.9180    -1.5870 H     1 <1>   0.0800 
 35 H       -2.7410     5.3370     2.4010 H     1 <1>   0.1500 
 36 H       -4.8700     0.0530     0.8660 H     1 <1>   0.4000 
 37 H       -5.0750    -3.0150    -0.9270 H     1 <1>   0.0800 
 38 H       -5.0150    -2.6040     0.7570 H     1 <1>   0.0800 
 39 H       -1.2850     6.2240     0.6680 H     1 <1>   0.1500 
 40 H        1.1880     6.2010    -1.9870 H     1 <1>   0.0800 
 41 H        0.8540     6.5670    -0.2980 H     1 <1>   0.0800 
 42 H       -0.4620     6.5540    -1.4870 H     1 <1>   0.0800 
 43 H       -1.5220    -3.9980    -0.1650 H     1 <1>   0.1500 
 44 H       -0.5170    -6.3590     1.3290 H     1 <1>   0.0800 
 45 H       -0.7770    -6.8980    -0.3190 H     1 <1>   0.0800 
 46 H       -1.5340    -7.7450     1.0100 H     1 <1>   0.0800 
@<TRIPOS>BOND
  1   1   2  2   
  2   2   3  am  
  3   2   4  1   
  4   3   5  1   
  5   3   6  1   
  6   4   7  ar  
  7   4   8  ar  
  8   5   9  1   
  9   5  25  1   
 10   5  26  1   
 11   6  10  1   
 12   6  27  1   
 13   6  28  1   
 14   7  11  ar  
 15   7  12  1   
 16   8  13  ar  
 17   8  29  1   
 18   9  10  1   
 19   9  14  1   
 20   9  30  1   
 21  10  15  1   
 22  10  31  1   
 23  11  16  1   
 24  11  17  ar  
 25  12  32  1   
 26  12  33  1   
 27  12  34  1   
 28  13  17  ar  
 29  13  35  1   
 30  14  36  1   
 31  15  18  1   
 32  15  37  1   
 33  15  38  1   
 34  16  19  1   
 35  17  39  1   
 36  18  20  1   
 37  18  21  2   
 38  19  40  1   
 39  19  41  1   
 40  19  42  1   
 41  20  22  1   
 42  21  23  1   
 43  21  43  1   
 44  22  23  2   
 45  23  24  1   
 46  24  44  1   
 47  24  45  1   
 48  24  46  1   
@<TRIPOS>SUBSTRUCTURE
  1 ****   3 GROUP 4 **** **** 0

# MOE 2024.06 (io_trps.svl 2023.06)
