@<TRIPOS>MOLECULE
NONAME
62 66 1 0 0 
SMALL
USER_CHARGES


@<TRIPOS>ATOM
  1 O       -1.9050     0.7390     2.0180 O.2   1 <1>  -0.5700 
  2 C       -1.9970     0.2200     0.9320 C.2   1 <1>   0.5690 
  3 N       -1.5990     0.8550    -0.2070 N.am  1 <1>  -0.7300 
  4 C       -2.5540    -1.1930     0.8380 C.3   1 <1>   0.0440 
  5 C       -0.8750     2.1600    -0.2970 C.3   1 <1>   0.2200 
  6 C       -1.4410    -2.2350     0.8990 C.ar  1 <1>  -0.1440 
  7 C        0.3620     2.2300     0.6120 C.3   1 <1>   0.2000 
  8 C       -1.7570     3.3450     0.1350 C.3   1 <1>   0.1100 
  9 C       -0.4070    -2.1880    -0.0190 C.ar  1 <1>  -0.1500 
 10 C       -1.4300    -3.2230     1.8740 C.ar  1 <1>  -0.1500 
 11 O        1.4850     2.5950    -0.1540 O.3   1 <1>  -0.5600 
 12 C        0.0380     3.3650     1.5900 C.3   1 <1>   0.1100 
 13 N       -0.9120     4.2660     0.9180 N.3   1 <1>  -0.8100 
 14 C        0.6590    -3.0750     0.0610 C.ar  1 <1>   0.0830 
 15 C       -0.3920    -4.1400     1.9320 C.ar  1 <1>  -0.1500 
 16 C        2.6180     1.7980     0.0110 C.3   1 <1>   0.2630 
 17 C       -0.2090     5.2390     0.0460 C.3   1 <1>   0.2910 
 18 O        1.7200    -2.9800    -0.7820 O.3   1 <1>  -0.1650 
 19 C        0.6550    -4.0650     1.0290 C.ar  1 <1>  -0.1500 
 20 C        2.5260     0.5850    -0.9030 C.ar  1 <1>  -0.1430 
 21 C       -1.1730     6.2310    -0.5900 C.2   1 <1>   0.1080 
 22 C        2.1040    -1.7630    -1.2460 C.ar  1 <1>   0.0830 
 23 C        2.1940    -0.6620    -0.3990 C.ar  1 <1>  -0.1500 
 24 C        2.7850     0.7190    -2.2600 C.ar  1 <1>  -0.1500 
 25 N       -1.1460     6.5840    -1.8280 N.2   1 <1>  -0.4100 
 26 C       -2.2060     6.8790     0.0820 C.2   1 <1>  -0.1500 
 27 C        2.3860    -1.6220    -2.5950 C.ar  1 <1>  -0.1500 
 28 C        2.7230    -0.3800    -3.1020 C.ar  1 <1>  -0.1500 
 29 O       -2.1200     7.4360    -1.9810 O.3   1 <1>  -0.0190 
 30 C       -2.7740     7.6390    -0.8670 C.2   1 <1>  -0.0400 
 31 C       -3.9530     8.6020    -0.8550 C.3   1 <1>   0.1000 
 32 C       -3.4700    10.0310    -1.1260 C.3   1 <1>  -0.2400 
 33 C       -4.7090     8.5470     0.4780 C.3   1 <1>  -0.2400 
 34 H       -1.6750     0.3640    -1.0990 H     1 <1>   0.3700 
 35 H       -3.2430    -1.3390     1.6490 H     1 <1>   0.0800 
 36 H       -3.1000    -1.3020    -0.0800 H     1 <1>   0.0800 
 37 H       -0.5650     2.3110    -1.3160 H     1 <1>   0.0800 
 38 H        0.5420     1.3030     1.1280 H     1 <1>   0.0800 
 39 H       -2.5450     2.9920     0.7770 H     1 <1>   0.0800 
 40 H       -2.2000     3.8330    -0.7160 H     1 <1>   0.0800 
 41 H       -0.4120    -1.4510    -0.8000 H     1 <1>   0.1500 
 42 H       -2.2250    -3.2820     2.5960 H     1 <1>   0.1500 
 43 H        0.9220     3.8790     1.9240 H     1 <1>   0.0800 
 44 H       -0.4570     2.9430     2.4490 H     1 <1>   0.0800 
 45 H       -0.3950    -4.9070     2.6880 H     1 <1>   0.1500 
 46 H        3.4710     2.3930    -0.2660 H     1 <1>   0.0800 
 47 H        2.7200     1.5190     1.0460 H     1 <1>   0.0800 
 48 H        0.5000     5.7930     0.6340 H     1 <1>   0.0800 
 49 H        0.3300     4.7310    -0.7350 H     1 <1>   0.0800 
 50 H        1.4700    -4.7650     1.0770 H     1 <1>   0.1500 
 51 H        1.9950    -0.7880     0.6510 H     1 <1>   0.1500 
 52 H        3.0360     1.6850    -2.6640 H     1 <1>   0.1500 
 53 H       -2.4470     6.7540     1.1210 H     1 <1>   0.1500 
 54 H        2.3310    -2.4810    -3.2400 H     1 <1>   0.1500 
 55 H        2.9350    -0.2660    -4.1510 H     1 <1>   0.1500 
 56 H       -4.6280     8.3100    -1.6410 H     1 <1>   0.0800 
 57 H       -2.7760    10.3410    -0.3650 H     1 <1>   0.0800 
 58 H       -4.3010    10.7130    -1.1390 H     1 <1>   0.0800 
 59 H       -2.9750    10.0780    -2.0790 H     1 <1>   0.0800 
 60 H       -4.0650     8.8410     1.2880 H     1 <1>   0.0800 
 61 H       -5.0590     7.5460     0.6600 H     1 <1>   0.0800 
 62 H       -5.5580     9.2060     0.4540 H     1 <1>   0.0800 
@<TRIPOS>BOND
  1   1   2  2   
  2   2   3  am  
  3   2   4  1   
  4   3   5  1   
  5   3  34  1   
  6   4   6  1   
  7   4  35  1   
  8   4  36  1   
  9   5   7  1   
 10   5   8  1   
 11   5  37  1   
 12   6   9  ar  
 13   6  10  ar  
 14   7  11  1   
 15   7  12  1   
 16   7  38  1   
 17   8  13  1   
 18   8  39  1   
 19   8  40  1   
 20   9  14  ar  
 21   9  41  1   
 22  10  15  ar  
 23  10  42  1   
 24  11  16  1   
 25  12  13  1   
 26  12  43  1   
 27  12  44  1   
 28  13  17  1   
 29  14  18  1   
 30  14  19  ar  
 31  15  19  ar  
 32  15  45  1   
 33  16  20  1   
 34  16  46  1   
 35  16  47  1   
 36  17  21  1   
 37  17  48  1   
 38  17  49  1   
 39  18  22  1   
 40  19  50  1   
 41  20  23  ar  
 42  20  24  ar  
 43  21  25  2   
 44  21  26  1   
 45  22  23  ar  
 46  22  27  ar  
 47  23  51  1   
 48  24  28  ar  
 49  24  52  1   
 50  25  29  1   
 51  26  30  2   
 52  26  53  1   
 53  27  28  ar  
 54  27  54  1   
 55  28  55  1   
 56  29  30  1   
 57  30  31  1   
 58  31  32  1   
 59  31  33  1   
 60  31  56  1   
 61  32  57  1   
 62  32  58  1   
 63  32  59  1   
 64  33  60  1   
 65  33  61  1   
 66  33  62  1   
@<TRIPOS>SUBSTRUCTURE
  1 ****   5 GROUP 4 **** **** 0

# MOE 2024.06 (io_trps.svl 2023.06)
