@<TRIPOS>MOLECULE
NONAME
43 46 1 0 0 
SMALL
USER_CHARGES


@<TRIPOS>ATOM
  1 CL       0.8280    -0.6870     1.6710 Cl    1 <1>  -0.1770 
  2 C        0.2950    -1.9300     0.5700 C.ar  1 <1>   0.1770 
  3 C       -0.4490    -2.9870     1.0580 C.ar  1 <1>  -0.1500 
  4 C        0.6260    -1.8280    -0.7700 C.ar  1 <1>  -0.1500 
  5 C       -0.9020    -3.9890     0.1990 C.ar  1 <1>   0.0860 
  6 C        0.1990    -2.8140    -1.6430 C.ar  1 <1>  -0.1500 
  7 C       -0.5480    -3.8680    -1.1450 C.ar  1 <1>   0.1900 
  8 C       -1.6920    -5.0880     0.7040 C.2   1 <1>   0.5440 
  9 F       -0.9360    -4.7820    -1.9920 F     1 <1>  -0.1900 
 10 O       -1.1850    -5.8410     1.5120 O.2   1 <1>  -0.5700 
 11 N       -3.0120    -5.2720     0.3430 N.am  1 <1>  -0.6600 
 12 C       -3.8080    -4.2950    -0.4670 C.3   1 <1>   0.1400 
 13 C       -3.8000    -6.4520     0.7990 C.3   1 <1>   0.1400 
 14 C       -5.0170    -3.7760     0.3350 C.3   1 <1>   0.1430 
 15 C       -5.0180    -5.9860     1.6070 C.3   1 <1>  -0.1600 
 16 C       -5.8020    -2.8210    -0.5470 C.ar  1 <1>   0.1670 
 17 C       -5.8680    -4.9680     0.8240 C.3   1 <1>  -0.1600 
 18 C       -4.5750    -2.8580     1.5080 C.3   1 <1>  -0.1600 
 19 N       -6.5590    -3.1670    -1.5610 N.ar  1 <1>  -0.6200 
 20 C       -5.6130    -1.5230    -0.1710 C.ar  1 <1>  -0.1440 
 21 C       -4.6810    -1.4060     1.0090 C.3   1 <1>  -0.0170 
 22 C       -7.1270    -2.1450    -2.1830 C.ar  1 <1>   0.7200 
 23 C       -6.2630    -0.5470    -0.8880 C.ar  1 <1>   0.1600 
 24 N       -7.0360    -0.8520    -1.9060 N.ar  1 <1>  -0.6200 
 25 N       -7.9140    -2.4610    -3.2120 N.pl3 1 <1>  -0.9000 
 26 H       -0.6790    -3.0430     2.1070 H     1 <1>   0.1500 
 27 H        1.2090    -0.9920    -1.1180 H     1 <1>   0.1500 
 28 H        0.4400    -2.7720    -2.6910 H     1 <1>   0.1500 
 29 H       -4.1590    -4.7890    -1.3560 H     1 <1>   0.0800 
 30 H       -3.2060    -3.4610    -0.7760 H     1 <1>   0.0800 
 31 H       -3.1960    -7.1080     1.4030 H     1 <1>   0.0800 
 32 H       -4.1250    -7.0060    -0.0650 H     1 <1>   0.0800 
 33 H       -4.6740    -5.5520     2.5300 H     1 <1>   0.0800 
 34 H       -5.6210    -6.8400     1.8570 H     1 <1>   0.0800 
 35 H       -6.2950    -5.4630    -0.0320 H     1 <1>   0.0800 
 36 H       -6.6840    -4.6180     1.4320 H     1 <1>   0.0800 
 37 H       -3.5870    -3.0860     1.8650 H     1 <1>   0.0800 
 38 H       -5.2610    -2.9750     2.3290 H     1 <1>   0.0800 
 39 H       -3.7210    -1.0460     0.6790 H     1 <1>   0.0800 
 40 H       -5.0760    -0.7540     1.7680 H     1 <1>   0.0800 
 41 H       -6.1480     0.4900    -0.6260 H     1 <1>   0.1500 
 42 H       -8.5780    -1.7410    -3.4830 H     1 <1>   0.4000 
 43 H       -8.2440    -3.4210    -3.2250 H     1 <1>   0.4000 
@<TRIPOS>BOND
  1   1   2  1   
  2   2   3  ar  
  3   2   4  ar  
  4   3   5  ar  
  5   3  26  1   
  6   4   6  ar  
  7   4  27  1   
  8   5   7  ar  
  9   5   8  1   
 10   6   7  ar  
 11   6  28  1   
 12   7   9  1   
 13   8  10  2   
 14   8  11  am  
 15  11  12  1   
 16  11  13  1   
 17  12  14  1   
 18  12  29  1   
 19  12  30  1   
 20  13  15  1   
 21  13  31  1   
 22  13  32  1   
 23  14  16  1   
 24  14  17  1   
 25  14  18  1   
 26  15  17  1   
 27  15  33  1   
 28  15  34  1   
 29  16  19  ar  
 30  16  20  ar  
 31  17  35  1   
 32  17  36  1   
 33  18  21  1   
 34  18  37  1   
 35  18  38  1   
 36  19  22  ar  
 37  20  21  1   
 38  20  23  ar  
 39  21  39  1   
 40  21  40  1   
 41  22  24  ar  
 42  22  25  1   
 43  23  24  ar  
 44  23  41  1   
 45  25  42  1   
 46  25  43  1   
@<TRIPOS>SUBSTRUCTURE
  1 ****  12 GROUP 4 **** **** 0

# MOE 2024.06 (io_trps.svl 2023.06)
