@<TRIPOS>MOLECULE
NONAME
51 52 1 0 0 
SMALL
USER_CHARGES


@<TRIPOS>ATOM
  1 O       -1.2700    -0.0470     1.7410 O.2   1 <1>  -0.5700 
  2 C       -1.1450     0.2420     0.5750 C.2   1 <1>   0.5690 
  3 N       -1.8440    -0.4400    -0.3940 N.am  1 <1>  -0.6600 
  4 C       -0.1730     1.3800     0.2480 C.3   1 <1>   0.1810 
  5 C       -2.4450    -1.7770    -0.0600 C.3   1 <1>   0.3210 
  6 C       -1.9560    -0.0280    -1.8320 C.3   1 <1>   0.1400 
  7 O       -0.7930     2.4650    -0.4340 O.3   1 <1>  -0.3630 
  8 C       -3.9580    -1.7180     0.1380 C.2   1 <1>   0.0460 
  9 C       -3.2620     0.7240    -2.1900 C.3   1 <1>   0.3430 
 10 C       -1.4720     3.4430     0.2210 C.ar  1 <1>   0.0820 
 11 N       -4.8040    -1.6810    -0.9150 N.2   1 <1>  -0.5650 
 12 C       -4.6490    -1.7310     1.3040 C.2   1 <1>  -0.3320 
 13 N       -3.5820     1.8790    -1.2870 N.4   1 <1>  -0.9590 
 14 C       -1.7630     4.6020    -0.4930 C.ar  1 <1>  -0.1440 
 15 C       -1.9160     3.3080     1.5340 C.ar  1 <1>  -0.1500 
 16 C       -5.9790    -1.7070    -0.3730 C.2   1 <1>   0.0360 
 17 N       -5.9540    -1.7330     0.9750 N.pl3 1 <1>   0.0330 
 18 C       -4.1710    -1.7630     2.7470 C.3   1 <1>  -0.0600 
 19 C       -4.3030     1.4370    -0.0540 C.3   1 <1>   0.2630 
 20 C       -4.3730     2.9300    -1.9840 C.3   1 <1>   0.2630 
 21 C       -2.5190     5.5990     0.1030 C.ar  1 <1>  -0.1500 
 22 C       -1.2420     4.8050    -1.9110 C.3   1 <1>  -0.0970 
 23 C       -2.6680     4.3110     2.1180 C.ar  1 <1>  -0.1500 
 24 C       -2.9750     5.4530     1.4010 C.ar  1 <1>  -0.1500 
 25 H        0.6030     1.0010    -0.3890 H     1 <1>   0.0800 
 26 H        0.2850     1.7540     1.1460 H     1 <1>   0.0800 
 27 H       -1.9940    -2.1670     0.8350 H     1 <1>   0.0800 
 28 H       -2.2280    -2.4780    -0.8460 H     1 <1>   0.0800 
 29 H       -1.8960    -0.9060    -2.4520 H     1 <1>   0.0800 
 30 H       -1.1200     0.5910    -2.1030 H     1 <1>   0.0800 
 31 H       -4.0870     0.0340    -2.2000 H     1 <1>   0.0800 
 32 H       -3.1540     1.0880    -3.1970 H     1 <1>   0.0800 
 33 H       -2.6830     2.2960    -0.9770 H     1 <1>   0.4500 
 34 H       -1.6950     2.4380     2.1250 H     1 <1>   0.1500 
 35 H       -6.9040    -1.7130    -0.9250 H     1 <1>   0.1500 
 36 H       -6.7580    -1.7770     1.6090 H     1 <1>   0.2700 
 37 H       -3.0970    -1.7380     2.7980 H     1 <1>   0.0800 
 38 H       -4.5110    -2.6610     3.2320 H     1 <1>   0.0800 
 39 H       -4.5500    -0.9130     3.2850 H     1 <1>   0.0800 
 40 H       -5.2110     0.9200    -0.3160 H     1 <1>   0.0800 
 41 H       -4.5440     2.2870     0.5620 H     1 <1>   0.0800 
 42 H       -3.6900     0.7670     0.5250 H     1 <1>   0.0800 
 43 H       -5.3290     2.5380    -2.2880 H     1 <1>   0.0800 
 44 H       -3.8450     3.2800    -2.8550 H     1 <1>   0.0800 
 45 H       -4.5330     3.7680    -1.3230 H     1 <1>   0.0800 
 46 H       -2.7500     6.5040    -0.4320 H     1 <1>   0.1500 
 47 H       -1.5130     3.9780    -2.5400 H     1 <1>   0.0800 
 48 H       -0.1690     4.8800    -1.8890 H     1 <1>   0.0800 
 49 H       -1.6330     5.7080    -2.3430 H     1 <1>   0.0800 
 50 H       -3.0100     4.2070     3.1340 H     1 <1>   0.1500 
 51 H       -3.5570     6.2350     1.8590 H     1 <1>   0.1500 
@<TRIPOS>BOND
  1   1   2  2   
  2   2   3  am  
  3   2   4  1   
  4   3   5  1   
  5   3   6  1   
  6   4   7  1   
  7   4  25  1   
  8   4  26  1   
  9   5   8  1   
 10   5  27  1   
 11   5  28  1   
 12   6   9  1   
 13   6  29  1   
 14   6  30  1   
 15   7  10  1   
 16   8  11  1   
 17   8  12  2   
 18   9  13  1   
 19   9  31  1   
 20   9  32  1   
 21  10  14  ar  
 22  10  15  ar  
 23  11  16  2   
 24  12  17  1   
 25  12  18  1   
 26  13  19  1   
 27  13  20  1   
 28  13  33  1   
 29  14  21  ar  
 30  14  22  1   
 31  15  23  ar  
 32  15  34  1   
 33  16  17  1   
 34  16  35  1   
 35  17  36  1   
 36  18  37  1   
 37  18  38  1   
 38  18  39  1   
 39  19  40  1   
 40  19  41  1   
 41  19  42  1   
 42  20  43  1   
 43  20  44  1   
 44  20  45  1   
 45  21  24  ar  
 46  21  46  1   
 47  22  47  1   
 48  22  48  1   
 49  22  49  1   
 50  23  24  ar  
 51  23  50  1   
 52  24  51  1   
@<TRIPOS>SUBSTRUCTURE
  1 ****  19 GROUP 4 **** **** 0

# MOE 2024.06 (io_trps.svl 2023.06)
