@<TRIPOS>MOLECULE
NONAME
44 46 1 0 0 
SMALL
USER_CHARGES


@<TRIPOS>ATOM
  1 S        2.5250    -1.0720     1.1000 S.3   1 <1>  -0.0800 
  2 C        1.4410    -0.5730    -0.1760 C.2   1 <1>   0.1980 
  3 C        2.1590    -2.7240     0.7240 C.2   1 <1>  -0.1100 
  4 N        0.8860    -1.5350    -0.7910 N.2   1 <1>  -0.5650 
  5 C        1.2750     0.9150    -0.4220 C.3   1 <1>   0.0200 
  6 C        1.2780    -2.7920    -0.3000 C.2   1 <1>   0.1410 
  7 C        0.4430     1.5830     0.6820 C.3   1 <1>  -0.1600 
  8 C        0.7460    -4.0280    -0.8670 C.2   1 <1>   0.7160 
  9 C        0.2500     3.0800     0.4160 C.3   1 <1>  -0.2400 
 10 O        0.3300    -4.1040    -2.0090 O.2   1 <1>  -0.5700 
 11 N        0.6940    -5.1580    -0.1000 N.am  1 <1>  -0.7300 
 12 C        0.0920    -6.4380    -0.5320 C.3   1 <1>   0.2200 
 13 C       -1.3860    -6.4360    -0.1730 C.3   1 <1>  -0.0800 
 14 C        0.6180    -7.5700     0.3410 C.3   1 <1>   0.1200 
 15 C       -1.3830    -6.9400     1.2770 C.3   1 <1>   0.1200 
 16 C       -2.1960    -7.3500    -1.1110 C.3   1 <1>  -0.0170 
 17 O       -0.1250    -7.5030     1.5190 O.3   1 <1>  -0.5600 
 18 C       -3.6790    -7.3030    -0.7800 C.ar  1 <1>  -0.1430 
 19 C       -4.3310    -8.3490    -0.1570 C.ar  1 <1>  -0.1500 
 20 C       -4.4520    -6.2020    -1.0900 C.ar  1 <1>  -0.1500 
 21 C       -5.6830    -8.2420     0.1230 C.ar  1 <1>   0.1600 
 22 C       -5.7980    -6.1970    -0.7660 C.ar  1 <1>   0.1600 
 23 N       -6.4320    -7.1900    -0.1650 N.ar  1 <1>  -0.6200 
 24 H        2.6440    -3.4860     1.3050 H     1 <1>   0.1500 
 25 H        2.2470     1.3700    -0.4810 H     1 <1>   0.0800 
 26 H        0.7860     1.0480    -1.3700 H     1 <1>   0.0800 
 27 H       -0.5200     1.1020     0.7360 H     1 <1>   0.0800 
 28 H        0.9320     1.4520     1.6320 H     1 <1>   0.0800 
 29 H       -0.2620     3.2330    -0.5180 H     1 <1>   0.0800 
 30 H        1.2000     3.5830     0.3790 H     1 <1>   0.0800 
 31 H       -0.3390     3.5190     1.2020 H     1 <1>   0.0800 
 32 H        0.8510    -5.0910     0.9070 H     1 <1>   0.3700 
 33 H        0.2790    -6.6060    -1.5800 H     1 <1>   0.0800 
 34 H       -1.7960    -5.4430    -0.2300 H     1 <1>   0.0800 
 35 H        1.6650    -7.4720     0.5650 H     1 <1>   0.0800 
 36 H        0.4280    -8.5250    -0.1150 H     1 <1>   0.0800 
 37 H       -2.1360    -7.6860     1.4610 H     1 <1>   0.0800 
 38 H       -1.5140    -6.1250     1.9680 H     1 <1>   0.0800 
 39 H       -1.8400    -8.3640    -1.0460 H     1 <1>   0.0800 
 40 H       -2.0630    -7.0220    -2.1280 H     1 <1>   0.0800 
 41 H       -3.8030    -9.2440     0.1150 H     1 <1>   0.1500 
 42 H       -4.0190    -5.3480    -1.5800 H     1 <1>   0.1500 
 43 H       -6.1750    -9.0670     0.6090 H     1 <1>   0.1500 
 44 H       -6.3840    -5.3280    -1.0150 H     1 <1>   0.1500 
@<TRIPOS>BOND
  1   1   2  1   
  2   1   3  1   
  3   2   4  2   
  4   2   5  1   
  5   3   6  2   
  6   3  24  1   
  7   4   6  1   
  8   5   7  1   
  9   5  25  1   
 10   5  26  1   
 11   6   8  1   
 12   7   9  1   
 13   7  27  1   
 14   7  28  1   
 15   8  10  2   
 16   8  11  am  
 17   9  29  1   
 18   9  30  1   
 19   9  31  1   
 20  11  12  1   
 21  11  32  1   
 22  12  13  1   
 23  12  14  1   
 24  12  33  1   
 25  13  15  1   
 26  13  16  1   
 27  13  34  1   
 28  14  17  1   
 29  14  35  1   
 30  14  36  1   
 31  15  17  1   
 32  15  37  1   
 33  15  38  1   
 34  16  18  1   
 35  16  39  1   
 36  16  40  1   
 37  18  19  ar  
 38  18  20  ar  
 39  19  21  ar  
 40  19  41  1   
 41  20  22  ar  
 42  20  42  1   
 43  21  23  ar  
 44  21  43  1   
 45  22  23  ar  
 46  22  44  1   
@<TRIPOS>SUBSTRUCTURE
  1 ****  11 GROUP 4 **** **** 0

# MOE 2024.06 (io_trps.svl 2023.06)
