@<TRIPOS>MOLECULE
NONAME
56 60 1 0 0 
SMALL
USER_CHARGES


@<TRIPOS>ATOM
  1 O       -1.1610    -0.0560    -1.1570 O.2   1 <1>  -0.5700 
  2 C       -1.9500     0.5270    -0.4360 C.2   1 <1>   0.5440 
  3 N       -1.6450     1.8000    -0.0070 N.am  1 <1>  -0.6600 
  4 C       -3.1840    -0.1250    -0.0720 C.ar  1 <1>   0.0860 
  5 C       -2.6350     2.7730     0.5110 C.3   1 <1>   0.1400 
  6 C       -0.3870     2.4840    -0.3870 C.3   1 <1>   0.1400 
  7 C       -3.9800    -0.7080    -1.0540 C.ar  1 <1>   0.1600 
  8 C       -3.6350    -0.2180     1.2410 C.ar  1 <1>  -0.1500 
  9 C       -1.8780     4.0920     0.6160 C.3   1 <1>  -0.1600 
 10 C       -0.7350     3.9680    -0.3850 C.3   1 <1>  -0.1600 
 11 N       -5.1370    -1.3170    -0.8590 N.ar  1 <1>  -0.6200 
 12 C       -4.8320    -0.8520     1.4670 C.ar  1 <1>  -0.1500 
 13 C       -5.5520    -1.3810     0.4020 C.ar  1 <1>   0.4100 
 14 N       -6.7430    -2.0200     0.6340 N.pl3 1 <1>  -0.8380 
 15 C       -7.9430    -1.4620    -0.0490 C.3   1 <1>   0.2090 
 16 C       -6.7270    -3.4970     0.4590 C.3   1 <1>   0.2090 
 17 C       -8.4440    -2.5760    -0.9640 C.3   1 <1>   0.2000 
 18 C       -8.0100    -3.8700    -0.2860 C.3   1 <1>  -0.0800 
 19 O       -9.8250    -2.5540    -1.1100 O.3   1 <1>  -0.6800 
 20 C       -7.8210    -5.0220    -1.2880 C.3   1 <1>  -0.0160 
 21 C       -7.3260    -6.2870    -0.5930 C.ar  1 <1>  -0.1440 
 22 C       -8.1830    -7.1240     0.1610 C.ar  1 <1>   0.0000 
 23 C       -6.0120    -6.6430    -0.6790 C.ar  1 <1>  -0.1500 
 24 C       -7.6090    -8.2560     0.7900 C.ar  1 <1>   0.3100 
 25 C       -9.5710    -6.9070     0.3260 C.ar  1 <1>  -0.1500 
 26 C       -5.5480    -7.7900    -0.0250 C.ar  1 <1>   0.1600 
 27 N       -6.2930    -8.5740     0.6870 N.ar  1 <1>  -0.6200 
 28 C       -8.4310    -9.0970     1.5570 C.ar  1 <1>  -0.1500 
 29 C      -10.3450    -7.7480     1.0790 C.ar  1 <1>  -0.1500 
 30 C       -9.7690    -8.8560     1.7060 C.ar  1 <1>  -0.1500 
 31 H       -3.4480     2.8600    -0.1910 H     1 <1>   0.0800 
 32 H       -3.0140     2.4710     1.4720 H     1 <1>   0.0800 
 33 H        0.3640     2.2690     0.3540 H     1 <1>   0.0800 
 34 H       -0.0400     2.1630    -1.3550 H     1 <1>   0.0800 
 35 H       -3.6240    -0.6580    -2.0690 H     1 <1>   0.1500 
 36 H       -3.0530     0.1900     2.0490 H     1 <1>   0.1500 
 37 H       -2.5140     4.9360     0.4110 H     1 <1>   0.0800 
 38 H       -1.4810     4.1880     1.6120 H     1 <1>   0.0800 
 39 H        0.1120     4.5770    -0.1230 H     1 <1>   0.0800 
 40 H       -1.0760     4.2450    -1.3680 H     1 <1>   0.0800 
 41 H       -5.2340    -0.9570     2.4570 H     1 <1>   0.1500 
 42 H       -8.6800    -1.2160     0.6940 H     1 <1>   0.0800 
 43 H       -7.6950    -0.5850    -0.6210 H     1 <1>   0.0800 
 44 H       -5.8610    -3.7820    -0.1150 H     1 <1>   0.0800 
 45 H       -6.6840    -3.9870     1.4170 H     1 <1>   0.0800 
 46 H       -7.9920    -2.4700    -1.9350 H     1 <1>   0.0800 
 47 H       -8.7350    -4.1450     0.4590 H     1 <1>   0.0800 
 48 H      -10.2600    -2.6350    -0.2400 H     1 <1>   0.4000 
 49 H       -7.1080    -4.7220    -2.0360 H     1 <1>   0.0800 
 50 H       -8.7450    -5.2210    -1.8030 H     1 <1>   0.0800 
 51 H       -5.3040    -6.0590    -1.2390 H     1 <1>   0.1500 
 52 H      -10.0340    -6.0650    -0.1520 H     1 <1>   0.1500 
 53 H       -4.5030    -8.0340    -0.1190 H     1 <1>   0.1500 
 54 H       -7.9670    -9.9440     2.0270 H     1 <1>   0.1500 
 55 H      -11.4000    -7.5710     1.1970 H     1 <1>   0.1500 
 56 H      -10.3870    -9.5100     2.2970 H     1 <1>   0.1500 
@<TRIPOS>BOND
  1   1   2  2   
  2   2   3  am  
  3   2   4  1   
  4   3   5  1   
  5   3   6  1   
  6   4   7  ar  
  7   4   8  ar  
  8   5   9  1   
  9   5  31  1   
 10   5  32  1   
 11   6  10  1   
 12   6  33  1   
 13   6  34  1   
 14   7  11  ar  
 15   7  35  1   
 16   8  12  ar  
 17   8  36  1   
 18   9  10  1   
 19   9  37  1   
 20   9  38  1   
 21  10  39  1   
 22  10  40  1   
 23  11  13  ar  
 24  12  13  ar  
 25  12  41  1   
 26  13  14  1   
 27  14  15  1   
 28  14  16  1   
 29  15  17  1   
 30  15  42  1   
 31  15  43  1   
 32  16  18  1   
 33  16  44  1   
 34  16  45  1   
 35  17  18  1   
 36  17  19  1   
 37  17  46  1   
 38  18  20  1   
 39  18  47  1   
 40  19  48  1   
 41  20  21  1   
 42  20  49  1   
 43  20  50  1   
 44  21  22  ar  
 45  21  23  ar  
 46  22  24  ar  
 47  22  25  ar  
 48  23  26  ar  
 49  23  51  1   
 50  24  27  ar  
 51  24  28  ar  
 52  25  29  ar  
 53  25  52  1   
 54  26  27  ar  
 55  26  53  1   
 56  28  30  ar  
 57  28  54  1   
 58  29  30  ar  
 59  29  55  1   
 60  30  56  1   
@<TRIPOS>SUBSTRUCTURE
  1 ****  16 GROUP 4 **** **** 0

# MOE 2024.06 (io_trps.svl 2023.06)
