@<TRIPOS>MOLECULE
NONAME
48 50 1 0 0 
SMALL
USER_CHARGES


@<TRIPOS>ATOM
  1 O       -1.1760    -0.5570     1.2210 O.co2 1 <1>  -0.9000 
  2 C       -2.0070    -1.4450     1.4250 C.2   1 <1>   0.9060 
  3 O       -2.4060    -1.7760     2.5460 O.co2 1 <1>  -0.9000 
  4 C       -2.7170    -2.0530     0.2120 C.3   1 <1>   0.2370 
  5 N       -3.9860    -1.3220    -0.2020 N.4   1 <1>  -0.9590 
  6 C       -4.9410    -1.3230     0.9600 C.3   1 <1>   0.3430 
  7 C       -3.6330     0.0770    -0.5930 C.3   1 <1>   0.3430 
  8 C       -6.3720    -0.9000     0.5490 C.3   1 <1>   0.2200 
  9 C       -4.8130     0.8700    -1.1920 C.3   1 <1>  -0.0800 
 10 N       -6.5760    -1.0050    -0.9500 N.am  1 <1>  -0.6600 
 11 C       -6.7280     0.4950     1.0910 C.3   1 <1>   0.1200 
 12 C       -5.3650     1.9190    -0.2170 C.3   1 <1>   0.1200 
 13 C       -5.9320     0.0260    -1.8340 C.3   1 <1>   0.1400 
 14 C       -7.3020    -2.0060    -1.5500 C.2   1 <1>   0.5690 
 15 O       -5.6410     1.3640     1.0240 O.3   1 <1>  -0.5600 
 16 O       -7.4050    -2.0600    -2.7520 O.2   1 <1>  -0.5700 
 17 C       -7.9760    -3.0880    -0.7270 C.3   1 <1>  -0.0990 
 18 C       -8.5520    -4.2240    -1.5860 C.3   1 <1>   0.0960 
 19 N       -9.1750    -5.2540    -0.7330 N.pl3 1 <1>   0.3140 
 20 N       -8.5410    -5.7760     0.3360 N.2   1 <1>  -0.7070 
 21 C      -10.4010    -5.7910    -0.8820 C.2   1 <1>  -0.3020 
 22 C       -9.3780    -6.6310     0.8340 C.2   1 <1>   0.1080 
 23 C      -10.5650    -6.6850     0.1140 C.2   1 <1>  -0.1500 
 24 C       -9.0610    -7.4570     2.0580 C.3   1 <1>  -0.0590 
 25 H       -2.9480    -3.0720     0.4620 H     1 <1>   0.0800 
 26 H       -2.0120    -2.0530    -0.5990 H     1 <1>   0.0800 
 27 H       -4.4560    -1.7850    -0.9890 H     1 <1>   0.4500 
 28 H       -4.9850    -2.3150     1.3770 H     1 <1>   0.0800 
 29 H       -4.5730    -0.6750     1.7410 H     1 <1>   0.0800 
 30 H       -3.2410     0.6040     0.2640 H     1 <1>   0.0800 
 31 H       -2.8420     0.0350    -1.3240 H     1 <1>   0.0800 
 32 H       -7.0490    -1.5670     1.0490 H     1 <1>   0.0800 
 33 H       -4.3930     1.4480    -1.9950 H     1 <1>   0.0800 
 34 H       -6.9760     0.4100     2.1350 H     1 <1>   0.0800 
 35 H       -7.5730     0.9200     0.5780 H     1 <1>   0.0800 
 36 H       -6.2550     2.3920    -0.5970 H     1 <1>   0.0800 
 37 H       -4.6240     2.6830    -0.0520 H     1 <1>   0.0800 
 38 H       -5.5190    -0.4730    -2.6960 H     1 <1>   0.0800 
 39 H       -6.7040     0.6830    -2.2000 H     1 <1>   0.0800 
 40 H       -7.2490    -3.5070    -0.0570 H     1 <1>   0.0800 
 41 H       -8.7720    -2.6430    -0.1580 H     1 <1>   0.0800 
 42 H       -7.7700    -4.6900    -2.1570 H     1 <1>   0.0800 
 43 H       -9.2930    -3.8410    -2.2650 H     1 <1>   0.0800 
 44 H      -11.0750    -5.5140    -1.6720 H     1 <1>   0.1500 
 45 H      -11.4120    -7.3130     0.3260 H     1 <1>   0.1500 
 46 H       -9.8690    -8.1300     2.2770 H     1 <1>   0.0800 
 47 H       -8.9040    -6.8070     2.8990 H     1 <1>   0.0800 
 48 H       -8.1660    -8.0250     1.8840 H     1 <1>   0.0800 
@<TRIPOS>BOND
  1   1   2  ar  
  2   2   3  ar  
  3   2   4  1   
  4   4   5  1   
  5   4  25  1   
  6   4  26  1   
  7   5   6  1   
  8   5   7  1   
  9   5  27  1   
 10   6   8  1   
 11   6  28  1   
 12   6  29  1   
 13   7   9  1   
 14   7  30  1   
 15   7  31  1   
 16   8  10  1   
 17   8  11  1   
 18   8  32  1   
 19   9  12  1   
 20   9  13  1   
 21   9  33  1   
 22  10  13  1   
 23  10  14  am  
 24  11  15  1   
 25  11  34  1   
 26  11  35  1   
 27  12  15  1   
 28  12  36  1   
 29  12  37  1   
 30  13  38  1   
 31  13  39  1   
 32  14  16  2   
 33  14  17  1   
 34  17  18  1   
 35  17  40  1   
 36  17  41  1   
 37  18  19  1   
 38  18  42  1   
 39  18  43  1   
 40  19  20  1   
 41  19  21  1   
 42  20  22  2   
 43  21  23  2   
 44  21  44  1   
 45  22  23  1   
 46  22  24  1   
 47  23  45  1   
 48  24  46  1   
 49  24  47  1   
 50  24  48  1   
@<TRIPOS>SUBSTRUCTURE
  1 ****   8 GROUP 4 **** **** 0

# MOE 2024.06 (io_trps.svl 2023.06)
