@<TRIPOS>MOLECULE
NONAME
57 61 1 0 0 
SMALL
USER_CHARGES


@<TRIPOS>ATOM
  1 S        3.4830     1.1710    -1.7280 S.3   1 <1>  -0.0800 
  2 C        2.0150     0.2330    -1.4610 C.2   1 <1>   0.3250 
  3 C        4.4420    -0.1350    -1.1320 C.2   1 <1>  -0.1100 
  4 N        2.2850    -0.9330    -0.9700 N.2   1 <1>  -0.5650 
  5 C        0.7290     0.8360    -1.7970 C.ar  1 <1>   0.6730 
  6 C        3.6510    -1.1670    -0.7700 C.2   1 <1>   0.1410 
  7 N       -0.3850     0.1470    -1.4960 N.ar  1 <1>  -0.6200 
  8 N        0.7250     2.0430    -2.3850 N.ar  1 <1>  -0.6200 
  9 C        4.1490    -2.4370    -0.2460 C.2   1 <1>   0.7160 
 10 C       -1.5360     0.6970    -1.8000 C.ar  1 <1>   0.1600 
 11 C       -0.4390     2.5690    -2.6780 C.ar  1 <1>   0.1600 
 12 O        5.2910    -2.7800    -0.4970 O.2   1 <1>  -0.5700 
 13 N        3.3790    -3.2830     0.5150 N.am  1 <1>  -0.6600 
 14 C       -1.6180     1.9260    -2.4020 C.ar  1 <1>  -0.1500 
 15 C        3.5040    -4.7300     0.6600 C.3   1 <1>   0.2200 
 16 C        2.1080    -3.0820     1.1890 C.3   1 <1>   0.2200 
 17 C        2.1920    -5.1850    -0.0380 C.3   1 <1>   0.0610 
 18 C        3.4250    -4.8130     2.1960 C.3   1 <1>  -0.1600 
 19 C        1.2130    -4.0520     0.4080 C.3   1 <1>  -0.1600 
 20 C        2.4320    -3.6920     2.5550 C.3   1 <1>  -0.1600 
 21 C        1.7130    -6.5840     0.3800 C.2   1 <1>   0.5690 
 22 C        2.3380    -5.1490    -1.5850 C.3   1 <1>  -0.0160 
 23 O        2.4880    -7.3960     0.8270 O.2   1 <1>  -0.5700 
 24 N        0.3990    -6.9020     0.2030 N.am  1 <1>  -0.7300 
 25 C        3.3950    -6.0960    -2.1430 C.ar  1 <1>  -0.1430 
 26 C       -0.2160    -8.1990     0.5430 C.3   1 <1>   0.1400 
 27 C        4.6660    -5.6270    -2.4430 C.ar  1 <1>  -0.1500 
 28 C        3.0990    -7.4320    -2.3720 C.ar  1 <1>  -0.1500 
 29 C       -1.4850    -7.9390     1.3460 C.3   1 <1>  -0.2400 
 30 C        5.6270    -6.4800    -2.9570 C.ar  1 <1>  -0.1500 
 31 C        4.0590    -8.2860    -2.8860 C.ar  1 <1>  -0.1500 
 32 C        5.3250    -7.8110    -3.1790 C.ar  1 <1>  -0.1500 
 33 H        5.5110    -0.0230    -1.1090 H     1 <1>   0.1500 
 34 H       -2.4350     0.1530    -1.5630 H     1 <1>   0.1500 
 35 H       -0.4520     3.5380    -3.1510 H     1 <1>   0.1500 
 36 H       -2.5670     2.3670    -2.6460 H     1 <1>   0.1500 
 37 H        4.4080    -5.1430     0.2440 H     1 <1>   0.0800 
 38 H        1.7610    -2.0630     1.2300 H     1 <1>   0.0800 
 39 H        3.1100    -5.7720     2.5630 H     1 <1>   0.0800 
 40 H        4.3950    -4.5980     2.6090 H     1 <1>   0.0800 
 41 H        0.4140    -4.4020     1.0370 H     1 <1>   0.0800 
 42 H        0.7820    -3.5360    -0.4310 H     1 <1>   0.0800 
 43 H        2.9030    -2.9570     3.1840 H     1 <1>   0.0800 
 44 H        1.5520    -4.0660     3.0490 H     1 <1>   0.0800 
 45 H        1.3940    -5.3970    -2.0340 H     1 <1>   0.0800 
 46 H        2.5740    -4.1510    -1.9080 H     1 <1>   0.0800 
 47 H       -0.2320    -6.2120    -0.2040 H     1 <1>   0.3700 
 48 H       -0.4490    -8.7320    -0.3630 H     1 <1>   0.0800 
 49 H        0.4710    -8.7940     1.1230 H     1 <1>   0.0800 
 50 H        4.9180    -4.5950    -2.2770 H     1 <1>   0.1500 
 51 H        2.1220    -7.8180    -2.1440 H     1 <1>   0.1500 
 52 H       -2.1910    -7.3740     0.7660 H     1 <1>   0.0800 
 53 H       -1.2480    -7.4060     2.2500 H     1 <1>   0.0800 
 54 H       -1.9370    -8.8770     1.6150 H     1 <1>   0.0800 
 55 H        6.6100    -6.1040    -3.1810 H     1 <1>   0.1500 
 56 H        3.8210    -9.3210    -3.0530 H     1 <1>   0.1500 
 57 H        6.0720    -8.4750    -3.5760 H     1 <1>   0.1500 
@<TRIPOS>BOND
  1   1   2  1   
  2   1   3  1   
  3   2   4  2   
  4   2   5  1   
  5   3   6  2   
  6   3  33  1   
  7   4   6  1   
  8   5   7  ar  
  9   5   8  ar  
 10   6   9  1   
 11   7  10  ar  
 12   8  11  ar  
 13   9  12  2   
 14   9  13  am  
 15  10  14  ar  
 16  10  34  1   
 17  11  14  ar  
 18  11  35  1   
 19  13  15  1   
 20  13  16  1   
 21  14  36  1   
 22  15  17  1   
 23  15  18  1   
 24  15  37  1   
 25  16  19  1   
 26  16  20  1   
 27  16  38  1   
 28  17  19  1   
 29  17  21  1   
 30  17  22  1   
 31  18  20  1   
 32  18  39  1   
 33  18  40  1   
 34  19  41  1   
 35  19  42  1   
 36  20  43  1   
 37  20  44  1   
 38  21  23  2   
 39  21  24  am  
 40  22  25  1   
 41  22  45  1   
 42  22  46  1   
 43  24  26  1   
 44  24  47  1   
 45  25  27  ar  
 46  25  28  ar  
 47  26  29  1   
 48  26  48  1   
 49  26  49  1   
 50  27  30  ar  
 51  27  50  1   
 52  28  31  ar  
 53  28  51  1   
 54  29  52  1   
 55  29  53  1   
 56  29  54  1   
 57  30  32  ar  
 58  30  55  1   
 59  31  32  ar  
 60  31  56  1   
 61  32  57  1   
@<TRIPOS>SUBSTRUCTURE
  1 ****  19 GROUP 4 **** **** 0

# MOE 2024.06 (io_trps.svl 2023.06)
