@<TRIPOS>MOLECULE
NONAME
53 56 1 0 0 
SMALL
USER_CHARGES


@<TRIPOS>ATOM
  1 F       -0.9630     1.9620     0.5980 F     1 <1>  -0.1900 
  2 C       -2.1760     1.9410     0.1130 C.ar  1 <1>   0.1900 
  3 C       -2.9840     0.8570     0.3910 C.ar  1 <1>  -0.1500 
  4 C       -2.5990     3.0070    -0.6590 C.ar  1 <1>  -0.1500 
  5 C       -4.2770     0.8280    -0.1210 C.ar  1 <1>   0.1000 
  6 C       -3.8860     2.9780    -1.1710 C.ar  1 <1>  -0.1500 
  7 N       -5.1380    -0.2390     0.1200 N.pl3 1 <1>  -0.8380 
  8 C       -4.7110     1.8970    -0.9000 C.ar  1 <1>  -0.1500 
  9 C       -5.2380    -0.7730     1.4950 C.3   1 <1>   0.2090 
 10 C       -5.2840    -1.2320    -0.9620 C.3   1 <1>   0.2090 
 11 C       -6.6370    -1.3600     1.6540 C.3   1 <1>  -0.1600 
 12 C       -6.6820    -1.8340    -0.8490 C.3   1 <1>  -0.1600 
 13 C       -6.9160    -2.3930     0.5600 C.3   1 <1>   0.4230 
 14 N       -8.3230    -2.8260     0.6980 N.4   1 <1>  -0.9060 
 15 C       -8.7170    -4.0380    -0.0710 C.3   1 <1>   0.4230 
 16 C      -10.2190    -4.2490     0.1090 C.3   1 <1>  -0.0800 
 17 C       -8.1740    -5.2670     0.6480 C.3   1 <1>   0.1200 
 18 C      -10.2990    -5.0690     1.4120 C.3   1 <1>   0.1200 
 19 C      -10.8380    -5.0000    -1.0870 C.3   1 <1>  -0.0170 
 20 O       -8.9770    -5.3350     1.7780 O.3   1 <1>  -0.5600 
 21 C      -12.3330    -5.1940    -0.8930 C.ar  1 <1>  -0.1430 
 22 C      -13.2320    -4.1640    -1.0860 C.ar  1 <1>  -0.1500 
 23 C      -12.8720    -6.4090    -0.5170 C.ar  1 <1>  -0.1500 
 24 C      -14.5850    -4.3880    -0.8880 C.ar  1 <1>   0.1600 
 25 C      -14.2410    -6.5280    -0.3450 C.ar  1 <1>   0.1600 
 26 N      -15.1080    -5.5440    -0.5160 N.ar  1 <1>  -0.6200 
 27 H       -2.6070     0.0520     0.9880 H     1 <1>   0.1500 
 28 H       -1.9380     3.8330    -0.8510 H     1 <1>   0.1500 
 29 H       -4.2440     3.7940    -1.7750 H     1 <1>   0.1500 
 30 H       -5.7100     1.8770    -1.2930 H     1 <1>   0.1500 
 31 H       -4.4820    -1.5250     1.6510 H     1 <1>   0.0800 
 32 H       -5.0850     0.0230     2.2060 H     1 <1>   0.0800 
 33 H       -5.1580    -0.7520    -1.9190 H     1 <1>   0.0800 
 34 H       -4.5250    -1.9910    -0.8600 H     1 <1>   0.0800 
 35 H       -7.3410    -0.5490     1.5990 H     1 <1>   0.0800 
 36 H       -6.7070    -1.8160     2.6250 H     1 <1>   0.0800 
 37 H       -6.7730    -2.6070    -1.5890 H     1 <1>   0.0800 
 38 H       -7.3930    -1.0560    -1.0690 H     1 <1>   0.0800 
 39 H       -6.2560    -3.2320     0.7140 H     1 <1>   0.0800 
 40 H       -8.9350    -2.0360     0.4760 H     1 <1>   0.4500 
 41 H       -8.4930    -3.0760     1.6850 H     1 <1>   0.4500 
 42 H       -8.4190    -3.9760    -1.1050 H     1 <1>   0.0800 
 43 H      -10.7410    -3.3150     0.2220 H     1 <1>   0.0800 
 44 H       -7.1420    -5.1870     0.9400 H     1 <1>   0.0800 
 45 H       -8.3210    -6.1660     0.0720 H     1 <1>   0.0800 
 46 H      -10.8060    -6.0100     1.2790 H     1 <1>   0.0800 
 47 H      -10.7720    -4.5210     2.2100 H     1 <1>   0.0800 
 48 H      -10.3690    -5.9600    -1.2190 H     1 <1>   0.0800 
 49 H      -10.6830    -4.4380    -1.9930 H     1 <1>   0.0800 
 50 H      -12.9040    -3.1870    -1.3920 H     1 <1>   0.1500 
 51 H      -12.2490    -7.2700    -0.3560 H     1 <1>   0.1500 
 52 H      -15.2740    -3.5750    -1.0430 H     1 <1>   0.1500 
 53 H      -14.6450    -7.4820    -0.0500 H     1 <1>   0.1500 
@<TRIPOS>BOND
  1   1   2  1   
  2   2   3  ar  
  3   2   4  ar  
  4   3   5  ar  
  5   3  27  1   
  6   4   6  ar  
  7   4  28  1   
  8   5   7  1   
  9   5   8  ar  
 10   6   8  ar  
 11   6  29  1   
 12   7   9  1   
 13   7  10  1   
 14   8  30  1   
 15   9  11  1   
 16   9  31  1   
 17   9  32  1   
 18  10  12  1   
 19  10  33  1   
 20  10  34  1   
 21  11  13  1   
 22  11  35  1   
 23  11  36  1   
 24  12  13  1   
 25  12  37  1   
 26  12  38  1   
 27  13  14  1   
 28  13  39  1   
 29  14  15  1   
 30  14  40  1   
 31  14  41  1   
 32  15  16  1   
 33  15  17  1   
 34  15  42  1   
 35  16  18  1   
 36  16  19  1   
 37  16  43  1   
 38  17  20  1   
 39  17  44  1   
 40  17  45  1   
 41  18  20  1   
 42  18  46  1   
 43  18  47  1   
 44  19  21  1   
 45  19  48  1   
 46  19  49  1   
 47  21  22  ar  
 48  21  23  ar  
 49  22  24  ar  
 50  22  50  1   
 51  23  25  ar  
 52  23  51  1   
 53  24  26  ar  
 54  24  52  1   
 55  25  26  ar  
 56  25  53  1   
@<TRIPOS>SUBSTRUCTURE
  1 ****  14 GROUP 4 **** **** 0

# MOE 2024.06 (io_trps.svl 2023.06)
