@<TRIPOS>MOLECULE
NONAME
42 44 1 0 0 
SMALL
USER_CHARGES


@<TRIPOS>ATOM
  1 CL      -2.3320     1.4370    -1.8160 Cl    1 <1>  -0.1770 
  2 C       -1.2870     2.2420    -0.6710 C.ar  1 <1>   0.1770 
  3 C       -1.7670     2.6440     0.5640 C.ar  1 <1>   0.0860 
  4 C        0.0300     2.4740    -1.0230 C.ar  1 <1>   0.1600 
  5 C       -3.1310     2.4420     0.9870 C.2   1 <1>   0.5440 
  6 C       -0.8310     3.2620     1.3820 C.ar  1 <1>  -0.1500 
  7 N        0.9190     3.0770    -0.2460 N.ar  1 <1>  -0.6200 
  8 O       -3.3670     1.5290     1.7540 O.2   1 <1>  -0.5700 
  9 N       -4.1500     3.2740     0.5750 N.am  1 <1>  -0.6600 
 10 C        0.4660     3.4510     0.9420 C.ar  1 <1>   0.1600 
 11 C       -5.5680     3.0610     1.0070 C.3   1 <1>   0.1400 
 12 C       -3.9800     4.4300    -0.3460 C.3   1 <1>   0.1400 
 13 C       -6.4880     2.8240    -0.2170 C.3   1 <1>   0.0000 
 14 C       -4.8550     4.2330    -1.5890 C.3   1 <1>  -0.1600 
 15 C       -7.9550     2.6490     0.2120 C.3   1 <1>   0.2000 
 16 C       -6.3290     3.9920    -1.2170 C.3   1 <1>  -0.1600 
 17 C       -6.1870     1.4580    -0.8570 C.3   1 <1>  -0.1600 
 18 O       -8.3020     3.5450     1.2260 O.3   1 <1>  -0.5600 
 19 C       -8.0800     1.1960     0.6800 C.3   1 <1>  -0.1600 
 20 C       -6.9400     0.4300    -0.0060 C.3   1 <1>  -0.1600 
 21 C       -9.6690     3.6620     1.4640 C.3   1 <1>   0.0400 
 22 H        0.3650     2.1480    -1.9920 H     1 <1>   0.1500 
 23 H       -1.1240     3.5890     2.3640 H     1 <1>   0.1500 
 24 H        1.1710     3.9340     1.5990 H     1 <1>   0.1500 
 25 H       -5.6400     2.2310     1.6870 H     1 <1>   0.0800 
 26 H       -5.8920     3.9380     1.5390 H     1 <1>   0.0800 
 27 H       -4.2810     5.3270     0.1680 H     1 <1>   0.0800 
 28 H       -2.9530     4.5460    -0.6420 H     1 <1>   0.0800 
 29 H       -4.7830     5.1050    -2.2130 H     1 <1>   0.0800 
 30 H       -4.4810     3.3980    -2.1540 H     1 <1>   0.0800 
 31 H       -8.5940     2.8160    -0.6390 H     1 <1>   0.0800 
 32 H       -6.8990     3.8000    -2.1080 H     1 <1>   0.0800 
 33 H       -6.7220     4.8860    -0.7640 H     1 <1>   0.0800 
 34 H       -6.5760     1.4310    -1.8590 H     1 <1>   0.0800 
 35 H       -5.1340     1.2380    -0.8950 H     1 <1>   0.0800 
 36 H       -7.9580     1.1370     1.7480 H     1 <1>   0.0800 
 37 H       -9.0360     0.7900     0.4020 H     1 <1>   0.0800 
 38 H       -6.2770     0.0260     0.7410 H     1 <1>   0.0800 
 39 H       -7.3110    -0.3770    -0.6140 H     1 <1>   0.0800 
 40 H       -9.8100     4.3900     2.2430 H     1 <1>   0.0800 
 41 H      -10.0600     2.7120     1.7840 H     1 <1>   0.0800 
 42 H      -10.1600     3.9930     0.5660 H     1 <1>   0.0800 
@<TRIPOS>BOND
  1   1   2  1   
  2   2   3  ar  
  3   2   4  ar  
  4   3   5  1   
  5   3   6  ar  
  6   4   7  ar  
  7   4  22  1   
  8   5   8  2   
  9   5   9  am  
 10   6  10  ar  
 11   6  23  1   
 12   7  10  ar  
 13   9  11  1   
 14   9  12  1   
 15  10  24  1   
 16  11  13  1   
 17  11  25  1   
 18  11  26  1   
 19  12  14  1   
 20  12  27  1   
 21  12  28  1   
 22  13  15  1   
 23  13  16  1   
 24  13  17  1   
 25  14  16  1   
 26  14  29  1   
 27  14  30  1   
 28  15  18  1   
 29  15  19  1   
 30  15  31  1   
 31  16  32  1   
 32  16  33  1   
 33  17  20  1   
 34  17  34  1   
 35  17  35  1   
 36  18  21  1   
 37  19  20  1   
 38  19  36  1   
 39  19  37  1   
 40  20  38  1   
 41  20  39  1   
 42  21  40  1   
 43  21  41  1   
 44  21  42  1   
@<TRIPOS>SUBSTRUCTURE
  1 ****   9 GROUP 4 **** **** 0

# MOE 2024.06 (io_trps.svl 2023.06)
