@<TRIPOS>MOLECULE
NONAME
46 48 1 0 0 
SMALL
USER_CHARGES


@<TRIPOS>ATOM
  1 CL      -0.4050     1.7970    -1.3550 Cl    1 <1>  -0.1770 
  2 C        1.2450     2.2170    -0.9760 C.ar  1 <1>   0.1770 
  3 C        2.2240     1.2470    -1.0370 C.ar  1 <1>  -0.1500 
  4 C        1.5510     3.5140    -0.6200 C.ar  1 <1>  -0.1500 
  5 C        3.5340     1.5810    -0.7350 C.ar  1 <1>  -0.1500 
  6 C        2.8620     3.8420    -0.3190 C.ar  1 <1>  -0.1500 
  7 C        3.8730     2.8830    -0.3690 C.ar  1 <1>  -0.1430 
  8 C        5.3100     3.3020    -0.0260 C.3   1 <1>   0.4240 
  9 O        5.2530     3.8920     1.2200 O.3   1 <1>  -0.6800 
 10 C        6.3290     2.1590     0.0920 C.3   1 <1>  -0.1600 
 11 C        5.8300     4.3560    -1.0190 C.3   1 <1>  -0.1600 
 12 C        7.7140     2.6400     0.5510 C.3   1 <1>   0.3430 
 13 C        7.3540     4.5080    -1.0330 C.3   1 <1>   0.3430 
 14 N        7.9040     4.0940     0.2870 N.4   1 <1>  -0.9590 
 15 C        9.2950     4.5700     0.5360 C.3   1 <1>   0.5230 
 16 C        9.2760     6.0470     0.8930 C.2   1 <1>  -0.0400 
 17 O        8.7650     6.8980     0.0340 O.3   1 <1>  -0.2800 
 18 C        9.7010     6.7070     1.9930 C.2   1 <1>  -0.1500 
 19 C        8.8210     8.1280     0.5330 C.2   1 <1>   0.0550 
 20 C        9.4100     8.0530     1.7610 C.2   1 <1>  -0.1500 
 21 C        8.2920     9.2430    -0.2220 C.2   1 <1>   0.7150 
 22 O        7.6420     9.0560    -1.2350 O.2   1 <1>  -0.5700 
 23 N        8.5090    10.5290     0.1960 N.am  1 <1>  -0.7300 
 24 C        8.0140    11.7570    -0.4800 C.3   1 <1>   0.0600 
 25 H        1.9580     0.2430    -1.3180 H     1 <1>   0.1500 
 26 H        0.7710     4.2550    -0.5810 H     1 <1>   0.1500 
 27 H        4.2700     0.7990    -0.7960 H     1 <1>   0.1500 
 28 H        3.0850     4.8610    -0.0460 H     1 <1>   0.1500 
 29 H        4.3730     3.6860     1.6020 H     1 <1>   0.4000 
 30 H        6.4380     1.6880    -0.8680 H     1 <1>   0.0800 
 31 H        5.9710     1.4100     0.7750 H     1 <1>   0.0800 
 32 H        5.3790     5.3100    -0.8110 H     1 <1>   0.0800 
 33 H        5.5250     4.0830    -2.0130 H     1 <1>   0.0800 
 34 H        8.4750     2.0650     0.0480 H     1 <1>   0.0800 
 35 H        7.8070     2.4650     1.6120 H     1 <1>   0.0800 
 36 H        7.6020     5.5320    -1.2580 H     1 <1>   0.0800 
 37 H        7.7740     3.8850    -1.8060 H     1 <1>   0.0800 
 38 H        7.2970     4.5810     0.9730 H     1 <1>   0.4500 
 39 H        9.9050     4.4150    -0.3390 H     1 <1>   0.0800 
 40 H        9.7280     4.0250     1.3580 H     1 <1>   0.0800 
 41 H       10.1680     6.3220     2.8840 H     1 <1>   0.1500 
 42 H        9.6170     8.8560     2.4470 H     1 <1>   0.1500 
 43 H        9.0910    10.6810     1.0200 H     1 <1>   0.3700 
 44 H        7.4160    11.5030    -1.3390 H     1 <1>   0.0800 
 45 H        8.8480    12.3550    -0.8050 H     1 <1>   0.0800 
 46 H        7.4110    12.3310     0.2020 H     1 <1>   0.0800 
@<TRIPOS>BOND
  1   1   2  1   
  2   2   3  ar  
  3   2   4  ar  
  4   3   5  ar  
  5   3  25  1   
  6   4   6  ar  
  7   4  26  1   
  8   5   7  ar  
  9   5  27  1   
 10   6   7  ar  
 11   6  28  1   
 12   7   8  1   
 13   8   9  1   
 14   8  10  1   
 15   8  11  1   
 16   9  29  1   
 17  10  12  1   
 18  10  30  1   
 19  10  31  1   
 20  11  13  1   
 21  11  32  1   
 22  11  33  1   
 23  12  14  1   
 24  12  34  1   
 25  12  35  1   
 26  13  14  1   
 27  13  36  1   
 28  13  37  1   
 29  14  15  1   
 30  14  38  1   
 31  15  16  1   
 32  15  39  1   
 33  15  40  1   
 34  16  17  1   
 35  16  18  2   
 36  17  19  1   
 37  18  20  1   
 38  18  41  1   
 39  19  20  2   
 40  19  21  1   
 41  20  42  1   
 42  21  22  2   
 43  21  23  am  
 44  23  24  1   
 45  23  43  1   
 46  24  44  1   
 47  24  45  1   
 48  24  46  1   
@<TRIPOS>SUBSTRUCTURE
  1 ****  11 GROUP 4 **** **** 0

# MOE 2024.06 (io_trps.svl 2023.06)
