@<TRIPOS>MOLECULE
NONAME
50 53 1 0 0 
SMALL
USER_CHARGES


@<TRIPOS>ATOM
  1 S        0.2660    -0.9140     2.3130 S.3   1 <1>  -0.0800 
  2 C       -0.0100    -1.2280     0.6060 C.2   1 <1>   0.3250 
  3 C       -1.2780    -1.5930     2.6890 C.2   1 <1>  -0.1100 
  4 N       -1.1510    -1.7820     0.3940 N.2   1 <1>  -0.5650 
  5 C        1.0080    -0.8670    -0.3590 C.ar  1 <1>   0.0530 
  6 C       -1.9010    -1.9970     1.5620 C.2   1 <1>   0.1410 
  7 C        0.9540    -1.3870    -1.6540 C.ar  1 <1>  -0.1500 
  8 C        2.0670    -0.0030    -0.0670 C.ar  1 <1>  -0.1500 
  9 C       -3.2270    -2.6230     1.5590 C.2   1 <1>   0.7160 
 10 C        1.9030    -1.0680    -2.6080 C.ar  1 <1>  -0.1500 
 11 C        3.0210     0.3200    -1.0160 C.ar  1 <1>  -0.1500 
 12 O       -3.5670    -3.2370     2.5570 O.2   1 <1>  -0.5700 
 13 N       -4.1190    -2.5480     0.4990 N.am  1 <1>  -0.6600 
 14 C        2.9410    -0.2120    -2.2900 C.ar  1 <1>  -0.1500 
 15 C       -3.9130    -1.6240    -0.6540 C.3   1 <1>   0.1400 
 16 C       -5.4380    -3.2350     0.5390 C.3   1 <1>   0.1400 
 17 C       -5.2250    -1.2730    -1.3720 C.3   1 <1>  -0.1600 
 18 C       -6.5890    -2.2180     0.5190 C.3   1 <1>  -0.1600 
 19 C       -6.3560    -0.9690    -0.3660 C.3   1 <1>   0.2800 
 20 O       -5.9390     0.0490     0.5050 O.3   1 <1>  -0.5600 
 21 C       -7.6950    -0.5530    -1.0190 C.3   1 <1>  -0.1600 
 22 C       -5.8140     1.3530     0.0200 C.3   1 <1>   0.1200 
 23 C       -7.7630     0.8940    -1.5210 C.3   1 <1>   0.2800 
 24 C       -7.1720     1.8450    -0.4820 C.3   1 <1>  -0.1600 
 25 O       -7.0220     1.0020    -2.6710 O.3   1 <1>  -0.6800 
 26 C       -9.1880     1.2920    -1.9010 C.3   1 <1>  -0.2400 
 27 H       -1.5860    -1.6360     3.7180 H     1 <1>   0.1500 
 28 H        0.1520    -2.0560    -1.9140 H     1 <1>   0.1500 
 29 H        2.1570     0.4320     0.9110 H     1 <1>   0.1500 
 30 H        1.8360    -1.4870    -3.5970 H     1 <1>   0.1500 
 31 H        3.8270     0.9880    -0.7650 H     1 <1>   0.1500 
 32 H        3.6830     0.0380    -3.0290 H     1 <1>   0.1500 
 33 H       -3.2250    -2.0720    -1.3500 H     1 <1>   0.0800 
 34 H       -3.4730    -0.7110    -0.2870 H     1 <1>   0.0800 
 35 H       -5.5280    -3.8620     1.4100 H     1 <1>   0.0800 
 36 H       -5.5070    -3.8750    -0.3230 H     1 <1>   0.0800 
 37 H       -5.5170    -2.1020    -1.9910 H     1 <1>   0.0800 
 38 H       -5.0400    -0.4540    -2.0330 H     1 <1>   0.0800 
 39 H       -6.7980    -1.9060     1.5270 H     1 <1>   0.0800 
 40 H       -7.4560    -2.7530     0.1760 H     1 <1>   0.0800 
 41 H       -8.4600    -0.6600    -0.2710 H     1 <1>   0.0800 
 42 H       -7.9470    -1.2280    -1.8170 H     1 <1>   0.0800 
 43 H       -5.0670     1.3760    -0.7520 H     1 <1>   0.0800 
 44 H       -5.4770     1.9680     0.8360 H     1 <1>   0.0800 
 45 H       -7.0810     2.8340    -0.8940 H     1 <1>   0.0800 
 46 H       -7.8350     1.9060     0.3630 H     1 <1>   0.0800 
 47 H       -6.0900     0.8190    -2.4670 H     1 <1>   0.4000 
 48 H       -9.8310     1.2430    -1.0420 H     1 <1>   0.0800 
 49 H       -9.5720     0.6270    -2.6530 H     1 <1>   0.0800 
 50 H       -9.2050     2.2980    -2.2810 H     1 <1>   0.0800 
@<TRIPOS>BOND
  1   1   2  1   
  2   1   3  1   
  3   2   4  2   
  4   2   5  1   
  5   3   6  2   
  6   3  27  1   
  7   4   6  1   
  8   5   7  ar  
  9   5   8  ar  
 10   6   9  1   
 11   7  10  ar  
 12   7  28  1   
 13   8  11  ar  
 14   8  29  1   
 15   9  12  2   
 16   9  13  am  
 17  10  14  ar  
 18  10  30  1   
 19  11  14  ar  
 20  11  31  1   
 21  13  15  1   
 22  13  16  1   
 23  14  32  1   
 24  15  17  1   
 25  15  33  1   
 26  15  34  1   
 27  16  18  1   
 28  16  35  1   
 29  16  36  1   
 30  17  19  1   
 31  17  37  1   
 32  17  38  1   
 33  18  19  1   
 34  18  39  1   
 35  18  40  1   
 36  19  20  1   
 37  19  21  1   
 38  20  22  1   
 39  21  23  1   
 40  21  41  1   
 41  21  42  1   
 42  22  24  1   
 43  22  43  1   
 44  22  44  1   
 45  23  24  1   
 46  23  25  1   
 47  23  26  1   
 48  24  45  1   
 49  24  46  1   
 50  25  47  1   
 51  26  48  1   
 52  26  49  1   
 53  26  50  1   
@<TRIPOS>SUBSTRUCTURE
  1 ****  15 GROUP 4 **** **** 0

# MOE 2024.06 (io_trps.svl 2023.06)
