@<TRIPOS>MOLECULE
NONAME
52 55 1 0 0 
SMALL
USER_CHARGES


@<TRIPOS>ATOM
  1 O        1.7290     0.8020    -2.2340 O.2   1 <1>  -0.5700 
  2 C        1.3200     0.1990    -1.2670 C.2   1 <1>   0.5690 
  3 N        1.3050     0.7960    -0.0500 N.am  1 <1>  -0.7300 
  4 C        0.8240    -1.2660    -1.4110 C.3   1 <1>   0.3410 
  5 C        1.6110     2.2050     0.2310 C.3   1 <1>   0.4950 
  6 O        0.3590    -1.7020    -0.1260 O.3   1 <1>  -0.3630 
  7 C       -0.3360    -1.3370    -2.4200 C.3   1 <1>  -0.2400 
  8 C        1.9830    -2.1710    -1.8620 C.3   1 <1>  -0.2400 
  9 C        2.9420     2.2850     0.9780 C.2   1 <1>   0.0060 
 10 C        0.4470     2.8410     1.0230 C.3   1 <1>  -0.1950 
 11 C       -0.1570    -2.9370     0.0690 C.ar  1 <1>   0.0830 
 12 N        3.1050     2.5250     2.2350 N.2   1 <1>  -0.5650 
 13 N        4.1240     2.1020     0.3690 N.pl3 1 <1>   0.3140 
 14 C       -0.3640     2.1140     2.0560 C.3   1 <1>  -0.2000 
 15 C       -0.9970     2.5310     0.7570 C.3   1 <1>  -0.2000 
 16 C        0.6770    -3.9860     0.4350 C.ar  1 <1>  -0.1500 
 17 C       -1.5270    -3.1390    -0.0490 C.ar  1 <1>  -0.1500 
 18 C        4.4360     2.4780     2.3510 C.2   1 <1>   0.3660 
 19 N        5.0900     2.2300     1.2660 N.2   1 <1>  -0.7070 
 20 C        4.4300     1.7990    -1.0380 C.3   1 <1>   0.0160 
 21 C        0.1260    -5.2370     0.6420 C.ar  1 <1>  -0.1430 
 22 C       -2.0680    -4.3980     0.1630 C.ar  1 <1>  -0.1500 
 23 C       -1.2250    -5.4400     0.5040 C.ar  1 <1>  -0.1430 
 24 C        0.8350    -6.5100     1.0310 C.3   1 <1>  -0.0170 
 25 C       -1.5940    -6.8760     0.7790 C.3   1 <1>  -0.0170 
 26 C       -0.2330    -7.5950     0.8110 C.3   1 <1>  -0.1600 
 27 H        0.9690     0.2690     0.7590 H     1 <1>   0.3700 
 28 H        1.7050     2.7430    -0.6960 H     1 <1>   0.0800 
 29 H       -1.1640    -0.7450    -2.0740 H     1 <1>   0.0800 
 30 H       -0.6540    -2.3510    -2.5750 H     1 <1>   0.0800 
 31 H       -0.0160    -0.9430    -3.3680 H     1 <1>   0.0800 
 32 H        2.7640    -2.1680    -1.1240 H     1 <1>   0.0800 
 33 H        2.3910    -1.8030    -2.7870 H     1 <1>   0.0800 
 34 H        1.6450    -3.1780    -2.0300 H     1 <1>   0.0800 
 35 H        0.6790     3.8650     1.2550 H     1 <1>   0.1000 
 36 H       -0.6200     2.6420     2.9580 H     1 <1>   0.1000 
 37 H       -0.1910     1.0680     2.2370 H     1 <1>   0.1000 
 38 H       -1.2580     1.7650     0.0470 H     1 <1>   0.1000 
 39 H       -1.7080     3.3390     0.7660 H     1 <1>   0.1000 
 40 H        1.7310    -3.8230     0.5570 H     1 <1>   0.1500 
 41 H       -2.1660    -2.3140    -0.3020 H     1 <1>   0.1500 
 42 H        4.9120     2.6410     3.3040 H     1 <1>   0.1500 
 43 H        3.8210     2.4040    -1.6820 H     1 <1>   0.0800 
 44 H        4.2360     0.7600    -1.2240 H     1 <1>   0.0800 
 45 H        5.4660     2.0080    -1.2260 H     1 <1>   0.0800 
 46 H       -3.1270    -4.5620     0.0660 H     1 <1>   0.1500 
 47 H        1.1180    -6.4590     2.0670 H     1 <1>   0.0800 
 48 H        1.7050    -6.6820     0.4210 H     1 <1>   0.0800 
 49 H       -2.2340    -7.2750     0.0120 H     1 <1>   0.0800 
 50 H       -2.0820    -6.9430     1.7360 H     1 <1>   0.0800 
 51 H       -0.1990    -8.3510     1.5760 H     1 <1>   0.0800 
 52 H       -0.0650    -8.0570    -0.1460 H     1 <1>   0.0800 
@<TRIPOS>BOND
  1   1   2  2   
  2   2   3  am  
  3   2   4  1   
  4   3   5  1   
  5   3  27  1   
  6   4   6  1   
  7   4   7  1   
  8   4   8  1   
  9   5   9  1   
 10   5  10  1   
 11   5  28  1   
 12   6  11  1   
 13   7  29  1   
 14   7  30  1   
 15   7  31  1   
 16   8  32  1   
 17   8  33  1   
 18   8  34  1   
 19   9  12  2   
 20   9  13  1   
 21  10  14  1   
 22  10  15  1   
 23  10  35  1   
 24  11  16  ar  
 25  11  17  ar  
 26  12  18  1   
 27  13  19  1   
 28  13  20  1   
 29  14  15  1   
 30  14  36  1   
 31  14  37  1   
 32  15  38  1   
 33  15  39  1   
 34  16  21  ar  
 35  16  40  1   
 36  17  22  ar  
 37  17  41  1   
 38  18  19  2   
 39  18  42  1   
 40  20  43  1   
 41  20  44  1   
 42  20  45  1   
 43  21  23  ar  
 44  21  24  1   
 45  22  23  ar  
 46  22  46  1   
 47  23  25  1   
 48  24  26  1   
 49  24  47  1   
 50  24  48  1   
 51  25  26  1   
 52  25  49  1   
 53  25  50  1   
 54  26  51  1   
 55  26  52  1   
@<TRIPOS>SUBSTRUCTURE
  1 ****   6 GROUP 4 **** **** 0

# MOE 2024.06 (io_trps.svl 2023.06)
