@<TRIPOS>MOLECULE
NONAME
45 46 1 0 0 
SMALL
USER_CHARGES


@<TRIPOS>ATOM
  1 S       -0.2750     1.5320     0.1180 S.o2  1 <1>   1.2040 
  2 O       -0.6030     0.3490    -0.6450 O.2   1 <1>  -0.6500 
  3 O       -0.8970     1.7600     1.4030 O.2   1 <1>  -0.6500 
  4 C        1.5220     1.6750     0.2780 C.ar  1 <1>  -0.0090 
  5 C       -0.6600     2.9380    -0.9060 C.3   1 <1>  -0.1350 
  6 C        2.3740     1.0800    -0.6430 C.ar  1 <1>  -0.1500 
  7 C        2.0940     2.4140     1.3050 C.ar  1 <1>  -0.1500 
  8 C        3.7470     1.2180    -0.5450 C.ar  1 <1>  -0.1500 
  9 C        3.4670     2.5560     1.4100 C.ar  1 <1>  -0.1500 
 10 C        4.3090     1.9580     0.4860 C.ar  1 <1>  -0.1430 
 11 C        5.8210     2.1230     0.6110 C.3   1 <1>   0.4330 
 12 N        6.3190     2.7360    -0.6220 N.pl3 1 <1>  -0.8690 
 13 C        6.5180     0.7810     0.8030 C.3   1 <1>  -0.2400 
 14 C        7.0640     3.8690    -0.5990 C.ar  1 <1>   0.4100 
 15 N        6.5960     4.8350    -1.3660 N.ar  1 <1>  -0.6200 
 16 C        8.2200     3.9930     0.1670 C.ar  1 <1>  -0.1500 
 17 C        7.2930     5.9590    -1.3710 C.ar  1 <1>   0.1600 
 18 C        8.9310     5.1680     0.1490 C.ar  1 <1>  -0.1500 
 19 C        8.4650     6.2060    -0.6550 C.ar  1 <1>   0.0860 
 20 C        9.1360     7.4820    -0.7630 C.2   1 <1>   0.5440 
 21 O        8.5310     8.4680    -1.1360 O.2   1 <1>  -0.5700 
 22 N       10.4660     7.6080    -0.4660 N.am  1 <1>  -0.7300 
 23 C       11.2320     8.8680    -0.5230 C.3   1 <1>   0.1400 
 24 C       12.2550     8.8670     0.6070 C.3   1 <1>  -0.2400 
 25 H       -1.7170     2.9800    -1.0870 H     1 <1>   0.0800 
 26 H       -0.1550     2.8640    -1.8490 H     1 <1>   0.0800 
 27 H       -0.3600     3.8470    -0.4220 H     1 <1>   0.0800 
 28 H        1.9590     0.4960    -1.4480 H     1 <1>   0.1500 
 29 H        1.4580     2.8830     2.0380 H     1 <1>   0.1500 
 30 H        4.3790     0.7430    -1.2770 H     1 <1>   0.1500 
 31 H        3.8750     3.1390     2.2190 H     1 <1>   0.1500 
 32 H        6.0440     2.7640     1.4480 H     1 <1>   0.0800 
 33 H        5.5510     2.8420    -1.2870 H     1 <1>   0.4000 
 34 H        6.3570     0.1440    -0.0470 H     1 <1>   0.0800 
 35 H        6.1270     0.2930     1.6770 H     1 <1>   0.0800 
 36 H        7.5730     0.9280     0.9360 H     1 <1>   0.0800 
 37 H        8.5460     3.1610     0.7610 H     1 <1>   0.1500 
 38 H        6.9150     6.7550    -1.9930 H     1 <1>   0.1500 
 39 H        9.8190     5.2820     0.7440 H     1 <1>   0.1500 
 40 H       11.0220     6.7710    -0.2950 H     1 <1>   0.3700 
 41 H       10.5660     9.7090    -0.4160 H     1 <1>   0.0800 
 42 H       11.7270     8.9420    -1.4770 H     1 <1>   0.0800 
 43 H       11.7580     8.7950     1.5570 H     1 <1>   0.0800 
 44 H       12.8140     9.7850     0.5850 H     1 <1>   0.0800 
 45 H       12.9430     8.0480     0.4940 H     1 <1>   0.0800 
@<TRIPOS>BOND
  1   1   2  2   
  2   1   3  2   
  3   1   4  1   
  4   1   5  1   
  5   4   6  ar  
  6   4   7  ar  
  7   5  25  1   
  8   5  26  1   
  9   5  27  1   
 10   6   8  ar  
 11   6  28  1   
 12   7   9  ar  
 13   7  29  1   
 14   8  10  ar  
 15   8  30  1   
 16   9  10  ar  
 17   9  31  1   
 18  10  11  1   
 19  11  12  1   
 20  11  13  1   
 21  11  32  1   
 22  12  14  1   
 23  12  33  1   
 24  13  34  1   
 25  13  35  1   
 26  13  36  1   
 27  14  15  ar  
 28  14  16  ar  
 29  15  17  ar  
 30  16  18  ar  
 31  16  37  1   
 32  17  19  ar  
 33  17  38  1   
 34  18  19  ar  
 35  18  39  1   
 36  19  20  1   
 37  20  21  2   
 38  20  22  am  
 39  22  23  1   
 40  22  40  1   
 41  23  24  1   
 42  23  41  1   
 43  23  42  1   
 44  24  43  1   
 45  24  44  1   
 46  24  45  1   
@<TRIPOS>SUBSTRUCTURE
  1 ****  12 GROUP 4 **** **** 0

# MOE 2024.06 (io_trps.svl 2023.06)
