@<TRIPOS>MOLECULE
NONAME
23 23 1 0 0 
SMALL
USER_CHARGES


@<TRIPOS>ATOM
  1 N        6.8740     7.5000     0.2750 N.4   1 <1>  -0.9590 
  2 C        6.1350     6.7760    -0.7970 C.3   1 <1>   0.4810 
  3 C        6.8480     8.9780     0.0610 C.3   1 <1>   0.2630 
  4 C        8.2740     6.9870     0.4030 C.3   1 <1>   0.2630 
  5 C        5.9750     5.3290    -0.3740 C.2   1 <1>  -0.1380 
  6 C        6.5430     4.2390    -0.9070 C.2   1 <1>  -0.2880 
  7 C        5.1450     4.9360     0.7240 C.2   1 <1>  -0.1500 
  8 C        6.1160     2.9760    -0.1700 C.3   1 <1>   0.1160 
  9 C        5.2050     3.6090     0.8710 C.2   1 <1>  -0.2880 
 10 H        6.3820     7.2720     1.1520 H     1 <1>   0.4500 
 11 H        6.6790     6.8280    -1.7250 H     1 <1>   0.0800 
 12 H        5.1600     7.2120    -0.9430 H     1 <1>   0.0800 
 13 H        7.3490     9.2320    -0.8600 H     1 <1>   0.0800 
 14 H        7.3470     9.4810     0.8740 H     1 <1>   0.0800 
 15 H        5.8310     9.3320     0.0120 H     1 <1>   0.0800 
 16 H        8.8230     7.1620    -0.5080 H     1 <1>   0.0800 
 17 H        8.2670     5.9270     0.6020 H     1 <1>   0.0800 
 18 H        8.7830     7.4830     1.2140 H     1 <1>   0.0800 
 19 H        7.2180     4.1440    -1.7410 H     1 <1>   0.1500 
 20 H        4.5680     5.6280     1.3140 H     1 <1>   0.1500 
 21 H        6.9520     2.4760     0.2860 H     1 <1>   0.0800 
 22 H        5.5730     2.3040    -0.8130 H     1 <1>   0.0800 
 23 H        4.7090     2.9770     1.5890 H     1 <1>   0.1500 
@<TRIPOS>BOND
  1   1   2  1   
  2   1   3  1   
  3   1   4  1   
  4   1  10  1   
  5   2   5  1   
  6   2  11  1   
  7   2  12  1   
  8   3  13  1   
  9   3  14  1   
 10   3  15  1   
 11   4  16  1   
 12   4  17  1   
 13   4  18  1   
 14   5   6  2   
 15   5   7  1   
 16   6   8  1   
 17   6  19  1   
 18   7   9  2   
 19   7  20  1   
 20   8   9  1   
 21   8  21  1   
 22   8  22  1   
 23   9  23  1   
@<TRIPOS>SUBSTRUCTURE
  1 ****   5 GROUP 4 **** **** 0

# MOE 2024.06 (io_trps.svl 2023.06)
