@<TRIPOS>MOLECULE
NONAME
50 54 1 0 0 
SMALL
USER_CHARGES


@<TRIPOS>ATOM
  1 O       -1.7330    -0.2110    -1.2650 O.2   1 <1>  -0.5700 
  2 C       -1.4410     0.1330    -0.1360 C.2   1 <1>   0.7150 
  3 N       -1.5350    -0.7720     0.8730 N.am  1 <1>  -0.7300 
  4 C       -1.0330     1.4680     0.1740 C.2   1 <1>  -0.2370 
  5 C       -2.1560    -2.1060     0.7270 C.3   1 <1>   0.2200 
  6 N       -1.6420     2.5740    -0.3570 N.pl3 1 <1>   0.2940 
  7 C       -0.0320     1.8960     1.0090 C.2   1 <1>  -0.1500 
  8 C       -3.6670    -1.9490     0.6870 C.3   1 <1>  -0.0800 
  9 C       -1.9610    -2.9250     1.9990 C.3   1 <1>   0.1200 
 10 C       -1.0130     3.6690     0.1380 C.2   1 <1>  -0.3020 
 11 C       -2.8260     2.5950    -1.2500 C.3   1 <1>  -0.0910 
 12 C       -0.0180     3.2870     0.9810 C.2   1 <1>  -0.1500 
 13 C       -4.0360    -1.9310     2.1720 C.3   1 <1>   0.1200 
 14 C       -4.3370    -3.1100    -0.0710 C.3   1 <1>  -0.0160 
 15 O       -2.9930    -2.5550     2.8640 O.3   1 <1>  -0.5600 
 16 C       -3.9080     3.6200    -1.0650 C.3   1 <1>  -0.2000 
 17 C       -4.1590     2.1950    -0.6890 C.3   1 <1>  -0.2000 
 18 C       -5.8070    -2.8070    -0.3370 C.ar  1 <1>  -0.1440 
 19 C       -6.2150    -1.9000    -1.3450 C.ar  1 <1>   0.0000 
 20 C       -6.7820    -3.4110     0.4030 C.ar  1 <1>  -0.1500 
 21 C       -7.6050    -1.6770    -1.5030 C.ar  1 <1>   0.3100 
 22 C       -5.3320    -1.2050    -2.2050 C.ar  1 <1>  -0.1500 
 23 C       -8.1300    -3.1200     0.1630 C.ar  1 <1>   0.1600 
 24 N       -8.5460    -2.2900    -0.7410 N.ar  1 <1>  -0.6200 
 25 C       -8.0410    -0.7820    -2.4930 C.ar  1 <1>  -0.1500 
 26 C       -5.7910    -0.3420    -3.1620 C.ar  1 <1>  -0.1500 
 27 C       -7.1620    -0.1240    -3.3090 C.ar  1 <1>  -0.1500 
 28 H       -1.4680    -0.4270     1.8310 H     1 <1>   0.3700 
 29 H       -1.7540    -2.5990    -0.1420 H     1 <1>   0.0800 
 30 H        0.6420     1.2840     1.5850 H     1 <1>   0.1500 
 31 H       -3.9500    -1.0220     0.2220 H     1 <1>   0.0800 
 32 H       -1.0110    -2.7450     2.4690 H     1 <1>   0.0800 
 33 H       -2.0720    -3.9740     1.7920 H     1 <1>   0.0800 
 34 H       -1.3080     4.6660    -0.1340 H     1 <1>   0.1500 
 35 H       -2.5790     2.2680    -2.2450 H     1 <1>   0.1000 
 36 H        0.6600     3.9190     1.5310 H     1 <1>   0.1500 
 37 H       -4.9560    -2.4480     2.3820 H     1 <1>   0.0800 
 38 H       -4.1040    -0.9190     2.5330 H     1 <1>   0.0800 
 39 H       -4.2450    -4.0200     0.4970 H     1 <1>   0.0800 
 40 H       -3.8420    -3.2770    -1.0110 H     1 <1>   0.0800 
 41 H       -3.8230     4.3480    -0.2770 H     1 <1>   0.1000 
 42 H       -4.4100     4.0090    -1.9340 H     1 <1>   0.1000 
 43 H       -4.8340     1.6220    -1.3010 H     1 <1>   0.1000 
 44 H       -4.2320     1.9410     0.3540 H     1 <1>   0.1000 
 45 H       -6.5460    -4.1140     1.1800 H     1 <1>   0.1500 
 46 H       -4.2700    -1.3500    -2.1130 H     1 <1>   0.1500 
 47 H       -8.8670    -3.6160     0.7700 H     1 <1>   0.1500 
 48 H       -9.1010    -0.6310    -2.5880 H     1 <1>   0.1500 
 49 H       -5.1030     0.1780    -3.8080 H     1 <1>   0.1500 
 50 H       -7.5110     0.5580    -4.0650 H     1 <1>   0.1500 
@<TRIPOS>BOND
  1   1   2  2   
  2   2   3  am  
  3   2   4  1   
  4   3   5  1   
  5   3  28  1   
  6   4   6  1   
  7   4   7  2   
  8   5   8  1   
  9   5   9  1   
 10   5  29  1   
 11   6  10  1   
 12   6  11  1   
 13   7  12  1   
 14   7  30  1   
 15   8  13  1   
 16   8  14  1   
 17   8  31  1   
 18   9  15  1   
 19   9  32  1   
 20   9  33  1   
 21  10  12  2   
 22  10  34  1   
 23  11  16  1   
 24  11  17  1   
 25  11  35  1   
 26  12  36  1   
 27  13  15  1   
 28  13  37  1   
 29  13  38  1   
 30  14  18  1   
 31  14  39  1   
 32  14  40  1   
 33  16  17  1   
 34  16  41  1   
 35  16  42  1   
 36  17  43  1   
 37  17  44  1   
 38  18  19  ar  
 39  18  20  ar  
 40  19  21  ar  
 41  19  22  ar  
 42  20  23  ar  
 43  20  45  1   
 44  21  24  ar  
 45  21  25  ar  
 46  22  26  ar  
 47  22  46  1   
 48  23  24  ar  
 49  23  47  1   
 50  25  27  ar  
 51  25  48  1   
 52  26  27  ar  
 53  26  49  1   
 54  27  50  1   
@<TRIPOS>SUBSTRUCTURE
  1 ****   8 GROUP 4 **** **** 0

# MOE 2024.06 (io_trps.svl 2023.06)
