@<TRIPOS>MOLECULE
NONAME
14 14 1 0 0 
SMALL
USER_CHARGES


@<TRIPOS>ATOM
  1 O       -5.8500    -1.5460     0.6370 O.3   1 <1>  -0.5600 
  2 C       -7.0690    -1.1390     0.0760 C.3   1 <1>   0.2580 
  3 C       -4.7110    -1.1190    -0.0520 C.3   1 <1>   0.1200 
  4 C       -7.0430     0.3540    -0.2270 C.2   1 <1>  -0.2880 
  5 C       -4.5780     0.4100     0.0420 C.3   1 <1>  -0.0220 
  6 C       -5.9160     1.0700    -0.2340 C.2   1 <1>  -0.2880 
  7 H       -7.8390    -1.3620     0.7940 H     1 <1>   0.0800 
  8 H       -7.2430    -1.7100    -0.8190 H     1 <1>   0.0800 
  9 H       -4.8000    -1.4320    -1.0780 H     1 <1>   0.0800 
 10 H       -3.8560    -1.6000     0.3890 H     1 <1>   0.0800 
 11 H       -8.0150     0.7680    -0.4290 H     1 <1>   0.1500 
 12 H       -3.8480     0.7420    -0.6740 H     1 <1>   0.0800 
 13 H       -4.2350     0.6830     1.0240 H     1 <1>   0.0800 
 14 H       -5.8660     2.1290    -0.4230 H     1 <1>   0.1500 
@<TRIPOS>BOND
  1   1   2  1   
  2   1   3  1   
  3   2   4  1   
  4   2   7  1   
  5   2   8  1   
  6   3   5  1   
  7   3   9  1   
  8   3  10  1   
  9   4   6  2   
 10   4  11  1   
 11   5   6  1   
 12   5  12  1   
 13   5  13  1   
 14   6  14  1   
@<TRIPOS>SUBSTRUCTURE
  1 ****   1 GROUP 4 **** **** 0

# MOE 2024.06 (io_trps.svl 2023.06)
