@<TRIPOS>MOLECULE
NONAME
51 55 1 0 0 
SMALL
USER_CHARGES


@<TRIPOS>ATOM
  1 O       -4.5340    -0.9650     0.9640 O.2   1 <1>  -0.5700 
  2 C       -3.9770    -0.1910     0.1960 C.2   1 <1>   0.7670 
  3 N       -4.0840     1.1430     0.4980 N.2   1 <1>  -0.6610 
  4 C       -3.2620    -0.6390    -0.9620 C.2   1 <1>   0.0290 
  5 C       -3.5490     1.9920    -0.2940 C.2   1 <1>   0.5000 
  6 C       -3.1390    -2.0380    -1.2660 C.2   1 <1>   0.6160 
  7 C       -2.7230     0.3240    -1.7660 C.2   1 <1>  -0.0500 
  8 N       -2.8720     1.6330    -1.4220 N.pl3 1 <1>  -0.5500 
  9 C       -3.6390     3.4830    -0.0140 C.3   1 <1>  -0.1000 
 10 O       -2.8980    -2.3900    -2.4060 O.2   1 <1>  -0.5700 
 11 N       -3.2750    -3.0110    -0.3210 N.am  1 <1>  -0.7300 
 12 C       -4.9230     4.1100     0.4440 C.3   1 <1>  -0.2000 
 13 C       -4.4030     4.3920    -0.9320 C.3   1 <1>  -0.2000 
 14 C       -3.4040    -4.4650    -0.5690 C.3   1 <1>   0.2200 
 15 C       -4.8320    -4.9240    -0.3130 C.3   1 <1>  -0.0800 
 16 C       -2.6640    -5.2250     0.5240 C.3   1 <1>   0.1200 
 17 C       -4.8590    -5.0750     1.2100 C.3   1 <1>   0.1200 
 18 C       -5.9460    -4.0350    -0.9050 C.3   1 <1>  -0.0170 
 19 O       -3.5360    -5.2830     1.6140 O.3   1 <1>  -0.5600 
 20 C       -7.3280    -4.5850    -0.5650 C.ar  1 <1>  -0.1430 
 21 C       -8.1070    -4.1220     0.5250 C.ar  1 <1>   0.0000 
 22 C       -7.8540    -5.5800    -1.3360 C.ar  1 <1>  -0.1500 
 23 C       -9.3620    -4.7440     0.7430 C.ar  1 <1>   0.3100 
 24 C       -7.7270    -3.0830     1.4090 C.ar  1 <1>  -0.1500 
 25 C       -9.1100    -6.1190    -1.0370 C.ar  1 <1>   0.1600 
 26 N       -9.8470    -5.7370    -0.0440 N.ar  1 <1>  -0.6200 
 27 C      -10.1550    -4.3220     1.8230 C.ar  1 <1>  -0.1500 
 28 C       -8.5250    -2.6950     2.4500 C.ar  1 <1>  -0.1500 
 29 C       -9.7540    -3.3210     2.6650 C.ar  1 <1>  -0.1500 
 30 H       -2.1810     0.0800    -2.6680 H     1 <1>   0.1500 
 31 H       -2.4930     2.3880    -2.0010 H     1 <1>   0.4000 
 32 H       -2.7360     3.8590     0.4320 H     1 <1>   0.1000 
 33 H       -3.5790    -2.7250     0.6210 H     1 <1>   0.3700 
 34 H       -5.7880     3.4790     0.5580 H     1 <1>   0.1000 
 35 H       -4.8770     4.8830     1.1910 H     1 <1>   0.1000 
 36 H       -4.0120     5.3730    -1.1400 H     1 <1>   0.1000 
 37 H       -4.9420     3.9760    -1.7660 H     1 <1>   0.1000 
 38 H       -3.0490    -4.7210    -1.5540 H     1 <1>   0.0800 
 39 H       -4.9410    -5.9100    -0.7280 H     1 <1>   0.0800 
 40 H       -1.7480    -4.7430     0.8180 H     1 <1>   0.0800 
 41 H       -2.4640    -6.2360     0.2130 H     1 <1>   0.0800 
 42 H       -5.4640    -5.9080     1.5260 H     1 <1>   0.0800 
 43 H       -5.1990    -4.1750     1.6900 H     1 <1>   0.0800 
 44 H       -5.8310    -4.0150    -1.9750 H     1 <1>   0.0800 
 45 H       -5.8570    -3.0180    -0.5760 H     1 <1>   0.0800 
 46 H       -7.3220    -5.9750    -2.1820 H     1 <1>   0.1500 
 47 H       -6.7910    -2.5740     1.2740 H     1 <1>   0.1500 
 48 H       -9.4850    -6.9030    -1.6730 H     1 <1>   0.1500 
 49 H      -11.0970    -4.8180     1.9650 H     1 <1>   0.1500 
 50 H       -8.2160    -1.9040     3.1130 H     1 <1>   0.1500 
 51 H      -10.3720    -3.0080     3.4880 H     1 <1>   0.1500 
@<TRIPOS>BOND
  1   1   2  2   
  2   2   3  1   
  3   2   4  1   
  4   3   5  2   
  5   4   6  1   
  6   4   7  2   
  7   5   8  1   
  8   5   9  1   
  9   6  10  2   
 10   6  11  am  
 11   7   8  1   
 12   7  30  1   
 13   8  31  1   
 14   9  12  1   
 15   9  13  1   
 16   9  32  1   
 17  11  14  1   
 18  11  33  1   
 19  12  13  1   
 20  12  34  1   
 21  12  35  1   
 22  13  36  1   
 23  13  37  1   
 24  14  15  1   
 25  14  16  1   
 26  14  38  1   
 27  15  17  1   
 28  15  18  1   
 29  15  39  1   
 30  16  19  1   
 31  16  40  1   
 32  16  41  1   
 33  17  19  1   
 34  17  42  1   
 35  17  43  1   
 36  18  20  1   
 37  18  44  1   
 38  18  45  1   
 39  20  21  ar  
 40  20  22  ar  
 41  21  23  ar  
 42  21  24  ar  
 43  22  25  ar  
 44  22  46  1   
 45  23  26  ar  
 46  23  27  ar  
 47  24  28  ar  
 48  24  47  1   
 49  25  26  ar  
 50  25  48  1   
 51  27  29  ar  
 52  27  49  1   
 53  28  29  ar  
 54  28  50  1   
 55  29  51  1   
@<TRIPOS>SUBSTRUCTURE
  1 ****   1 GROUP 4 **** **** 0

# MOE 2024.06 (io_trps.svl 2023.06)
