@<TRIPOS>MOLECULE
NONAME
52 54 1 0 0 
SMALL
USER_CHARGES


@<TRIPOS>ATOM
  1 CL      -0.5030     1.4050     2.9690 Cl    1 <1>  -0.1770 
  2 C       -1.8300     1.7220     1.8720 C.ar  1 <1>   0.1770 
  3 C       -2.8710     0.8140     1.7280 C.ar  1 <1>   0.0820 
  4 C       -1.8260     2.8990     1.1550 C.ar  1 <1>  -0.1500 
  5 O       -2.9130    -0.3420     2.4270 O.3   1 <1>  -0.3630 
  6 C       -3.9120     1.1060     0.8630 C.ar  1 <1>  -0.1500 
  7 C       -2.8700     3.1700     0.2810 C.ar  1 <1>   0.0830 
  8 C       -2.1410    -1.4060     1.9190 C.3   1 <1>   0.0400 
  9 C       -3.9320     2.2790     0.1140 C.ar  1 <1>  -0.0090 
 10 O       -2.8430     4.3450    -0.3800 O.3   1 <1>  -0.3630 
 11 S       -5.3250     2.6050    -1.0050 S.o2  1 <1>   1.4470 
 12 C       -1.9920     4.4200    -1.5020 C.3   1 <1>   0.0400 
 13 O       -5.8930     1.3240    -1.3700 O.2   1 <1>  -0.6500 
 14 O       -4.9860     3.5110    -2.0830 O.2   1 <1>  -0.6500 
 15 N       -6.4700     3.3900    -0.0280 N.am  1 <1>  -0.8490 
 16 C       -7.8330     3.2700    -0.5820 C.3   1 <1>   0.1960 
 17 C       -6.1210     4.7510     0.2270 C.3   1 <1>   0.1960 
 18 C       -9.2000     3.9690    -0.0960 C.3   1 <1>   0.0000 
 19 C       -7.0600     5.1360     1.3260 C.3   1 <1>  -0.1600 
 20 C      -10.6380     4.5710     0.3150 C.3   1 <1>   0.2000 
 21 C       -8.5100     5.0820     0.8360 C.3   1 <1>  -0.1600 
 22 C       -9.9980     2.9270    -1.0250 C.3   1 <1>  -0.1600 
 23 O      -11.1680     3.7750     1.3460 O.3   1 <1>  -0.5600 
 24 C      -11.6370     4.6070    -0.8380 C.3   1 <1>  -0.1600 
 25 C      -11.1230     3.5880    -1.7990 C.3   1 <1>  -0.1600 
 26 C      -12.0030     4.4260     2.2530 C.3   1 <1>   0.0400 
 27 H       -1.0240     3.6030     1.2800 H     1 <1>   0.1500 
 28 H       -4.7230     0.4020     0.7740 H     1 <1>   0.1500 
 29 H       -2.2850    -2.2600     2.5570 H     1 <1>   0.0800 
 30 H       -1.1030    -1.1210     1.9170 H     1 <1>   0.0800 
 31 H       -2.4710    -1.6310     0.9210 H     1 <1>   0.0800 
 32 H       -2.1080     5.3920    -1.9480 H     1 <1>   0.0800 
 33 H       -2.2770     3.6610    -2.2090 H     1 <1>   0.0800 
 34 H       -0.9740     4.2790    -1.1860 H     1 <1>   0.0800 
 35 H       -7.7330     3.5090    -1.6310 H     1 <1>   0.0800 
 36 H       -7.9790     2.2030    -0.4940 H     1 <1>   0.0800 
 37 H       -5.1080     4.8310     0.5790 H     1 <1>   0.0800 
 38 H       -6.2500     5.3630    -0.6520 H     1 <1>   0.0800 
 39 H       -6.9240     4.4670     2.1590 H     1 <1>   0.0800 
 40 H       -6.8260     6.1300     1.6660 H     1 <1>   0.0800 
 41 H      -10.6480     5.5910     0.6690 H     1 <1>   0.0800 
 42 H       -8.6400     6.0240     0.3250 H     1 <1>   0.0800 
 43 H       -9.0190     5.1470     1.7870 H     1 <1>   0.0800 
 44 H       -9.4830     2.3730    -1.7980 H     1 <1>   0.0800 
 45 H      -10.4210     2.1660    -0.3870 H     1 <1>   0.0800 
 46 H      -12.6360     4.3750    -0.5140 H     1 <1>   0.0800 
 47 H      -11.6290     5.5760    -1.3060 H     1 <1>   0.0800 
 48 H      -11.8820     2.8770    -2.0780 H     1 <1>   0.0800 
 49 H      -10.7350     4.0690    -2.6810 H     1 <1>   0.0800 
 50 H      -12.3590     3.6970     2.9590 H     1 <1>   0.0800 
 51 H      -12.8360     4.8600     1.7310 H     1 <1>   0.0800 
 52 H      -11.4400     5.1840     2.7690 H     1 <1>   0.0800 
@<TRIPOS>BOND
  1   1   2  1   
  2   2   3  ar  
  3   2   4  ar  
  4   3   5  1   
  5   3   6  ar  
  6   4   7  ar  
  7   4  27  1   
  8   5   8  1   
  9   6   9  ar  
 10   6  28  1   
 11   7   9  ar  
 12   7  10  1   
 13   8  29  1   
 14   8  30  1   
 15   8  31  1   
 16   9  11  1   
 17  10  12  1   
 18  11  13  2   
 19  11  14  2   
 20  11  15  am  
 21  12  32  1   
 22  12  33  1   
 23  12  34  1   
 24  15  16  1   
 25  15  17  1   
 26  16  18  1   
 27  16  35  1   
 28  16  36  1   
 29  17  19  1   
 30  17  37  1   
 31  17  38  1   
 32  18  20  1   
 33  18  21  1   
 34  18  22  1   
 35  19  21  1   
 36  19  39  1   
 37  19  40  1   
 38  20  23  1   
 39  20  24  1   
 40  20  41  1   
 41  21  42  1   
 42  21  43  1   
 43  22  25  1   
 44  22  44  1   
 45  22  45  1   
 46  23  26  1   
 47  24  25  1   
 48  24  46  1   
 49  24  47  1   
 50  25  48  1   
 51  25  49  1   
 52  26  50  1   
 53  26  51  1   
 54  26  52  1   
@<TRIPOS>SUBSTRUCTURE
  1 ****  15 GROUP 4 **** **** 0

# MOE 2024.06 (io_trps.svl 2023.06)
