@<TRIPOS>MOLECULE
NONAME
56 59 1 0 0 
SMALL
USER_CHARGES


@<TRIPOS>ATOM
  1 O        0.9170    -0.0600     0.8270 O.2   1 <1>  -0.5700 
  2 C        1.8070    -0.8070     1.1550 C.2   1 <1>   0.5690 
  3 N        2.9400    -0.3290     1.7680 N.am  1 <1>  -0.6600 
  4 C        1.6870    -2.2840     0.8250 C.3   1 <1>  -0.0990 
  5 C        4.1680    -1.1350     2.0390 C.3   1 <1>   0.1400 
  6 C        3.0430     1.1080     2.1340 C.3   1 <1>   0.1400 
  7 C        0.4160    -2.6560     0.0460 C.3   1 <1>   0.0200 
  8 C        5.2250    -0.9670     0.9260 C.3   1 <1>   0.3430 
  9 C        3.5430     1.9270     0.9390 C.3   1 <1>  -0.1600 
 10 C        0.4060    -4.1290    -0.3360 C.2   1 <1>   0.0060 
 11 N        5.5380     0.4680     0.5860 N.4   1 <1>  -0.9590 
 12 C        4.3840     1.1550    -0.0780 C.3   1 <1>   0.3430 
 13 N        1.4270    -4.9150    -0.2730 N.2   1 <1>  -0.5650 
 14 N       -0.7200    -4.7340    -0.7930 N.pl3 1 <1>   0.0330 
 15 C        6.7730     0.5700    -0.2370 C.3   1 <1>   0.5240 
 16 C        0.9570    -6.1180    -0.7100 C.ar  1 <1>   0.2270 
 17 C       -0.3820    -6.0230    -1.0400 C.ar  1 <1>  -0.1520 
 18 C        7.1690     2.0240    -0.3130 C.2   1 <1>  -0.1810 
 19 C        1.6220    -7.3350    -0.8500 C.ar  1 <1>  -0.1500 
 20 C       -1.0930    -7.1270    -1.5150 C.ar  1 <1>  -0.1500 
 21 C        7.6430     2.8420     0.6420 C.2   1 <1>  -0.0400 
 22 C        7.1070     2.8440    -1.4410 C.2   1 <1>   0.1080 
 23 C        0.9290    -8.4310    -1.3190 C.ar  1 <1>  -0.1500 
 24 C       -0.4280    -8.3250    -1.6510 C.ar  1 <1>  -0.1500 
 25 O        7.8080     4.0200     0.1090 O.3   1 <1>  -0.0190 
 26 C        7.9940     2.6560     2.1060 C.3   1 <1>  -0.0600 
 27 N        7.4850     4.0340    -1.1500 N.2   1 <1>  -0.4100 
 28 C        6.6780     2.4430    -2.8390 C.3   1 <1>  -0.0590 
 29 H        1.7030    -2.8470     1.7400 H     1 <1>   0.0800 
 30 H        2.5370    -2.5670     0.2340 H     1 <1>   0.0800 
 31 H        3.9200    -2.1780     2.1320 H     1 <1>   0.0800 
 32 H        4.5900    -0.8380     2.9840 H     1 <1>   0.0800 
 33 H        3.7130     1.2220     2.9700 H     1 <1>   0.0800 
 34 H        2.0780     1.4760     2.4470 H     1 <1>   0.0800 
 35 H        0.3560    -2.0670    -0.8520 H     1 <1>   0.0800 
 36 H       -0.4470    -2.4360     0.6500 H     1 <1>   0.0800 
 37 H        4.8730    -1.4750     0.0430 H     1 <1>   0.0800 
 38 H        6.1260    -1.4660     1.2460 H     1 <1>   0.0800 
 39 H        4.0820     2.7900     1.2890 H     1 <1>   0.0800 
 40 H        2.6770     2.3020     0.4200 H     1 <1>   0.0800 
 41 H        5.7230     0.9930     1.4470 H     1 <1>   0.4500 
 42 H        4.7370     1.8550    -0.8180 H     1 <1>   0.0800 
 43 H        3.7620     0.4290    -0.5780 H     1 <1>   0.0800 
 44 H       -1.6410    -4.3100    -0.9290 H     1 <1>   0.2700 
 45 H        6.6040     0.1770    -1.2260 H     1 <1>   0.0800 
 46 H        7.5730     0.0130     0.2230 H     1 <1>   0.0800 
 47 H        2.6610    -7.3880    -0.5880 H     1 <1>   0.1500 
 48 H       -2.1350    -7.0360    -1.7680 H     1 <1>   0.1500 
 49 H        1.4260    -9.3780    -1.4330 H     1 <1>   0.1500 
 50 H       -0.9460    -9.1960    -2.0150 H     1 <1>   0.1500 
 51 H        7.8530     1.6380     2.4150 H     1 <1>   0.0800 
 52 H        7.3820     3.3010     2.7120 H     1 <1>   0.0800 
 53 H        9.0240     2.9240     2.2630 H     1 <1>   0.0800 
 54 H        5.6490     2.1370    -2.8480 H     1 <1>   0.0800 
 55 H        7.2960     1.6440    -3.2030 H     1 <1>   0.0800 
 56 H        6.7870     3.2820    -3.5050 H     1 <1>   0.0800 
@<TRIPOS>BOND
  1   1   2  2   
  2   2   3  am  
  3   2   4  1   
  4   3   5  1   
  5   3   6  1   
  6   4   7  1   
  7   4  29  1   
  8   4  30  1   
  9   5   8  1   
 10   5  31  1   
 11   5  32  1   
 12   6   9  1   
 13   6  33  1   
 14   6  34  1   
 15   7  10  1   
 16   7  35  1   
 17   7  36  1   
 18   8  11  1   
 19   8  37  1   
 20   8  38  1   
 21   9  12  1   
 22   9  39  1   
 23   9  40  1   
 24  10  13  2   
 25  10  14  1   
 26  11  12  1   
 27  11  15  1   
 28  11  41  1   
 29  12  42  1   
 30  12  43  1   
 31  13  16  1   
 32  14  17  1   
 33  14  44  1   
 34  15  18  1   
 35  15  45  1   
 36  15  46  1   
 37  16  17  ar  
 38  16  19  ar  
 39  17  20  ar  
 40  18  21  2   
 41  18  22  1   
 42  19  23  ar  
 43  19  47  1   
 44  20  24  ar  
 45  20  48  1   
 46  21  25  1   
 47  21  26  1   
 48  22  27  2   
 49  22  28  1   
 50  23  24  ar  
 51  23  49  1   
 52  24  50  1   
 53  25  27  1   
 54  26  51  1   
 55  26  52  1   
 56  26  53  1   
 57  28  54  1   
 58  28  55  1   
 59  28  56  1   
@<TRIPOS>SUBSTRUCTURE
  1 ****   2 GROUP 4 **** **** 0

# MOE 2024.06 (io_trps.svl 2023.06)
