@<TRIPOS>MOLECULE
NONAME
54 57 1 0 0 
SMALL
USER_CHARGES


@<TRIPOS>ATOM
  1 O       -1.9200    -0.3320    -2.0700 O.2   1 <1>  -0.5700 
  2 C       -2.0630     0.1830    -0.9780 C.2   1 <1>   0.7160 
  3 N       -2.0670    -0.6230     0.1180 N.am  1 <1>  -0.7300 
  4 C       -2.2770     1.6000    -0.8080 C.2   1 <1>  -0.0860 
  5 C       -2.0360    -2.1040     0.1080 C.3   1 <1>   0.2200 
  6 C       -2.3870     2.5830    -1.8020 C.2   1 <1>   0.1080 
  7 C       -2.4410     2.3150     0.3420 C.2   1 <1>  -0.3020 
  8 C       -3.4360    -2.6890     0.2770 C.3   1 <1>  -0.0800 
  9 C       -1.3770    -2.5830     1.3930 C.3   1 <1>   0.1200 
 10 N       -2.6000     3.7640    -1.3190 N.2   1 <1>  -0.7070 
 11 C       -2.2790     2.3540    -3.2950 C.3   1 <1>  -0.0590 
 12 N       -2.6320     3.5990     0.0110 N.pl3 1 <1>   0.3140 
 13 C       -3.6310    -2.6640     1.7990 C.3   1 <1>   0.1200 
 14 C       -4.5500    -1.9730    -0.5170 C.3   1 <1>  -0.0170 
 15 O       -2.3680    -2.4700     2.3680 O.3   1 <1>  -0.5600 
 16 C       -2.8590     4.7320     0.9290 C.3   1 <1>   0.0960 
 17 C       -5.9540    -2.5830    -0.4430 C.ar  1 <1>  -0.1440 
 18 C       -4.3410     4.8330     1.3170 C.3   1 <1>  -0.1600 
 19 C       -7.0580    -1.8540    -0.9540 C.ar  1 <1>   0.0000 
 20 C       -6.2180    -3.8140     0.0890 C.ar  1 <1>  -0.1500 
 21 C       -4.5880     6.0050     2.2740 C.3   1 <1>  -0.2400 
 22 C       -8.3450    -2.4340    -0.8440 C.ar  1 <1>   0.3100 
 23 C       -6.9590    -0.5850    -1.5740 C.ar  1 <1>  -0.1500 
 24 C       -7.5300    -4.2990     0.1390 C.ar  1 <1>   0.1600 
 25 N       -8.5640    -3.6540    -0.2950 N.ar  1 <1>  -0.6200 
 26 C       -9.4570    -1.7240    -1.3260 C.ar  1 <1>  -0.1500 
 27 C       -8.0630     0.0790    -2.0360 C.ar  1 <1>  -0.1500 
 28 C       -9.3300    -0.4940    -1.9100 C.ar  1 <1>  -0.1500 
 29 H       -2.2320    -0.2100     1.0360 H     1 <1>   0.3700 
 30 H       -1.5320    -2.4690    -0.7720 H     1 <1>   0.0800 
 31 H       -2.4340     1.9760     1.3610 H     1 <1>   0.1500 
 32 H       -3.3890    -3.7150    -0.0410 H     1 <1>   0.0800 
 33 H       -0.5220    -1.9930     1.6710 H     1 <1>   0.0800 
 34 H       -1.1010    -3.6210     1.3200 H     1 <1>   0.0800 
 35 H       -3.0440     1.6720    -3.6160 H     1 <1>   0.0800 
 36 H       -1.3160     1.9410    -3.5320 H     1 <1>   0.0800 
 37 H       -2.3980     3.2840    -3.8200 H     1 <1>   0.0800 
 38 H       -4.0370    -3.5890     2.1700 H     1 <1>   0.0800 
 39 H       -4.2580    -1.8450     2.1070 H     1 <1>   0.0800 
 40 H       -4.2580    -1.9280    -1.5520 H     1 <1>   0.0800 
 41 H       -4.6190    -0.9640    -0.1530 H     1 <1>   0.0800 
 42 H       -2.2500     4.5910     1.8020 H     1 <1>   0.0800 
 43 H       -2.5450     5.6330     0.4320 H     1 <1>   0.0800 
 44 H       -4.9280     4.9750     0.4250 H     1 <1>   0.0800 
 45 H       -4.6530     3.9180     1.7890 H     1 <1>   0.0800 
 46 H       -5.4530    -4.4540     0.4820 H     1 <1>   0.1500 
 47 H       -4.3030     6.9340     1.8130 H     1 <1>   0.0800 
 48 H       -4.0250     5.8790     3.1820 H     1 <1>   0.0800 
 49 H       -5.6330     6.0580     2.5260 H     1 <1>   0.0800 
 50 H       -5.9970    -0.1220    -1.6940 H     1 <1>   0.1500 
 51 H       -7.6890    -5.2730     0.5700 H     1 <1>   0.1500 
 52 H      -10.4210    -2.1880    -1.2210 H     1 <1>   0.1500 
 53 H       -7.9690     1.0450    -2.5020 H     1 <1>   0.1500 
 54 H      -10.1900     0.0390    -2.2750 H     1 <1>   0.1500 
@<TRIPOS>BOND
  1   1   2  2   
  2   2   3  am  
  3   2   4  1   
  4   3   5  1   
  5   3  29  1   
  6   4   6  1   
  7   4   7  2   
  8   5   8  1   
  9   5   9  1   
 10   5  30  1   
 11   6  10  2   
 12   6  11  1   
 13   7  12  1   
 14   7  31  1   
 15   8  13  1   
 16   8  14  1   
 17   8  32  1   
 18   9  15  1   
 19   9  33  1   
 20   9  34  1   
 21  10  12  1   
 22  11  35  1   
 23  11  36  1   
 24  11  37  1   
 25  12  16  1   
 26  13  15  1   
 27  13  38  1   
 28  13  39  1   
 29  14  17  1   
 30  14  40  1   
 31  14  41  1   
 32  16  18  1   
 33  16  42  1   
 34  16  43  1   
 35  17  19  ar  
 36  17  20  ar  
 37  18  21  1   
 38  18  44  1   
 39  18  45  1   
 40  19  22  ar  
 41  19  23  ar  
 42  20  24  ar  
 43  20  46  1   
 44  21  47  1   
 45  21  48  1   
 46  21  49  1   
 47  22  25  ar  
 48  22  26  ar  
 49  23  27  ar  
 50  23  50  1   
 51  24  25  ar  
 52  24  51  1   
 53  26  28  ar  
 54  26  52  1   
 55  27  28  ar  
 56  27  53  1   
 57  28  54  1   
@<TRIPOS>SUBSTRUCTURE
  1 ****  14 GROUP 4 **** **** 0

# MOE 2024.06 (io_trps.svl 2023.06)
