@<TRIPOS>MOLECULE
NONAME
47 49 1 0 0 
SMALL
USER_CHARGES


@<TRIPOS>ATOM
  1 O       -2.1020     2.2040     1.2930 O.2   1 <1>  -0.5700 
  2 C       -1.1550     2.8590     0.8690 C.2   1 <1>   0.6160 
  3 N       -0.0530     2.1940     0.3230 N.am  1 <1>  -0.4690 
  4 C       -1.1500     4.2890     0.9140 C.2   1 <1>   0.0290 
  5 C        1.0470     2.9070    -0.1180 C.2   1 <1>  -0.0290 
  6 C       -0.0630     0.6980     0.2560 C.3   1 <1>   0.0600 
  7 C       -2.2960     4.9720     1.4400 C.2   1 <1>   0.6160 
  8 C       -0.0460     4.9680     0.4700 C.2   1 <1>  -0.1500 
  9 C        1.0570     4.2680    -0.0480 C.2   1 <1>  -0.1500 
 10 C        2.2540     2.1650    -0.6760 C.3   1 <1>  -0.1020 
 11 O       -2.1640     5.6250     2.4610 O.2   1 <1>  -0.5700 
 12 N       -3.5200     4.9830     0.7970 N.am  1 <1>  -0.6600 
 13 C       -3.7620     4.4120    -0.5590 C.3   1 <1>   0.1400 
 14 C       -4.7410     5.5530     1.4310 C.3   1 <1>   0.1400 
 15 C       -4.8270     3.3170    -0.4710 C.3   1 <1>  -0.1600 
 16 C       -5.8020     4.4570     1.5450 C.3   1 <1>  -0.1600 
 17 C       -6.1150     3.8290     0.1800 C.3   1 <1>   0.4180 
 18 O       -6.6270     4.8140    -0.6860 O.3   1 <1>  -0.5600 
 19 C       -7.1100     2.6800     0.3220 C.2   1 <1>  -0.2880 
 20 C       -7.9820     5.1420    -0.5580 C.3   1 <1>   0.1200 
 21 C       -8.3530     2.6990    -0.1650 C.2   1 <1>  -0.2760 
 22 C       -8.8650     3.9310    -0.8880 C.3   1 <1>  -0.0220 
 23 C       -9.3350     1.5450    -0.0630 C.3   1 <1>  -0.1020 
 24 H       -1.0370     0.2980     0.4730 H     1 <1>   0.0800 
 25 H        0.6350     0.3040     0.9730 H     1 <1>   0.0800 
 26 H        0.2120     0.3730    -0.7300 H     1 <1>   0.0800 
 27 H       -0.0100     6.0430     0.5150 H     1 <1>   0.1500 
 28 H        1.9040     4.8410    -0.3830 H     1 <1>   0.1500 
 29 H        1.9810     1.6210    -1.5620 H     1 <1>   0.0800 
 30 H        2.6420     1.4810     0.0570 H     1 <1>   0.0800 
 31 H        3.0380     2.8540    -0.9360 H     1 <1>   0.0800 
 32 H       -2.8600     4.0070    -0.9790 H     1 <1>   0.0800 
 33 H       -4.1070     5.1980    -1.2100 H     1 <1>   0.0800 
 34 H       -5.1080     6.3620     0.8240 H     1 <1>   0.0800 
 35 H       -4.5200     5.9410     2.4100 H     1 <1>   0.0800 
 36 H       -4.4360     2.4990     0.1050 H     1 <1>   0.0800 
 37 H       -5.0530     2.9440    -1.4530 H     1 <1>   0.0800 
 38 H       -6.6950     4.8510     1.9890 H     1 <1>   0.0800 
 39 H       -5.4290     3.6950     2.2050 H     1 <1>   0.0800 
 40 H       -6.6990     1.8410     0.8540 H     1 <1>   0.1500 
 41 H       -8.1900     5.9520    -1.2350 H     1 <1>   0.0800 
 42 H       -8.1620     5.4770     0.4470 H     1 <1>   0.0800 
 43 H       -8.8620     3.7580    -1.9500 H     1 <1>   0.0800 
 44 H       -9.8730     4.1500    -0.5850 H     1 <1>   0.0800 
 45 H       -9.6310     1.2230    -1.0460 H     1 <1>   0.0800 
 46 H      -10.2100     1.8480     0.4840 H     1 <1>   0.0800 
 47 H       -8.8850     0.7120     0.4470 H     1 <1>   0.0800 
@<TRIPOS>BOND
  1   1   2  2   
  2   2   3  am  
  3   2   4  1   
  4   3   5  1   
  5   3   6  1   
  6   4   7  1   
  7   4   8  2   
  8   5   9  2   
  9   5  10  1   
 10   6  24  1   
 11   6  25  1   
 12   6  26  1   
 13   7  11  2   
 14   7  12  am  
 15   8   9  1   
 16   8  27  1   
 17   9  28  1   
 18  10  29  1   
 19  10  30  1   
 20  10  31  1   
 21  12  13  1   
 22  12  14  1   
 23  13  15  1   
 24  13  32  1   
 25  13  33  1   
 26  14  16  1   
 27  14  34  1   
 28  14  35  1   
 29  15  17  1   
 30  15  36  1   
 31  15  37  1   
 32  16  17  1   
 33  16  38  1   
 34  16  39  1   
 35  17  18  1   
 36  17  19  1   
 37  18  20  1   
 38  19  21  2   
 39  19  40  1   
 40  20  22  1   
 41  20  41  1   
 42  20  42  1   
 43  21  22  1   
 44  21  23  1   
 45  22  43  1   
 46  22  44  1   
 47  23  45  1   
 48  23  46  1   
 49  23  47  1   
@<TRIPOS>SUBSTRUCTURE
  1 ****  13 GROUP 4 **** **** 0

# MOE 2024.06 (io_trps.svl 2023.06)
