@<TRIPOS>MOLECULE
NONAME
53 56 1 0 0 
SMALL
USER_CHARGES


@<TRIPOS>ATOM
  1 S        0.3610     0.8230    -0.6640 S.3   1 <1>  -0.0800 
  2 C        0.5930    -0.9070    -0.7330 C.2   1 <1>   0.1980 
  3 C       -1.3140     0.5530    -0.3090 C.2   1 <1>  -0.1100 
  4 N       -0.4620    -1.5830    -0.5220 N.2   1 <1>  -0.5650 
  5 C        1.9880    -1.4220    -1.0310 C.3   1 <1>   0.0200 
  6 C       -1.5870    -0.7700    -0.2760 C.2   1 <1>   0.1410 
  7 C        2.9020    -1.3100     0.1970 C.3   1 <1>  -0.1600 
  8 C       -2.9070    -1.3260     0.0240 C.2   1 <1>   0.7160 
  9 C        4.3000    -1.8700    -0.0860 C.3   1 <1>  -0.2400 
 10 O       -3.6670    -0.6710     0.7170 O.2   1 <1>  -0.5700 
 11 N       -3.3490    -2.5550    -0.4360 N.am  1 <1>  -0.6600 
 12 C       -2.7830    -3.2730    -1.6080 C.3   1 <1>   0.1400 
 13 C       -4.4280    -3.3130     0.2500 C.3   1 <1>   0.1400 
 14 C       -2.1690    -4.5900    -1.1290 C.3   1 <1>  -0.1600 
 15 C       -3.8440    -4.6330     0.7600 C.3   1 <1>  -0.1600 
 16 C       -3.1910    -5.4510    -0.3700 C.3   1 <1>   0.4240 
 17 O       -4.1880    -5.7570    -1.3180 O.3   1 <1>  -0.5600 
 18 C       -2.5130    -6.7250     0.1810 C.ar  1 <1>  -0.1430 
 19 C       -4.9890    -6.8720    -1.0740 C.3   1 <1>   0.1200 
 20 C       -2.9520    -7.9930    -0.1880 C.ar  1 <1>  -0.1430 
 21 C       -1.4460    -6.6260     1.0680 C.ar  1 <1>  -0.1500 
 22 C       -4.1220    -8.1250    -1.1420 C.3   1 <1>  -0.0170 
 23 C       -2.3340    -9.1300     0.3090 C.ar  1 <1>  -0.1500 
 24 C       -0.8300    -7.7590     1.5670 C.ar  1 <1>  -0.1500 
 25 C       -1.2650    -9.0180     1.1920 C.ar  1 <1>   0.0830 
 26 O       -0.6060   -10.0780     1.7240 O.3   1 <1>  -0.3630 
 27 C       -0.9580   -11.4020     1.3910 C.3   1 <1>   0.0400 
 28 H       -1.9480     1.4060    -0.1500 H     1 <1>   0.1500 
 29 H        2.4000    -0.8670    -1.8540 H     1 <1>   0.0800 
 30 H        1.9120    -2.4530    -1.3270 H     1 <1>   0.0800 
 31 H        2.4600    -1.8520     1.0160 H     1 <1>   0.0800 
 32 H        2.9850    -0.2770     0.4920 H     1 <1>   0.0800 
 33 H        4.2420    -2.9110    -0.3550 H     1 <1>   0.0800 
 34 H        4.9160    -1.7800     0.7910 H     1 <1>   0.0800 
 35 H        4.7690    -1.3280    -0.8890 H     1 <1>   0.0800 
 36 H       -2.0470    -2.6760    -2.1150 H     1 <1>   0.0800 
 37 H       -3.5750    -3.4760    -2.3100 H     1 <1>   0.0800 
 38 H       -5.2280    -3.5010    -0.4450 H     1 <1>   0.0800 
 39 H       -4.8250    -2.7500     1.0780 H     1 <1>   0.0800 
 40 H       -1.3330    -4.3560    -0.4970 H     1 <1>   0.0800 
 41 H       -1.7930    -5.1460    -1.9680 H     1 <1>   0.0800 
 42 H       -4.6080    -5.2120     1.2430 H     1 <1>   0.0800 
 43 H       -3.1070    -4.4020     1.5060 H     1 <1>   0.0800 
 44 H       -5.7530    -6.9010    -1.8300 H     1 <1>   0.0800 
 45 H       -5.4520    -6.7730    -0.1080 H     1 <1>   0.0800 
 46 H       -1.0830    -5.6630     1.3800 H     1 <1>   0.1500 
 47 H       -3.7580    -8.2540    -2.1460 H     1 <1>   0.0800 
 48 H       -4.7180    -8.9820    -0.8850 H     1 <1>   0.0800 
 49 H       -2.6920   -10.0920     0.0010 H     1 <1>   0.1500 
 50 H       -0.0060    -7.6740     2.2510 H     1 <1>   0.1500 
 51 H       -0.2990   -12.0650     1.9220 H     1 <1>   0.0800 
 52 H       -0.8380   -11.5380     0.3310 H     1 <1>   0.0800 
 53 H       -1.9750   -11.5790     1.6920 H     1 <1>   0.0800 
@<TRIPOS>BOND
  1   1   2  1   
  2   1   3  1   
  3   2   4  2   
  4   2   5  1   
  5   3   6  2   
  6   3  28  1   
  7   4   6  1   
  8   5   7  1   
  9   5  29  1   
 10   5  30  1   
 11   6   8  1   
 12   7   9  1   
 13   7  31  1   
 14   7  32  1   
 15   8  10  2   
 16   8  11  am  
 17   9  33  1   
 18   9  34  1   
 19   9  35  1   
 20  11  12  1   
 21  11  13  1   
 22  12  14  1   
 23  12  36  1   
 24  12  37  1   
 25  13  15  1   
 26  13  38  1   
 27  13  39  1   
 28  14  16  1   
 29  14  40  1   
 30  14  41  1   
 31  15  16  1   
 32  15  42  1   
 33  15  43  1   
 34  16  17  1   
 35  16  18  1   
 36  17  19  1   
 37  18  20  ar  
 38  18  21  ar  
 39  19  22  1   
 40  19  44  1   
 41  19  45  1   
 42  20  22  1   
 43  20  23  ar  
 44  21  24  ar  
 45  21  46  1   
 46  22  47  1   
 47  22  48  1   
 48  23  25  ar  
 49  23  49  1   
 50  24  25  ar  
 51  24  50  1   
 52  25  26  1   
 53  26  27  1   
 54  27  51  1   
 55  27  52  1   
 56  27  53  1   
@<TRIPOS>SUBSTRUCTURE
  1 ****  14 GROUP 4 **** **** 0

# MOE 2024.06 (io_trps.svl 2023.06)
