@<TRIPOS>MOLECULE
NONAME
56 59 1 0 0 
SMALL
USER_CHARGES


@<TRIPOS>ATOM
  1 O        2.0180     0.6230     1.7600 O.co2 1 <1>  -0.9000 
  2 C        2.4490     1.2280     0.7740 C.2   1 <1>   0.9060 
  3 O        2.7110     2.4310     0.8360 O.co2 1 <1>  -0.9000 
  4 C        3.0230     0.4030    -0.3960 C.3   1 <1>  -0.1060 
  5 C        4.0120    -0.5780     0.2660 C.3   1 <1>   0.4230 
  6 C        3.8390     1.2900    -1.3940 C.3   1 <1>  -0.1600 
  7 C        1.9230    -0.3450    -1.1930 C.3   1 <1>  -0.1600 
  8 N        3.2570    -1.6050     1.0760 N.4   1 <1>  -0.9590 
  9 C        5.0730     0.2400     1.0880 C.3   1 <1>   0.3430 
 10 C        5.1970     1.8080    -0.8770 C.3   1 <1>   0.3430 
 11 C        1.2720    -1.4770    -0.3850 C.3   1 <1>  -0.1600 
 12 C        2.3070    -2.4030     0.2530 C.3   1 <1>   0.3430 
 13 C        4.0590    -2.4760     1.9820 C.3   1 <1>   0.2630 
 14 N        5.2760     1.6530     0.5990 N.4   1 <1>  -0.9590 
 15 C        6.3960     2.3910     1.2290 C.3   1 <1>   0.5240 
 16 C        6.2410     3.8520     0.8830 C.2   1 <1>  -0.1810 
 17 C        7.2150     4.6450     0.2760 C.2   1 <1>   0.2350 
 18 C        5.1670     4.6530     1.0350 C.2   1 <1>  -0.3020 
 19 N        6.7570     5.8480     0.0540 N.2   1 <1>  -0.7070 
 20 C        8.5360     4.1890    -0.0890 C.ar  1 <1>   0.0540 
 21 N        5.5030     5.8520     0.5310 N.pl3 1 <1>   0.3140 
 22 C        9.4390     3.7400     0.8720 C.ar  1 <1>  -0.1500 
 23 C        8.9340     4.1640    -1.4220 C.ar  1 <1>  -0.1500 
 24 C        4.6450     7.0400     0.4670 C.3   1 <1>   0.0160 
 25 C       10.6830     3.2550     0.5120 C.ar  1 <1>  -0.1500 
 26 C       10.1760     3.6800    -1.7890 C.ar  1 <1>  -0.1500 
 27 C       11.0510     3.2190    -0.8210 C.ar  1 <1>  -0.1500 
 28 H        4.5360    -1.0950    -0.5180 H     1 <1>   0.0800 
 29 H        3.2390     2.1420    -1.6690 H     1 <1>   0.0800 
 30 H        4.0300     0.7550    -2.3070 H     1 <1>   0.0800 
 31 H        1.1620     0.3560    -1.4980 H     1 <1>   0.0800 
 32 H        2.3430    -0.7740    -2.0870 H     1 <1>   0.0800 
 33 H        2.6260    -0.9910     1.6650 H     1 <1>   0.4500 
 34 H        6.0100    -0.2890     1.0630 H     1 <1>   0.0800 
 35 H        4.7330     0.2910     2.1100 H     1 <1>   0.0800 
 36 H        5.2960     2.8490    -1.1470 H     1 <1>   0.0800 
 37 H        6.0010     1.2640    -1.3430 H     1 <1>   0.0800 
 38 H        0.6340    -2.0540    -1.0310 H     1 <1>   0.0800 
 39 H        0.6430    -1.0650     0.3860 H     1 <1>   0.0800 
 40 H        2.8430    -2.9370    -0.5150 H     1 <1>   0.0800 
 41 H        1.7960    -3.1210     0.8750 H     1 <1>   0.0800 
 42 H        4.7350    -3.0930     1.4120 H     1 <1>   0.0800 
 43 H        3.4030    -3.1180     2.5490 H     1 <1>   0.0800 
 44 H        4.6250    -1.8790     2.6780 H     1 <1>   0.0800 
 45 H        4.4220     2.1950     0.9090 H     1 <1>   0.4500 
 46 H        6.3610     2.2780     2.3000 H     1 <1>   0.0800 
 47 H        7.3410     2.0210     0.8660 H     1 <1>   0.0800 
 48 H        4.1910     4.4490     1.4490 H     1 <1>   0.1500 
 49 H        9.1680     3.7870     1.9120 H     1 <1>   0.1500 
 50 H        8.2580     4.5370    -2.1720 H     1 <1>   0.1500 
 51 H        3.6320     6.7380     0.2750 H     1 <1>   0.0800 
 52 H        4.9890     7.6810    -0.3230 H     1 <1>   0.0800 
 53 H        4.6990     7.5620     1.4040 H     1 <1>   0.0800 
 54 H       11.3720     2.9130     1.2660 H     1 <1>   0.1500 
 55 H       10.4670     3.6680    -2.8260 H     1 <1>   0.1500 
 56 H       12.0210     2.8450    -1.1050 H     1 <1>   0.1500 
@<TRIPOS>BOND
  1   1   2  ar  
  2   2   3  ar  
  3   2   4  1   
  4   4   5  1   
  5   4   6  1   
  6   4   7  1   
  7   5   8  1   
  8   5   9  1   
  9   5  28  1   
 10   6  10  1   
 11   6  29  1   
 12   6  30  1   
 13   7  11  1   
 14   7  31  1   
 15   7  32  1   
 16   8  12  1   
 17   8  13  1   
 18   8  33  1   
 19   9  14  1   
 20   9  34  1   
 21   9  35  1   
 22  10  14  1   
 23  10  36  1   
 24  10  37  1   
 25  11  12  1   
 26  11  38  1   
 27  11  39  1   
 28  12  40  1   
 29  12  41  1   
 30  13  42  1   
 31  13  43  1   
 32  13  44  1   
 33  14  15  1   
 34  14  45  1   
 35  15  16  1   
 36  15  46  1   
 37  15  47  1   
 38  16  17  1   
 39  16  18  2   
 40  17  19  2   
 41  17  20  1   
 42  18  21  1   
 43  18  48  1   
 44  19  21  1   
 45  20  22  ar  
 46  20  23  ar  
 47  21  24  1   
 48  22  25  ar  
 49  22  49  1   
 50  23  26  ar  
 51  23  50  1   
 52  24  51  1   
 53  24  52  1   
 54  24  53  1   
 55  25  27  ar  
 56  25  54  1   
 57  26  27  ar  
 58  26  55  1   
 59  27  56  1   
@<TRIPOS>SUBSTRUCTURE
  1 ****  14 GROUP 4 **** **** 0

# MOE 2024.06 (io_trps.svl 2023.06)
