@<TRIPOS>MOLECULE
NONAME
48 51 1 0 0 
SMALL
USER_CHARGES


@<TRIPOS>ATOM
  1 S       -0.6590     0.3310     1.8390 S.3   1 <1>  -0.0800 
  2 C       -1.6850     0.8930     0.5260 C.2   1 <1>   0.4620 
  3 C        0.4100     1.6700     1.5510 C.2   1 <1>  -0.1100 
  4 N       -1.2440     1.9550    -0.0410 N.2   1 <1>  -0.5650 
  5 N       -2.8300     0.1960     0.2040 N.pl3 1 <1>  -0.8220 
  6 C       -0.0590     2.4130     0.5270 C.2   1 <1>   0.1730 
  7 C       -3.1930    -1.1080     0.8470 C.3   1 <1>   0.2090 
  8 C       -3.7950     0.7790    -0.7800 C.3   1 <1>   0.2090 
  9 C        0.5580     3.6160    -0.0080 C.ar  1 <1>   0.0540 
 10 C       -4.1590    -1.8770    -0.0810 C.3   1 <1>   0.4230 
 11 C       -5.2390     0.4090    -0.4120 C.3   1 <1>  -0.1600 
 12 C       -0.2050     4.5910    -0.6580 C.ar  1 <1>  -0.1500 
 13 C        1.9330     3.8360     0.1140 C.ar  1 <1>  -0.1500 
 14 N       -4.4020    -3.3280     0.2280 N.4   1 <1>  -0.9590 
 15 C       -5.4960    -1.1140    -0.1790 C.3   1 <1>  -0.1060 
 16 C        0.3720     5.7430    -1.1650 C.ar  1 <1>  -0.1500 
 17 C        2.5270     4.9820    -0.3860 C.ar  1 <1>  -0.1500 
 18 C       -5.1750    -3.9920    -0.8570 C.3   1 <1>   0.3430 
 19 C       -3.2090    -4.1110     0.6430 C.3   1 <1>   0.2630 
 20 C       -6.2990    -1.2870     1.1230 C.2   1 <1>   0.9060 
 21 C       -6.2790    -1.7290    -1.3630 C.3   1 <1>  -0.1600 
 22 C        1.7330     5.9180    -1.0180 C.ar  1 <1>   0.1900 
 23 C       -6.4800    -3.2410    -1.1540 C.3   1 <1>  -0.1600 
 24 O       -7.3660    -0.6880     1.2450 O.co2 1 <1>  -0.9000 
 25 O       -5.8940    -2.0790     1.9900 O.co2 1 <1>  -0.9000 
 26 F        2.2860     7.0010    -1.4910 F     1 <1>  -0.1900 
 27 H        1.2740     1.7660     2.1800 H     1 <1>   0.1500 
 28 H       -2.2970    -1.6800     0.9940 H     1 <1>   0.0800 
 29 H       -3.6530    -0.9190     1.8020 H     1 <1>   0.0800 
 30 H       -3.7010     1.8530    -0.7950 H     1 <1>   0.0800 
 31 H       -3.5590     0.4140    -1.7640 H     1 <1>   0.0800 
 32 H       -3.6990    -1.8410    -1.0530 H     1 <1>   0.0800 
 33 H       -5.4700     0.9500     0.4910 H     1 <1>   0.0800 
 34 H       -5.9090     0.7920    -1.1610 H     1 <1>   0.0800 
 35 H       -1.2660     4.4410    -0.7640 H     1 <1>   0.1500 
 36 H        2.5490     3.1010     0.5990 H     1 <1>   0.1500 
 37 H       -5.0450    -3.2400     1.0620 H     1 <1>   0.4500 
 38 H       -0.2190     6.4900    -1.6630 H     1 <1>   0.1500 
 39 H        3.5850     5.1510    -0.2930 H     1 <1>   0.1500 
 40 H       -4.5760    -4.0230    -1.7520 H     1 <1>   0.0800 
 41 H       -5.4100    -5.0040    -0.5700 H     1 <1>   0.0800 
 42 H       -2.4750    -4.1240    -0.1460 H     1 <1>   0.0800 
 43 H       -3.4950    -5.1240     0.8740 H     1 <1>   0.0800 
 44 H       -2.7700    -3.6760     1.5260 H     1 <1>   0.0800 
 45 H       -7.2440    -1.2530    -1.4390 H     1 <1>   0.0800 
 46 H       -5.7510    -1.5550    -2.2850 H     1 <1>   0.0800 
 47 H       -6.9370    -3.6640    -2.0310 H     1 <1>   0.0800 
 48 H       -7.1640    -3.4020    -0.3370 H     1 <1>   0.0800 
@<TRIPOS>BOND
  1   1   2  1   
  2   1   3  1   
  3   2   4  2   
  4   2   5  1   
  5   3   6  2   
  6   3  27  1   
  7   4   6  1   
  8   5   7  1   
  9   5   8  1   
 10   6   9  1   
 11   7  10  1   
 12   7  28  1   
 13   7  29  1   
 14   8  11  1   
 15   8  30  1   
 16   8  31  1   
 17   9  12  ar  
 18   9  13  ar  
 19  10  14  1   
 20  10  15  1   
 21  10  32  1   
 22  11  15  1   
 23  11  33  1   
 24  11  34  1   
 25  12  16  ar  
 26  12  35  1   
 27  13  17  ar  
 28  13  36  1   
 29  14  18  1   
 30  14  19  1   
 31  14  37  1   
 32  15  20  1   
 33  15  21  1   
 34  16  22  ar  
 35  16  38  1   
 36  17  22  ar  
 37  17  39  1   
 38  18  23  1   
 39  18  40  1   
 40  18  41  1   
 41  19  42  1   
 42  19  43  1   
 43  19  44  1   
 44  20  24  ar  
 45  20  25  ar  
 46  21  23  1   
 47  21  45  1   
 48  21  46  1   
 49  22  26  1   
 50  23  47  1   
 51  23  48  1   
@<TRIPOS>SUBSTRUCTURE
  1 ****   5 GROUP 4 **** **** 0

# MOE 2024.06 (io_trps.svl 2023.06)
