@<TRIPOS>MOLECULE
NONAME
51 54 1 0 0 
SMALL
USER_CHARGES


@<TRIPOS>ATOM
  1 O       -1.7620    -0.2440    -0.4630 O.2   1 <1>  -0.5700 
  2 C       -1.7340    -1.3870    -0.1020 C.2   1 <1>   0.6590 
  3 O       -1.5360    -2.4050    -0.9140 O.3   1 <1>  -0.4300 
  4 C       -1.9720    -1.8390     1.3100 C.3   1 <1>  -0.0990 
  5 C       -1.5190    -3.6440    -0.2460 C.3   1 <1>   0.2800 
  6 C       -2.1270    -3.3520     1.1400 C.3   1 <1>  -0.0190 
  7 C       -0.0590    -4.1030    -0.2060 C.3   1 <1>  -0.1600 
  8 C       -2.1810    -4.7010    -1.1330 C.3   1 <1>  -0.1600 
  9 C       -3.5460    -3.8950     1.3340 C.2   1 <1>   0.5690 
 10 C        0.2280    -4.6710    -1.6000 C.3   1 <1>  -0.1600 
 11 C       -1.1330    -5.0610    -2.1920 C.3   1 <1>  -0.1600 
 12 O       -3.6090    -4.9080     1.9910 O.2   1 <1>  -0.5700 
 13 N       -4.6970    -3.3130     0.8440 N.am  1 <1>  -0.6600 
 14 C       -4.7670    -2.2460    -0.2080 C.3   1 <1>   0.1400 
 15 C       -6.0180    -3.8130     1.3460 C.3   1 <1>   0.1400 
 16 C       -6.1180    -2.2640    -0.9190 C.3   1 <1>  -0.1600 
 17 C       -7.0360    -2.6730     1.4220 C.3   1 <1>  -0.1600 
 18 C       -7.2590    -1.9750     0.0680 C.3   1 <1>   0.4180 
 19 O       -7.2670    -0.5990     0.3570 O.3   1 <1>  -0.5600 
 20 C       -8.5970    -2.4070    -0.5280 C.2   1 <1>  -0.2880 
 21 C       -7.9050     0.2610    -0.5480 C.3   1 <1>   0.1200 
 22 C       -9.5840    -1.5670    -0.8490 C.2   1 <1>  -0.2760 
 23 C       -9.3980    -0.0740    -0.6560 C.3   1 <1>  -0.0220 
 24 C      -10.9320    -1.9920    -1.4020 C.3   1 <1>  -0.1020 
 25 H       -2.8390    -1.3700     1.7370 H     1 <1>   0.0800 
 26 H       -1.1050    -1.6040     1.8980 H     1 <1>   0.0800 
 27 H       -1.5240    -3.8340     1.8890 H     1 <1>   0.0800 
 28 H        0.0420    -4.8990     0.5110 H     1 <1>   0.0800 
 29 H        0.6170    -3.3090     0.0580 H     1 <1>   0.0800 
 30 H       -3.1000    -4.3610    -1.5740 H     1 <1>   0.0800 
 31 H       -2.3850    -5.5780    -0.5430 H     1 <1>   0.0800 
 32 H        0.8930    -5.5160    -1.5460 H     1 <1>   0.0800 
 33 H        0.6790    -3.9110    -2.2160 H     1 <1>   0.0800 
 34 H       -1.3110    -4.4900    -3.0870 H     1 <1>   0.0800 
 35 H       -1.1740    -6.1100    -2.4340 H     1 <1>   0.0800 
 36 H       -4.0050    -2.4010    -0.9460 H     1 <1>   0.0800 
 37 H       -4.6230    -1.2800     0.2460 H     1 <1>   0.0800 
 38 H       -5.9040    -4.2410     2.3280 H     1 <1>   0.0800 
 39 H       -6.3750    -4.5860     0.6880 H     1 <1>   0.0800 
 40 H       -6.2550    -3.2330    -1.3630 H     1 <1>   0.0800 
 41 H       -6.1210    -1.5520    -1.7200 H     1 <1>   0.0800 
 42 H       -6.6760    -1.9630     2.1460 H     1 <1>   0.0800 
 43 H       -7.9690    -3.0590     1.7900 H     1 <1>   0.0800 
 44 H       -8.6700    -3.4720    -0.6550 H     1 <1>   0.1500 
 45 H       -7.4300     0.1690    -1.5080 H     1 <1>   0.0800 
 46 H       -7.7730     1.2670    -0.1940 H     1 <1>   0.0800 
 47 H       -9.8090     0.4650    -1.4910 H     1 <1>   0.0800 
 48 H       -9.9080     0.2460     0.2350 H     1 <1>   0.0800 
 49 H      -11.7200    -1.6670    -0.7460 H     1 <1>   0.0800 
 50 H      -10.9830    -3.0620    -1.4910 H     1 <1>   0.0800 
 51 H      -11.0890    -1.5610    -2.3750 H     1 <1>   0.0800 
@<TRIPOS>BOND
  1   1   2  2   
  2   2   3  1   
  3   2   4  1   
  4   3   5  1   
  5   4   6  1   
  6   4  25  1   
  7   4  26  1   
  8   5   6  1   
  9   5   7  1   
 10   5   8  1   
 11   6   9  1   
 12   6  27  1   
 13   7  10  1   
 14   7  28  1   
 15   7  29  1   
 16   8  11  1   
 17   8  30  1   
 18   8  31  1   
 19   9  12  2   
 20   9  13  am  
 21  10  11  1   
 22  10  32  1   
 23  10  33  1   
 24  11  34  1   
 25  11  35  1   
 26  13  14  1   
 27  13  15  1   
 28  14  16  1   
 29  14  36  1   
 30  14  37  1   
 31  15  17  1   
 32  15  38  1   
 33  15  39  1   
 34  16  18  1   
 35  16  40  1   
 36  16  41  1   
 37  17  18  1   
 38  17  42  1   
 39  17  43  1   
 40  18  19  1   
 41  18  20  1   
 42  19  21  1   
 43  20  22  2   
 44  20  44  1   
 45  21  23  1   
 46  21  45  1   
 47  21  46  1   
 48  22  23  1   
 49  22  24  1   
 50  23  47  1   
 51  23  48  1   
 52  24  49  1   
 53  24  50  1   
 54  24  51  1   
@<TRIPOS>SUBSTRUCTURE
  1 ****  14 GROUP 4 **** **** 0

# MOE 2024.06 (io_trps.svl 2023.06)
