@<TRIPOS>MOLECULE
NONAME
41 43 1 0 0 
SMALL
USER_CHARGES


@<TRIPOS>ATOM
  1 F       -2.6970     0.1440    -1.8380 F     1 <1>  -0.1900 
  2 C       -2.2630     0.8700    -0.8450 C.ar  1 <1>   0.1900 
  3 C       -2.3080     0.3530     0.4500 C.ar  1 <1>   0.0860 
  4 C       -1.7790     2.1290    -1.1430 C.ar  1 <1>  -0.1500 
  5 C       -2.8330    -0.9600     0.7410 C.2   1 <1>   0.5440 
  6 C       -1.8160     1.1720     1.4680 C.ar  1 <1>  -0.1500 
  7 C       -1.3110     2.9160    -0.1050 C.ar  1 <1>   0.0830 
  8 O       -2.0600    -1.8280     1.1000 O.2   1 <1>  -0.5700 
  9 N       -4.1830    -1.2540     0.6660 N.am  1 <1>  -0.6600 
 10 C       -1.3270     2.4380     1.1970 C.ar  1 <1>  -0.1500 
 11 O       -0.8350     4.1420    -0.3430 O.3   1 <1>  -0.5330 
 12 C       -5.2200    -0.1890     0.5200 C.3   1 <1>   0.2200 
 13 C       -4.6330    -2.6710     0.8380 C.3   1 <1>   0.0600 
 14 C       -5.9630    -0.2600    -0.8100 C.3   1 <1>  -0.1600 
 15 C       -6.3210    -0.2480     1.5760 C.3   1 <1>  -0.1600 
 16 C       -7.2490     0.5430    -0.5750 C.3   1 <1>  -0.0800 
 17 C       -7.4870     0.5350     0.9570 C.3   1 <1>  -0.0800 
 18 C       -8.4280     0.0500    -1.4370 C.3   1 <1>   0.1400 
 19 C       -8.8680     0.0000     1.3840 C.3   1 <1>  -0.0990 
 20 N       -9.7000     0.5260    -0.8580 N.am  1 <1>  -0.7300 
 21 C       -9.9510     0.5260     0.4680 C.2   1 <1>   0.5690 
 22 O      -10.9980     0.9180     0.9120 O.2   1 <1>  -0.5700 
 23 H       -1.7690     2.4750    -2.1590 H     1 <1>   0.1500 
 24 H       -1.8180     0.8000     2.4780 H     1 <1>   0.1500 
 25 H       -0.9520     3.0620     1.9890 H     1 <1>   0.1500 
 26 H       -0.8230     4.3950    -1.2830 H     1 <1>   0.4500 
 27 H       -4.7660     0.7840     0.5910 H     1 <1>   0.0800 
 28 H       -5.5580    -2.8500     0.3230 H     1 <1>   0.0800 
 29 H       -4.7630    -2.8810     1.8850 H     1 <1>   0.0800 
 30 H       -3.8910    -3.3450     0.4440 H     1 <1>   0.0800 
 31 H       -5.3790     0.1590    -1.6090 H     1 <1>   0.0800 
 32 H       -6.2050    -1.2800    -1.0450 H     1 <1>   0.0800 
 33 H       -6.6260    -1.2620     1.7530 H     1 <1>   0.0800 
 34 H       -5.9980     0.1920     2.5030 H     1 <1>   0.0800 
 35 H       -7.0530     1.5640    -0.8600 H     1 <1>   0.0800 
 36 H       -7.4200     1.5580     1.2910 H     1 <1>   0.0800 
 37 H       -8.4500    -1.0270    -1.4610 H     1 <1>   0.0800 
 38 H       -8.3250     0.4130    -2.4460 H     1 <1>   0.0800 
 39 H       -9.0820     0.2880     2.3970 H     1 <1>   0.0800 
 40 H       -8.8930    -1.0720     1.3260 H     1 <1>   0.0800 
 41 H      -10.4440     0.8480    -1.4810 H     1 <1>   0.3700 
@<TRIPOS>BOND
  1   1   2  1   
  2   2   3  ar  
  3   2   4  ar  
  4   3   5  1   
  5   3   6  ar  
  6   4   7  ar  
  7   4  23  1   
  8   5   8  2   
  9   5   9  am  
 10   6  10  ar  
 11   6  24  1   
 12   7  10  ar  
 13   7  11  1   
 14   9  12  1   
 15   9  13  1   
 16  10  25  1   
 17  11  26  1   
 18  12  14  1   
 19  12  15  1   
 20  12  27  1   
 21  13  28  1   
 22  13  29  1   
 23  13  30  1   
 24  14  16  1   
 25  14  31  1   
 26  14  32  1   
 27  15  17  1   
 28  15  33  1   
 29  15  34  1   
 30  16  17  1   
 31  16  18  1   
 32  16  35  1   
 33  17  19  1   
 34  17  36  1   
 35  18  20  1   
 36  18  37  1   
 37  18  38  1   
 38  19  21  1   
 39  19  39  1   
 40  19  40  1   
 41  20  21  am  
 42  20  41  1   
 43  21  22  2   
@<TRIPOS>SUBSTRUCTURE
  1 ****  12 GROUP 4 **** **** 0

# MOE 2024.06 (io_trps.svl 2023.06)
