@<TRIPOS>MOLECULE
NONAME
54 57 1 0 0 
SMALL
USER_CHARGES


@<TRIPOS>ATOM
  1 O       -0.2170     1.3040     1.9950 O.2   1 <1>  -0.5700 
  2 C       -0.0950     2.2370     1.2430 C.2   1 <1>   0.5690 
  3 N       -0.7880     3.3800     1.4440 N.am  1 <1>  -0.7300 
  4 C        0.8320     2.1310     0.0280 C.3   1 <1>   0.1810 
  5 C       -0.6970     4.5620     0.5530 C.3   1 <1>   0.3640 
  6 O        1.1780     3.3900    -0.5070 O.3   1 <1>  -0.5600 
  7 C       -2.1010     5.0880     0.2730 C.ar  1 <1>  -0.1440 
  8 C        0.0670     4.2420    -0.7550 C.3   1 <1>   0.2610 
  9 C       -3.1540     4.2290    -0.0180 C.ar  1 <1>  -0.1500 
 10 C       -2.3370     6.4560     0.2990 C.ar  1 <1>  -0.1500 
 11 C        0.4710     5.5540    -1.4410 C.2   1 <1>   0.5690 
 12 C       -4.4190     4.7290    -0.2700 C.ar  1 <1>  -0.1500 
 13 C       -3.6020     6.9560     0.0460 C.ar  1 <1>  -0.1500 
 14 O       -0.1500     5.8790    -2.4270 O.2   1 <1>  -0.5700 
 15 N        1.4640     6.3640    -0.9470 N.am  1 <1>  -0.6600 
 16 C       -4.6440     6.0930    -0.2380 C.ar  1 <1>  -0.1500 
 17 C        1.7570     7.6940    -1.5260 C.3   1 <1>   0.1400 
 18 C        2.4580     6.0320     0.0980 C.3   1 <1>   0.1400 
 19 C        2.6670     8.4000    -0.5060 C.3   1 <1>   0.0000 
 20 C        3.4300     7.2100     0.1040 C.3   1 <1>  -0.1600 
 21 C        1.7690     9.0850     0.5570 C.3   1 <1>  -0.1600 
 22 C        3.6040     9.3910    -1.2380 C.3   1 <1>  -0.1600 
 23 C        2.4740     9.9700     1.6010 C.3   1 <1>  -0.1600 
 24 C        4.7250     9.9970    -0.3740 C.3   1 <1>  -0.1600 
 25 C        2.9420    11.3080     1.0120 C.3   1 <1>  -0.1600 
 26 C        4.3400    11.2790     0.3790 C.3   1 <1>  -0.1600 
 27 H       -1.4350     3.4360     2.2330 H     1 <1>   0.3700 
 28 H        0.3510     1.5560    -0.7420 H     1 <1>   0.0800 
 29 H        1.7410     1.6350     0.3150 H     1 <1>   0.0800 
 30 H       -0.1560     5.3230     1.0850 H     1 <1>   0.0800 
 31 H       -0.5920     3.7200    -1.4250 H     1 <1>   0.0800 
 32 H       -2.9980     3.1640    -0.0500 H     1 <1>   0.1500 
 33 H       -1.5370     7.1450     0.5100 H     1 <1>   0.1500 
 34 H       -5.2290     4.0560    -0.4930 H     1 <1>   0.1500 
 35 H       -3.7740     8.0180     0.0660 H     1 <1>   0.1500 
 36 H       -5.6280     6.4820    -0.4350 H     1 <1>   0.1500 
 37 H        2.2690     7.5460    -2.4610 H     1 <1>   0.0800 
 38 H        0.8480     8.2410    -1.7130 H     1 <1>   0.0800 
 39 H        1.9710     5.9470     1.0530 H     1 <1>   0.0800 
 40 H        2.9700     5.1140    -0.1350 H     1 <1>   0.0800 
 41 H        3.7970     7.4040     1.0950 H     1 <1>   0.0800 
 42 H        4.2670     6.9520    -0.5200 H     1 <1>   0.0800 
 43 H        1.0340     9.6890     0.0520 H     1 <1>   0.0800 
 44 H        1.2180     8.3280     1.0860 H     1 <1>   0.0800 
 45 H        4.0810     8.8620    -2.0450 H     1 <1>   0.0800 
 46 H        3.0250    10.1800    -1.6870 H     1 <1>   0.0800 
 47 H        1.7540    10.1900     2.3710 H     1 <1>   0.0800 
 48 H        3.2900     9.4530     2.0730 H     1 <1>   0.0800 
 49 H        5.0890     9.2700     0.3300 H     1 <1>   0.0800 
 50 H        5.5550    10.2380    -1.0150 H     1 <1>   0.0800 
 51 H        2.2280    11.6480     0.2810 H     1 <1>   0.0800 
 52 H        2.9530    12.0460     1.7960 H     1 <1>   0.0800 
 53 H        5.0720    11.4380     1.1520 H     1 <1>   0.0800 
 54 H        4.4160    12.1140    -0.2970 H     1 <1>   0.0800 
@<TRIPOS>BOND
  1   1   2  2   
  2   2   3  am  
  3   2   4  1   
  4   3   5  1   
  5   3  27  1   
  6   4   6  1   
  7   4  28  1   
  8   4  29  1   
  9   5   7  1   
 10   5   8  1   
 11   5  30  1   
 12   6   8  1   
 13   7   9  ar  
 14   7  10  ar  
 15   8  11  1   
 16   8  31  1   
 17   9  12  ar  
 18   9  32  1   
 19  10  13  ar  
 20  10  33  1   
 21  11  14  2   
 22  11  15  am  
 23  12  16  ar  
 24  12  34  1   
 25  13  16  ar  
 26  13  35  1   
 27  15  17  1   
 28  15  18  1   
 29  16  36  1   
 30  17  19  1   
 31  17  37  1   
 32  17  38  1   
 33  18  20  1   
 34  18  39  1   
 35  18  40  1   
 36  19  20  1   
 37  19  21  1   
 38  19  22  1   
 39  20  41  1   
 40  20  42  1   
 41  21  23  1   
 42  21  43  1   
 43  21  44  1   
 44  22  24  1   
 45  22  45  1   
 46  22  46  1   
 47  23  25  1   
 48  23  47  1   
 49  23  48  1   
 50  24  26  1   
 51  24  49  1   
 52  24  50  1   
 53  25  26  1   
 54  25  51  1   
 55  25  52  1   
 56  26  53  1   
 57  26  54  1   
@<TRIPOS>SUBSTRUCTURE
  1 ****  15 GROUP 4 **** **** 0

# MOE 2024.06 (io_trps.svl 2023.06)
