@<TRIPOS>MOLECULE
NONAME
45 47 1 0 0 
SMALL
USER_CHARGES


@<TRIPOS>ATOM
  1 CL      -0.4910    -0.2670    -0.6080 Cl    1 <1>  -0.1770 
  2 C       -1.9680    -1.0450    -0.1010 C.ar  1 <1>   0.1770 
  3 C       -2.0250    -2.4260    -0.0540 C.ar  1 <1>  -0.1500 
  4 C       -3.0580    -0.2690     0.2440 C.ar  1 <1>  -0.1500 
  5 C       -3.1970    -3.0490     0.3470 C.ar  1 <1>  -0.1440 
  6 C       -4.2280    -0.8900     0.6450 C.ar  1 <1>  -0.1500 
  7 C       -4.2950    -2.2740     0.6950 C.ar  1 <1>  -0.1500 
  8 C       -3.2750    -4.5660     0.4000 C.3   1 <1>  -0.0160 
  9 C       -3.6590    -5.1300    -0.9720 C.3   1 <1>  -0.0990 
 10 C       -3.7920    -6.6390    -0.9180 C.2   1 <1>   0.5690 
 11 O       -2.8100    -7.2990    -1.1550 O.2   1 <1>  -0.5700 
 12 N       -4.9850    -7.2250    -0.5960 N.am  1 <1>  -0.6600 
 13 C       -6.2730    -6.5410    -0.3120 C.3   1 <1>   0.1400 
 14 C       -5.1330    -8.6940    -0.4750 C.3   1 <1>   0.1400 
 15 C       -7.2890    -7.6700    -0.1410 C.3   1 <1>   0.2000 
 16 C       -6.4710    -8.9040     0.2340 C.3   1 <1>  -0.0800 
 17 O       -8.2070    -7.3840     0.8550 O.3   1 <1>  -0.6800 
 18 C       -7.1650   -10.2230    -0.1390 C.3   1 <1>   0.0200 
 19 C       -6.2830   -11.4110     0.1920 C.2   1 <1>  -0.0400 
 20 O       -5.9450   -11.6470     1.4310 O.3   1 <1>  -0.0190 
 21 C       -5.7170   -12.3520    -0.5780 C.2   1 <1>  -0.1500 
 22 N       -5.1790   -12.6950     1.5320 N.2   1 <1>  -0.4100 
 23 C       -5.0250   -13.1410     0.3380 C.2   1 <1>   0.1080 
 24 C       -4.1990   -14.3570    -0.0160 C.3   1 <1>  -0.0590 
 25 H       -1.1580    -2.9990    -0.3310 H     1 <1>   0.1500 
 26 H       -2.9870     0.8030     0.1990 H     1 <1>   0.1500 
 27 H       -5.0850    -0.2980     0.9170 H     1 <1>   0.1500 
 28 H       -5.2100    -2.7430     1.0090 H     1 <1>   0.1500 
 29 H       -2.3220    -4.9700     0.6990 H     1 <1>   0.0800 
 30 H       -3.9990    -4.8680     1.1360 H     1 <1>   0.0800 
 31 H       -2.8920    -4.8820    -1.6840 H     1 <1>   0.0800 
 32 H       -4.5720    -4.6850    -1.3160 H     1 <1>   0.0800 
 33 H       -6.1800    -5.9680     0.5930 H     1 <1>   0.0800 
 34 H       -6.5530    -5.9050    -1.1340 H     1 <1>   0.0800 
 35 H       -5.1440    -9.1240    -1.4620 H     1 <1>   0.0800 
 36 H       -4.3170    -9.1190     0.0870 H     1 <1>   0.0800 
 37 H       -7.8240    -7.8170    -1.0640 H     1 <1>   0.0800 
 38 H       -6.2710    -8.8940     1.2920 H     1 <1>   0.0800 
 39 H       -7.7710    -7.3670     1.7290 H     1 <1>   0.4000 
 40 H       -7.3940   -10.2340    -1.1900 H     1 <1>   0.0800 
 41 H       -8.0890   -10.3110     0.4050 H     1 <1>   0.0800 
 42 H       -5.7600   -12.4960    -1.6410 H     1 <1>   0.1500 
 43 H       -4.8130   -15.0840    -0.5150 H     1 <1>   0.0800 
 44 H       -3.7940   -14.7980     0.8780 H     1 <1>   0.0800 
 45 H       -3.3890   -14.0720    -0.6610 H     1 <1>   0.0800 
@<TRIPOS>BOND
  1   1   2  1   
  2   2   3  ar  
  3   2   4  ar  
  4   3   5  ar  
  5   3  25  1   
  6   4   6  ar  
  7   4  26  1   
  8   5   7  ar  
  9   5   8  1   
 10   6   7  ar  
 11   6  27  1   
 12   7  28  1   
 13   8   9  1   
 14   8  29  1   
 15   8  30  1   
 16   9  10  1   
 17   9  31  1   
 18   9  32  1   
 19  10  11  2   
 20  10  12  am  
 21  12  13  1   
 22  12  14  1   
 23  13  15  1   
 24  13  33  1   
 25  13  34  1   
 26  14  16  1   
 27  14  35  1   
 28  14  36  1   
 29  15  16  1   
 30  15  17  1   
 31  15  37  1   
 32  16  18  1   
 33  16  38  1   
 34  17  39  1   
 35  18  19  1   
 36  18  40  1   
 37  18  41  1   
 38  19  20  1   
 39  19  21  2   
 40  20  22  1   
 41  21  23  1   
 42  21  42  1   
 43  22  23  2   
 44  23  24  1   
 45  24  43  1   
 46  24  44  1   
 47  24  45  1   
@<TRIPOS>SUBSTRUCTURE
  1 ****  12 GROUP 4 **** **** 0

# MOE 2024.06 (io_trps.svl 2023.06)
