@<TRIPOS>MOLECULE
NONAME
50 53 1 0 0 
SMALL
USER_CHARGES


@<TRIPOS>ATOM
  1 O       -1.6760     0.4340    -2.6850 O.2   1 <1>  -0.5700 
  2 C       -1.6670     0.7540    -1.5230 C.2   1 <1>   0.5690 
  3 N       -1.7700    -0.1540    -0.5250 N.am  1 <1>  -0.7300 
  4 C       -1.5570     2.2150    -1.1490 C.3   1 <1>  -0.0990 
  5 C       -1.9050    -1.6170    -0.7130 C.3   1 <1>   0.2200 
  6 C       -0.1890     2.5430    -0.5280 C.3   1 <1>  -0.0990 
  7 C       -3.2920    -2.0940    -0.3050 C.3   1 <1>  -0.0800 
  8 C       -1.0480    -2.3270     0.3240 C.3   1 <1>   0.1200 
  9 C       -0.1640     3.9460     0.0640 C.2   1 <1>   0.3890 
 10 C       -3.1620    -2.2760     1.2120 C.3   1 <1>   0.1200 
 11 C       -4.4670    -1.1970    -0.7390 C.3   1 <1>  -0.0170 
 12 O       -1.7930    -2.2860     1.5030 O.3   1 <1>  -0.5600 
 13 N        0.4460     4.8690    -0.5920 N.2   1 <1>  -0.6290 
 14 C       -0.8350     4.1520     1.3360 C.2   1 <1>   0.6300 
 15 C       -5.7960    -1.7990    -0.3130 C.ar  1 <1>  -0.1440 
 16 C        0.4640     6.1440    -0.0380 C.ar  1 <1>   0.1790 
 17 O       -1.4330     3.2840     1.9540 O.2   1 <1>  -0.5700 
 18 N       -0.8040     5.4050     1.8700 N.am  1 <1>  -0.5470 
 19 C       -6.4020    -2.8080    -1.0330 C.ar  1 <1>  -0.1500 
 20 C       -6.4650    -1.3690     0.8150 C.ar  1 <1>  -0.1500 
 21 C       -0.1550     6.4310     1.1950 C.ar  1 <1>   0.1170 
 22 C        1.1110     7.1700    -0.7160 C.ar  1 <1>  -0.1500 
 23 C       -7.6100    -3.3280    -0.6000 C.ar  1 <1>   0.1600 
 24 C       -7.6700    -1.9570     1.1620 C.ar  1 <1>   0.1600 
 25 C       -0.1080     7.7240     1.7090 C.ar  1 <1>  -0.1500 
 26 C        1.1520     8.4490    -0.1990 C.ar  1 <1>  -0.1500 
 27 N       -8.2580    -2.9280     0.4830 N.ar  1 <1>  -0.6200 
 28 C        0.5410     8.7260     1.0170 C.ar  1 <1>  -0.1500 
 29 H       -1.7610     0.1390     0.4560 H     1 <1>   0.3700 
 30 H       -1.7060     2.8150    -2.0290 H     1 <1>   0.0800 
 31 H       -2.3490     2.4410    -0.4580 H     1 <1>   0.0800 
 32 H       -1.6460    -1.8980    -1.7200 H     1 <1>   0.0800 
 33 H        0.5720     2.4560    -1.2850 H     1 <1>   0.0800 
 34 H        0.0470     1.8380     0.2500 H     1 <1>   0.0800 
 35 H       -3.4410    -3.0710    -0.7320 H     1 <1>   0.0800 
 36 H       -0.0960    -1.8510     0.4780 H     1 <1>   0.0800 
 37 H       -0.9040    -3.3600     0.0600 H     1 <1>   0.0800 
 38 H       -3.5980    -3.2040     1.5420 H     1 <1>   0.0800 
 39 H       -3.6010    -1.4560     1.7510 H     1 <1>   0.0800 
 40 H       -4.4510    -1.0820    -1.8090 H     1 <1>   0.0800 
 41 H       -4.3720    -0.2160    -0.3080 H     1 <1>   0.0800 
 42 H       -1.2710     5.5440     2.7650 H     1 <1>   0.3700 
 43 H       -5.9460    -3.1940    -1.9270 H     1 <1>   0.1500 
 44 H       -6.0630    -0.5840     1.4290 H     1 <1>   0.1500 
 45 H        1.5820     6.9460    -1.6570 H     1 <1>   0.1500 
 46 H       -8.0690    -4.1150    -1.1740 H     1 <1>   0.1500 
 47 H       -8.1770    -1.6090     2.0460 H     1 <1>   0.1500 
 48 H       -0.5810     7.9420     2.6500 H     1 <1>   0.1500 
 49 H        1.6580     9.2330    -0.7350 H     1 <1>   0.1500 
 50 H        0.5770     9.7260     1.4150 H     1 <1>   0.1500 
@<TRIPOS>BOND
  1   1   2  2   
  2   2   3  am  
  3   2   4  1   
  4   3   5  1   
  5   3  29  1   
  6   4   6  1   
  7   4  30  1   
  8   4  31  1   
  9   5   7  1   
 10   5   8  1   
 11   5  32  1   
 12   6   9  1   
 13   6  33  1   
 14   6  34  1   
 15   7  10  1   
 16   7  11  1   
 17   7  35  1   
 18   8  12  1   
 19   8  36  1   
 20   8  37  1   
 21   9  13  2   
 22   9  14  1   
 23  10  12  1   
 24  10  38  1   
 25  10  39  1   
 26  11  15  1   
 27  11  40  1   
 28  11  41  1   
 29  13  16  1   
 30  14  17  2   
 31  14  18  am  
 32  15  19  ar  
 33  15  20  ar  
 34  16  21  ar  
 35  16  22  ar  
 36  18  21  1   
 37  18  42  1   
 38  19  23  ar  
 39  19  43  1   
 40  20  24  ar  
 41  20  44  1   
 42  21  25  ar  
 43  22  26  ar  
 44  22  45  1   
 45  23  27  ar  
 46  23  46  1   
 47  24  27  ar  
 48  24  47  1   
 49  25  28  ar  
 50  25  48  1   
 51  26  28  ar  
 52  26  49  1   
 53  28  50  1   
@<TRIPOS>SUBSTRUCTURE
  1 ****   4 GROUP 4 **** **** 0

# MOE 2024.06 (io_trps.svl 2023.06)
