@<TRIPOS>MOLECULE
NONAME
53 55 1 0 0 
SMALL
USER_CHARGES


@<TRIPOS>ATOM
  1 S        0.8900    -1.2450    -1.0950 S.3   1 <1>  -0.0800 
  2 C       -0.7880    -1.4950    -0.7440 C.2   1 <1>   0.4420 
  3 C        0.4760     0.3790    -1.5330 C.2   1 <1>   0.1980 
  4 N       -1.4940    -0.4480    -0.9620 N.2   1 <1>  -0.3380 
  5 N       -1.1690    -2.7530    -0.3200 N.am  1 <1>  -0.4940 
  6 N       -0.7660     0.6170    -1.4120 N.2   1 <1>  -0.3380 
  7 C        1.5810     1.3070    -1.9910 C.3   1 <1>   0.0200 
  8 C       -2.3660    -3.1010     0.2530 C.2   1 <1>   0.5690 
  9 C        2.2960     1.9100    -0.7850 C.3   1 <1>   0.1200 
 10 O       -3.1200    -2.2910     0.7350 O.2   1 <1>  -0.5700 
 11 C       -2.8090    -4.5850     0.2930 C.3   1 <1>   0.4840 
 12 O        3.3630     2.7010    -1.2540 O.3   1 <1>  -0.3630 
 13 N       -4.3170    -4.7600     0.2450 N.4   1 <1>  -0.9590 
 14 C       -2.2630    -5.2550     1.5660 C.3   1 <1>  -0.1600 
 15 C        4.2050     3.3410    -0.3980 C.ar  1 <1>   0.0830 
 16 C       -4.7660    -6.1780     0.3360 C.3   1 <1>   0.3430 
 17 C       -4.9280    -4.0800    -0.9440 C.3   1 <1>   0.2630 
 18 C       -2.7020    -6.7180     1.7000 C.3   1 <1>  -0.1600 
 19 C        5.2760     4.0370    -0.9500 C.ar  1 <1>  -0.1430 
 20 C        4.0340     3.3230     0.9850 C.ar  1 <1>  -0.1500 
 21 C       -4.2280    -6.8210     1.6130 C.3   1 <1>  -0.1600 
 22 C        6.1610     4.7020    -0.1160 C.ar  1 <1>  -0.1500 
 23 C        5.4850     4.0760    -2.4570 C.3   1 <1>  -0.0970 
 24 C        4.9230     3.9880     1.8130 C.ar  1 <1>  -0.1430 
 25 C        5.9860     4.6780     1.2560 C.ar  1 <1>  -0.1500 
 26 C        4.7350     3.9690     3.3200 C.3   1 <1>  -0.0970 
 27 H       -0.4600    -3.4700    -0.4600 H     1 <1>   0.3700 
 28 H        1.1510     2.0980    -2.5780 H     1 <1>   0.0800 
 29 H        2.2800     0.7610    -2.5980 H     1 <1>   0.0800 
 30 H        2.7010     1.1370    -0.1550 H     1 <1>   0.0800 
 31 H        1.6250     2.5370    -0.2240 H     1 <1>   0.0800 
 32 H       -2.3830    -5.0800    -0.5620 H     1 <1>   0.0800 
 33 H       -4.6590    -4.2510     1.0770 H     1 <1>   0.4500 
 34 H       -2.5960    -4.7000     2.4270 H     1 <1>   0.0800 
 35 H       -1.1880    -5.2130     1.5590 H     1 <1>   0.0800 
 36 H       -4.4090    -6.7290    -0.5200 H     1 <1>   0.0800 
 37 H       -5.8440    -6.2240     0.3400 H     1 <1>   0.0800 
 38 H       -4.5660    -4.5180    -1.8590 H     1 <1>   0.0800 
 39 H       -4.6870    -3.0280    -0.9430 H     1 <1>   0.0800 
 40 H       -6.0020    -4.1760    -0.9170 H     1 <1>   0.0800 
 41 H       -2.3650    -7.1150     2.6440 H     1 <1>   0.0800 
 42 H       -2.2530    -7.3090     0.9180 H     1 <1>   0.0800 
 43 H        3.2140     2.8000     1.4350 H     1 <1>   0.1500 
 44 H       -4.5160    -7.8580     1.6310 H     1 <1>   0.0800 
 45 H       -4.6800    -6.3490     2.4690 H     1 <1>   0.0800 
 46 H        6.9930     5.2440    -0.5300 H     1 <1>   0.1500 
 47 H        4.6260     4.5150    -2.9310 H     1 <1>   0.0800 
 48 H        5.6140     3.0760    -2.8310 H     1 <1>   0.0800 
 49 H        6.3540     4.6540    -2.7150 H     1 <1>   0.0800 
 50 H        6.6820     5.2010     1.8880 H     1 <1>   0.1500 
 51 H        4.2100     3.0810     3.6250 H     1 <1>   0.0800 
 52 H        4.1700     4.8300     3.6260 H     1 <1>   0.0800 
 53 H        5.6890     3.9840     3.8160 H     1 <1>   0.0800 
@<TRIPOS>BOND
  1   1   2  1   
  2   1   3  1   
  3   2   4  2   
  4   2   5  1   
  5   3   6  2   
  6   3   7  1   
  7   4   6  1   
  8   5   8  am  
  9   5  27  1   
 10   7   9  1   
 11   7  28  1   
 12   7  29  1   
 13   8  10  2   
 14   8  11  1   
 15   9  12  1   
 16   9  30  1   
 17   9  31  1   
 18  11  13  1   
 19  11  14  1   
 20  11  32  1   
 21  12  15  1   
 22  13  16  1   
 23  13  17  1   
 24  13  33  1   
 25  14  18  1   
 26  14  34  1   
 27  14  35  1   
 28  15  19  ar  
 29  15  20  ar  
 30  16  21  1   
 31  16  36  1   
 32  16  37  1   
 33  17  38  1   
 34  17  39  1   
 35  17  40  1   
 36  18  21  1   
 37  18  41  1   
 38  18  42  1   
 39  19  22  ar  
 40  19  23  1   
 41  20  24  ar  
 42  20  43  1   
 43  21  44  1   
 44  21  45  1   
 45  22  25  ar  
 46  22  46  1   
 47  23  47  1   
 48  23  48  1   
 49  23  49  1   
 50  24  25  ar  
 51  24  26  1   
 52  25  50  1   
 53  26  51  1   
 54  26  52  1   
 55  26  53  1   
@<TRIPOS>SUBSTRUCTURE
  1 ****   1 GROUP 4 **** **** 0

# MOE 2024.06 (io_trps.svl 2023.06)
