@<TRIPOS>MOLECULE
NONAME
58 60 1 0 0 
SMALL
USER_CHARGES


@<TRIPOS>ATOM
  1 O        0.2040     0.1320    -0.1740 O.3   1 <1>  -0.5600 
  2 C        1.4610    -0.4780    -0.2770 C.3   1 <1>   0.3440 
  3 C        0.1170     1.4350    -0.6880 C.3   1 <1>   0.2000 
  4 C        1.4020    -1.8780     0.3160 C.ar  1 <1>  -0.1440 
  5 C        2.5100     0.3580     0.4910 C.3   1 <1>   0.3430 
  6 C       -1.3600     1.9180    -0.6300 C.3   1 <1>   0.0000 
  7 C        1.0870     2.3520     0.0930 C.3   1 <1>   0.3430 
  8 C        0.6240    -2.1530     1.4330 C.ar  1 <1>  -0.1500 
  9 C        2.1520    -2.8990    -0.2530 C.ar  1 <1>  -0.1500 
 10 N        2.4970     1.8180     0.1110 N.4   1 <1>  -0.9590 
 11 C       -1.4900     3.3340    -1.2210 C.3   1 <1>  -0.2400 
 12 C       -2.2440     0.9770    -1.4690 C.3   1 <1>  -0.2400 
 13 C       -1.9060     1.9390     0.8110 C.3   1 <1>  -0.2400 
 14 C        0.6040    -3.4240     1.9790 C.ar  1 <1>  -0.1500 
 15 C        2.1320    -4.1700     0.2930 C.ar  1 <1>  -0.1500 
 16 C        3.3680     2.6380     0.9930 C.3   1 <1>   0.5240 
 17 C        1.3600    -4.4330     1.4100 C.ar  1 <1>  -0.1500 
 18 C        3.3920     4.0400     0.4330 C.2   1 <1>  -0.1810 
 19 C        4.0950     4.4830    -0.6840 C.2   1 <1>   0.1080 
 20 C        2.7330     5.1340     0.8780 C.2   1 <1>  -0.3020 
 21 N        3.8720     5.7320    -0.9240 N.2   1 <1>  -0.7070 
 22 C        5.0280     3.6830    -1.5680 C.3   1 <1>  -0.0590 
 23 N        3.0400     6.1470     0.0450 N.pl3 1 <1>   0.3140 
 24 C        2.5810     7.5440     0.1230 C.3   1 <1>   0.0960 
 25 C        3.7170     8.4310     0.6270 C.3   1 <1>   0.1200 
 26 O        3.2560     9.7350     0.7340 O.3   1 <1>  -0.6800 
 27 H        1.7160    -0.5410    -1.3210 H     1 <1>   0.0800 
 28 H        0.4160     1.4020    -1.7220 H     1 <1>   0.0800 
 29 H        3.4850    -0.0650     0.3180 H     1 <1>   0.0800 
 30 H        2.2930     0.2550     1.5410 H     1 <1>   0.0800 
 31 H        0.7230     2.4460     1.1020 H     1 <1>   0.0800 
 32 H        1.0760     3.3340    -0.3520 H     1 <1>   0.0800 
 33 H        0.0210    -1.3830     1.8830 H     1 <1>   0.1500 
 34 H        2.7560    -2.7220    -1.1250 H     1 <1>   0.1500 
 35 H        2.8660     1.9290    -0.8420 H     1 <1>   0.4500 
 36 H       -2.5250     3.6290    -1.2550 H     1 <1>   0.0800 
 37 H       -1.1070     3.3650    -2.2270 H     1 <1>   0.0800 
 38 H       -0.9670     4.0640    -0.6300 H     1 <1>   0.0800 
 39 H       -3.2670     1.3110    -1.4680 H     1 <1>   0.0800 
 40 H       -2.2230    -0.0220    -1.0700 H     1 <1>   0.0800 
 41 H       -1.9040     0.9390    -2.4890 H     1 <1>   0.0800 
 42 H       -2.9450     2.2210     0.8110 H     1 <1>   0.0800 
 43 H       -1.3770     2.6390     1.4290 H     1 <1>   0.0800 
 44 H       -1.8330     0.9620     1.2570 H     1 <1>   0.0800 
 45 H       -0.0030    -3.6310     2.8430 H     1 <1>   0.1500 
 46 H        2.7140    -4.9600    -0.1510 H     1 <1>   0.1500 
 47 H        2.9760     2.6520     1.9970 H     1 <1>   0.0800 
 48 H        4.3690     2.2390     1.0170 H     1 <1>   0.0800 
 49 H        1.3430    -5.4230     1.8340 H     1 <1>   0.1500 
 50 H        2.0770     5.2620     1.7210 H     1 <1>   0.1500 
 51 H        5.3460     2.7770    -1.0900 H     1 <1>   0.0800 
 52 H        5.8990     4.2760    -1.7860 H     1 <1>   0.0800 
 53 H        4.5390     3.4520    -2.4970 H     1 <1>   0.0800 
 54 H        2.2780     7.8530    -0.8590 H     1 <1>   0.0800 
 55 H        1.7450     7.6000     0.7960 H     1 <1>   0.0800 
 56 H        4.5550     8.4180    -0.0510 H     1 <1>   0.0800 
 57 H        4.0360     8.1170     1.6050 H     1 <1>   0.0800 
 58 H        3.2280    10.1710    -0.1420 H     1 <1>   0.4000 
@<TRIPOS>BOND
  1   1   2  1   
  2   1   3  1   
  3   2   4  1   
  4   2   5  1   
  5   2  27  1   
  6   3   6  1   
  7   3   7  1   
  8   3  28  1   
  9   4   8  ar  
 10   4   9  ar  
 11   5  10  1   
 12   5  29  1   
 13   5  30  1   
 14   6  11  1   
 15   6  12  1   
 16   6  13  1   
 17   7  10  1   
 18   7  31  1   
 19   7  32  1   
 20   8  14  ar  
 21   8  33  1   
 22   9  15  ar  
 23   9  34  1   
 24  10  16  1   
 25  10  35  1   
 26  11  36  1   
 27  11  37  1   
 28  11  38  1   
 29  12  39  1   
 30  12  40  1   
 31  12  41  1   
 32  13  42  1   
 33  13  43  1   
 34  13  44  1   
 35  14  17  ar  
 36  14  45  1   
 37  15  17  ar  
 38  15  46  1   
 39  16  18  1   
 40  16  47  1   
 41  16  48  1   
 42  17  49  1   
 43  18  19  1   
 44  18  20  2   
 45  19  21  2   
 46  19  22  1   
 47  20  23  1   
 48  20  50  1   
 49  21  23  1   
 50  22  51  1   
 51  22  52  1   
 52  22  53  1   
 53  23  24  1   
 54  24  25  1   
 55  24  54  1   
 56  24  55  1   
 57  25  26  1   
 58  25  56  1   
 59  25  57  1   
 60  26  58  1   
@<TRIPOS>SUBSTRUCTURE
  1 ****   7 GROUP 4 **** **** 0

# MOE 2024.06 (io_trps.svl 2023.06)
