@<TRIPOS>MOLECULE
NONAME
54 57 1 0 0 
SMALL
USER_CHARGES


@<TRIPOS>ATOM
  1 O       -0.0200     1.4950    -0.4910 O.2   1 <1>  -0.5700 
  2 C       -0.3080     2.6650    -0.3960 C.2   1 <1>   0.5690 
  3 N       -1.3690     3.1330     0.3380 N.am  1 <1>  -0.6600 
  4 C        0.5590     3.6670    -1.1520 C.3   1 <1>   0.1810 
  5 C       -1.6790     4.6040     0.3780 C.3   1 <1>   0.3640 
  6 C       -2.2330     2.2920     1.2130 C.3   1 <1>   0.2200 
  7 O        0.6360     4.8950    -0.4800 O.3   1 <1>  -0.5600 
  8 C       -3.0460     4.8450    -0.2680 C.ar  1 <1>  -0.1440 
  9 C       -0.6190     5.5290    -0.2840 C.3   1 <1>   0.2610 
 10 C       -1.4050     1.6930     2.3490 C.3   1 <1>  -0.2400 
 11 C       -2.9630     1.2150     0.4090 C.3   1 <1>  -0.2400 
 12 C       -3.3790     4.2680    -1.4880 C.ar  1 <1>  -0.1500 
 13 C       -3.9750     5.6610     0.3620 C.ar  1 <1>  -0.1500 
 14 C       -0.4510     6.7960     0.5630 C.2   1 <1>   0.5690 
 15 C       -4.6170     4.4980    -2.0620 C.ar  1 <1>  -0.1500 
 16 C       -5.2130     5.8920    -0.2100 C.ar  1 <1>  -0.1500 
 17 O       -1.4090     7.4950     0.7960 O.2   1 <1>  -0.5700 
 18 N        0.7720     7.1130     1.0520 N.am  1 <1>  -0.7300 
 19 C       -5.5360     5.3100    -1.4230 C.ar  1 <1>  -0.1500 
 20 C        1.1360     8.3450     1.7750 C.3   1 <1>   0.3210 
 21 C        2.5400     8.7640     1.3600 C.2   1 <1>   0.1080 
 22 N        3.5590     7.9540     1.3600 N.2   1 <1>  -0.7070 
 23 C        2.8880    10.0410     0.9310 C.2   1 <1>  -0.1500 
 24 N        4.5890     8.7070     0.9270 N.pl3 1 <1>   0.3000 
 25 C        4.2080     9.9730     0.6610 C.2   1 <1>  -0.2370 
 26 C        5.1580    11.0400     0.1600 C.3   1 <1>  -0.0150 
 27 C        4.6670    12.1150    -0.7560 C.3   1 <1>  -0.2000 
 28 C        5.5730    11.0380    -1.2750 C.3   1 <1>  -0.2000 
 29 H        0.1610     3.8310    -2.1360 H     1 <1>   0.0800 
 30 H        1.5580     3.2790    -1.2370 H     1 <1>   0.0800 
 31 H       -1.7450     4.8820     1.4160 H     1 <1>   0.0800 
 32 H       -2.9870     2.9200     1.6580 H     1 <1>   0.0800 
 33 H       -0.9720     5.8340    -1.2530 H     1 <1>   0.0800 
 34 H       -0.6780     0.9990     1.9690 H     1 <1>   0.0800 
 35 H       -2.0480     1.1660     3.0300 H     1 <1>   0.0800 
 36 H       -0.9010     2.4720     2.8910 H     1 <1>   0.0800 
 37 H       -2.2750     0.4970     0.0020 H     1 <1>   0.0800 
 38 H       -3.5240     1.6640    -0.3900 H     1 <1>   0.0800 
 39 H       -3.6500     0.6920     1.0480 H     1 <1>   0.0800 
 40 H       -2.6780     3.6290    -1.9960 H     1 <1>   0.1500 
 41 H       -3.7380     6.1320     1.3020 H     1 <1>   0.1500 
 42 H       -4.8660     4.0440    -3.0050 H     1 <1>   0.1500 
 43 H       -5.9250     6.5280     0.2870 H     1 <1>   0.1500 
 44 H        1.5850     6.5390     0.7960 H     1 <1>   0.3700 
 45 H       -6.4990     5.4900    -1.8680 H     1 <1>   0.1500 
 46 H        0.4310     9.1260     1.5520 H     1 <1>   0.0800 
 47 H        1.1220     8.1510     2.8330 H     1 <1>   0.0800 
 48 H        2.2290    10.8860     0.8410 H     1 <1>   0.1500 
 49 H        5.5390     8.3340     0.8170 H     1 <1>   0.2700 
 50 H        5.8940    11.3230     0.8940 H     1 <1>   0.1000 
 51 H        3.6360    12.1080    -1.0630 H     1 <1>   0.1000 
 52 H        5.0570    13.1100    -0.6360 H     1 <1>   0.1000 
 53 H        6.5900    11.2910    -1.5220 H     1 <1>   0.1000 
 54 H        5.1580    10.2960    -1.9360 H     1 <1>   0.1000 
@<TRIPOS>BOND
  1   1   2  2   
  2   2   3  am  
  3   2   4  1   
  4   3   5  1   
  5   3   6  1   
  6   4   7  1   
  7   4  29  1   
  8   4  30  1   
  9   5   8  1   
 10   5   9  1   
 11   5  31  1   
 12   6  10  1   
 13   6  11  1   
 14   6  32  1   
 15   7   9  1   
 16   8  12  ar  
 17   8  13  ar  
 18   9  14  1   
 19   9  33  1   
 20  10  34  1   
 21  10  35  1   
 22  10  36  1   
 23  11  37  1   
 24  11  38  1   
 25  11  39  1   
 26  12  15  ar  
 27  12  40  1   
 28  13  16  ar  
 29  13  41  1   
 30  14  17  2   
 31  14  18  am  
 32  15  19  ar  
 33  15  42  1   
 34  16  19  ar  
 35  16  43  1   
 36  18  20  1   
 37  18  44  1   
 38  19  45  1   
 39  20  21  1   
 40  20  46  1   
 41  20  47  1   
 42  21  22  2   
 43  21  23  1   
 44  22  24  1   
 45  23  25  2   
 46  23  48  1   
 47  24  25  1   
 48  24  49  1   
 49  25  26  1   
 50  26  27  1   
 51  26  28  1   
 52  26  50  1   
 53  27  28  1   
 54  27  51  1   
 55  27  52  1   
 56  28  53  1   
 57  28  54  1   
@<TRIPOS>SUBSTRUCTURE
  1 ****  14 GROUP 4 **** **** 0

# MOE 2024.06 (io_trps.svl 2023.06)
