@<TRIPOS>MOLECULE
NONAME
53 56 1 0 0 
SMALL
USER_CHARGES


@<TRIPOS>ATOM
  1 S       -0.2710     0.4030    -0.4060 S.3   1 <1>  -0.2860 
  2 C        1.3130     1.1110     0.0230 C.2   1 <1>   0.5340 
  3 C       -0.1160    -1.3600     0.1220 C.3   1 <1>   0.0700 
  4 O        1.4990     2.3650    -0.2390 O.3   1 <1>  -0.2800 
  5 N        2.2770     0.4840     0.5670 N.2   1 <1>  -0.3380 
  6 C       -1.4400    -2.0630    -0.1880 C.3   1 <1>  -0.0990 
  7 C        2.7290     2.4880     0.2090 C.2   1 <1>   0.4250 
  8 N        3.2180     1.3920     0.6920 N.2   1 <1>  -0.3380 
  9 C       -1.4350    -3.5300     0.2050 C.2   1 <1>   0.5690 
 10 C        3.3970     3.7670     0.1280 C.ar  1 <1>   0.0530 
 11 O       -0.4220    -4.0180     0.6480 O.2   1 <1>  -0.5700 
 12 N       -2.5710    -4.2690     0.0430 N.am  1 <1>  -0.6600 
 13 C        4.6960     3.9580     0.5840 C.ar  1 <1>  -0.1500 
 14 C        2.8020     4.9030    -0.4080 C.ar  1 <1>  -0.1500 
 15 C       -3.8570    -3.8170    -0.5460 C.3   1 <1>   0.1400 
 16 C       -2.6700    -5.6870     0.4490 C.3   1 <1>   0.1400 
 17 C        5.2990     5.1970     0.4880 C.ar  1 <1>   0.1600 
 18 C        3.4910     6.0990    -0.4590 C.ar  1 <1>   0.1600 
 19 C       -4.8190    -5.0060    -0.4030 C.3   1 <1>   0.2000 
 20 C       -3.8920    -6.2220    -0.2990 C.3   1 <1>  -0.0800 
 21 N        4.7270     6.2740    -0.0230 N.ar  1 <1>  -0.6200 
 22 O       -5.5420    -4.8870     0.7900 O.3   1 <1>  -0.5600 
 23 C       -4.5270    -7.4580     0.3630 C.3   1 <1>   0.0200 
 24 C       -6.7150    -4.1410     0.7050 C.3   1 <1>   0.0400 
 25 C       -3.6490    -8.6960     0.2900 C.2   1 <1>  -0.0400 
 26 O       -4.0540    -9.7880     0.8830 O.3   1 <1>  -0.0190 
 27 C       -2.4650    -8.9620    -0.2860 C.2   1 <1>  -0.1500 
 28 N       -3.2070   -10.7660     0.7370 N.2   1 <1>  -0.4100 
 29 C       -2.2380   -10.2960     0.0380 C.2   1 <1>   0.1080 
 30 C       -1.0200   -11.0930    -0.3730 C.3   1 <1>  -0.0590 
 31 H        0.7040    -1.7950    -0.4240 H     1 <1>   0.0800 
 32 H        0.1010    -1.3690     1.1770 H     1 <1>   0.0800 
 33 H       -2.2290    -1.5690     0.3490 H     1 <1>   0.0800 
 34 H       -1.6370    -1.9930    -1.2410 H     1 <1>   0.0800 
 35 H        5.2390     3.1370     1.0160 H     1 <1>   0.1500 
 36 H        1.7970     4.8590    -0.7890 H     1 <1>   0.1500 
 37 H       -4.2300    -2.9450    -0.0400 H     1 <1>   0.0800 
 38 H       -3.7030    -3.5980    -1.5880 H     1 <1>   0.0800 
 39 H       -1.7700    -6.2220     0.2000 H     1 <1>   0.0800 
 40 H       -2.8280    -5.7300     1.5140 H     1 <1>   0.0800 
 41 H        6.3070     5.3120     0.8510 H     1 <1>   0.1500 
 42 H        3.0010     6.9620    -0.8800 H     1 <1>   0.1500 
 43 H       -5.5050    -5.0920    -1.2290 H     1 <1>   0.0800 
 44 H       -3.5810    -6.4820    -1.2950 H     1 <1>   0.0800 
 45 H       -5.4620    -7.6790    -0.1210 H     1 <1>   0.0800 
 46 H       -4.7390    -7.2500     1.3970 H     1 <1>   0.0800 
 47 H       -7.1620    -4.1110     1.6830 H     1 <1>   0.0800 
 48 H       -7.3900    -4.6180     0.0150 H     1 <1>   0.0800 
 49 H       -6.4860    -3.1400     0.3830 H     1 <1>   0.0800 
 50 H       -1.8130    -8.3360    -0.8660 H     1 <1>   0.1500 
 51 H       -0.9500   -11.1270    -1.4440 H     1 <1>   0.0800 
 52 H       -1.0940   -12.0970     0.0040 H     1 <1>   0.0800 
 53 H       -0.1340   -10.6350     0.0280 H     1 <1>   0.0800 
@<TRIPOS>BOND
  1   1   2  1   
  2   1   3  1   
  3   2   4  1   
  4   2   5  2   
  5   3   6  1   
  6   3  31  1   
  7   3  32  1   
  8   4   7  1   
  9   5   8  1   
 10   6   9  1   
 11   6  33  1   
 12   6  34  1   
 13   7   8  2   
 14   7  10  1   
 15   9  11  2   
 16   9  12  am  
 17  10  13  ar  
 18  10  14  ar  
 19  12  15  1   
 20  12  16  1   
 21  13  17  ar  
 22  13  35  1   
 23  14  18  ar  
 24  14  36  1   
 25  15  19  1   
 26  15  37  1   
 27  15  38  1   
 28  16  20  1   
 29  16  39  1   
 30  16  40  1   
 31  17  21  ar  
 32  17  41  1   
 33  18  21  ar  
 34  18  42  1   
 35  19  20  1   
 36  19  22  1   
 37  19  43  1   
 38  20  23  1   
 39  20  44  1   
 40  22  24  1   
 41  23  25  1   
 42  23  45  1   
 43  23  46  1   
 44  24  47  1   
 45  24  48  1   
 46  24  49  1   
 47  25  26  1   
 48  25  27  2   
 49  26  28  1   
 50  27  29  1   
 51  27  50  1   
 52  28  29  2   
 53  29  30  1   
 54  30  51  1   
 55  30  52  1   
 56  30  53  1   
@<TRIPOS>SUBSTRUCTURE
  1 ****   6 GROUP 4 **** **** 0

# MOE 2024.06 (io_trps.svl 2023.06)
