@<TRIPOS>MOLECULE
NONAME
52 55 1 0 0 
SMALL
USER_CHARGES


@<TRIPOS>ATOM
  1 F       -6.7500    -2.1840    -1.7340 F     1 <1>  -0.1900 
  2 C       -5.6250    -2.3060    -1.0820 C.ar  1 <1>   0.1900 
  3 C       -5.0940    -3.5680    -0.8940 C.ar  1 <1>  -0.1500 
  4 C       -5.0090    -1.1650    -0.6040 C.ar  1 <1>  -0.1500 
  5 C       -3.8980    -3.6950    -0.2020 C.ar  1 <1>  -0.1440 
  6 C       -3.8170    -1.2980     0.0870 C.ar  1 <1>  -0.1500 
  7 C       -3.2680    -2.5560     0.2860 C.ar  1 <1>  -0.1500 
  8 C       -3.2950    -5.0700     0.0250 C.3   1 <1>   0.2840 
  9 N       -4.0910    -5.7420     1.0570 N.am  1 <1>  -0.7300 
 10 C       -4.3920    -7.0560     1.0450 C.2   1 <1>   0.6900 
 11 O       -3.7430    -7.8220     0.3560 O.2   1 <1>  -0.5700 
 12 N       -5.4500    -7.4950     1.7900 N.am  1 <1>  -0.6600 
 13 C       -6.6940    -6.7100     1.9330 C.3   1 <1>   0.1400 
 14 C       -5.8040    -8.9260     1.8770 C.3   1 <1>   0.1400 
 15 C       -7.7840    -7.6010     1.3250 C.3   1 <1>  -0.0800 
 16 C       -7.1730    -9.0210     1.2000 C.3   1 <1>  -0.0800 
 17 C       -8.3790    -7.0170     0.0180 C.3   1 <1>   0.4240 
 18 C       -7.0250    -9.5260    -0.2490 C.3   1 <1>  -0.1600 
 19 O       -7.3380    -6.6290    -0.8090 O.3   1 <1>  -0.6800 
 20 C       -9.2780    -5.7970     0.3180 C.ar  1 <1>  -0.1430 
 21 C       -9.1450    -8.1160    -0.7360 C.3   1 <1>  -0.1600 
 22 C       -8.3080    -9.3670    -1.0830 C.3   1 <1>  -0.1600 
 23 C       -8.9660    -4.5150    -0.1270 C.ar  1 <1>  -0.1500 
 24 C      -10.4430    -5.9570     1.0640 C.ar  1 <1>  -0.1500 
 25 C       -9.7810    -3.4350     0.1650 C.ar  1 <1>  -0.1500 
 26 C      -11.2610    -4.8800     1.3580 C.ar  1 <1>  -0.1500 
 27 C      -10.9310    -3.6150     0.9090 C.ar  1 <1>  -0.1500 
 28 H       -5.6100    -4.4310    -1.2800 H     1 <1>   0.1500 
 29 H       -5.4540    -0.2010    -0.7720 H     1 <1>   0.1500 
 30 H       -3.3170    -0.4250     0.4710 H     1 <1>   0.1500 
 31 H       -2.3420    -2.6450     0.8290 H     1 <1>   0.1500 
 32 H       -2.2740    -4.9920     0.3570 H     1 <1>   0.0800 
 33 H       -3.3160    -5.6400    -0.8890 H     1 <1>   0.0800 
 34 H       -4.6770    -5.1280     1.6150 H     1 <1>   0.3700 
 35 H       -6.8870    -6.5470     2.9790 H     1 <1>   0.0800 
 36 H       -6.6320    -5.7560     1.4380 H     1 <1>   0.0800 
 37 H       -5.0690    -9.5560     1.4040 H     1 <1>   0.0800 
 38 H       -5.8790    -9.1990     2.9150 H     1 <1>   0.0800 
 39 H       -8.5790    -7.6620     2.0440 H     1 <1>   0.0800 
 40 H       -7.7830    -9.7280     1.7360 H     1 <1>   0.0800 
 41 H       -6.2230    -8.9920    -0.7310 H     1 <1>   0.0800 
 42 H       -6.7340   -10.5620    -0.2410 H     1 <1>   0.0800 
 43 H       -6.6900    -7.3590    -0.8290 H     1 <1>   0.4000 
 44 H       -9.9670    -8.4340    -0.1220 H     1 <1>   0.0800 
 45 H       -9.5720    -7.6980    -1.6310 H     1 <1>   0.0800 
 46 H       -8.9270   -10.2390    -0.9520 H     1 <1>   0.0800 
 47 H       -8.0330    -9.3300    -2.1240 H     1 <1>   0.0800 
 48 H       -8.0830    -4.3350    -0.7130 H     1 <1>   0.1500 
 49 H      -10.7300    -6.9260     1.4290 H     1 <1>   0.1500 
 50 H       -9.5150    -2.4550    -0.1930 H     1 <1>   0.1500 
 51 H      -12.1570    -5.0250     1.9360 H     1 <1>   0.1500 
 52 H      -11.5650    -2.7760     1.1350 H     1 <1>   0.1500 
@<TRIPOS>BOND
  1   1   2  1   
  2   2   3  ar  
  3   2   4  ar  
  4   3   5  ar  
  5   3  28  1   
  6   4   6  ar  
  7   4  29  1   
  8   5   7  ar  
  9   5   8  1   
 10   6   7  ar  
 11   6  30  1   
 12   7  31  1   
 13   8   9  1   
 14   8  32  1   
 15   8  33  1   
 16   9  10  am  
 17   9  34  1   
 18  10  11  2   
 19  10  12  am  
 20  12  13  1   
 21  12  14  1   
 22  13  15  1   
 23  13  35  1   
 24  13  36  1   
 25  14  16  1   
 26  14  37  1   
 27  14  38  1   
 28  15  16  1   
 29  15  17  1   
 30  15  39  1   
 31  16  18  1   
 32  16  40  1   
 33  17  19  1   
 34  17  20  1   
 35  17  21  1   
 36  18  22  1   
 37  18  41  1   
 38  18  42  1   
 39  19  43  1   
 40  20  23  ar  
 41  20  24  ar  
 42  21  22  1   
 43  21  44  1   
 44  21  45  1   
 45  22  46  1   
 46  22  47  1   
 47  23  25  ar  
 48  23  48  1   
 49  24  26  ar  
 50  24  49  1   
 51  25  27  ar  
 52  25  50  1   
 53  26  27  ar  
 54  26  51  1   
 55  27  52  1   
@<TRIPOS>SUBSTRUCTURE
  1 ****  19 GROUP 4 **** **** 0

# MOE 2024.06 (io_trps.svl 2023.06)
