@<TRIPOS>MOLECULE
NONAME
49 51 1 0 0 
SMALL
USER_CHARGES


@<TRIPOS>ATOM
  1 F        3.4780     2.9840    -1.4340 F     1 <1>  -0.1900 
  2 C        2.7980     1.8820    -1.2570 C.ar  1 <1>   0.1900 
  3 C        3.4830     0.6790    -1.1030 C.ar  1 <1>   0.0860 
  4 C        1.4210     1.9810    -1.2140 C.ar  1 <1>  -0.1500 
  5 C        2.7100    -0.4700    -0.8970 C.ar  1 <1>  -0.1440 
  6 C        4.9270     0.6470    -1.1530 C.2   1 <1>   0.5440 
  7 C        0.6800     0.8340    -1.0070 C.ar  1 <1>  -0.1500 
  8 C        1.3260    -0.3830    -0.8490 C.ar  1 <1>  -0.1500 
  9 C        3.3790    -1.8290    -0.7320 C.3   1 <1>  -0.0960 
 10 O        5.4910     0.4420    -2.2120 O.2   1 <1>  -0.5700 
 11 N        5.7140     0.8700    -0.0390 N.am  1 <1>  -0.6600 
 12 C        7.1910     0.7010    -0.1320 C.3   1 <1>   0.1400 
 13 C        5.2140     1.5000     1.2080 C.3   1 <1>   0.1400 
 14 C        7.8070     1.8630    -0.9320 C.3   1 <1>   0.3430 
 15 C        5.8940     2.8570     1.4370 C.3   1 <1>  -0.1600 
 16 N        7.6800     3.2230    -0.2860 N.4   1 <1>  -0.9590 
 17 C        6.2900     3.5870     0.1470 C.3   1 <1>   0.3430 
 18 C        8.2110     4.2470    -1.2270 C.3   1 <1>   0.4860 
 19 C        8.3530     5.5760    -0.5050 C.ar  1 <1>  -0.1430 
 20 C        9.3640     5.7730     0.4260 C.ar  1 <1>  -0.1500 
 21 C        7.4720     6.6140    -0.7730 C.ar  1 <1>  -0.1500 
 22 C        9.4800     6.9850     1.0830 C.ar  1 <1>  -0.1500 
 23 C        7.5950     7.8230    -0.1130 C.ar  1 <1>  -0.1500 
 24 C        8.5990     8.0290     0.8270 C.ar  1 <1>   0.0730 
 25 C        8.7220     9.2860     1.5110 C.1   1 <1>   0.4840 
 26 N        8.8160    10.2810     2.0580 N.1   1 <1>  -0.5570 
 27 H        0.9390     2.9350    -1.3410 H     1 <1>   0.1500 
 28 H       -0.3950     0.8820    -0.9690 H     1 <1>   0.1500 
 29 H        0.7330    -1.2680    -0.6920 H     1 <1>   0.1500 
 30 H        4.0210    -1.8250     0.1310 H     1 <1>   0.0800 
 31 H        3.9690    -2.0560    -1.6020 H     1 <1>   0.0800 
 32 H        2.6490    -2.6090    -0.6080 H     1 <1>   0.0800 
 33 H        7.3990    -0.2210    -0.6490 H     1 <1>   0.0800 
 34 H        7.6320     0.6320     0.8470 H     1 <1>   0.0800 
 35 H        5.3990     0.8450     2.0430 H     1 <1>   0.0800 
 36 H        4.1490     1.6460     1.1480 H     1 <1>   0.0800 
 37 H        7.3300     1.8790    -1.8990 H     1 <1>   0.0800 
 38 H        8.8490     1.6440    -1.0940 H     1 <1>   0.0800 
 39 H        6.7470     2.7410     2.0810 H     1 <1>   0.0800 
 40 H        5.1930     3.4750     1.9700 H     1 <1>   0.0800 
 41 H        8.2710     3.2550     0.5520 H     1 <1>   0.4500 
 42 H        6.2450     4.6460     0.3450 H     1 <1>   0.0800 
 43 H        5.5850     3.3690    -0.6390 H     1 <1>   0.0800 
 44 H        7.5460     4.3540    -2.0700 H     1 <1>   0.0800 
 45 H        9.1780     3.9440    -1.5970 H     1 <1>   0.0800 
 46 H       10.0750     4.9940     0.6470 H     1 <1>   0.1500 
 47 H        6.6840     6.4960    -1.5000 H     1 <1>   0.1500 
 48 H       10.2700     7.1280     1.8040 H     1 <1>   0.1500 
 49 H        6.9050     8.6220    -0.3310 H     1 <1>   0.1500 
@<TRIPOS>BOND
  1   1   2  1   
  2   2   3  ar  
  3   2   4  ar  
  4   3   5  ar  
  5   3   6  1   
  6   4   7  ar  
  7   4  27  1   
  8   5   8  ar  
  9   5   9  1   
 10   6  10  2   
 11   6  11  am  
 12   7   8  ar  
 13   7  28  1   
 14   8  29  1   
 15   9  30  1   
 16   9  31  1   
 17   9  32  1   
 18  11  12  1   
 19  11  13  1   
 20  12  14  1   
 21  12  33  1   
 22  12  34  1   
 23  13  15  1   
 24  13  35  1   
 25  13  36  1   
 26  14  16  1   
 27  14  37  1   
 28  14  38  1   
 29  15  17  1   
 30  15  39  1   
 31  15  40  1   
 32  16  17  1   
 33  16  18  1   
 34  16  41  1   
 35  17  42  1   
 36  17  43  1   
 37  18  19  1   
 38  18  44  1   
 39  18  45  1   
 40  19  20  ar  
 41  19  21  ar  
 42  20  22  ar  
 43  20  46  1   
 44  21  23  ar  
 45  21  47  1   
 46  22  24  ar  
 47  22  48  1   
 48  23  24  ar  
 49  23  49  1   
 50  24  25  1   
 51  25  26  3   
@<TRIPOS>SUBSTRUCTURE
  1 ****  17 GROUP 4 **** **** 0

# MOE 2024.06 (io_trps.svl 2023.06)
