@<TRIPOS>MOLECULE
NONAME
45 47 1 0 0 
SMALL
USER_CHARGES


@<TRIPOS>ATOM
  1 CL      -0.2230    -1.8590    -0.7680 Cl    1 <1>  -0.1770 
  2 C       -1.8500    -1.8730    -0.1430 C.ar  1 <1>   0.1770 
  3 C       -2.7250    -2.8590    -0.5560 C.ar  1 <1>  -0.1500 
  4 C       -2.2400    -0.8950     0.7560 C.ar  1 <1>  -0.1500 
  5 C       -4.0060    -2.8340    -0.0420 C.ar  1 <1>   0.1900 
  6 C       -3.5330    -0.8920     1.2600 C.ar  1 <1>  -0.1500 
  7 F       -4.8490    -3.7530    -0.4330 F     1 <1>  -0.1900 
  8 C       -4.4360    -1.8710     0.8610 C.ar  1 <1>  -0.1440 
  9 C       -5.8560    -1.8990     1.3960 C.3   1 <1>   0.4870 
 10 N       -6.8080    -1.6620     0.2810 N.4   1 <1>  -0.9590 
 11 C       -8.2160    -1.9250     0.7140 C.3   1 <1>   0.3430 
 12 C       -6.6610    -0.3050    -0.3180 C.3   1 <1>   0.3430 
 13 C       -9.1990    -1.8350    -0.4730 C.3   1 <1>   0.0000 
 14 C       -7.5850    -0.1720    -1.5310 C.3   1 <1>  -0.1600 
 15 C      -10.6300    -2.0600     0.0390 C.3   1 <1>   0.2000 
 16 C       -9.0500    -0.4660    -1.1690 C.3   1 <1>  -0.1600 
 17 C       -9.0010    -3.0150    -1.4400 C.3   1 <1>  -0.1600 
 18 O      -10.7710    -1.5030     1.3110 O.3   1 <1>  -0.5600 
 19 C      -10.8330    -3.5800     0.0790 C.3   1 <1>  -0.1600 
 20 C       -9.7180    -4.1940    -0.7800 C.3   1 <1>  -0.1600 
 21 C      -12.0920    -1.3390     1.7320 C.3   1 <1>   0.0400 
 22 H       -2.4140    -3.6160    -1.2540 H     1 <1>   0.1500 
 23 H       -1.5290    -0.1440     1.0570 H     1 <1>   0.1500 
 24 H       -3.8170    -0.1260     1.9640 H     1 <1>   0.1500 
 25 H       -5.9810    -1.1460     2.1570 H     1 <1>   0.0800 
 26 H       -6.0440    -2.8640     1.8390 H     1 <1>   0.0800 
 27 H       -6.5780    -2.3510    -0.4480 H     1 <1>   0.4500 
 28 H       -8.2950    -2.9040     1.1580 H     1 <1>   0.0800 
 29 H       -8.5040    -1.2010     1.4580 H     1 <1>   0.0800 
 30 H       -6.9200     0.4460     0.4120 H     1 <1>   0.0800 
 31 H       -5.6400    -0.1420    -0.6270 H     1 <1>   0.0800 
 32 H       -7.5110     0.8300    -1.9170 H     1 <1>   0.0800 
 33 H       -7.2530    -0.8380    -2.3090 H     1 <1>   0.0800 
 34 H      -11.3380    -1.6050    -0.6360 H     1 <1>   0.0800 
 35 H       -9.6590    -0.4290    -2.0570 H     1 <1>   0.0800 
 36 H       -9.4070     0.3030    -0.5040 H     1 <1>   0.0800 
 37 H       -9.4930    -2.8000    -2.3740 H     1 <1>   0.0800 
 38 H       -7.9710    -3.2430    -1.6480 H     1 <1>   0.0800 
 39 H      -10.7690    -3.9560     1.0860 H     1 <1>   0.0800 
 40 H      -11.7960    -3.8280    -0.3300 H     1 <1>   0.0800 
 41 H       -9.0350    -4.7390    -0.1500 H     1 <1>   0.0800 
 42 H      -10.1160    -4.8710    -1.5180 H     1 <1>   0.0800 
 43 H      -12.0800    -0.9030     2.7150 H     1 <1>   0.0800 
 44 H      -12.5820    -2.2970     1.7690 H     1 <1>   0.0800 
 45 H      -12.6040    -0.6800     1.0520 H     1 <1>   0.0800 
@<TRIPOS>BOND
  1   1   2  1   
  2   2   3  ar  
  3   2   4  ar  
  4   3   5  ar  
  5   3  22  1   
  6   4   6  ar  
  7   4  23  1   
  8   5   7  1   
  9   5   8  ar  
 10   6   8  ar  
 11   6  24  1   
 12   8   9  1   
 13   9  10  1   
 14   9  25  1   
 15   9  26  1   
 16  10  11  1   
 17  10  12  1   
 18  10  27  1   
 19  11  13  1   
 20  11  28  1   
 21  11  29  1   
 22  12  14  1   
 23  12  30  1   
 24  12  31  1   
 25  13  15  1   
 26  13  16  1   
 27  13  17  1   
 28  14  16  1   
 29  14  32  1   
 30  14  33  1   
 31  15  18  1   
 32  15  19  1   
 33  15  34  1   
 34  16  35  1   
 35  16  36  1   
 36  17  20  1   
 37  17  37  1   
 38  17  38  1   
 39  18  21  1   
 40  19  20  1   
 41  19  39  1   
 42  19  40  1   
 43  20  41  1   
 44  20  42  1   
 45  21  43  1   
 46  21  44  1   
 47  21  45  1   
@<TRIPOS>SUBSTRUCTURE
  1 ****  10 GROUP 4 **** **** 0

# MOE 2024.06 (io_trps.svl 2023.06)
