@<TRIPOS>MOLECULE
NONAME
62 66 1 0 0 
SMALL
USER_CHARGES


@<TRIPOS>ATOM
  1 O       -0.6720     0.1230     1.3660 O.2   1 <1>  -0.5700 
  2 C       -1.5620    -0.0120     0.5470 C.2   1 <1>   0.5440 
  3 N       -2.2560    -1.1940     0.5190 N.am  1 <1>  -0.6600 
  4 C       -1.8760     1.0700    -0.3670 C.ar  1 <1>   0.0860 
  5 C       -1.9930    -2.3910     1.3070 C.3   1 <1>   0.2200 
  6 C       -3.6320    -1.4500     0.1440 C.3   1 <1>   0.2200 
  7 C       -1.8800     2.3930     0.0680 C.ar  1 <1>  -0.1500 
  8 C       -2.1680     0.8320    -1.7090 C.ar  1 <1>  -0.1500 
  9 C       -2.3220    -3.5030     0.2730 C.3   1 <1>   0.0610 
 10 C       -3.1110    -2.2240     2.3550 C.3   1 <1>  -0.1600 
 11 C       -3.4930    -2.8280    -0.5180 C.3   1 <1>  -0.1600 
 12 C       -4.2650    -1.6220     1.5300 C.3   1 <1>  -0.1600 
 13 C       -2.1820     3.4470    -0.7850 C.ar  1 <1>  -0.0230 
 14 C       -2.4730     1.8660    -2.5730 C.ar  1 <1>  -0.1500 
 15 C       -2.6950    -4.8140     0.9830 C.2   1 <1>   0.5690 
 16 C       -1.1040    -3.8600    -0.6280 C.3   1 <1>  -0.0160 
 17 N       -2.1780     4.7850    -0.3100 N.pl3 1 <1>   0.3260 
 18 C       -2.4840     3.1690    -2.1140 C.ar  1 <1>  -0.1500 
 19 O       -2.0480    -5.1500     1.9460 O.2   1 <1>  -0.5700 
 20 N       -3.7000    -5.5920     0.4830 N.am  1 <1>  -0.7300 
 21 C       -0.5710    -2.8050    -1.5980 C.ar  1 <1>  -0.1430 
 22 C       -1.6690     5.8850    -0.8810 C.2   1 <1>   0.0360 
 23 C       -2.6950     5.2870     0.8190 C.2   1 <1>   0.0360 
 24 C       -4.2140    -6.8730     1.0030 C.3   1 <1>   0.2200 
 25 C        0.3480    -1.8610    -1.1710 C.ar  1 <1>  -0.1500 
 26 C       -0.9700    -2.8020    -2.9280 C.ar  1 <1>  -0.1500 
 27 N       -1.8620     6.9440    -0.1730 N.2   1 <1>  -0.3380 
 28 N       -2.5220     6.5590     0.9210 N.2   1 <1>  -0.3380 
 29 C       -4.7570    -6.6880     2.4180 C.3   1 <1>  -0.2400 
 30 C       -3.1270    -7.9430     0.9360 C.3   1 <1>  -0.2400 
 31 C        0.8480    -0.9150    -2.0490 C.ar  1 <1>  -0.1500 
 32 C       -0.4690    -1.8590    -3.8100 C.ar  1 <1>  -0.1500 
 33 C        0.4390    -0.9130    -3.3710 C.ar  1 <1>  -0.1500 
 34 H       -1.0000    -2.4370     1.7230 H     1 <1>   0.0800 
 35 H       -4.0870    -0.6890    -0.4680 H     1 <1>   0.0800 
 36 H       -1.6320     2.5850     1.0990 H     1 <1>   0.1500 
 37 H       -2.1430    -0.1810    -2.0740 H     1 <1>   0.1500 
 38 H       -3.3850    -3.1380     2.8490 H     1 <1>   0.0800 
 39 H       -2.7830    -1.5240     3.1030 H     1 <1>   0.0800 
 40 H       -4.4280    -3.3510    -0.4580 H     1 <1>   0.0800 
 41 H       -3.2560    -2.6950    -1.5550 H     1 <1>   0.0800 
 42 H       -4.5510    -0.6640     1.9270 H     1 <1>   0.0800 
 43 H       -5.1270    -2.2650     1.5040 H     1 <1>   0.0800 
 44 H       -2.6980     1.6530    -3.6050 H     1 <1>   0.1500 
 45 H       -0.2910    -4.1600     0.0110 H     1 <1>   0.0800 
 46 H       -1.3590    -4.7300    -1.2070 H     1 <1>   0.0800 
 47 H       -2.7290     3.9660    -2.7950 H     1 <1>   0.1500 
 48 H       -4.1620    -5.2830    -0.3710 H     1 <1>   0.3700 
 49 H       -1.1580     5.8600    -1.8240 H     1 <1>   0.1500 
 50 H       -3.1980     4.6750     1.5440 H     1 <1>   0.1500 
 51 H       -5.0300    -7.1830     0.3700 H     1 <1>   0.0800 
 52 H        0.6760    -1.8490    -0.1450 H     1 <1>   0.1500 
 53 H       -1.6680    -3.5370    -3.2860 H     1 <1>   0.1500 
 54 H       -3.9670    -6.4350     3.1010 H     1 <1>   0.0800 
 55 H       -5.2120    -7.6010     2.7560 H     1 <1>   0.0800 
 56 H       -5.5000    -5.9120     2.4330 H     1 <1>   0.0800 
 57 H       -2.3130    -7.7020     1.5950 H     1 <1>   0.0800 
 58 H       -2.7550    -8.0330    -0.0680 H     1 <1>   0.0800 
 59 H       -3.5320    -8.8920     1.2360 H     1 <1>   0.0800 
 60 H        1.5540    -0.1830    -1.6980 H     1 <1>   0.1500 
 61 H       -0.7830    -1.8650    -4.8390 H     1 <1>   0.1500 
 62 H        0.8300    -0.1790    -4.0530 H     1 <1>   0.1500 
@<TRIPOS>BOND
  1   1   2  2   
  2   2   3  am  
  3   2   4  1   
  4   3   5  1   
  5   3   6  1   
  6   4   7  ar  
  7   4   8  ar  
  8   5   9  1   
  9   5  10  1   
 10   5  34  1   
 11   6  11  1   
 12   6  12  1   
 13   6  35  1   
 14   7  13  ar  
 15   7  36  1   
 16   8  14  ar  
 17   8  37  1   
 18   9  11  1   
 19   9  15  1   
 20   9  16  1   
 21  10  12  1   
 22  10  38  1   
 23  10  39  1   
 24  11  40  1   
 25  11  41  1   
 26  12  42  1   
 27  12  43  1   
 28  13  17  1   
 29  13  18  ar  
 30  14  18  ar  
 31  14  44  1   
 32  15  19  2   
 33  15  20  am  
 34  16  21  1   
 35  16  45  1   
 36  16  46  1   
 37  17  22  1   
 38  17  23  1   
 39  18  47  1   
 40  20  24  1   
 41  20  48  1   
 42  21  25  ar  
 43  21  26  ar  
 44  22  27  2   
 45  22  49  1   
 46  23  28  2   
 47  23  50  1   
 48  24  29  1   
 49  24  30  1   
 50  24  51  1   
 51  25  31  ar  
 52  25  52  1   
 53  26  32  ar  
 54  26  53  1   
 55  27  28  1   
 56  29  54  1   
 57  29  55  1   
 58  29  56  1   
 59  30  57  1   
 60  30  58  1   
 61  30  59  1   
 62  31  33  ar  
 63  31  60  1   
 64  32  33  ar  
 65  32  61  1   
 66  33  62  1   
@<TRIPOS>SUBSTRUCTURE
  1 ****   3 GROUP 4 **** **** 0

# MOE 2024.06 (io_trps.svl 2023.06)
