@<TRIPOS>MOLECULE
NONAME
54 56 1 0 0 
SMALL
USER_CHARGES


@<TRIPOS>ATOM
  1 S       -0.7650    -0.2870     1.6800 S.o2  1 <1>   1.4470 
  2 O       -1.8500     0.4540     2.2920 O.2   1 <1>  -0.6500 
  3 O       -0.4420    -1.5710     2.2660 O.2   1 <1>  -0.6500 
  4 N        0.5930     0.7110     1.8540 N.am  1 <1>  -0.8490 
  5 C       -1.1560    -0.4980    -0.1000 C.ar  1 <1>  -0.0090 
  6 C        0.4060     2.1530     1.9870 C.3   1 <1>   0.1960 
  7 C        1.7500     0.1350     2.5510 C.3   1 <1>   0.1960 
  8 C       -0.2750    -0.3230    -1.1890 C.ar  1 <1>  -0.1790 
  9 C       -2.4630    -0.8810    -0.3860 C.ar  1 <1>  -0.1500 
 10 C        1.6340     2.8830     1.4030 C.3   1 <1>  -0.1600 
 11 C        2.9930     1.0200     2.3590 C.3   1 <1>  -0.1600 
 12 C        1.1150     0.0610    -1.0700 C.2   1 <1>   0.9790 
 13 C       -0.7570    -0.5160    -2.4850 C.ar  1 <1>  -0.1500 
 14 C       -2.9220    -1.0770    -1.6740 C.ar  1 <1>  -0.1500 
 15 C        2.7500     1.8660     1.1110 C.3   1 <1>   0.4230 
 16 O        1.5140     1.1540    -1.5210 O.co2 1 <1>  -0.9000 
 17 O        1.9670    -0.6660    -0.5310 O.co2 1 <1>  -0.9000 
 18 C       -2.0610    -0.8890    -2.7330 C.ar  1 <1>  -0.1500 
 19 N        3.9730     2.3550     0.4410 N.4   1 <1>  -0.9590 
 20 C        3.6700     3.3480    -0.6390 C.3   1 <1>   0.3430 
 21 C        4.5730     1.1630    -0.2580 C.3   1 <1>   0.3430 
 22 C        4.9460     3.7800    -1.4040 C.3   1 <1>   0.1100 
 23 C        5.8080     1.5370    -1.1120 C.3   1 <1>   0.1100 
 24 N        6.1470     2.9810    -1.0390 N.3   1 <1>  -0.8100 
 25 C        7.3050     3.2870    -1.9030 C.3   1 <1>   0.1100 
 26 C        7.8910     4.6700    -1.5940 C.3   1 <1>   0.1200 
 27 O        9.0280     4.8690    -2.3630 O.3   1 <1>  -0.6800 
 28 H        0.2670     2.3990     3.0270 H     1 <1>   0.0800 
 29 H       -0.4770     2.4580     1.4480 H     1 <1>   0.0800 
 30 H        1.9530    -0.8350     2.1220 H     1 <1>   0.0800 
 31 H        1.5270    -0.0010     3.5960 H     1 <1>   0.0800 
 32 H       -3.1500    -1.0290     0.4310 H     1 <1>   0.1500 
 33 H        1.9660     3.6420     2.0850 H     1 <1>   0.0800 
 34 H        1.3130     3.3450     0.4880 H     1 <1>   0.0800 
 35 H        3.8480     0.3800     2.2580 H     1 <1>   0.0800 
 36 H        3.1300     1.6480     3.2200 H     1 <1>   0.0800 
 37 H       -0.0830    -0.3660    -3.3120 H     1 <1>   0.1500 
 38 H       -3.9420    -1.3710    -1.8500 H     1 <1>   0.1500 
 39 H        2.3200     1.1900     0.4180 H     1 <1>   0.0800 
 40 H       -2.4000    -1.0330    -3.7440 H     1 <1>   0.1500 
 41 H        4.6750     2.7500     1.0710 H     1 <1>   0.4500 
 42 H        3.1980     4.2200    -0.2230 H     1 <1>   0.0800 
 43 H        2.9770     2.9060    -1.3390 H     1 <1>   0.0800 
 44 H        3.8290     0.7180    -0.9030 H     1 <1>   0.0800 
 45 H        4.8540     0.4110     0.4570 H     1 <1>   0.0800 
 46 H        5.1310     4.8190    -1.1930 H     1 <1>   0.0800 
 47 H        4.7520     3.6930    -2.4600 H     1 <1>   0.0800 
 48 H        5.6100     1.2570    -2.1330 H     1 <1>   0.0800 
 49 H        6.6470     0.9530    -0.7730 H     1 <1>   0.0800 
 50 H        7.0160     3.2380    -2.9390 H     1 <1>   0.0800 
 51 H        8.0720     2.5530    -1.7260 H     1 <1>   0.0800 
 52 H        8.1660     4.7490    -0.5570 H     1 <1>   0.0800 
 53 H        7.1930     5.4480    -1.8470 H     1 <1>   0.0800 
 54 H        9.7570     4.2910    -2.0640 H     1 <1>   0.4000 
@<TRIPOS>BOND
  1   1   2  2   
  2   1   3  2   
  3   1   4  am  
  4   1   5  1   
  5   4   6  1   
  6   4   7  1   
  7   5   8  ar  
  8   5   9  ar  
  9   6  10  1   
 10   6  28  1   
 11   6  29  1   
 12   7  11  1   
 13   7  30  1   
 14   7  31  1   
 15   8  12  1   
 16   8  13  ar  
 17   9  14  ar  
 18   9  32  1   
 19  10  15  1   
 20  10  33  1   
 21  10  34  1   
 22  11  15  1   
 23  11  35  1   
 24  11  36  1   
 25  12  16  ar  
 26  12  17  ar  
 27  13  18  ar  
 28  13  37  1   
 29  14  18  ar  
 30  14  38  1   
 31  15  19  1   
 32  15  39  1   
 33  18  40  1   
 34  19  20  1   
 35  19  21  1   
 36  19  41  1   
 37  20  22  1   
 38  20  42  1   
 39  20  43  1   
 40  21  23  1   
 41  21  44  1   
 42  21  45  1   
 43  22  24  1   
 44  22  46  1   
 45  22  47  1   
 46  23  24  1   
 47  23  48  1   
 48  23  49  1   
 49  24  25  1   
 50  25  26  1   
 51  25  50  1   
 52  25  51  1   
 53  26  27  1   
 54  26  52  1   
 55  26  53  1   
 56  27  54  1   
@<TRIPOS>SUBSTRUCTURE
  1 ****  16 GROUP 4 **** **** 0

# MOE 2024.06 (io_trps.svl 2023.06)
