@<TRIPOS>MOLECULE
NONAME
45 47 1 0 0 
SMALL
USER_CHARGES


@<TRIPOS>ATOM
  1 O       -0.4370     0.1050     2.4520 O.2   1 <1>  -0.5700 
  2 C       -1.0590     0.8280     1.7090 C.2   1 <1>   0.5690 
  3 N       -2.0820     0.3390     0.9390 N.am  1 <1>  -0.6600 
  4 C       -0.6760     2.2980     1.6930 C.3   1 <1>   0.1570 
  5 C       -2.8300     1.0500    -0.1350 C.3   1 <1>   0.1400 
  6 C       -2.5190    -1.0750     0.9970 C.3   1 <1>   0.1400 
  7 N       -0.2840     2.7520     0.3420 N.pl3 1 <1>   0.0480 
  8 C       -3.8600     0.0450    -0.6630 C.3   1 <1>   0.2000 
  9 C       -3.2470    -1.3170    -0.3260 C.3   1 <1>  -0.0800 
 10 C       -0.7610     3.8040    -0.3710 C.2   1 <1>   0.0060 
 11 C        0.5940     2.1520    -0.4840 C.2   1 <1>  -0.3020 
 12 O       -5.0610     0.1890     0.0420 O.3   1 <1>  -0.5600 
 13 C       -4.2570    -2.4780    -0.2710 C.3   1 <1>   0.0200 
 14 N       -0.2650     3.8900    -1.5610 N.2   1 <1>  -0.5650 
 15 C       -1.7770     4.7980     0.1570 C.3   1 <1>  -0.0600 
 16 C        0.5920     2.8570    -1.6330 C.2   1 <1>   0.0770 
 17 C       -5.9500     1.1210    -0.4890 C.3   1 <1>   0.0400 
 18 C       -3.5970    -3.8380    -0.1090 C.2   1 <1>  -0.0400 
 19 O       -4.3570    -4.8900     0.0400 O.3   1 <1>  -0.0190 
 20 C       -2.3200    -4.2530    -0.0840 C.2   1 <1>  -0.1500 
 21 N       -3.6610    -5.9820     0.1650 N.2   1 <1>  -0.4100 
 22 C       -2.4280    -5.6280     0.0950 C.2   1 <1>   0.1080 
 23 C       -1.2610    -6.5840     0.1960 C.3   1 <1>  -0.0590 
 24 H        0.1540     2.4530     2.3560 H     1 <1>   0.0800 
 25 H       -1.5070     2.8750     2.0450 H     1 <1>   0.0800 
 26 H       -3.3010     1.9400     0.2400 H     1 <1>   0.0800 
 27 H       -2.1480     1.3040    -0.9290 H     1 <1>   0.0800 
 28 H       -1.6780    -1.7340     1.1250 H     1 <1>   0.0800 
 29 H       -3.1960    -1.1930     1.8270 H     1 <1>   0.0800 
 30 H       -4.0470     0.1530    -1.7180 H     1 <1>   0.0800 
 31 H       -2.5060    -1.5360    -1.0750 H     1 <1>   0.0800 
 32 H        1.1570     1.2760    -0.2160 H     1 <1>   0.1500 
 33 H       -4.8350    -2.4900    -1.1770 H     1 <1>   0.0800 
 34 H       -4.9390    -2.3290     0.5480 H     1 <1>   0.0800 
 35 H       -1.9660     5.5510    -0.5880 H     1 <1>   0.0800 
 36 H       -1.3960     5.2810     1.0380 H     1 <1>   0.0800 
 37 H       -2.7020     4.3050     0.3880 H     1 <1>   0.0800 
 38 H        1.1720     2.6750    -2.5230 H     1 <1>   0.1500 
 39 H       -6.8160     1.1570     0.1500 H     1 <1>   0.0800 
 40 H       -6.2450     0.8080    -1.4760 H     1 <1>   0.0800 
 41 H       -5.4840     2.0900    -0.5210 H     1 <1>   0.0800 
 42 H       -1.4040    -3.7000    -0.1780 H     1 <1>   0.1500 
 43 H       -0.6640    -6.5270    -0.6950 H     1 <1>   0.0800 
 44 H       -1.6200    -7.5910     0.3120 H     1 <1>   0.0800 
 45 H       -0.6560    -6.3300     1.0470 H     1 <1>   0.0800 
@<TRIPOS>BOND
  1   1   2  2   
  2   2   3  am  
  3   2   4  1   
  4   3   5  1   
  5   3   6  1   
  6   4   7  1   
  7   4  24  1   
  8   4  25  1   
  9   5   8  1   
 10   5  26  1   
 11   5  27  1   
 12   6   9  1   
 13   6  28  1   
 14   6  29  1   
 15   7  10  1   
 16   7  11  1   
 17   8   9  1   
 18   8  12  1   
 19   8  30  1   
 20   9  13  1   
 21   9  31  1   
 22  10  14  2   
 23  10  15  1   
 24  11  16  2   
 25  11  32  1   
 26  12  17  1   
 27  13  18  1   
 28  13  33  1   
 29  13  34  1   
 30  14  16  1   
 31  15  35  1   
 32  15  36  1   
 33  15  37  1   
 34  16  38  1   
 35  17  39  1   
 36  17  40  1   
 37  17  41  1   
 38  18  19  1   
 39  18  20  2   
 40  19  21  1   
 41  20  22  1   
 42  20  42  1   
 43  21  22  2   
 44  22  23  1   
 45  23  43  1   
 46  23  44  1   
 47  23  45  1   
@<TRIPOS>SUBSTRUCTURE
  1 ****   6 GROUP 4 **** **** 0

# MOE 2024.06 (io_trps.svl 2023.06)
