@<TRIPOS>MOLECULE
NONAME
37 38 1 0 0 
SMALL
USER_CHARGES


@<TRIPOS>ATOM
  1 O       -0.6800    -1.2600    -0.0410 O.2   1 <1>  -0.5700 
  2 C        0.4930    -1.4940    -0.2270 C.2   1 <1>   0.6900 
  3 N        1.1710    -2.3810     0.5220 N.am  1 <1>  -0.7300 
  4 N        1.1380    -0.8650    -1.2070 N.am  1 <1>  -0.8000 
  5 C        0.5660    -3.1820     1.6320 C.3   1 <1>   0.2010 
  6 C        0.4420    -4.6740     1.3100 C.2   1 <1>   0.5690 
  7 O        1.2270    -5.4290     1.8370 O.2   1 <1>  -0.5700 
  8 N       -0.5260    -5.1350     0.4580 N.am  1 <1>  -0.6600 
  9 C       -1.5240    -4.3090    -0.2720 C.3   1 <1>   0.1400 
 10 C       -0.7420    -6.5730     0.1830 C.3   1 <1>   0.1400 
 11 C       -2.4590    -5.3160    -0.9490 C.3   1 <1>   0.2000 
 12 C       -2.1990    -6.6590    -0.2680 C.3   1 <1>  -0.0800 
 13 O       -3.7910    -4.9670    -0.7940 O.3   1 <1>  -0.6800 
 14 C       -2.5070    -7.8560    -1.1830 C.3   1 <1>  -0.0170 
 15 C       -2.2670    -9.1780    -0.4730 C.ar  1 <1>   0.1670 
 16 N       -1.0330    -9.6540    -0.5080 N.ar  1 <1>  -0.6200 
 17 C       -3.3210    -9.8180     0.1770 C.ar  1 <1>   0.1600 
 18 C       -0.9230   -10.7990     0.1450 C.ar  1 <1>   0.1600 
 19 N       -3.2130   -10.9630     0.8310 N.ar  1 <1>  -0.6200 
 20 C       -1.9770   -11.4310     0.7930 C.ar  1 <1>   0.1600 
 21 H        2.0770    -2.7090     0.1930 H     1 <1>   0.3700 
 22 H        0.6360    -0.1250    -1.6960 H     1 <1>   0.3700 
 23 H        2.1530    -0.8230    -1.2420 H     1 <1>   0.3700 
 24 H        1.1830    -3.0750     2.5060 H     1 <1>   0.0800 
 25 H       -0.4070    -2.7980     1.8770 H     1 <1>   0.0800 
 26 H       -2.0570    -3.6780     0.4170 H     1 <1>   0.0800 
 27 H       -1.0300    -3.7080    -1.0140 H     1 <1>   0.0800 
 28 H       -0.0750    -6.8850    -0.6030 H     1 <1>   0.0800 
 29 H       -0.5600    -7.1710     1.0600 H     1 <1>   0.0800 
 30 H       -2.2410    -5.3610    -2.0030 H     1 <1>   0.0800 
 31 H       -2.7990    -6.7290     0.6230 H     1 <1>   0.0800 
 32 H       -3.9930    -4.8100     0.1490 H     1 <1>   0.4000 
 33 H       -1.8920    -7.8140    -2.0650 H     1 <1>   0.0800 
 34 H       -3.5330    -7.8010    -1.5020 H     1 <1>   0.0800 
 35 H       -4.2940    -9.3620     0.1570 H     1 <1>   0.1500 
 36 H        0.0490   -11.2590     0.1700 H     1 <1>   0.1500 
 37 H       -1.7890   -12.3610     1.2990 H     1 <1>   0.1500 
@<TRIPOS>BOND
  1   1   2  2   
  2   2   3  am  
  3   2   4  am  
  4   3   5  1   
  5   3  21  1   
  6   4  22  1   
  7   4  23  1   
  8   5   6  1   
  9   5  24  1   
 10   5  25  1   
 11   6   7  2   
 12   6   8  am  
 13   8   9  1   
 14   8  10  1   
 15   9  11  1   
 16   9  26  1   
 17   9  27  1   
 18  10  12  1   
 19  10  28  1   
 20  10  29  1   
 21  11  12  1   
 22  11  13  1   
 23  11  30  1   
 24  12  14  1   
 25  12  31  1   
 26  13  32  1   
 27  14  15  1   
 28  14  33  1   
 29  14  34  1   
 30  15  16  ar  
 31  15  17  ar  
 32  16  18  ar  
 33  17  19  ar  
 34  17  35  1   
 35  18  20  ar  
 36  18  36  1   
 37  19  20  ar  
 38  20  37  1   
@<TRIPOS>SUBSTRUCTURE
  1 ****  10 GROUP 4 **** **** 0

# MOE 2024.06 (io_trps.svl 2023.06)
