@<TRIPOS>MOLECULE
NONAME
48 50 1 0 0 
SMALL
USER_CHARGES


@<TRIPOS>ATOM
  1 S        0.1050     0.8470    -0.0390 S.3   1 <1>  -0.0800 
  2 C        1.5370    -0.1570     0.1630 C.2   1 <1>   0.4620 
  3 C       -0.6870    -0.4600    -0.8570 C.2   1 <1>  -0.1100 
  4 N        1.3980    -1.3320    -0.3350 N.2   1 <1>  -0.5650 
  5 N        2.6540     0.3440     0.8040 N.pl3 1 <1>  -0.8220 
  6 C        0.1410    -1.5240    -0.9250 C.2   1 <1>   0.1410 
  7 C        3.8570    -0.5080     0.9930 C.3   1 <1>   0.2090 
  8 C        2.8580     1.7790     1.1300 C.3   1 <1>   0.2090 
  9 C       -0.1830    -2.7970    -1.5540 C.2   1 <1>   0.7160 
 10 C        4.9870     0.0200     0.1090 C.3   1 <1>  -0.1600 
 11 C        3.9790     2.3340     0.2470 C.3   1 <1>  -0.1600 
 12 O       -1.2690    -3.0190    -2.0490 O.2   1 <1>  -0.5700 
 13 N        0.7340    -3.7890    -1.6130 N.am  1 <1>  -0.8000 
 14 C        5.2760     1.5110     0.3820 C.3   1 <1>  -0.0190 
 15 C        6.3720     2.0800    -0.5190 C.2   1 <1>   0.5690 
 16 O        6.6610     1.5350    -1.5570 O.2   1 <1>  -0.5700 
 17 N        6.9870     3.2200    -0.1250 N.am  1 <1>  -0.7300 
 18 C        7.9060     4.0060    -0.9620 C.3   1 <1>   0.2840 
 19 C        7.5300     5.4660    -0.7960 C.ar  1 <1>  -0.1430 
 20 C        6.4050     5.9640    -1.4360 C.ar  1 <1>  -0.1500 
 21 C        8.2880     6.3100     0.0020 C.ar  1 <1>  -0.1500 
 22 C        6.0430     7.2900    -1.2780 C.ar  1 <1>  -0.1500 
 23 C        7.9280     7.6380     0.1610 C.ar  1 <1>  -0.1500 
 24 C        6.7970     8.1350    -0.4810 C.ar  1 <1>   0.0820 
 25 O        6.3700     9.4180    -0.3760 O.3   1 <1>  -0.3620 
 26 C        7.0800    10.3670     0.3880 C.3   1 <1>   0.0400 
 27 H       -1.6910    -0.3140    -1.2110 H     1 <1>   0.1500 
 28 H        3.6470    -1.5330     0.7390 H     1 <1>   0.0800 
 29 H        4.1510    -0.4780     2.0280 H     1 <1>   0.0800 
 30 H        3.1300     1.8660     2.1680 H     1 <1>   0.0800 
 31 H        1.9630     2.3540     0.9770 H     1 <1>   0.0800 
 32 H        4.7030    -0.1150    -0.9210 H     1 <1>   0.0800 
 33 H        5.8760    -0.5590     0.2790 H     1 <1>   0.0800 
 34 H        4.1630     3.3580     0.5160 H     1 <1>   0.0800 
 35 H        3.6490     2.3190    -0.7770 H     1 <1>   0.0800 
 36 H        0.5170    -4.6740    -2.0650 H     1 <1>   0.3700 
 37 H        1.6670    -3.6420    -1.2250 H     1 <1>   0.3700 
 38 H        5.6230     1.5930     1.3960 H     1 <1>   0.0800 
 39 H        6.6810     3.7070     0.7170 H     1 <1>   0.3700 
 40 H        7.8160     3.7140    -1.9950 H     1 <1>   0.0800 
 41 H        8.9200     3.8340    -0.6440 H     1 <1>   0.0800 
 42 H        5.8080     5.3180    -2.0570 H     1 <1>   0.1500 
 43 H        9.1640     5.9370     0.5050 H     1 <1>   0.1500 
 44 H        5.1720     7.6790    -1.7740 H     1 <1>   0.1500 
 45 H        8.5350     8.2660     0.7840 H     1 <1>   0.1500 
 46 H        6.5630    11.3070     0.3150 H     1 <1>   0.0800 
 47 H        8.0740    10.4640    -0.0110 H     1 <1>   0.0800 
 48 H        7.1040    10.0420     1.4130 H     1 <1>   0.0800 
@<TRIPOS>BOND
  1   1   2  1   
  2   1   3  1   
  3   2   4  2   
  4   2   5  1   
  5   3   6  2   
  6   3  27  1   
  7   4   6  1   
  8   5   7  1   
  9   5   8  1   
 10   6   9  1   
 11   7  10  1   
 12   7  28  1   
 13   7  29  1   
 14   8  11  1   
 15   8  30  1   
 16   8  31  1   
 17   9  12  2   
 18   9  13  am  
 19  10  14  1   
 20  10  32  1   
 21  10  33  1   
 22  11  14  1   
 23  11  34  1   
 24  11  35  1   
 25  13  36  1   
 26  13  37  1   
 27  14  15  1   
 28  14  38  1   
 29  15  16  2   
 30  15  17  am  
 31  17  18  1   
 32  17  39  1   
 33  18  19  1   
 34  18  40  1   
 35  18  41  1   
 36  19  20  ar  
 37  19  21  ar  
 38  20  22  ar  
 39  20  42  1   
 40  21  23  ar  
 41  21  43  1   
 42  22  24  ar  
 43  22  44  1   
 44  23  24  ar  
 45  23  45  1   
 46  24  25  1   
 47  25  26  1   
 48  26  46  1   
 49  26  47  1   
 50  26  48  1   
@<TRIPOS>SUBSTRUCTURE
  1 ****  11 GROUP 4 **** **** 0

# MOE 2024.06 (io_trps.svl 2023.06)
