@<TRIPOS>MOLECULE
NONAME
51 54 1 0 0 
SMALL
USER_CHARGES


@<TRIPOS>ATOM
  1 O        2.2540     0.1980    -2.1860 O.2   1 <1>  -0.5700 
  2 C        1.8360    -0.8000    -1.6490 C.2   1 <1>   0.5690 
  3 N        1.6830    -0.9270    -0.2980 N.am  1 <1>  -0.4940 
  4 C        1.4550    -1.9830    -2.5210 C.3   1 <1>   0.0820 
  5 C        1.7930     0.0030     0.7630 C.2   1 <1>  -0.0880 
  6 C        0.1770    -2.6530    -2.0360 C.2   1 <1>   0.0460 
  7 N        2.7630     0.9440     0.9760 N.pl3 1 <1>   0.3140 
  8 C        0.9270     0.0940     1.7990 C.2   1 <1>  -0.1810 
  9 N        0.1580    -3.3380    -0.8770 N.2   1 <1>  -0.5650 
 10 C       -1.0440    -2.6820    -2.5910 C.2   1 <1>  -0.0400 
 11 N        2.5120     1.6310     2.1250 N.2   1 <1>  -0.7070 
 12 C        3.9900     1.1940     0.1520 C.3   1 <1>   0.1760 
 13 C        1.4230     1.1150     2.5980 C.2   1 <1>   0.1390 
 14 C       -0.3300    -0.7130     2.0720 C.3   1 <1>  -0.0590 
 15 C       -1.0710    -3.7470    -0.7770 C.2   1 <1>   0.4250 
 16 O       -1.8150    -3.3680    -1.8000 O.3   1 <1>  -0.2800 
 17 C       -1.6330    -2.0990    -3.8590 C.3   1 <1>  -0.0600 
 18 C        4.8720    -0.0560    -0.0100 C.3   1 <1>  -0.1600 
 19 C        4.9400     2.2550     0.7250 C.3   1 <1>  -0.1600 
 20 C       -1.6520    -4.5140     0.3060 C.ar  1 <1>   0.0530 
 21 C        6.3310     0.4220     0.0000 C.3   1 <1>  -0.1600 
 22 C        6.2800     1.9470     0.0660 C.3   1 <1>  -0.1600 
 23 C       -3.0030    -4.8680     0.3160 C.ar  1 <1>  -0.1500 
 24 C       -0.8770    -4.9230     1.3930 C.ar  1 <1>  -0.1500 
 25 C       -3.5540    -5.5900     1.3600 C.ar  1 <1>  -0.1500 
 26 C       -1.4210    -5.6450     2.4400 C.ar  1 <1>  -0.1500 
 27 C       -2.7630    -5.9800     2.4250 C.ar  1 <1>  -0.1500 
 28 H        1.2000    -1.7980    -0.0440 H     1 <1>   0.3700 
 29 H        2.2580    -2.6950    -2.5090 H     1 <1>   0.0800 
 30 H        1.3280    -1.6420    -3.5300 H     1 <1>   0.0800 
 31 H        3.6780     1.5360    -0.8160 H     1 <1>   0.0800 
 32 H        0.9630     1.4500     3.5120 H     1 <1>   0.1500 
 33 H       -0.6090    -1.2900     1.2090 H     1 <1>   0.0800 
 34 H       -1.1430    -0.0520     2.3150 H     1 <1>   0.0800 
 35 H       -0.1650    -1.3810     2.8970 H     1 <1>   0.0800 
 36 H       -0.8940    -1.5430    -4.4050 H     1 <1>   0.0800 
 37 H       -2.4460    -1.4410    -3.6110 H     1 <1>   0.0800 
 38 H       -2.0060    -2.8910    -4.4830 H     1 <1>   0.0800 
 39 H        4.6440    -0.5500    -0.9370 H     1 <1>   0.0800 
 40 H        4.7110    -0.7370     0.8080 H     1 <1>   0.0800 
 41 H        5.0420     2.1290     1.7890 H     1 <1>   0.0800 
 42 H        4.6000     3.2520     0.5080 H     1 <1>   0.0800 
 43 H        6.8660     0.0870    -0.8720 H     1 <1>   0.0800 
 44 H        6.8240     0.0410     0.8780 H     1 <1>   0.0800 
 45 H        7.1070     2.3570     0.6210 H     1 <1>   0.0800 
 46 H        6.2890     2.3520    -0.9320 H     1 <1>   0.0800 
 47 H       -3.6340    -4.5740    -0.5050 H     1 <1>   0.1500 
 48 H        0.1690    -4.6730     1.4170 H     1 <1>   0.1500 
 49 H       -4.5980    -5.8500     1.3440 H     1 <1>   0.1500 
 50 H       -0.8010    -5.9480     3.2660 H     1 <1>   0.1500 
 51 H       -3.1890    -6.5420     3.2380 H     1 <1>   0.1500 
@<TRIPOS>BOND
  1   1   2  2   
  2   2   3  am  
  3   2   4  1   
  4   3   5  1   
  5   3  28  1   
  6   4   6  1   
  7   4  29  1   
  8   4  30  1   
  9   5   7  1   
 10   5   8  2   
 11   6   9  1   
 12   6  10  2   
 13   7  11  1   
 14   7  12  1   
 15   8  13  1   
 16   8  14  1   
 17   9  15  2   
 18  10  16  1   
 19  10  17  1   
 20  11  13  2   
 21  12  18  1   
 22  12  19  1   
 23  12  31  1   
 24  13  32  1   
 25  14  33  1   
 26  14  34  1   
 27  14  35  1   
 28  15  16  1   
 29  15  20  1   
 30  17  36  1   
 31  17  37  1   
 32  17  38  1   
 33  18  21  1   
 34  18  39  1   
 35  18  40  1   
 36  19  22  1   
 37  19  41  1   
 38  19  42  1   
 39  20  23  ar  
 40  20  24  ar  
 41  21  22  1   
 42  21  43  1   
 43  21  44  1   
 44  22  45  1   
 45  22  46  1   
 46  23  25  ar  
 47  23  47  1   
 48  24  26  ar  
 49  24  48  1   
 50  25  27  ar  
 51  25  49  1   
 52  26  27  ar  
 53  26  50  1   
 54  27  51  1   
@<TRIPOS>SUBSTRUCTURE
  1 ****   3 GROUP 4 **** **** 0

# MOE 2024.06 (io_trps.svl 2023.06)
