@<TRIPOS>MOLECULE
NONAME
48 49 1 0 0 
SMALL
USER_CHARGES


@<TRIPOS>ATOM
  1 CL      -1.6470    -0.5350     2.0900 Cl    1 <1>  -0.1770 
  2 C       -2.3280    -0.9690     0.5350 C.ar  1 <1>   0.1770 
  3 C       -1.7450    -0.6400    -0.6970 C.ar  1 <1>   0.0830 
  4 C       -3.5030    -1.6920     0.5910 C.ar  1 <1>  -0.1500 
  5 O       -0.6020     0.0570    -0.9180 O.3   1 <1>  -0.3630 
  6 C       -2.3920    -1.0630    -1.8490 C.ar  1 <1>  -0.1500 
  7 C       -4.1440    -2.1330    -0.5660 C.ar  1 <1>   0.0860 
  8 C        0.0990     0.7820     0.0630 C.3   1 <1>   0.1200 
  9 C       -3.5660    -1.7880    -1.7870 C.ar  1 <1>  -0.1500 
 10 C       -5.3630    -2.9170    -0.5130 C.2   1 <1>   0.5440 
 11 C        1.1840     1.5920    -0.6380 C.3   1 <1>  -0.2400 
 12 O       -6.2960    -2.6380    -1.2410 O.2   1 <1>  -0.5700 
 13 N       -5.5100    -4.0080     0.3170 N.am  1 <1>  -0.6600 
 14 C       -4.3590    -4.8120     0.8160 C.3   1 <1>   0.3200 
 15 C       -6.8740    -4.5550     0.6090 C.3   1 <1>   0.1400 
 16 C       -4.5070    -6.2110     0.2590 C.2   1 <1>  -0.3320 
 17 C       -7.4700    -5.2260    -0.6450 C.3   1 <1>   0.3430 
 18 N       -4.2400    -6.5490    -1.0180 N.pl3 1 <1>   0.0330 
 19 C       -4.9400    -7.3350     0.8710 C.2   1 <1>   0.0770 
 20 N       -8.6220    -6.1410    -0.3480 N.4   1 <1>  -0.9590 
 21 C       -4.5720    -7.8540    -1.1080 C.2   1 <1>   0.0360 
 22 N       -5.0180    -8.3550    -0.0010 N.2   1 <1>  -0.5650 
 23 C       -8.1460    -7.4420     0.2270 C.3   1 <1>   0.2630 
 24 C       -9.3990    -6.3940    -1.5990 C.3   1 <1>   0.2630 
 25 H       -3.9300    -1.9140     1.5520 H     1 <1>   0.1500 
 26 H       -1.9630    -0.8110    -2.8040 H     1 <1>   0.1500 
 27 H        0.5390     0.0850     0.7550 H     1 <1>   0.0800 
 28 H       -0.5920     1.4350     0.5690 H     1 <1>   0.0800 
 29 H       -4.0520    -2.0910    -2.6990 H     1 <1>   0.1500 
 30 H        1.8620     0.9350    -1.1530 H     1 <1>   0.0800 
 31 H        1.7400     2.1590     0.0860 H     1 <1>   0.0800 
 32 H        0.7400     2.2740    -1.3410 H     1 <1>   0.0800 
 33 H       -4.3790    -4.8340     1.8930 H     1 <1>   0.0800 
 34 H       -3.4170    -4.3950     0.5030 H     1 <1>   0.0800 
 35 H       -7.5130    -3.7430     0.9110 H     1 <1>   0.0800 
 36 H       -6.8090    -5.2580     1.4200 H     1 <1>   0.0800 
 37 H       -6.6960    -5.7890    -1.1380 H     1 <1>   0.0800 
 38 H       -7.7910    -4.4460    -1.3170 H     1 <1>   0.0800 
 39 H       -3.8570    -5.9580    -1.7640 H     1 <1>   0.2700 
 40 H       -5.2190    -7.4650     1.9050 H     1 <1>   0.1500 
 41 H       -9.2470    -5.6750     0.3280 H     1 <1>   0.4500 
 42 H       -4.4640    -8.4110    -2.0250 H     1 <1>   0.1500 
 43 H       -7.4740    -7.9330    -0.4590 H     1 <1>   0.0800 
 44 H       -8.9800    -8.0970     0.4190 H     1 <1>   0.0800 
 45 H       -7.6200    -7.2780     1.1520 H     1 <1>   0.0800 
 46 H       -8.7770    -6.8800    -2.3340 H     1 <1>   0.0800 
 47 H       -9.7570    -5.4640    -2.0120 H     1 <1>   0.0800 
 48 H      -10.2470    -7.0260    -1.3930 H     1 <1>   0.0800 
@<TRIPOS>BOND
  1   1   2  1   
  2   2   3  ar  
  3   2   4  ar  
  4   3   5  1   
  5   3   6  ar  
  6   4   7  ar  
  7   4  25  1   
  8   5   8  1   
  9   6   9  ar  
 10   6  26  1   
 11   7   9  ar  
 12   7  10  1   
 13   8  11  1   
 14   8  27  1   
 15   8  28  1   
 16   9  29  1   
 17  10  12  2   
 18  10  13  am  
 19  11  30  1   
 20  11  31  1   
 21  11  32  1   
 22  13  14  1   
 23  13  15  1   
 24  14  16  1   
 25  14  33  1   
 26  14  34  1   
 27  15  17  1   
 28  15  35  1   
 29  15  36  1   
 30  16  18  1   
 31  16  19  2   
 32  17  20  1   
 33  17  37  1   
 34  17  38  1   
 35  18  21  1   
 36  18  39  1   
 37  19  22  1   
 38  19  40  1   
 39  20  23  1   
 40  20  24  1   
 41  20  41  1   
 42  21  22  2   
 43  21  42  1   
 44  23  43  1   
 45  23  44  1   
 46  23  45  1   
 47  24  46  1   
 48  24  47  1   
 49  24  48  1   
@<TRIPOS>SUBSTRUCTURE
  1 ****  10 GROUP 4 **** **** 0

# MOE 2024.06 (io_trps.svl 2023.06)
