@<TRIPOS>MOLECULE
NONAME
43 44 1 0 0 
SMALL
USER_CHARGES


@<TRIPOS>ATOM
  1 S        1.3800     0.3440    -1.3820 S.o2  1 <1>   1.3330 
  2 O        1.3150     0.5350    -2.8140 O.2   1 <1>  -0.6500 
  3 O        0.7540    -0.8150    -0.7870 O.2   1 <1>  -0.6500 
  4 N        0.7080     1.7240    -0.6560 N.am  1 <1>  -0.8490 
  5 C        3.0990     0.3620    -0.8740 C.3   1 <1>  -0.0550 
  6 C       -0.7550     1.6810    -0.6670 C.3   1 <1>   0.1160 
  7 C        1.1770     2.9840    -1.2440 C.3   1 <1>   0.1160 
  8 C        3.2990     0.4520     0.6500 C.3   1 <1>  -0.0800 
  9 C        4.7460     0.7620     1.0240 C.3   1 <1>   0.2890 
 10 C        2.9870    -0.8400     1.4020 C.3   1 <1>   0.1200 
 11 N        4.8130     2.1160     1.6220 N.pl3 1 <1>  -0.8690 
 12 C        5.0950    -0.3210     2.0450 C.3   1 <1>   0.1200 
 13 O        3.8830    -0.8630     2.4650 O.3   1 <1>  -0.5600 
 14 C        4.6710     3.2580     0.8760 C.ar  1 <1>   0.4100 
 15 N        4.9730     3.1880    -0.4050 N.ar  1 <1>  -0.6200 
 16 C        4.2050     4.4350     1.4430 C.ar  1 <1>  -0.1430 
 17 C        4.8050     4.2920    -1.1010 C.ar  1 <1>   0.4760 
 18 C        4.0610     5.5120     0.6070 C.ar  1 <1>   0.1600 
 19 C        3.8580     4.5390     2.9240 C.3   1 <1>  -0.0970 
 20 N        4.3490     5.4560    -0.6780 N.ar  1 <1>  -0.6200 
 21 C        5.1610     4.2090    -2.5660 C.3   1 <1>  -0.0970 
 22 H        3.5900    -0.5140    -1.2490 H     1 <1>   0.0800 
 23 H        3.5710     1.2090    -1.3300 H     1 <1>   0.0800 
 24 H       -1.1570     2.5480    -0.1710 H     1 <1>   0.0800 
 25 H       -1.1010     0.8040    -0.1470 H     1 <1>   0.0800 
 26 H       -1.1210     1.6490    -1.6800 H     1 <1>   0.0800 
 27 H        0.7520     3.8200    -0.7160 H     1 <1>   0.0800 
 28 H        0.8950     3.0450    -2.2830 H     1 <1>   0.0800 
 29 H        2.2470     3.0560    -1.1700 H     1 <1>   0.0800 
 30 H        2.6550     1.2170     1.0460 H     1 <1>   0.0800 
 31 H        5.4180     0.6990     0.1850 H     1 <1>   0.0800 
 32 H        3.1660    -1.7120     0.7960 H     1 <1>   0.0800 
 33 H        1.9800    -0.8610     1.7840 H     1 <1>   0.0800 
 34 H        4.4220     2.1420     2.5650 H     1 <1>   0.4000 
 35 H        5.6300     0.0660     2.8940 H     1 <1>   0.0800 
 36 H        5.6610    -1.1090     1.5800 H     1 <1>   0.0800 
 37 H        3.7000     6.4510     0.9880 H     1 <1>   0.1500 
 38 H        3.5600     5.5390     3.1810 H     1 <1>   0.0800 
 39 H        4.7140     4.2760     3.5200 H     1 <1>   0.0800 
 40 H        3.0480     3.8710     3.1600 H     1 <1>   0.0800 
 41 H        5.3410     5.1910    -2.9630 H     1 <1>   0.0800 
 42 H        4.3520     3.7540    -3.1040 H     1 <1>   0.0800 
 43 H        6.0480     3.6170    -2.6920 H     1 <1>   0.0800 
@<TRIPOS>BOND
  1   1   2  2   
  2   1   3  2   
  3   1   4  am  
  4   1   5  1   
  5   4   6  1   
  6   4   7  1   
  7   5   8  1   
  8   5  22  1   
  9   5  23  1   
 10   6  24  1   
 11   6  25  1   
 12   6  26  1   
 13   7  27  1   
 14   7  28  1   
 15   7  29  1   
 16   8   9  1   
 17   8  10  1   
 18   8  30  1   
 19   9  11  1   
 20   9  12  1   
 21   9  31  1   
 22  10  13  1   
 23  10  32  1   
 24  10  33  1   
 25  11  14  1   
 26  11  34  1   
 27  12  13  1   
 28  12  35  1   
 29  12  36  1   
 30  14  15  ar  
 31  14  16  ar  
 32  15  17  ar  
 33  16  18  ar  
 34  16  19  1   
 35  17  20  ar  
 36  17  21  1   
 37  18  20  ar  
 38  18  37  1   
 39  19  38  1   
 40  19  39  1   
 41  19  40  1   
 42  21  41  1   
 43  21  42  1   
 44  21  43  1   
@<TRIPOS>SUBSTRUCTURE
  1 ****   8 GROUP 4 **** **** 0

# MOE 2024.06 (io_trps.svl 2023.06)
