@<TRIPOS>MOLECULE
NONAME
54 57 1 0 0 
SMALL
USER_CHARGES


@<TRIPOS>ATOM
  1 O        1.7450    -0.2910    -1.5880 O.3   1 <1>  -0.6800 
  2 C        1.5920     0.0730    -0.2640 C.3   1 <1>   0.2800 
  3 C        2.9890     0.3420     0.3690 C.3   1 <1>  -0.0800 
  4 C        0.9080    -1.1060     0.4510 C.3   1 <1>  -0.1600 
  5 C        0.6650     1.3090    -0.2360 C.3   1 <1>  -0.1600 
  6 C        3.6490    -0.8690     1.0570 C.3   1 <1>  -0.0800 
  7 C        4.0700     0.8340    -0.5920 C.3   1 <1>   0.2090 
  8 C        1.7220    -2.4160     0.4240 C.3   1 <1>  -0.1600 
  9 C        1.1830     2.5620    -0.9640 C.3   1 <1>  -0.2400 
 10 C        3.2440    -2.1920     0.3850 C.3   1 <1>  -0.1600 
 11 C        5.1620    -0.6210     0.9710 C.3   1 <1>   0.2090 
 12 N        5.3460     0.6160     0.1520 N.pl3 1 <1>  -0.8380 
 13 C        6.4730     1.3590     0.0900 C.ar  1 <1>   0.4610 
 14 N        7.6260     0.6890     0.1490 N.ar  1 <1>  -0.1790 
 15 C        6.5570     2.7800    -0.0640 C.ar  1 <1>  -0.1440 
 16 C        8.8800     1.2370    -0.0360 C.ar  1 <1>   0.3610 
 17 C        7.7720     3.3710    -0.2690 C.ar  1 <1>  -0.1500 
 18 C        5.3020     3.6440     0.0520 C.3   1 <1>   0.2640 
 19 C        8.9710     2.6140    -0.2750 C.ar  1 <1>   0.0000 
 20 C       10.0400     0.4550    -0.0080 C.ar  1 <1>  -0.1500 
 21 O        5.6130     4.8780     0.5950 O.3   1 <1>  -0.6800 
 22 C       10.2360     3.1760    -0.4910 C.ar  1 <1>  -0.1500 
 23 C       11.2750     1.0240    -0.2190 C.ar  1 <1>  -0.1440 
 24 C       11.3650     2.3940    -0.4630 C.ar  1 <1>  -0.1500 
 25 C       12.5490     0.1950    -0.1940 C.3   1 <1>  -0.0970 
 26 H        0.8760    -0.5330    -1.9570 H     1 <1>   0.4000 
 27 H        2.8660     1.0950     1.1270 H     1 <1>   0.0800 
 28 H        0.7620    -0.8260     1.4800 H     1 <1>   0.0800 
 29 H       -0.0700    -1.2820     0.0390 H     1 <1>   0.0800 
 30 H       -0.2840     1.0370    -0.6640 H     1 <1>   0.0800 
 31 H        0.4730     1.5730     0.7890 H     1 <1>   0.0800 
 32 H        3.3510    -0.9100     2.0910 H     1 <1>   0.0800 
 33 H        3.9050     1.8420    -0.9070 H     1 <1>   0.0800 
 34 H        4.0940     0.2150    -1.4730 H     1 <1>   0.0800 
 35 H        1.4640    -2.9980     1.2920 H     1 <1>   0.0800 
 36 H        1.4420    -2.9920    -0.4420 H     1 <1>   0.0800 
 37 H        1.4640     2.3290    -1.9760 H     1 <1>   0.0800 
 38 H        2.0250     2.9850    -0.4490 H     1 <1>   0.0800 
 39 H        0.4080     3.3070    -0.9940 H     1 <1>   0.0800 
 40 H        3.5590    -2.1710    -0.6450 H     1 <1>   0.0800 
 41 H        3.7370    -3.0240     0.8590 H     1 <1>   0.0800 
 42 H        5.6510    -1.4580     0.5010 H     1 <1>   0.0800 
 43 H        5.5660    -0.4750     1.9590 H     1 <1>   0.0800 
 44 H        7.5480    -0.3170     0.2280 H     1 <1>   0.4570 
 45 H        7.8640     4.4370    -0.4140 H     1 <1>   0.1500 
 46 H        4.5740     3.1900     0.7020 H     1 <1>   0.0800 
 47 H        4.8670     3.8140    -0.9180 H     1 <1>   0.0800 
 48 H        9.9680    -0.6010     0.1780 H     1 <1>   0.1500 
 49 H        5.9380     4.7820     1.5110 H     1 <1>   0.4000 
 50 H       10.3180     4.2330    -0.6780 H     1 <1>   0.1500 
 51 H       12.3330     2.8400    -0.6300 H     1 <1>   0.1500 
 52 H       13.2110     0.5610     0.5710 H     1 <1>   0.0800 
 53 H       13.0510     0.2650    -1.1430 H     1 <1>   0.0800 
 54 H       12.3390    -0.8400     0.0040 H     1 <1>   0.0800 
@<TRIPOS>BOND
  1   1   2  1   
  2   1  26  1   
  3   2   3  1   
  4   2   4  1   
  5   2   5  1   
  6   3   6  1   
  7   3   7  1   
  8   3  27  1   
  9   4   8  1   
 10   4  28  1   
 11   4  29  1   
 12   5   9  1   
 13   5  30  1   
 14   5  31  1   
 15   6  10  1   
 16   6  11  1   
 17   6  32  1   
 18   7  12  1   
 19   7  33  1   
 20   7  34  1   
 21   8  10  1   
 22   8  35  1   
 23   8  36  1   
 24   9  37  1   
 25   9  38  1   
 26   9  39  1   
 27  10  40  1   
 28  10  41  1   
 29  11  12  1   
 30  11  42  1   
 31  11  43  1   
 32  12  13  1   
 33  13  14  ar  
 34  13  15  ar  
 35  14  16  ar  
 36  14  44  1   
 37  15  17  ar  
 38  15  18  1   
 39  16  19  ar  
 40  16  20  ar  
 41  17  19  ar  
 42  17  45  1   
 43  18  21  1   
 44  18  46  1   
 45  18  47  1   
 46  19  22  ar  
 47  20  23  ar  
 48  20  48  1   
 49  21  49  1   
 50  22  24  ar  
 51  22  50  1   
 52  23  24  ar  
 53  23  25  1   
 54  24  51  1   
 55  25  52  1   
 56  25  53  1   
 57  25  54  1   
@<TRIPOS>SUBSTRUCTURE
  1 ****  12 GROUP 4 **** **** 0

# MOE 2024.06 (io_trps.svl 2023.06)
