@<TRIPOS>MOLECULE
NONAME
64 68 1 0 0 
SMALL
USER_CHARGES


@<TRIPOS>ATOM
  1 O       -0.8870     0.3930     1.4620 O.2   1 <1>  -0.5700 
  2 C       -1.4300     0.9070     0.5160 C.2   1 <1>   0.5690 
  3 N       -2.1860     0.1500    -0.3430 N.am  1 <1>  -0.6600 
  4 C       -1.2250     2.4210     0.3730 C.3   1 <1>  -0.0190 
  5 C       -2.9910     0.5590    -1.5230 C.3   1 <1>   0.1400 
  6 C       -2.4090    -1.3000    -0.0800 C.3   1 <1>   0.1400 
  7 C       -2.4660     3.2350     0.7770 C.3   1 <1>  -0.1600 
  8 C       -0.6840     2.8870    -0.9900 C.3   1 <1>  -0.1600 
  9 C       -4.1090    -0.4760    -1.5910 C.3   1 <1>   0.2000 
 10 C       -3.4260    -1.7690    -1.1320 C.3   1 <1>  -0.0800 
 11 C       -2.1780     4.7350     0.7410 C.3   1 <1>   0.3430 
 12 C       -0.4180     4.3920    -0.9800 C.3   1 <1>   0.3430 
 13 O       -5.0840    -0.1020    -0.6770 O.3   1 <1>  -0.6800 
 14 C       -4.3960    -2.8620    -0.6340 C.3   1 <1>  -0.0160 
 15 N       -1.6640     5.1310    -0.6100 N.4   1 <1>  -0.9590 
 16 C       -3.7880    -4.2320    -0.3050 C.ar  1 <1>  -0.1440 
 17 C       -1.4670     6.6040    -0.7830 C.3   1 <1>   0.4230 
 18 C       -4.5870    -5.2190     0.3230 C.ar  1 <1>   0.0000 
 19 C       -2.4970    -4.5770    -0.5960 C.ar  1 <1>  -0.1500 
 20 C       -0.4970     7.2050     0.2480 C.3   1 <1>  -0.1600 
 21 C       -2.7860     7.3620    -0.6080 C.3   1 <1>  -0.1600 
 22 C       -3.9900    -6.4690     0.6230 C.ar  1 <1>   0.3100 
 23 C       -5.9500    -5.0440     0.6660 C.ar  1 <1>  -0.1500 
 24 C       -2.0060    -5.8440    -0.2590 C.ar  1 <1>   0.1600 
 25 C       -1.2750     8.2530     1.0530 C.3   1 <1>  -0.1600 
 26 C       -2.7520     7.9810     0.7890 C.3   1 <1>  -0.1600 
 27 N       -2.7010    -6.7640     0.3280 N.ar  1 <1>  -0.6200 
 28 C       -4.7600    -7.4610     1.2530 C.ar  1 <1>  -0.1500 
 29 C       -6.6730    -6.0320     1.2770 C.ar  1 <1>  -0.1500 
 30 C       -6.0730    -7.2570     1.5770 C.ar  1 <1>  -0.1500 
 31 H       -0.4610     2.6650     1.0930 H     1 <1>   0.0800 
 32 H       -3.3920     1.5510    -1.4390 H     1 <1>   0.0800 
 33 H       -2.3800     0.4850    -2.4050 H     1 <1>   0.0800 
 34 H       -1.4800    -1.8380    -0.1550 H     1 <1>   0.0800 
 35 H       -2.8010    -1.4220     0.9160 H     1 <1>   0.0800 
 36 H       -2.7520     2.9630     1.7800 H     1 <1>   0.0800 
 37 H       -3.3020     3.0170     0.1400 H     1 <1>   0.0800 
 38 H       -1.3670     2.6600    -1.7850 H     1 <1>   0.0800 
 39 H        0.2380     2.3710    -1.1970 H     1 <1>   0.0800 
 40 H       -4.5620    -0.5500    -2.5660 H     1 <1>   0.0800 
 41 H       -2.8830    -2.1500    -1.9780 H     1 <1>   0.0800 
 42 H       -1.4490     4.9770     1.4970 H     1 <1>   0.0800 
 43 H       -3.0850     5.2720     0.9650 H     1 <1>   0.0800 
 44 H       -0.0800     4.7020    -1.9560 H     1 <1>   0.0800 
 45 H        0.3610     4.6120    -0.2680 H     1 <1>   0.0800 
 46 H       -4.6760    -0.0360     0.2100 H     1 <1>   0.4000 
 47 H       -5.1550    -3.0080    -1.3830 H     1 <1>   0.0800 
 48 H       -4.8850    -2.4960     0.2520 H     1 <1>   0.0800 
 49 H       -2.3860     4.8620    -1.2870 H     1 <1>   0.4500 
 50 H       -1.0930     6.7940    -1.7770 H     1 <1>   0.0800 
 51 H       -1.8110    -3.9150    -1.0850 H     1 <1>   0.1500 
 52 H       -0.0850     6.4660     0.9100 H     1 <1>   0.0800 
 53 H        0.3190     7.6880    -0.2620 H     1 <1>   0.0800 
 54 H       -2.8010     8.1650    -1.3250 H     1 <1>   0.0800 
 55 H       -3.6590     6.7540    -0.7690 H     1 <1>   0.0800 
 56 H       -6.4400    -4.1160     0.4420 H     1 <1>   0.1500 
 57 H       -0.9810    -6.0660    -0.5030 H     1 <1>   0.1500 
 58 H       -1.0430     8.2130     2.1040 H     1 <1>   0.0800 
 59 H       -1.0290     9.2380     0.6880 H     1 <1>   0.0800 
 60 H       -3.3370     8.8850     0.8400 H     1 <1>   0.0800 
 61 H       -3.1320     7.2910     1.5220 H     1 <1>   0.0800 
 62 H       -4.2770    -8.3950     1.4710 H     1 <1>   0.1500 
 63 H       -7.7080    -5.8810     1.5320 H     1 <1>   0.1500 
 64 H       -6.6510    -8.0270     2.0590 H     1 <1>   0.1500 
@<TRIPOS>BOND
  1   1   2  2   
  2   2   3  am  
  3   2   4  1   
  4   3   5  1   
  5   3   6  1   
  6   4   7  1   
  7   4   8  1   
  8   4  31  1   
  9   5   9  1   
 10   5  32  1   
 11   5  33  1   
 12   6  10  1   
 13   6  34  1   
 14   6  35  1   
 15   7  11  1   
 16   7  36  1   
 17   7  37  1   
 18   8  12  1   
 19   8  38  1   
 20   8  39  1   
 21   9  10  1   
 22   9  13  1   
 23   9  40  1   
 24  10  14  1   
 25  10  41  1   
 26  11  15  1   
 27  11  42  1   
 28  11  43  1   
 29  12  15  1   
 30  12  44  1   
 31  12  45  1   
 32  13  46  1   
 33  14  16  1   
 34  14  47  1   
 35  14  48  1   
 36  15  17  1   
 37  15  49  1   
 38  16  18  ar  
 39  16  19  ar  
 40  17  20  1   
 41  17  21  1   
 42  17  50  1   
 43  18  22  ar  
 44  18  23  ar  
 45  19  24  ar  
 46  19  51  1   
 47  20  25  1   
 48  20  52  1   
 49  20  53  1   
 50  21  26  1   
 51  21  54  1   
 52  21  55  1   
 53  22  27  ar  
 54  22  28  ar  
 55  23  29  ar  
 56  23  56  1   
 57  24  27  ar  
 58  24  57  1   
 59  25  26  1   
 60  25  58  1   
 61  25  59  1   
 62  26  60  1   
 63  26  61  1   
 64  28  30  ar  
 65  28  62  1   
 66  29  30  ar  
 67  29  63  1   
 68  30  64  1   
@<TRIPOS>SUBSTRUCTURE
  1 ****   3 GROUP 4 **** **** 0

# MOE 2024.06 (io_trps.svl 2023.06)
