@<TRIPOS>MOLECULE
NONAME
54 56 1 0 0 
SMALL
USER_CHARGES


@<TRIPOS>ATOM
  1 O        0.5600     0.0240     0.7760 O.2   1 <1>  -0.5700 
  2 C        0.8210    -1.1200     1.0590 C.2   1 <1>   0.5690 
  3 N        0.3450    -1.6420     2.2150 N.am  1 <1>  -0.7300 
  4 C        1.7010    -1.9850     0.1160 C.3   1 <1>   0.2510 
  5 C        0.4600    -3.0780     2.5540 C.3   1 <1>   0.1400 
  6 N        1.7450    -3.4550     0.4410 N.3   1 <1>  -0.8100 
  7 C        3.1450    -1.4640     0.1420 C.3   1 <1>  -0.0990 
  8 C        0.6030    -3.9120     1.2710 C.3   1 <1>   0.1100 
  9 C        2.0390    -4.2940    -0.7370 C.3   1 <1>   0.1900 
 10 C        3.2440    -0.1170    -0.5320 C.2   1 <1>   0.5690 
 11 C        0.8010    -4.5740    -1.5940 C.3   1 <1>  -0.2400 
 12 C        2.7010    -5.5920    -0.2820 C.3   1 <1>  -0.2400 
 13 O        3.0980    -0.0750    -1.7300 O.2   1 <1>  -0.5700 
 14 N        3.5170     0.9800     0.2370 N.am  1 <1>  -0.4940 
 15 C        3.6360     2.3380    -0.1370 C.2   1 <1>  -0.0880 
 16 N        2.8320     3.0140    -1.0010 N.pl3 1 <1>   0.3140 
 17 C        4.5470     3.2320     0.3080 C.2   1 <1>  -0.1810 
 18 N        3.2050     4.3040    -1.1190 N.2   1 <1>  -0.7070 
 19 C        1.6250     2.5250    -1.6810 C.3   1 <1>   0.0160 
 20 C        4.2360     4.4420    -0.3280 C.2   1 <1>   0.2350 
 21 C        5.6960     2.9890     1.2730 C.3   1 <1>  -0.0590 
 22 C        4.9480     5.6910    -0.1630 C.ar  1 <1>   0.0540 
 23 C        5.4270     6.3830    -1.2720 C.ar  1 <1>  -0.1500 
 24 C        5.1760     6.2460     1.0950 C.ar  1 <1>  -0.1500 
 25 C        6.1240     7.5700    -1.1350 C.ar  1 <1>  -0.1500 
 26 C        5.8730     7.4320     1.2410 C.ar  1 <1>  -0.1500 
 27 C        6.3510     8.0960     0.1250 C.ar  1 <1>  -0.1500 
 28 H       -0.2220    -1.0380     2.8130 H     1 <1>   0.3700 
 29 H        1.3020    -1.8600    -0.8750 H     1 <1>   0.0800 
 30 H       -0.4200    -3.3920     3.0880 H     1 <1>   0.0800 
 31 H        1.3180    -3.2320     3.1850 H     1 <1>   0.0800 
 32 H        3.7970    -2.1310    -0.3870 H     1 <1>   0.0800 
 33 H        3.4840    -1.4020     1.1590 H     1 <1>   0.0800 
 34 H       -0.3140    -3.8380     0.7130 H     1 <1>   0.0800 
 35 H        0.7430    -4.9410     1.5490 H     1 <1>   0.0800 
 36 H        2.7540    -3.7790    -1.3590 H     1 <1>   0.0800 
 37 H        0.1070    -5.2160    -1.0820 H     1 <1>   0.0800 
 38 H        1.1010    -5.0730    -2.4970 H     1 <1>   0.0800 
 39 H        0.3110    -3.6590    -1.8690 H     1 <1>   0.0800 
 40 H        2.0130    -6.2160     0.2570 H     1 <1>   0.0800 
 41 H        3.5480    -5.3710     0.3430 H     1 <1>   0.0800 
 42 H        3.0490    -6.1400    -1.1380 H     1 <1>   0.0800 
 43 H        3.6390     0.8040     1.2330 H     1 <1>   0.3700 
 44 H        1.1140     1.8290    -1.0440 H     1 <1>   0.0800 
 45 H        1.9120     2.0410    -2.5950 H     1 <1>   0.0800 
 46 H        0.9810     3.3560    -1.8980 H     1 <1>   0.0800 
 47 H        5.8960     1.9370     1.3620 H     1 <1>   0.0800 
 48 H        5.4530     3.3820     2.2430 H     1 <1>   0.0800 
 49 H        6.5850     3.4730     0.9110 H     1 <1>   0.0800 
 50 H        5.2420     5.9750    -2.2500 H     1 <1>   0.1500 
 51 H        4.7940     5.7420     1.9630 H     1 <1>   0.1500 
 52 H        6.4870     8.0850    -2.0070 H     1 <1>   0.1500 
 53 H        6.0400     7.8430     2.2220 H     1 <1>   0.1500 
 54 H        6.8930     9.0190     0.2360 H     1 <1>   0.1500 
@<TRIPOS>BOND
  1   1   2  2   
  2   2   3  am  
  3   2   4  1   
  4   3   5  1   
  5   3  28  1   
  6   4   6  1   
  7   4   7  1   
  8   4  29  1   
  9   5   8  1   
 10   5  30  1   
 11   5  31  1   
 12   6   8  1   
 13   6   9  1   
 14   7  10  1   
 15   7  32  1   
 16   7  33  1   
 17   8  34  1   
 18   8  35  1   
 19   9  11  1   
 20   9  12  1   
 21   9  36  1   
 22  10  13  2   
 23  10  14  am  
 24  11  37  1   
 25  11  38  1   
 26  11  39  1   
 27  12  40  1   
 28  12  41  1   
 29  12  42  1   
 30  14  15  1   
 31  14  43  1   
 32  15  16  1   
 33  15  17  2   
 34  16  18  1   
 35  16  19  1   
 36  17  20  1   
 37  17  21  1   
 38  18  20  2   
 39  19  44  1   
 40  19  45  1   
 41  19  46  1   
 42  20  22  1   
 43  21  47  1   
 44  21  48  1   
 45  21  49  1   
 46  22  23  ar  
 47  22  24  ar  
 48  23  25  ar  
 49  23  50  1   
 50  24  26  ar  
 51  24  51  1   
 52  25  27  ar  
 53  25  52  1   
 54  26  27  ar  
 55  26  53  1   
 56  27  54  1   
@<TRIPOS>SUBSTRUCTURE
  1 ****  14 GROUP 4 **** **** 0

# MOE 2024.06 (io_trps.svl 2023.06)
