@<TRIPOS>MOLECULE
NONAME
49 51 1 0 0 
SMALL
USER_CHARGES


@<TRIPOS>ATOM
  1 O        0.0030     1.2580     0.6450 O.2   1 <1>  -0.5700 
  2 C       -0.0660     2.4380     0.4120 C.2   1 <1>   0.5690 
  3 N       -1.0950     3.1760     0.8810 N.am  1 <1>  -0.7300 
  4 C        1.0030     3.1170    -0.4480 C.3   1 <1>   0.1810 
  5 C       -1.2660     4.6240     0.6050 C.3   1 <1>   0.3640 
  6 O        1.0260     4.5170    -0.2770 O.3   1 <1>  -0.5600 
  7 C       -2.7010     4.8680     0.1500 C.ar  1 <1>  -0.1440 
  8 C       -0.2420     5.1490    -0.4350 C.3   1 <1>   0.2610 
  9 C       -3.3960     5.9640     0.6420 C.ar  1 <1>  -0.1500 
 10 C       -3.3300     4.0280    -0.7620 C.ar  1 <1>  -0.1500 
 11 C       -0.0980     6.6670    -0.2910 C.2   1 <1>   0.5690 
 12 C       -4.6910     6.2270     0.2310 C.ar  1 <1>   0.0830 
 13 C       -4.6320     4.2750    -1.1640 C.ar  1 <1>  -0.1500 
 14 O       -0.9380     7.3970    -0.7580 O.2   1 <1>  -0.5700 
 15 N        0.9770     7.1610     0.3710 N.am  1 <1>  -0.7300 
 16 O       -5.2790     7.3480     0.7070 O.3   1 <1>  -0.3630 
 17 C       -5.3290     5.3620    -0.6650 C.ar  1 <1>   0.0830 
 18 C        1.3340     8.5900     0.4900 C.3   1 <1>   0.3200 
 19 C       -5.2990     8.4330    -0.1930 C.3   1 <1>   0.0400 
 20 O       -6.6090     5.5210    -1.0890 O.3   1 <1>  -0.3620 
 21 C        2.7790     8.8030     0.0760 C.2   1 <1>  -0.0400 
 22 C       -7.6130     5.6880    -0.1110 C.3   1 <1>   0.0400 
 23 O        3.3360     9.9690     0.3400 O.3   1 <1>  -0.2800 
 24 C        3.6650     7.9920    -0.5460 C.2   1 <1>  -0.1500 
 25 C        4.5770     9.9330    -0.0990 C.2   1 <1>  -0.0400 
 26 C        4.8460     8.7350    -0.6600 C.2   1 <1>  -0.1500 
 27 C        5.4450    11.1580     0.0810 C.3   1 <1>  -0.0600 
 28 H       -1.8250     2.7150     1.4270 H     1 <1>   0.3700 
 29 H        0.8210     2.9020    -1.4850 H     1 <1>   0.0800 
 30 H        1.9710     2.7360    -0.1790 H     1 <1>   0.0800 
 31 H       -1.1040     5.1510     1.5300 H     1 <1>   0.0800 
 32 H       -0.5940     4.9390    -1.4280 H     1 <1>   0.0800 
 33 H       -2.9360     6.6430     1.3370 H     1 <1>   0.1500 
 34 H       -2.8150     3.1740    -1.1680 H     1 <1>   0.1500 
 35 H       -5.1180     3.6220    -1.8660 H     1 <1>   0.1500 
 36 H        1.7100     6.5040     0.6540 H     1 <1>   0.3700 
 37 H        0.6910     9.1940    -0.1280 H     1 <1>   0.0800 
 38 H        1.2110     8.8990     1.5130 H     1 <1>   0.0800 
 39 H       -5.7570     9.2720     0.2980 H     1 <1>   0.0800 
 40 H       -5.8670     8.1560    -1.0630 H     1 <1>   0.0800 
 41 H       -4.2860     8.6730    -0.4690 H     1 <1>   0.0800 
 42 H       -8.5600     5.4450    -0.5580 H     1 <1>   0.0800 
 43 H       -7.6200     6.7110     0.2180 H     1 <1>   0.0800 
 44 H       -7.4130     5.0280     0.7150 H     1 <1>   0.0800 
 45 H        3.5280     6.9860    -0.8990 H     1 <1>   0.1500 
 46 H        5.7600     8.3910    -1.1090 H     1 <1>   0.1500 
 47 H        6.4240    10.9820    -0.3240 H     1 <1>   0.0800 
 48 H        5.5330    11.3880     1.1270 H     1 <1>   0.0800 
 49 H        4.9990    11.9940    -0.4260 H     1 <1>   0.0800 
@<TRIPOS>BOND
  1   1   2  2   
  2   2   3  am  
  3   2   4  1   
  4   3   5  1   
  5   3  28  1   
  6   4   6  1   
  7   4  29  1   
  8   4  30  1   
  9   5   7  1   
 10   5   8  1   
 11   5  31  1   
 12   6   8  1   
 13   7   9  ar  
 14   7  10  ar  
 15   8  11  1   
 16   8  32  1   
 17   9  12  ar  
 18   9  33  1   
 19  10  13  ar  
 20  10  34  1   
 21  11  14  2   
 22  11  15  am  
 23  12  16  1   
 24  12  17  ar  
 25  13  17  ar  
 26  13  35  1   
 27  15  18  1   
 28  15  36  1   
 29  16  19  1   
 30  17  20  1   
 31  18  21  1   
 32  18  37  1   
 33  18  38  1   
 34  19  39  1   
 35  19  40  1   
 36  19  41  1   
 37  20  22  1   
 38  21  23  1   
 39  21  24  2   
 40  22  42  1   
 41  22  43  1   
 42  22  44  1   
 43  23  25  1   
 44  24  26  1   
 45  24  45  1   
 46  25  26  2   
 47  25  27  1   
 48  26  46  1   
 49  27  47  1   
 50  27  48  1   
 51  27  49  1   
@<TRIPOS>SUBSTRUCTURE
  1 ****  11 GROUP 4 **** **** 0

# MOE 2024.06 (io_trps.svl 2023.06)
