@<TRIPOS>MOLECULE
NONAME
45 47 1 0 0 
SMALL
USER_CHARGES


@<TRIPOS>ATOM
  1 F       -3.0340    -2.0550     2.5060 F     1 <1>  -0.3400 
  2 C       -2.5980    -2.1640     1.2540 C.3   1 <1>   0.8560 
  3 F       -1.2800    -1.9990     1.3300 F     1 <1>  -0.3400 
  4 N       -3.2270    -1.1040     0.3970 N.pl3 1 <1>   0.0480 
  5 C       -4.2230    -1.3470    -0.5270 C.2   1 <1>  -0.2370 
  6 C       -2.9210     0.2300     0.3190 C.2   1 <1>  -0.3320 
  7 C       -4.8640    -2.6180    -0.7230 C.2   1 <1>   0.7150 
  8 C       -4.4860    -0.1760    -1.1870 C.2   1 <1>  -0.1500 
  9 C       -3.6760     0.8140    -0.6480 C.2   1 <1>  -0.1500 
 10 C       -1.8890     0.9300     1.1890 C.3   1 <1>  -0.0600 
 11 O       -5.1490    -3.0040    -1.8400 O.2   1 <1>  -0.5700 
 12 N       -5.2570    -3.3580     0.3590 N.am  1 <1>  -0.6600 
 13 C       -5.1300    -4.8460     0.3830 C.3   1 <1>   0.3640 
 14 C       -6.5510    -2.9540     0.9750 C.3   1 <1>   0.1400 
 15 C       -3.7340    -5.3210    -0.0340 C.ar  1 <1>  -0.1440 
 16 C       -6.3250    -5.4970    -0.3510 C.3   1 <1>   0.2000 
 17 C       -7.7190    -3.6860     0.2790 C.3   1 <1>   0.1200 
 18 C       -3.3500    -5.4360    -1.3640 C.ar  1 <1>  -0.1500 
 19 C       -2.8200    -5.6540     0.9570 C.ar  1 <1>  -0.1500 
 20 O       -7.5190    -5.0760     0.2710 O.3   1 <1>  -0.5600 
 21 C       -6.2700    -7.0380    -0.3630 C.3   1 <1>   0.1200 
 22 C       -2.0770    -5.8650    -1.6940 C.ar  1 <1>  -0.1500 
 23 C       -1.5460    -6.0830     0.6290 C.ar  1 <1>  -0.1500 
 24 O       -5.9270    -7.5770     0.8780 O.3   1 <1>  -0.6800 
 25 C       -1.1730    -6.1870    -0.6980 C.ar  1 <1>  -0.1500 
 26 H       -2.7900    -3.1580     0.9040 H     1 <1>   0.0800 
 27 H       -5.1980    -0.0320    -1.9810 H     1 <1>   0.1500 
 28 H       -3.6670     1.8450    -0.9580 H     1 <1>   0.1500 
 29 H       -1.9100     1.9900     1.0090 H     1 <1>   0.0800 
 30 H       -0.9010     0.5690     0.9620 H     1 <1>   0.0800 
 31 H       -2.0960     0.7570     2.2300 H     1 <1>   0.0800 
 32 H       -5.2420    -5.1420     1.4120 H     1 <1>   0.0800 
 33 H       -6.5470    -3.1970     2.0240 H     1 <1>   0.0800 
 34 H       -6.6880    -1.8900     0.8820 H     1 <1>   0.0800 
 35 H       -6.3570    -5.1600    -1.3720 H     1 <1>   0.0800 
 36 H       -7.8200    -3.3510    -0.7400 H     1 <1>   0.0800 
 37 H       -8.6420    -3.4920     0.7970 H     1 <1>   0.0800 
 38 H       -4.0330    -5.1910    -2.1590 H     1 <1>   0.1500 
 39 H       -3.0900    -5.5810     1.9980 H     1 <1>   0.1500 
 40 H       -5.5400    -7.3790    -1.0770 H     1 <1>   0.0800 
 41 H       -7.2320    -7.4290    -0.6430 H     1 <1>   0.0800 
 42 H       -1.7890    -5.9440    -2.7290 H     1 <1>   0.1500 
 43 H       -0.8440    -6.3360     1.4040 H     1 <1>   0.1500 
 44 H       -4.9560    -7.5920     0.9890 H     1 <1>   0.4000 
 45 H       -0.1820    -6.5190    -0.9570 H     1 <1>   0.1500 
@<TRIPOS>BOND
  1   1   2  1   
  2   2   3  1   
  3   2   4  1   
  4   2  26  1   
  5   4   5  1   
  6   4   6  1   
  7   5   7  1   
  8   5   8  2   
  9   6   9  2   
 10   6  10  1   
 11   7  11  2   
 12   7  12  am  
 13   8   9  1   
 14   8  27  1   
 15   9  28  1   
 16  10  29  1   
 17  10  30  1   
 18  10  31  1   
 19  12  13  1   
 20  12  14  1   
 21  13  15  1   
 22  13  16  1   
 23  13  32  1   
 24  14  17  1   
 25  14  33  1   
 26  14  34  1   
 27  15  18  ar  
 28  15  19  ar  
 29  16  20  1   
 30  16  21  1   
 31  16  35  1   
 32  17  20  1   
 33  17  36  1   
 34  17  37  1   
 35  18  22  ar  
 36  18  38  1   
 37  19  23  ar  
 38  19  39  1   
 39  21  24  1   
 40  21  40  1   
 41  21  41  1   
 42  22  25  ar  
 43  22  42  1   
 44  23  25  ar  
 45  23  43  1   
 46  24  44  1   
 47  25  45  1   
@<TRIPOS>SUBSTRUCTURE
  1 ****  12 GROUP 4 **** **** 0

# MOE 2024.06 (io_trps.svl 2023.06)
