@<TRIPOS>MOLECULE
NONAME
39 40 1 0 0 
SMALL
USER_CHARGES


@<TRIPOS>ATOM
  1 O        0.9540     1.6460     0.4170 O.2   1 <1>  -0.5700 
  2 C        1.5390     0.6440     0.7830 C.2   1 <1>   0.5440 
  3 N        1.3300     0.2000     2.0620 N.am  1 <1>  -0.7300 
  4 C        2.4540    -0.0300    -0.1080 C.ar  1 <1>   0.0860 
  5 C        0.4390     0.8230     3.0740 C.3   1 <1>   0.0600 
  6 C        2.5750    -1.4350    -0.1580 C.ar  1 <1>   0.4100 
  7 C        3.2610     0.7150    -0.9580 C.ar  1 <1>  -0.1500 
  8 N        3.4400    -2.0720    -0.9450 N.ar  1 <1>  -0.6200 
  9 N        1.7670    -2.2470     0.6090 N.pl3 1 <1>  -0.8690 
 10 C        4.1470     0.0530    -1.7740 C.ar  1 <1>  -0.1500 
 11 C        4.2000    -1.3270    -1.7230 C.ar  1 <1>   0.1600 
 12 C        1.6800    -3.7090     0.5240 C.3   1 <1>   0.4690 
 13 C        0.2490    -4.0080     0.1220 C.2   1 <1>  -0.3320 
 14 C        2.0710    -4.2840     1.8910 C.3   1 <1>  -0.1600 
 15 N       -0.2020    -3.8290    -1.1400 N.pl3 1 <1>   0.3140 
 16 C       -0.8010    -4.4650     0.8440 C.2   1 <1>  -0.1500 
 17 C        2.1580    -5.8190     1.8990 C.3   1 <1>  -0.2400 
 18 N       -1.5000    -4.1600    -1.2490 N.2   1 <1>  -0.7070 
 19 C        0.5430    -3.3220    -2.3030 C.3   1 <1>   0.0160 
 20 C       -1.8510    -4.5380    -0.0600 C.2   1 <1>   0.1390 
 21 H        1.8450    -0.6360     2.3590 H     1 <1>   0.3700 
 22 H       -0.0570     1.6850     2.6600 H     1 <1>   0.0800 
 23 H        1.0180     1.1330     3.9260 H     1 <1>   0.0800 
 24 H       -0.3070     0.1130     3.3880 H     1 <1>   0.0800 
 25 H        3.1890     1.7900    -0.9670 H     1 <1>   0.1500 
 26 H        0.8620    -1.8540     0.8890 H     1 <1>   0.4000 
 27 H        4.7930     0.5960    -2.4410 H     1 <1>   0.1500 
 28 H        4.9030    -1.8400    -2.3590 H     1 <1>   0.1500 
 29 H        2.3550    -4.1040    -0.2160 H     1 <1>   0.0800 
 30 H        1.3660    -3.9580     2.6340 H     1 <1>   0.0800 
 31 H        3.0380    -3.8920     2.1540 H     1 <1>   0.0800 
 32 H       -0.8550    -4.7250     1.8860 H     1 <1>   0.1500 
 33 H        1.2100    -6.2610     1.6510 H     1 <1>   0.0800 
 34 H        2.4500    -6.1650     2.8750 H     1 <1>   0.0800 
 35 H        2.8900    -6.1560     1.1860 H     1 <1>   0.0800 
 36 H        1.4900    -3.8220    -2.3710 H     1 <1>   0.0800 
 37 H        0.6970    -2.2660    -2.1880 H     1 <1>   0.0800 
 38 H       -0.0270    -3.5070    -3.1940 H     1 <1>   0.0800 
 39 H       -2.8460    -4.8690     0.1850 H     1 <1>   0.1500 
@<TRIPOS>BOND
  1   1   2  2   
  2   2   3  am  
  3   2   4  1   
  4   3   5  1   
  5   3  21  1   
  6   4   6  ar  
  7   4   7  ar  
  8   5  22  1   
  9   5  23  1   
 10   5  24  1   
 11   6   8  ar  
 12   6   9  1   
 13   7  10  ar  
 14   7  25  1   
 15   8  11  ar  
 16   9  12  1   
 17   9  26  1   
 18  10  11  ar  
 19  10  27  1   
 20  11  28  1   
 21  12  13  1   
 22  12  14  1   
 23  12  29  1   
 24  13  15  1   
 25  13  16  2   
 26  14  17  1   
 27  14  30  1   
 28  14  31  1   
 29  15  18  1   
 30  15  19  1   
 31  16  20  1   
 32  16  32  1   
 33  17  33  1   
 34  17  34  1   
 35  17  35  1   
 36  18  20  2   
 37  19  36  1   
 38  19  37  1   
 39  19  38  1   
 40  20  39  1   
@<TRIPOS>SUBSTRUCTURE
  1 ****   9 GROUP 4 **** **** 0

# MOE 2024.06 (io_trps.svl 2023.06)
