@<TRIPOS>MOLECULE
NONAME
53 56 1 0 0 
SMALL
USER_CHARGES


@<TRIPOS>ATOM
  1 O       -1.5650     0.6440    -1.8440 O.2   1 <1>  -0.5700 
  2 C       -1.8160     1.0890    -0.7350 C.2   1 <1>   0.7150 
  3 N       -2.8140     0.4560    -0.0060 N.am  1 <1>  -0.6600 
  4 C       -1.0640     2.2230    -0.2560 C.2   1 <1>   0.1020 
  5 C       -3.7820    -0.4800    -0.6680 C.3   1 <1>   0.1400 
  6 C       -2.9510     0.5920     1.4740 C.3   1 <1>   0.1400 
  7 N       -1.4450     3.1160     0.6320 N.2   1 <1>  -0.3380 
  8 N        0.1720     2.5180    -0.7060 N.pl3 1 <1>   0.3340 
  9 C       -5.2470    -0.0990    -0.4010 C.3   1 <1>   0.1400 
 10 C       -4.1120     1.5370     1.8080 C.3   1 <1>  -0.1600 
 11 N       -0.4720     3.9930     0.7860 N.2   1 <1>  -0.3380 
 12 C        0.4960     3.6380    -0.0150 C.2   1 <1>   0.3120 
 13 C        1.0920     1.9780    -1.5930 C.2   1 <1>  -0.1810 
 14 N       -5.6330    -0.3320     1.0270 N.am  1 <1>  -0.6600 
 15 C       -5.4820     0.8530     1.9250 C.3   1 <1>   0.1400 
 16 N        1.6970     4.2890    -0.1510 N.2   1 <1>  -0.5760 
 17 C        2.2830     2.6120    -1.7360 C.2   1 <1>  -0.1360 
 18 C       -6.1370    -1.5200     1.5140 C.2   1 <1>   0.5690 
 19 C        2.5460     3.7870    -0.9820 C.2   1 <1>   0.3750 
 20 O       -6.5050    -1.6200     2.6630 O.2   1 <1>  -0.5700 
 21 C       -6.2100    -2.7850     0.6810 C.3   1 <1>   0.1570 
 22 C        3.8810     4.4750    -1.1640 C.3   1 <1>  -0.1790 
 23 N       -7.2590    -2.7080    -0.3450 N.pl3 1 <1>   0.3140 
 24 N       -6.9410    -2.8580    -1.6470 N.2   1 <1>  -0.7070 
 25 C       -8.5930    -2.5360    -0.1870 C.2   1 <1>  -0.3320 
 26 C       -8.0670    -2.7740    -2.2800 C.2   1 <1>   0.1080 
 27 C       -9.1380    -2.5720    -1.4200 C.2   1 <1>  -0.1500 
 28 C       -9.3060    -2.3470     1.1430 C.3   1 <1>  -0.0600 
 29 C       -8.1630    -2.8910    -3.7830 C.3   1 <1>  -0.0590 
 30 H       -3.5970    -1.4830    -0.3300 H     1 <1>   0.0800 
 31 H       -3.6360    -0.4700    -1.7340 H     1 <1>   0.0800 
 32 H       -2.0400     0.9830     1.8920 H     1 <1>   0.0800 
 33 H       -3.1120    -0.3740     1.9210 H     1 <1>   0.0800 
 34 H       -5.8800    -0.6650    -1.0540 H     1 <1>   0.0800 
 35 H       -5.3960     0.9360    -0.6570 H     1 <1>   0.0800 
 36 H       -4.1580     2.3280     1.0800 H     1 <1>   0.0800 
 37 H       -3.9060     2.0080     2.7520 H     1 <1>   0.0800 
 38 H        0.8170     1.0850    -2.1270 H     1 <1>   0.1500 
 39 H       -6.2600     1.5640     1.7040 H     1 <1>   0.0800 
 40 H       -5.6130     0.5470     2.9490 H     1 <1>   0.0800 
 41 H        3.0430     2.2530    -2.4070 H     1 <1>   0.1500 
 42 H       -6.4290    -3.6190     1.3190 H     1 <1>   0.0800 
 43 H       -5.2680    -2.9610     0.2040 H     1 <1>   0.0800 
 44 H        4.6780     3.8050    -0.8980 H     1 <1>   0.0800 
 45 H        3.9390     5.3450    -0.5340 H     1 <1>   0.0800 
 46 H        3.9980     4.7820    -2.1860 H     1 <1>   0.0800 
 47 H      -10.1700    -2.4720    -1.7050 H     1 <1>   0.1500 
 48 H       -9.0570    -3.1440     1.8210 H     1 <1>   0.0800 
 49 H      -10.3710    -2.3450     0.9950 H     1 <1>   0.0800 
 50 H       -9.0250    -1.4090     1.5880 H     1 <1>   0.0800 
 51 H       -7.8230    -3.8630    -4.0880 H     1 <1>   0.0800 
 52 H       -7.5410    -2.1440    -4.2410 H     1 <1>   0.0800 
 53 H       -9.1780    -2.7540    -4.1060 H     1 <1>   0.0800 
@<TRIPOS>BOND
  1   1   2  2   
  2   2   3  am  
  3   2   4  1   
  4   3   5  1   
  5   3   6  1   
  6   4   7  2   
  7   4   8  1   
  8   5   9  1   
  9   5  30  1   
 10   5  31  1   
 11   6  10  1   
 12   6  32  1   
 13   6  33  1   
 14   7  11  1   
 15   8  12  1   
 16   8  13  1   
 17   9  14  1   
 18   9  34  1   
 19   9  35  1   
 20  10  15  1   
 21  10  36  1   
 22  10  37  1   
 23  11  12  2   
 24  12  16  1   
 25  13  17  2   
 26  13  38  1   
 27  14  15  1   
 28  14  18  am  
 29  15  39  1   
 30  15  40  1   
 31  16  19  2   
 32  17  19  1   
 33  17  41  1   
 34  18  20  2   
 35  18  21  1   
 36  19  22  1   
 37  21  23  1   
 38  21  42  1   
 39  21  43  1   
 40  22  44  1   
 41  22  45  1   
 42  22  46  1   
 43  23  24  1   
 44  23  25  1   
 45  24  26  2   
 46  25  27  2   
 47  25  28  1   
 48  26  27  1   
 49  26  29  1   
 50  27  47  1   
 51  28  48  1   
 52  28  49  1   
 53  28  50  1   
 54  29  51  1   
 55  29  52  1   
 56  29  53  1   
@<TRIPOS>SUBSTRUCTURE
  1 ****   3 GROUP 4 **** **** 0

# MOE 2024.06 (io_trps.svl 2023.06)
