@<TRIPOS>MOLECULE
NONAME
40 41 1 0 0 
SMALL
USER_CHARGES


@<TRIPOS>ATOM
  1 O       -0.8700    -0.2990     0.2360 O.2   1 <1>  -0.5700 
  2 C       -1.3170    -1.4140     0.1190 C.2   1 <1>   0.5690 
  3 N       -0.7930    -2.5430     0.6470 N.am  1 <1>  -0.6600 
  4 C       -2.5620    -1.7160    -0.6660 C.3   1 <1>  -0.0990 
  5 C       -1.5970    -3.7410     0.3400 C.3   1 <1>   0.1400 
  6 C        0.4060    -2.6160     1.5060 C.3   1 <1>   0.1400 
  7 C       -2.8760    -3.1810    -0.3040 C.3   1 <1>  -0.0800 
  8 C        1.5260    -3.3410     0.7650 C.3   1 <1>  -0.2400 
  9 C       -3.3690    -4.0030    -1.5030 C.3   1 <1>   0.2090 
 10 N       -3.4590    -5.4460    -1.1470 N.pl3 1 <1>  -0.8380 
 11 C       -4.5600    -5.9720    -0.4880 C.ar  1 <1>   0.7200 
 12 C       -2.5020    -6.3650    -1.8320 C.3   1 <1>   0.1290 
 13 N       -4.5940    -7.2900    -0.3440 N.ar  1 <1>  -0.6200 
 14 N       -5.4770    -5.1090    -0.0550 N.ar  1 <1>  -0.6200 
 15 C       -5.6380    -7.8370     0.2900 C.ar  1 <1>   0.1310 
 16 C       -6.5000    -5.6320     0.5690 C.ar  1 <1>   0.1670 
 17 C       -5.7880    -9.2900     0.5080 C.2   1 <1>   0.9790 
 18 C       -6.6220    -6.9840     0.7630 C.ar  1 <1>  -0.1500 
 19 C       -7.5570    -4.6740     1.0740 C.3   1 <1>  -0.0970 
 20 O       -4.9970   -10.1370     0.0420 O.co2 1 <1>  -0.9000 
 21 O       -6.7480    -9.7220     1.1830 O.co2 1 <1>  -0.9000 
 22 H       -2.3420    -1.5940    -1.7100 H     1 <1>   0.0800 
 23 H       -3.3580    -1.0550    -0.3780 H     1 <1>   0.0800 
 24 H       -1.8290    -4.2960     1.2330 H     1 <1>   0.0800 
 25 H       -1.0550    -4.3670    -0.3460 H     1 <1>   0.0800 
 26 H        0.1620    -3.1320     2.4190 H     1 <1>   0.0800 
 27 H        0.7260    -1.6180     1.7570 H     1 <1>   0.0800 
 28 H       -3.6440    -3.1830     0.4490 H     1 <1>   0.0800 
 29 H        1.2450    -4.3570     0.5530 H     1 <1>   0.0800 
 30 H        2.4110    -3.3530     1.3740 H     1 <1>   0.0800 
 31 H        1.7490    -2.8280    -0.1540 H     1 <1>   0.0800 
 32 H       -2.6940    -3.8800    -2.3320 H     1 <1>   0.0800 
 33 H       -4.3360    -3.6460    -1.8150 H     1 <1>   0.0800 
 34 H       -1.6440    -5.8280    -2.1940 H     1 <1>   0.0800 
 35 H       -2.9960    -6.8480    -2.6570 H     1 <1>   0.0800 
 36 H       -2.1670    -7.1230    -1.1440 H     1 <1>   0.0800 
 37 H       -7.4710    -7.3950     1.2780 H     1 <1>   0.1500 
 38 H       -7.1120    -3.9800     1.7620 H     1 <1>   0.0800 
 39 H       -8.3470    -5.2040     1.5730 H     1 <1>   0.0800 
 40 H       -7.9710    -4.1290     0.2460 H     1 <1>   0.0800 
@<TRIPOS>BOND
  1   1   2  2   
  2   2   3  am  
  3   2   4  1   
  4   3   5  1   
  5   3   6  1   
  6   4   7  1   
  7   4  22  1   
  8   4  23  1   
  9   5   7  1   
 10   5  24  1   
 11   5  25  1   
 12   6   8  1   
 13   6  26  1   
 14   6  27  1   
 15   7   9  1   
 16   7  28  1   
 17   8  29  1   
 18   8  30  1   
 19   8  31  1   
 20   9  10  1   
 21   9  32  1   
 22   9  33  1   
 23  10  11  1   
 24  10  12  1   
 25  11  13  ar  
 26  11  14  ar  
 27  12  34  1   
 28  12  35  1   
 29  12  36  1   
 30  13  15  ar  
 31  14  16  ar  
 32  15  17  1   
 33  15  18  ar  
 34  16  18  ar  
 35  16  19  1   
 36  17  20  ar  
 37  17  21  ar  
 38  18  37  1   
 39  19  38  1   
 40  19  39  1   
 41  19  40  1   
@<TRIPOS>SUBSTRUCTURE
  1 ****  10 GROUP 4 **** **** 0

# MOE 2024.06 (io_trps.svl 2023.06)
