@<TRIPOS>MOLECULE
NONAME
44 46 1 0 0 
SMALL
USER_CHARGES


@<TRIPOS>ATOM
  1 O       -0.4010    -1.0130    -0.2330 O.2   1 <1>  -0.5700 
  2 C        0.4520    -1.8370    -0.0330 C.2   1 <1>   0.5690 
  3 N        0.1770    -3.0070     0.5790 N.am  1 <1>  -0.7300 
  4 C        1.8860    -1.5890    -0.4510 C.3   1 <1>  -0.0990 
  5 C        1.1930    -4.0410     0.8500 C.3   1 <1>   0.1400 
  6 C        2.4950    -2.8550    -1.0890 C.3   1 <1>  -0.0800 
  7 C        2.1260    -4.1790    -0.3710 C.3   1 <1>  -0.0800 
  8 C        4.0270    -2.8160    -1.1620 C.3   1 <1>  -0.1600 
  9 C        3.4600    -4.8630    -0.0350 C.3   1 <1>  -0.1600 
 10 C        4.4450    -4.2740    -1.0390 C.3   1 <1>   0.4230 
 11 N        5.8620    -4.4680    -0.6730 N.4   1 <1>  -0.9590 
 12 C        6.4060    -3.9070     0.6060 C.3   1 <1>   0.4860 
 13 C        6.3360    -5.8670    -0.8580 C.3   1 <1>   0.2630 
 14 C        6.9300    -2.4830     0.4320 C.ar  1 <1>  -0.1440 
 15 C        7.9160    -2.2290    -0.5290 C.ar  1 <1>  -0.1790 
 16 C        6.4630    -1.4550     1.2380 C.ar  1 <1>  -0.1500 
 17 C        8.3700    -3.3130    -1.3690 C.2   1 <1>   0.9790 
 18 C        8.4030    -0.9310    -0.6610 C.ar  1 <1>  -0.1500 
 19 C        6.9580    -0.1720     1.0920 C.ar  1 <1>  -0.1500 
 20 O        9.0520    -4.2310    -0.8950 O.co2 1 <1>  -0.9000 
 21 O        7.7540    -3.5270    -2.4260 O.co2 1 <1>  -0.9000 
 22 C        7.9290     0.0890     0.1420 C.ar  1 <1>  -0.1500 
 23 H       -0.7850    -3.1570     0.8940 H     1 <1>   0.3700 
 24 H        1.9200    -0.7700    -1.1470 H     1 <1>   0.0800 
 25 H        2.4320    -1.3050     0.4290 H     1 <1>   0.0800 
 26 H        1.7520    -3.7430     1.7220 H     1 <1>   0.0800 
 27 H        0.7110    -4.9820     1.0570 H     1 <1>   0.0800 
 28 H        2.1100    -2.9230    -2.0940 H     1 <1>   0.0800 
 29 H        1.6120    -4.7960    -1.0900 H     1 <1>   0.0800 
 30 H        4.4030    -2.2430    -0.3390 H     1 <1>   0.0800 
 31 H        4.3730    -2.3840    -2.0850 H     1 <1>   0.0800 
 32 H        3.3850    -5.9310    -0.1320 H     1 <1>   0.0800 
 33 H        3.7520    -4.6080     0.9670 H     1 <1>   0.0800 
 34 H        4.2690    -4.7390    -1.9960 H     1 <1>   0.0800 
 35 H        6.4120    -3.9640    -1.4170 H     1 <1>   0.4500 
 36 H        5.6590    -3.9360     1.3790 H     1 <1>   0.0800 
 37 H        7.2410    -4.5100     0.9240 H     1 <1>   0.0800 
 38 H        5.8860    -6.5220    -0.1310 H     1 <1>   0.0800 
 39 H        7.4100    -5.9040    -0.7520 H     1 <1>   0.0800 
 40 H        6.0920    -6.2110    -1.8500 H     1 <1>   0.0800 
 41 H        5.7140    -1.6410     1.9870 H     1 <1>   0.1500 
 42 H        9.1580    -0.7300    -1.4030 H     1 <1>   0.1500 
 43 H        6.5940     0.6250     1.7170 H     1 <1>   0.1500 
 44 H        8.3180     1.0860     0.0260 H     1 <1>   0.1500 
@<TRIPOS>BOND
  1   1   2  2   
  2   2   3  am  
  3   2   4  1   
  4   3   5  1   
  5   3  23  1   
  6   4   6  1   
  7   4  24  1   
  8   4  25  1   
  9   5   7  1   
 10   5  26  1   
 11   5  27  1   
 12   6   7  1   
 13   6   8  1   
 14   6  28  1   
 15   7   9  1   
 16   7  29  1   
 17   8  10  1   
 18   8  30  1   
 19   8  31  1   
 20   9  10  1   
 21   9  32  1   
 22   9  33  1   
 23  10  11  1   
 24  10  34  1   
 25  11  12  1   
 26  11  13  1   
 27  11  35  1   
 28  12  14  1   
 29  12  36  1   
 30  12  37  1   
 31  13  38  1   
 32  13  39  1   
 33  13  40  1   
 34  14  15  ar  
 35  14  16  ar  
 36  15  17  1   
 37  15  18  ar  
 38  16  19  ar  
 39  16  41  1   
 40  17  20  ar  
 41  17  21  ar  
 42  18  22  ar  
 43  18  42  1   
 44  19  22  ar  
 45  19  43  1   
 46  22  44  1   
@<TRIPOS>SUBSTRUCTURE
  1 ****   8 GROUP 4 **** **** 0

# MOE 2024.06 (io_trps.svl 2023.06)
