@<TRIPOS>MOLECULE
NONAME
49 51 1 0 0 
SMALL
USER_CHARGES


@<TRIPOS>ATOM
  1 F       -0.4880    -2.1910     0.1790 F     1 <1>  -0.3400 
  2 C       -1.6550    -2.2000    -0.4470 C.3   1 <1>   1.1640 
  3 F       -1.9800    -3.4790    -0.6180 F     1 <1>  -0.3400 
  4 F       -1.4440    -1.7140    -1.6620 F     1 <1>  -0.3400 
  5 C       -2.7850    -1.4520     0.2840 C.ar  1 <1>  -0.1440 
  6 C       -4.0760    -1.3650    -0.2530 C.ar  1 <1>  -0.1440 
  7 C       -2.5330    -0.8570     1.5190 C.ar  1 <1>  -0.1500 
  8 C       -5.0720    -0.7000     0.4510 C.ar  1 <1>  -0.1500 
  9 C       -4.4600    -1.9880    -1.5950 C.3   1 <1>   0.4870 
 10 C       -3.5330    -0.1980     2.2090 C.ar  1 <1>  -0.1500 
 11 C       -4.8040    -0.1220     1.6760 C.ar  1 <1>  -0.1500 
 12 N       -5.4700    -3.0480    -1.3640 N.4   1 <1>  -0.9590 
 13 C       -5.1570    -4.0210    -0.2480 C.3   1 <1>   0.3430 
 14 C       -5.9970    -3.6820    -2.5970 C.3   1 <1>   0.3430 
 15 C       -6.1920    -5.1890    -0.0990 C.3   1 <1>   0.4230 
 16 C       -7.2460    -4.5300    -2.2730 C.3   1 <1>  -0.1600 
 17 N       -6.4310    -5.6270     1.3240 N.4   1 <1>  -0.9590 
 18 C       -7.5270    -4.7840    -0.7550 C.3   1 <1>  -0.1060 
 19 C       -7.3340    -6.8060     1.4120 C.3   1 <1>   0.3430 
 20 C       -5.2280    -5.7860     2.1920 C.3   1 <1>   0.2630 
 21 C       -7.9590    -3.4930    -0.0280 C.2   1 <1>   0.9060 
 22 C       -8.5780    -5.9180    -0.6310 C.3   1 <1>  -0.1600 
 23 C       -8.6940    -6.4630     0.8010 C.3   1 <1>  -0.1600 
 24 O       -7.9710    -2.4340    -0.6600 O.co2 1 <1>  -0.9000 
 25 O       -7.9820    -3.4920     1.2050 O.co2 1 <1>  -0.9000 
 26 H       -1.5520    -0.8940     1.9660 H     1 <1>   0.1500 
 27 H       -6.0780    -0.6240     0.0640 H     1 <1>   0.1500 
 28 H       -3.6020    -2.4040    -2.0930 H     1 <1>   0.0800 
 29 H       -4.8790    -1.2230    -2.2300 H     1 <1>   0.0800 
 30 H       -3.3240     0.2590     3.1620 H     1 <1>   0.1500 
 31 H       -5.5880     0.3870     2.2120 H     1 <1>   0.1500 
 32 H       -6.3130    -2.5120    -1.0190 H     1 <1>   0.4500 
 33 H       -4.1800    -4.4450    -0.4030 H     1 <1>   0.0800 
 34 H       -5.1470    -3.4690     0.6780 H     1 <1>   0.0800 
 35 H       -6.2690    -2.9210    -3.3120 H     1 <1>   0.0800 
 36 H       -5.2370    -4.3050    -3.0390 H     1 <1>   0.0800 
 37 H       -5.8030    -6.0330    -0.6430 H     1 <1>   0.0800 
 38 H       -8.1040    -4.0400    -2.7040 H     1 <1>   0.0800 
 39 H       -7.1430    -5.4640    -2.7970 H     1 <1>   0.0800 
 40 H       -7.0160    -4.8290     1.7020 H     1 <1>   0.4500 
 41 H       -6.8990    -7.6420     0.8880 H     1 <1>   0.0800 
 42 H       -7.4760    -7.0850     2.4440 H     1 <1>   0.0800 
 43 H       -4.5890    -6.5660     1.8130 H     1 <1>   0.0800 
 44 H       -5.5310    -6.0450     3.1940 H     1 <1>   0.0800 
 45 H       -4.6730    -4.8640     2.2410 H     1 <1>   0.0800 
 46 H       -9.5410    -5.5520    -0.9490 H     1 <1>   0.0800 
 47 H       -8.3140    -6.7360    -1.2780 H     1 <1>   0.0800 
 48 H       -9.3100    -7.3460     0.7970 H     1 <1>   0.0800 
 49 H       -9.1900    -5.7430     1.4300 H     1 <1>   0.0800 
@<TRIPOS>BOND
  1   1   2  1   
  2   2   3  1   
  3   2   4  1   
  4   2   5  1   
  5   5   6  ar  
  6   5   7  ar  
  7   6   8  ar  
  8   6   9  1   
  9   7  10  ar  
 10   7  26  1   
 11   8  11  ar  
 12   8  27  1   
 13   9  12  1   
 14   9  28  1   
 15   9  29  1   
 16  10  11  ar  
 17  10  30  1   
 18  11  31  1   
 19  12  13  1   
 20  12  14  1   
 21  12  32  1   
 22  13  15  1   
 23  13  33  1   
 24  13  34  1   
 25  14  16  1   
 26  14  35  1   
 27  14  36  1   
 28  15  17  1   
 29  15  18  1   
 30  15  37  1   
 31  16  18  1   
 32  16  38  1   
 33  16  39  1   
 34  17  19  1   
 35  17  20  1   
 36  17  40  1   
 37  18  21  1   
 38  18  22  1   
 39  19  23  1   
 40  19  41  1   
 41  19  42  1   
 42  20  43  1   
 43  20  44  1   
 44  20  45  1   
 45  21  24  ar  
 46  21  25  ar  
 47  22  23  1   
 48  22  46  1   
 49  22  47  1   
 50  23  48  1   
 51  23  49  1   
@<TRIPOS>SUBSTRUCTURE
  1 ****  13 GROUP 4 **** **** 0

# MOE 2024.06 (io_trps.svl 2023.06)
