@<TRIPOS>MOLECULE
NONAME
54 56 1 0 0 
SMALL
USER_CHARGES


@<TRIPOS>ATOM
  1 O        1.7880    -0.5430     1.9230 O.co2 1 <1>  -0.9000 
  2 C        1.5340     0.5470     1.3840 C.2   1 <1>   0.9060 
  3 O        0.9080     1.4260     1.9730 O.co2 1 <1>  -0.9000 
  4 C        2.0340     0.8030    -0.0520 C.3   1 <1>  -0.1060 
  5 C        3.3650     0.0450    -0.2560 C.3   1 <1>   0.4230 
  6 C        2.2960     2.3210    -0.2770 C.3   1 <1>  -0.1600 
  7 C        0.9960     0.3150    -1.0900 C.3   1 <1>  -0.1600 
  8 N        3.1430    -1.4370    -0.1500 N.4   1 <1>  -0.9590 
  9 C        4.4410     0.6010     0.7040 C.3   1 <1>   0.1400 
 10 C        3.3990     2.8620     0.6450 C.3   1 <1>   0.1400 
 11 C        0.8490    -1.2140    -1.0600 C.3   1 <1>  -0.1600 
 12 C        2.1940    -1.9340    -1.1790 C.3   1 <1>   0.3430 
 13 C        4.3770    -2.2630    -0.0660 C.3   1 <1>   0.2630 
 14 N        4.6360     2.0560     0.4280 N.am  1 <1>  -0.6600 
 15 C        5.7950     2.5190    -0.1380 C.2   1 <1>   0.5690 
 16 O        6.6380     1.7510    -0.5410 O.2   1 <1>  -0.5700 
 17 C        6.0280     4.0150    -0.2940 C.3   1 <1>  -0.0990 
 18 C        7.4800     4.3870    -0.6240 C.3   1 <1>  -0.0170 
 19 C        7.6150     5.8960    -0.7550 C.ar  1 <1>  -0.1440 
 20 C        7.8610     6.6760     0.3630 C.ar  1 <1>  -0.1500 
 21 C        7.4860     6.5060    -1.9930 C.ar  1 <1>  -0.1500 
 22 C        7.9780     8.0530     0.2570 C.ar  1 <1>   0.0820 
 23 C        7.6010     7.8810    -2.1100 C.ar  1 <1>  -0.1500 
 24 O        8.2170     8.7370     1.4050 O.3   1 <1>  -0.3620 
 25 C        7.8460     8.6570    -0.9910 C.ar  1 <1>  -0.1500 
 26 C        8.3850    10.1370     1.4020 C.3   1 <1>   0.0400 
 27 H        3.7130     0.2530    -1.2530 H     1 <1>   0.0800 
 28 H        1.3910     2.8730    -0.0870 H     1 <1>   0.0800 
 29 H        2.5780     2.5090    -1.2980 H     1 <1>   0.0800 
 30 H        0.0420     0.7700    -0.8810 H     1 <1>   0.0800 
 31 H        1.2970     0.6190    -2.0780 H     1 <1>   0.0800 
 32 H        2.6280    -1.4900     0.7720 H     1 <1>   0.4500 
 33 H        5.3700     0.0820     0.5640 H     1 <1>   0.0800 
 34 H        4.1400     0.4760     1.7300 H     1 <1>   0.0800 
 35 H        3.0950     2.7810     1.6770 H     1 <1>   0.0800 
 36 H        3.5610     3.9030     0.4340 H     1 <1>   0.0800 
 37 H        0.2080    -1.5270    -1.8660 H     1 <1>   0.0800 
 38 H        0.3710    -1.5150    -0.1420 H     1 <1>   0.0800 
 39 H        2.6070    -1.7670    -2.1600 H     1 <1>   0.0800 
 40 H        2.0390    -2.9930    -1.0490 H     1 <1>   0.0800 
 41 H        4.9760    -2.1320    -0.9520 H     1 <1>   0.0800 
 42 H        4.1190    -3.3050     0.0320 H     1 <1>   0.0800 
 43 H        4.9580    -1.9770     0.7950 H     1 <1>   0.0800 
 44 H        5.3870     4.3790    -1.0750 H     1 <1>   0.0800 
 45 H        5.7560     4.5020     0.6240 H     1 <1>   0.0800 
 46 H        7.7800     3.9150    -1.5440 H     1 <1>   0.0800 
 47 H        8.1330     4.0300     0.1530 H     1 <1>   0.0800 
 48 H        7.9660     6.2250     1.3320 H     1 <1>   0.1500 
 49 H        7.2960     5.9140    -2.8710 H     1 <1>   0.1500 
 50 H        7.5000     8.3460    -3.0750 H     1 <1>   0.1500 
 51 H        7.9300     9.7200    -1.1090 H     1 <1>   0.1500 
 52 H        8.5750    10.4520     2.4120 H     1 <1>   0.0800 
 53 H        7.4820    10.5960     1.0400 H     1 <1>   0.0800 
 54 H        9.2230    10.3870     0.7770 H     1 <1>   0.0800 
@<TRIPOS>BOND
  1   1   2  ar  
  2   2   3  ar  
  3   2   4  1   
  4   4   5  1   
  5   4   6  1   
  6   4   7  1   
  7   5   8  1   
  8   5   9  1   
  9   5  27  1   
 10   6  10  1   
 11   6  28  1   
 12   6  29  1   
 13   7  11  1   
 14   7  30  1   
 15   7  31  1   
 16   8  12  1   
 17   8  13  1   
 18   8  32  1   
 19   9  14  1   
 20   9  33  1   
 21   9  34  1   
 22  10  14  1   
 23  10  35  1   
 24  10  36  1   
 25  11  12  1   
 26  11  37  1   
 27  11  38  1   
 28  12  39  1   
 29  12  40  1   
 30  13  41  1   
 31  13  42  1   
 32  13  43  1   
 33  14  15  am  
 34  15  16  2   
 35  15  17  1   
 36  17  18  1   
 37  17  44  1   
 38  17  45  1   
 39  18  19  1   
 40  18  46  1   
 41  18  47  1   
 42  19  20  ar  
 43  19  21  ar  
 44  20  22  ar  
 45  20  48  1   
 46  21  23  ar  
 47  21  49  1   
 48  22  24  1   
 49  22  25  ar  
 50  23  25  ar  
 51  23  50  1   
 52  24  26  1   
 53  25  51  1   
 54  26  52  1   
 55  26  53  1   
 56  26  54  1   
@<TRIPOS>SUBSTRUCTURE
  1 ****  14 GROUP 4 **** **** 0

# MOE 2024.06 (io_trps.svl 2023.06)
