@<TRIPOS>MOLECULE
NONAME
58 60 1 0 0 
SMALL
USER_CHARGES


@<TRIPOS>ATOM
  1 O       -1.3440     0.3020    -1.5070 O.2   1 <1>  -0.5700 
  2 C       -2.2170     1.1410    -1.3780 C.2   1 <1>   0.5440 
  3 N       -3.5040     0.7000    -1.1600 N.am  1 <1>  -0.6600 
  4 C       -1.8930     2.5580    -1.3890 C.ar  1 <1>   0.0860 
  5 C       -3.8870    -0.6870    -1.5240 C.3   1 <1>   0.1400 
  6 C       -4.2560     1.2310     0.0150 C.3   1 <1>   0.1400 
  7 C       -0.6960     3.0240    -0.8500 C.ar  1 <1>  -0.1500 
  8 C       -2.7640     3.5020    -1.9350 C.ar  1 <1>  -0.1500 
  9 C       -4.1410    -1.4000    -0.1810 C.3   1 <1>   0.4230 
 10 C       -5.4900     0.3410     0.3770 C.3   1 <1>  -0.1600 
 11 C       -0.3720     4.3710    -0.8290 C.ar  1 <1>   0.0730 
 12 C       -2.4580     4.8490    -1.9250 C.ar  1 <1>  -0.1500 
 13 N       -3.2770    -2.6180     0.0140 N.4   1 <1>  -0.9590 
 14 C       -5.6880    -1.2710     0.1830 C.3   1 <1>   0.0000 
 15 C        0.8610     4.8180    -0.2580 C.1   1 <1>  -0.0730 
 16 C       -1.2670     5.2810    -1.3720 C.ar  1 <1>  -0.1500 
 17 C       -3.7450    -3.7280    -0.7920 C.3   1 <1>   0.3430 
 18 C       -1.8160    -2.3380    -0.1880 C.3   1 <1>   0.2630 
 19 C       -6.0070    -2.8470    -0.0460 C.3   1 <1>  -0.1600 
 20 C       -7.2280    -1.0710     0.6170 C.3   1 <1>   0.1200 
 21 C        1.8830     5.2010     0.2180 C.1   1 <1>  -0.2000 
 22 C       -5.0480    -4.0540    -0.1310 C.3   1 <1>  -0.1600 
 23 O       -7.3180    -1.2760     1.9930 O.3   1 <1>  -0.6800 
 24 C        3.1610     5.6860     0.8090 C.3   1 <1>   0.4800 
 25 O        3.0340     7.0320     1.0220 O.3   1 <1>  -0.6800 
 26 C        4.3230     5.4870    -0.1570 C.3   1 <1>  -0.2400 
 27 C        3.4230     5.0350     2.1620 C.3   1 <1>  -0.2400 
 28 H       -4.7860    -0.6590    -2.1140 H     1 <1>   0.0800 
 29 H       -3.1240    -1.1600    -2.1150 H     1 <1>   0.0800 
 30 H       -3.5880     1.2770     0.8600 H     1 <1>   0.0800 
 31 H       -4.5810     2.2390    -0.1890 H     1 <1>   0.0800 
 32 H        0.0010     2.3160    -0.4370 H     1 <1>   0.1500 
 33 H       -3.6890     3.1740    -2.3770 H     1 <1>   0.1500 
 34 H       -3.6700    -0.7790     0.5570 H     1 <1>   0.0800 
 35 H       -5.7270     0.6190     1.3940 H     1 <1>   0.0800 
 36 H       -6.2010     0.8370    -0.2640 H     1 <1>   0.0800 
 37 H       -3.1420     5.5650    -2.3500 H     1 <1>   0.1500 
 38 H       -3.4120    -2.8910     0.9970 H     1 <1>   0.4500 
 39 H       -1.0240     6.3300    -1.3600 H     1 <1>   0.1500 
 40 H       -3.8820    -3.4360    -1.8210 H     1 <1>   0.0800 
 41 H       -3.0690    -4.5670    -0.7340 H     1 <1>   0.0800 
 42 H       -1.6060    -2.1200    -1.2230 H     1 <1>   0.0800 
 43 H       -1.2240    -3.1880     0.1090 H     1 <1>   0.0800 
 44 H       -1.5130    -1.4850     0.3990 H     1 <1>   0.0800 
 45 H       -6.6860    -3.2420     0.6970 H     1 <1>   0.0800 
 46 H       -6.5390    -2.8850    -0.9850 H     1 <1>   0.0800 
 47 H       -7.9360    -1.7350     0.1440 H     1 <1>   0.0800 
 48 H       -7.6960    -0.1160     0.4410 H     1 <1>   0.0800 
 49 H       -5.5250    -4.8530    -0.6730 H     1 <1>   0.0800 
 50 H       -4.8520    -4.4320     0.8590 H     1 <1>   0.0800 
 51 H       -8.2400    -1.1760     2.3080 H     1 <1>   0.4000 
 52 H        3.8580     7.3700     1.4090 H     1 <1>   0.4000 
 53 H        4.4420     4.4400    -0.3680 H     1 <1>   0.0800 
 54 H        5.2390     5.8560     0.2640 H     1 <1>   0.0800 
 55 H        4.1220     5.9950    -1.0830 H     1 <1>   0.0800 
 56 H        3.5110     3.9710     2.0400 H     1 <1>   0.0800 
 57 H        2.6010     5.2300     2.8290 H     1 <1>   0.0800 
 58 H        4.3330     5.4050     2.5960 H     1 <1>   0.0800 
@<TRIPOS>BOND
  1   1   2  2   
  2   2   3  am  
  3   2   4  1   
  4   3   5  1   
  5   3   6  1   
  6   4   7  ar  
  7   4   8  ar  
  8   5   9  1   
  9   5  28  1   
 10   5  29  1   
 11   6  10  1   
 12   6  30  1   
 13   6  31  1   
 14   7  11  ar  
 15   7  32  1   
 16   8  12  ar  
 17   8  33  1   
 18   9  13  1   
 19   9  14  1   
 20   9  34  1   
 21  10  14  1   
 22  10  35  1   
 23  10  36  1   
 24  11  15  1   
 25  11  16  ar  
 26  12  16  ar  
 27  12  37  1   
 28  13  17  1   
 29  13  18  1   
 30  13  38  1   
 31  14  19  1   
 32  14  20  1   
 33  15  21  3   
 34  16  39  1   
 35  17  22  1   
 36  17  40  1   
 37  17  41  1   
 38  18  42  1   
 39  18  43  1   
 40  18  44  1   
 41  19  22  1   
 42  19  45  1   
 43  19  46  1   
 44  20  23  1   
 45  20  47  1   
 46  20  48  1   
 47  21  24  1   
 48  22  49  1   
 49  22  50  1   
 50  23  51  1   
 51  24  25  1   
 52  24  26  1   
 53  24  27  1   
 54  25  52  1   
 55  26  53  1   
 56  26  54  1   
 57  26  55  1   
 58  27  56  1   
 59  27  57  1   
 60  27  58  1   
@<TRIPOS>SUBSTRUCTURE
  1 ****   2 GROUP 4 **** **** 0

# MOE 2024.06 (io_trps.svl 2023.06)
