@<TRIPOS>MOLECULE
NONAME
43 45 1 0 0 
SMALL
USER_CHARGES


@<TRIPOS>ATOM
  1 CL      -0.0740    -0.0290    -0.8220 Cl    1 <1>  -0.1770 
  2 C        1.2420    -1.0830    -0.3290 C.ar  1 <1>   0.1770 
  3 C        1.0770    -2.4550    -0.1460 C.ar  1 <1>   0.4100 
  4 C        2.4840    -0.5470    -0.1280 C.ar  1 <1>   0.1600 
  5 N        2.1140    -3.2020     0.2020 N.ar  1 <1>  -0.6200 
  6 N       -0.1330    -3.1130    -0.3030 N.pl3 1 <1>  -0.8380 
  7 N        3.5190    -1.2870     0.2300 N.ar  1 <1>  -0.6200 
  8 C        3.2650    -2.5770     0.3720 C.ar  1 <1>   0.4770 
  9 C       -0.1380    -4.5260    -0.7900 C.3   1 <1>   0.2090 
 10 C       -1.2850    -2.7280     0.5500 C.3   1 <1>   0.2090 
 11 C        4.4380    -3.4370     0.7750 C.3   1 <1>  -0.0960 
 12 C       -1.4020    -4.8980    -1.5900 C.3   1 <1>   0.2090 
 13 C       -2.5090    -2.4830    -0.3330 C.3   1 <1>  -0.1600 
 14 N       -2.6370    -5.0030    -0.7330 N.pl3 1 <1>  -0.8380 
 15 C       -3.3900    -3.7210    -0.5440 C.3   1 <1>   0.2090 
 16 C       -3.1080    -6.2000    -0.2740 C.ar  1 <1>   0.1000 
 17 C       -4.4780    -6.4300    -0.0700 C.ar  1 <1>  -0.1500 
 18 C       -2.2520    -7.2720     0.0170 C.ar  1 <1>  -0.1500 
 19 C       -4.9440    -7.6330     0.3980 C.ar  1 <1>   0.2180 
 20 C       -2.7400    -8.4640     0.4820 C.ar  1 <1>   0.2110 
 21 N       -4.0720    -8.6330     0.6690 N.ar  1 <1>  -0.1790 
 22 C       -6.4260    -7.8880     0.6210 C.3   1 <1>  -0.0970 
 23 H        2.6380     0.5090    -0.2630 H     1 <1>   0.1500 
 24 H       -0.0270    -5.1870     0.0490 H     1 <1>   0.0800 
 25 H        0.7130    -4.6680    -1.4330 H     1 <1>   0.0800 
 26 H       -1.0460    -1.8260     1.0870 H     1 <1>   0.0800 
 27 H       -1.4840    -3.4990     1.2750 H     1 <1>   0.0800 
 28 H        4.1000    -4.3930     1.1290 H     1 <1>   0.0800 
 29 H        4.9920    -2.9520     1.5570 H     1 <1>   0.0800 
 30 H        5.0800    -3.5810    -0.0740 H     1 <1>   0.0800 
 31 H       -1.2320    -5.8430    -2.0740 H     1 <1>   0.0800 
 32 H       -1.5530    -4.1720    -2.3700 H     1 <1>   0.0800 
 33 H       -2.2000    -2.0820    -1.2820 H     1 <1>   0.0800 
 34 H       -3.1180    -1.7310     0.1340 H     1 <1>   0.0800 
 35 H       -4.0270    -3.5570    -1.3970 H     1 <1>   0.0800 
 36 H       -4.0190    -3.8180     0.3240 H     1 <1>   0.0800 
 37 H       -5.1720    -5.6440    -0.3000 H     1 <1>   0.1500 
 38 H       -1.1940    -7.1500    -0.1170 H     1 <1>   0.1500 
 39 H       -2.0770    -9.2840     0.7080 H     1 <1>   0.1500 
 40 H       -4.4280    -9.5290     1.0180 H     1 <1>   0.4570 
 41 H       -7.0030    -7.0160     0.3650 H     1 <1>   0.0800 
 42 H       -6.6160    -8.1220     1.6540 H     1 <1>   0.0800 
 43 H       -6.7640    -8.7030     0.0060 H     1 <1>   0.0800 
@<TRIPOS>BOND
  1   1   2  1   
  2   2   3  ar  
  3   2   4  ar  
  4   3   5  ar  
  5   3   6  1   
  6   4   7  ar  
  7   4  23  1   
  8   5   8  ar  
  9   6   9  1   
 10   6  10  1   
 11   7   8  ar  
 12   8  11  1   
 13   9  12  1   
 14   9  24  1   
 15   9  25  1   
 16  10  13  1   
 17  10  26  1   
 18  10  27  1   
 19  11  28  1   
 20  11  29  1   
 21  11  30  1   
 22  12  14  1   
 23  12  31  1   
 24  12  32  1   
 25  13  15  1   
 26  13  33  1   
 27  13  34  1   
 28  14  15  1   
 29  14  16  1   
 30  15  35  1   
 31  15  36  1   
 32  16  17  ar  
 33  16  18  ar  
 34  17  19  ar  
 35  17  37  1   
 36  18  20  ar  
 37  18  38  1   
 38  19  21  ar  
 39  19  22  1   
 40  20  21  ar  
 41  20  39  1   
 42  21  40  1   
 43  22  41  1   
 44  22  42  1   
 45  22  43  1   
@<TRIPOS>SUBSTRUCTURE
  1 ****   9 GROUP 4 **** **** 0

# MOE 2024.06 (io_trps.svl 2023.06)
