@<TRIPOS>MOLECULE
NONAME
57 60 1 0 0 
SMALL
USER_CHARGES


@<TRIPOS>ATOM
  1 N       -4.4500     0.5880    -1.2370 N.2   1 <1>  -0.7070 
  2 N       -3.3530     0.4600    -0.4380 N.pl3 1 <1>   0.5930 
  3 C       -4.3230     1.7480    -1.8060 C.2   1 <1>   0.1390 
  4 C       -3.1290    -0.6980     0.3570 C.ar  1 <1>  -0.0230 
  5 C       -2.5770     1.5650    -0.5370 C.2   1 <1>  -0.3020 
  6 C       -3.1690     2.4090    -1.4050 C.2   1 <1>  -0.1500 
  7 C       -3.4340    -1.9510    -0.1580 C.ar  1 <1>  -0.1500 
  8 C       -2.6490    -0.6130     1.6600 C.ar  1 <1>  -0.1500 
  9 C       -3.3460    -3.0940     0.6220 C.ar  1 <1>  -0.1430 
 10 C       -2.5060    -1.7540     2.4290 C.ar  1 <1>  -0.1500 
 11 C       -2.8600    -2.9900     1.9170 C.ar  1 <1>  -0.1500 
 12 C       -3.8020    -4.4270     0.0490 C.3   1 <1>   0.4860 
 13 N       -5.2710    -4.6560     0.2860 N.4   1 <1>  -0.9590 
 14 C       -6.1040    -3.5400    -0.2690 C.3   1 <1>   0.4230 
 15 C       -5.5290    -4.9850     1.7240 C.3   1 <1>   0.2630 
 16 C       -6.5880    -2.4640     0.7120 C.3   1 <1>  -0.1600 
 17 C       -7.4060    -4.0450    -0.8800 C.3   1 <1>  -0.1600 
 18 C       -7.6780    -1.7350    -0.0830 C.3   1 <1>  -0.0800 
 19 C       -8.2260    -2.7590    -1.0830 C.3   1 <1>  -0.0800 
 20 C       -8.8850    -1.2490     0.7330 C.3   1 <1>  -0.1600 
 21 C       -9.7300    -2.8580    -0.7910 C.3   1 <1>  -0.1600 
 22 C      -10.1100    -1.5160    -0.1500 C.3   1 <1>   0.4230 
 23 N      -10.2620    -0.4470    -1.1910 N.4   1 <1>  -0.9590 
 24 C      -10.4950     0.9100    -0.5960 C.3   1 <1>   0.2630 
 25 C      -11.3750    -0.7320    -2.1550 C.3   1 <1>   0.2630 
 26 H       -5.0320     2.1520    -2.5100 H     1 <1>   0.1500 
 27 H       -1.6590     1.6750     0.0090 H     1 <1>   0.1500 
 28 H       -2.8470     3.3810    -1.7370 H     1 <1>   0.1500 
 29 H       -3.7670    -2.0070    -1.1810 H     1 <1>   0.1500 
 30 H       -2.3920     0.3450     2.0790 H     1 <1>   0.1500 
 31 H       -2.1240    -1.6750     3.4340 H     1 <1>   0.1500 
 32 H       -2.7490    -3.8610     2.5410 H     1 <1>   0.1500 
 33 H       -3.2290    -5.2220     0.4960 H     1 <1>   0.0800 
 34 H       -3.6020    -4.4320    -1.0100 H     1 <1>   0.0800 
 35 H       -5.5150    -5.4900    -0.2640 H     1 <1>   0.4500 
 36 H       -5.5590    -3.0490    -1.0580 H     1 <1>   0.0800 
 37 H       -5.2590    -4.1490     2.3510 H     1 <1>   0.0800 
 38 H       -4.9480    -5.8410     2.0250 H     1 <1>   0.0800 
 39 H       -6.5720    -5.2070     1.8770 H     1 <1>   0.0800 
 40 H       -7.0250    -2.9060     1.5870 H     1 <1>   0.0800 
 41 H       -5.8130    -1.7810     1.0060 H     1 <1>   0.0800 
 42 H       -7.2400    -4.5490    -1.8160 H     1 <1>   0.0800 
 43 H       -7.9020    -4.7060    -0.1910 H     1 <1>   0.0800 
 44 H       -7.2370    -0.9120    -0.6260 H     1 <1>   0.0800 
 45 H       -8.0690    -2.3840    -2.0820 H     1 <1>   0.0800 
 46 H       -8.7740    -0.2310     1.0580 H     1 <1>   0.0800 
 47 H       -8.9940    -1.8520     1.6180 H     1 <1>   0.0800 
 48 H       -9.9050    -3.6250    -0.0560 H     1 <1>   0.0800 
 49 H      -10.3020    -3.1170    -1.6630 H     1 <1>   0.0800 
 50 H      -11.0110    -1.5990     0.4380 H     1 <1>   0.0800 
 51 H       -9.3760    -0.4170    -1.7150 H     1 <1>   0.4500 
 52 H      -11.3660     0.8970     0.0390 H     1 <1>   0.0800 
 53 H      -10.6510     1.6370    -1.3770 H     1 <1>   0.0800 
 54 H       -9.6460     1.2240    -0.0130 H     1 <1>   0.0800 
 55 H      -12.3080    -0.8470    -1.6270 H     1 <1>   0.0800 
 56 H      -11.1800    -1.6330    -2.7110 H     1 <1>   0.0800 
 57 H      -11.4760     0.0790    -2.8570 H     1 <1>   0.0800 
@<TRIPOS>BOND
  1   1   2  1   
  2   1   3  2   
  3   2   4  1   
  4   2   5  1   
  5   3   6  1   
  6   3  26  1   
  7   4   7  ar  
  8   4   8  ar  
  9   5   6  2   
 10   5  27  1   
 11   6  28  1   
 12   7   9  ar  
 13   7  29  1   
 14   8  10  ar  
 15   8  30  1   
 16   9  11  ar  
 17   9  12  1   
 18  10  11  ar  
 19  10  31  1   
 20  11  32  1   
 21  12  13  1   
 22  12  33  1   
 23  12  34  1   
 24  13  14  1   
 25  13  15  1   
 26  13  35  1   
 27  14  16  1   
 28  14  17  1   
 29  14  36  1   
 30  15  37  1   
 31  15  38  1   
 32  15  39  1   
 33  16  18  1   
 34  16  40  1   
 35  16  41  1   
 36  17  19  1   
 37  17  42  1   
 38  17  43  1   
 39  18  19  1   
 40  18  20  1   
 41  18  44  1   
 42  19  21  1   
 43  19  45  1   
 44  20  22  1   
 45  20  46  1   
 46  20  47  1   
 47  21  22  1   
 48  21  48  1   
 49  21  49  1   
 50  22  23  1   
 51  22  50  1   
 52  23  24  1   
 53  23  25  1   
 54  23  51  1   
 55  24  52  1   
 56  24  53  1   
 57  24  54  1   
 58  25  55  1   
 59  25  56  1   
 60  25  57  1   
@<TRIPOS>SUBSTRUCTURE
  1 ****  16 GROUP 4 **** **** 0

# MOE 2024.06 (io_trps.svl 2023.06)
