@<TRIPOS>MOLECULE
NONAME
50 53 1 0 0 
SMALL
USER_CHARGES


@<TRIPOS>ATOM
  1 O       -0.7750     0.3320     0.9370 O.2   1 <1>  -0.5700 
  2 C       -1.5780     0.9370     0.2490 C.2   1 <1>   0.7150 
  3 N       -2.6460     0.2210    -0.2560 N.am  1 <1>  -0.6600 
  4 C       -1.3670     2.3460     0.0110 C.2   1 <1>   0.0550 
  5 C       -3.8470     0.7640    -0.9430 C.3   1 <1>   0.1400 
  6 C       -2.7660    -1.2520    -0.1040 C.3   1 <1>   0.1400 
  7 O       -2.0650     3.0400    -0.8600 O.3   1 <1>  -0.0190 
  8 C       -0.4830     3.2150     0.5500 C.2   1 <1>  -0.1500 
  9 C       -4.8810    -0.3560    -0.8500 C.3   1 <1>   0.2000 
 10 C       -4.0350    -1.6350    -0.8770 C.3   1 <1>  -0.0800 
 11 N       -1.7120     4.2870    -0.9240 N.2   1 <1>  -0.4100 
 12 C       -0.7510     4.4230    -0.0780 C.2   1 <1>   0.1080 
 13 O       -5.5260    -0.2480     0.3740 O.3   1 <1>  -0.6800 
 14 C       -4.7510    -2.8910    -0.3340 C.3   1 <1>  -0.0170 
 15 C       -0.0240     5.7390     0.1760 C.3   1 <1>   0.1010 
 16 C       -4.0060    -4.2250    -0.4720 C.ar  1 <1>  -0.1440 
 17 C        1.4630     5.6170    -0.1760 C.3   1 <1>  -0.2400 
 18 C       -0.1980     6.1870     1.6320 C.3   1 <1>  -0.2400 
 19 C       -4.5080    -5.3780     0.1830 C.ar  1 <1>   0.0000 
 20 C       -2.8670    -4.3830    -1.2130 C.ar  1 <1>  -0.1500 
 21 C       -3.7850    -6.5890     0.0460 C.ar  1 <1>   0.3100 
 22 C       -5.6900    -5.4040     0.9610 C.ar  1 <1>  -0.1500 
 23 C       -2.2330    -5.6280    -1.2860 C.ar  1 <1>   0.1600 
 24 N       -2.6510    -6.6970    -0.6890 N.ar  1 <1>  -0.6200 
 25 C       -4.2570    -7.7430     0.6930 C.ar  1 <1>  -0.1500 
 26 C       -6.1240    -6.5460     1.5760 C.ar  1 <1>  -0.1500 
 27 C       -5.3990    -7.7330     1.4450 C.ar  1 <1>  -0.1500 
 28 H       -4.2050     1.6690    -0.4820 H     1 <1>   0.0800 
 29 H       -3.6040     0.9560    -1.9740 H     1 <1>   0.0800 
 30 H       -1.8910    -1.7430    -0.4940 H     1 <1>   0.0800 
 31 H       -2.8650    -1.4900     0.9420 H     1 <1>   0.0800 
 32 H        0.2650     3.0240     1.2970 H     1 <1>   0.1500 
 33 H       -5.6210    -0.3150    -1.6310 H     1 <1>   0.0800 
 34 H       -3.7650    -1.8060    -1.9040 H     1 <1>   0.0800 
 35 H       -4.8570    -0.1130     1.0750 H     1 <1>   0.4000 
 36 H       -5.6980    -2.9850    -0.8350 H     1 <1>   0.0800 
 37 H       -4.9550    -2.7300     0.7100 H     1 <1>   0.0800 
 38 H       -0.4620     6.4880    -0.4630 H     1 <1>   0.0800 
 39 H        1.9460     4.8910     0.4530 H     1 <1>   0.0800 
 40 H        1.9550     6.5650    -0.0510 H     1 <1>   0.0800 
 41 H        1.5710     5.3090    -1.2010 H     1 <1>   0.0800 
 42 H        0.2440     5.4740     2.3050 H     1 <1>   0.0800 
 43 H       -1.2450     6.2750     1.8630 H     1 <1>   0.0800 
 44 H        0.2670     7.1440     1.7860 H     1 <1>   0.0800 
 45 H       -2.4130    -3.5830    -1.7630 H     1 <1>   0.1500 
 46 H       -6.2720    -4.5090     1.0750 H     1 <1>   0.1500 
 47 H       -1.3360    -5.7010    -1.8780 H     1 <1>   0.1500 
 48 H       -3.6830    -8.6440     0.5740 H     1 <1>   0.1500 
 49 H       -7.0250    -6.5470     2.1660 H     1 <1>   0.1500 
 50 H       -5.7490    -8.6250     1.9340 H     1 <1>   0.1500 
@<TRIPOS>BOND
  1   1   2  2   
  2   2   3  am  
  3   2   4  1   
  4   3   5  1   
  5   3   6  1   
  6   4   7  1   
  7   4   8  2   
  8   5   9  1   
  9   5  28  1   
 10   5  29  1   
 11   6  10  1   
 12   6  30  1   
 13   6  31  1   
 14   7  11  1   
 15   8  12  1   
 16   8  32  1   
 17   9  10  1   
 18   9  13  1   
 19   9  33  1   
 20  10  14  1   
 21  10  34  1   
 22  11  12  2   
 23  12  15  1   
 24  13  35  1   
 25  14  16  1   
 26  14  36  1   
 27  14  37  1   
 28  15  17  1   
 29  15  18  1   
 30  15  38  1   
 31  16  19  ar  
 32  16  20  ar  
 33  17  39  1   
 34  17  40  1   
 35  17  41  1   
 36  18  42  1   
 37  18  43  1   
 38  18  44  1   
 39  19  21  ar  
 40  19  22  ar  
 41  20  23  ar  
 42  20  45  1   
 43  21  24  ar  
 44  21  25  ar  
 45  22  26  ar  
 46  22  46  1   
 47  23  24  ar  
 48  23  47  1   
 49  25  27  ar  
 50  25  48  1   
 51  26  27  ar  
 52  26  49  1   
 53  27  50  1   
@<TRIPOS>SUBSTRUCTURE
  1 ****   6 GROUP 4 **** **** 0

# MOE 2024.06 (io_trps.svl 2023.06)
