@<TRIPOS>MOLECULE
NONAME
46 49 1 0 0 
SMALL
USER_CHARGES


@<TRIPOS>ATOM
  1 S       -0.0490     0.9250     2.5260 S.3   1 <1>  -0.0800 
  2 C       -0.9760     1.2510     1.0700 C.2   1 <1>  -0.1400 
  3 C       -1.2570    -0.2310     3.0740 C.2   1 <1>  -0.1100 
  4 C       -2.1040     0.5290     1.0550 C.2   1 <1>  -0.1810 
  5 C       -0.5140     2.2340     0.0000 C.3   1 <1>   0.4600 
  6 C       -2.2700    -0.3240     2.1910 C.2   1 <1>  -0.1500 
  7 C       -3.0620     0.6690    -0.1060 C.3   1 <1>   0.0210 
  8 O       -1.4010     2.1540    -1.1010 O.3   1 <1>  -0.5600 
  9 C        0.8700     1.8510    -0.5360 C.3   1 <1>  -0.1600 
 10 C       -0.5030     3.6760     0.5260 C.3   1 <1>  -0.1600 
 11 C       -2.7760     1.9950    -0.8370 C.3   1 <1>   0.1200 
 12 C        1.3710     2.8540    -1.5760 C.3   1 <1>   0.1400 
 13 C        0.0050     4.6550    -0.5350 C.3   1 <1>   0.1400 
 14 N        1.3580     4.2240    -0.9870 N.am  1 <1>  -0.6600 
 15 C        2.5070     4.9700    -0.8950 C.2   1 <1>   0.5690 
 16 O        3.5680     4.5530    -1.2980 O.2   1 <1>  -0.5700 
 17 C        2.4690     6.3590    -0.2720 C.3   1 <1>  -0.0990 
 18 C        3.8370     7.0570    -0.2160 C.3   1 <1>  -0.0170 
 19 C        3.7050     8.4310     0.4200 C.ar  1 <1>  -0.1430 
 20 C        3.4360     9.5580    -0.3290 C.ar  1 <1>  -0.1500 
 21 C        3.8460     8.6210     1.7790 C.ar  1 <1>  -0.1500 
 22 C        3.3210    10.7860     0.3000 C.ar  1 <1>   0.1600 
 23 C        3.7110     9.8940     2.3100 C.ar  1 <1>   0.1600 
 24 N        3.4500    10.9820     1.6030 N.ar  1 <1>  -0.6200 
 25 H       -1.0770    -0.7250     4.0120 H     1 <1>   0.1500 
 26 H       -3.1310    -0.9610     2.2910 H     1 <1>   0.1500 
 27 H       -4.0770     0.6690     0.2490 H     1 <1>   0.0800 
 28 H       -2.9370    -0.1570    -0.7830 H     1 <1>   0.0800 
 29 H        0.8240     0.8680    -0.9660 H     1 <1>   0.0800 
 30 H        1.5770     1.8200     0.2720 H     1 <1>   0.0800 
 31 H        0.1430     3.7340     1.3820 H     1 <1>   0.0800 
 32 H       -1.4870     3.9580     0.8500 H     1 <1>   0.0800 
 33 H       -3.1070     2.8280    -0.2430 H     1 <1>   0.0800 
 34 H       -3.2940     2.0180    -1.7790 H     1 <1>   0.0800 
 35 H        0.7320     2.8360    -2.4430 H     1 <1>   0.0800 
 36 H        2.3630     2.5800    -1.8910 H     1 <1>   0.0800 
 37 H        0.0200     5.6490    -0.1280 H     1 <1>   0.0800 
 38 H       -0.6620     4.6540    -1.3810 H     1 <1>   0.0800 
 39 H        2.0870     6.2720     0.7280 H     1 <1>   0.0800 
 40 H        1.7950     6.9690    -0.8440 H     1 <1>   0.0800 
 41 H        4.2360     7.1540    -1.2120 H     1 <1>   0.0800 
 42 H        4.5270     6.4570     0.3520 H     1 <1>   0.0800 
 43 H        3.3150     9.4920    -1.3950 H     1 <1>   0.1500 
 44 H        4.0580     7.7930     2.4300 H     1 <1>   0.1500 
 45 H        3.1110    11.6550    -0.3000 H     1 <1>   0.1500 
 46 H        3.8250    10.0230     3.3720 H     1 <1>   0.1500 
@<TRIPOS>BOND
  1   1   2  1   
  2   1   3  1   
  3   2   4  2   
  4   2   5  1   
  5   3   6  2   
  6   3  25  1   
  7   4   6  1   
  8   4   7  1   
  9   5   8  1   
 10   5   9  1   
 11   5  10  1   
 12   6  26  1   
 13   7  11  1   
 14   7  27  1   
 15   7  28  1   
 16   8  11  1   
 17   9  12  1   
 18   9  29  1   
 19   9  30  1   
 20  10  13  1   
 21  10  31  1   
 22  10  32  1   
 23  11  33  1   
 24  11  34  1   
 25  12  14  1   
 26  12  35  1   
 27  12  36  1   
 28  13  14  1   
 29  13  37  1   
 30  13  38  1   
 31  14  15  am  
 32  15  16  2   
 33  15  17  1   
 34  17  18  1   
 35  17  39  1   
 36  17  40  1   
 37  18  19  1   
 38  18  41  1   
 39  18  42  1   
 40  19  20  ar  
 41  19  21  ar  
 42  20  22  ar  
 43  20  43  1   
 44  21  23  ar  
 45  21  44  1   
 46  22  24  ar  
 47  22  45  1   
 48  23  24  ar  
 49  23  46  1   
@<TRIPOS>SUBSTRUCTURE
  1 ****  13 GROUP 4 **** **** 0

# MOE 2024.06 (io_trps.svl 2023.06)
