@<TRIPOS>MOLECULE
NONAME
33 34 1 0 0 
SMALL
USER_CHARGES


@<TRIPOS>ATOM
  1 S        0.3600     0.0050    -1.0980 S.o2  1 <1>   1.0900 
  2 O        1.7330    -0.2970    -1.4290 O.2   1 <1>  -0.6500 
  3 O       -0.6930    -0.2730    -2.0430 O.2   1 <1>  -0.6500 
  4 C        0.2730     1.7460    -0.6830 C.3   1 <1>  -0.0550 
  5 C       -0.0420    -0.8310     0.4250 C.3   1 <1>  -0.1350 
  6 C        1.4180     2.2190     0.2270 C.3   1 <1>  -0.0990 
  7 C        1.2850     3.6970     0.5130 C.2   1 <1>   0.5690 
  8 O        0.3930     4.0420     1.2460 O.2   1 <1>  -0.5700 
  9 N        2.1700     4.5540    -0.0790 N.am  1 <1>  -0.4940 
 10 C        2.2950     5.9630     0.0090 C.2   1 <1>  -0.0880 
 11 N        1.3060     6.8980     0.1630 N.pl3 1 <1>   0.3140 
 12 C        3.4500     6.6630    -0.0680 C.2   1 <1>  -0.1810 
 13 N        1.8110     8.1560     0.1780 N.2   1 <1>  -0.7070 
 14 C       -0.1490     6.7070     0.2200 C.3   1 <1>   0.0160 
 15 C        3.0870     7.9890     0.0450 C.2   1 <1>   0.1080 
 16 C        4.9220     6.3630    -0.2260 C.3   1 <1>   0.2510 
 17 C        4.1900     9.0200    -0.0050 C.3   1 <1>   0.2510 
 18 S        5.6890     8.0110    -0.2350 S.3   1 <1>  -0.4600 
 19 H       -0.6690     1.9600    -0.2140 H     1 <1>   0.0800 
 20 H        0.3100     2.3140    -1.5940 H     1 <1>   0.0800 
 21 H       -0.0430    -1.8930     0.2660 H     1 <1>   0.0800 
 22 H       -1.0150    -0.5420     0.7690 H     1 <1>   0.0800 
 23 H        0.6800    -0.6080     1.1860 H     1 <1>   0.0800 
 24 H        2.3660     2.0180    -0.2390 H     1 <1>   0.0800 
 25 H        1.3880     1.6930     1.1630 H     1 <1>   0.0800 
 26 H        2.9110     4.1040    -0.6150 H     1 <1>   0.3700 
 27 H       -0.4320     5.9040    -0.4320 H     1 <1>   0.0800 
 28 H       -0.6360     7.6120    -0.0910 H     1 <1>   0.0800 
 29 H       -0.4310     6.4770     1.2300 H     1 <1>   0.0800 
 30 H        5.1480     5.8850    -1.1620 H     1 <1>   0.0800 
 31 H        5.3210     5.8150     0.6090 H     1 <1>   0.0800 
 32 H        4.2790     9.5600     0.9200 H     1 <1>   0.0800 
 33 H        4.0880     9.6810    -0.8460 H     1 <1>   0.0800 
@<TRIPOS>BOND
  1   1   2  2   
  2   1   3  2   
  3   1   4  1   
  4   1   5  1   
  5   4   6  1   
  6   4  19  1   
  7   4  20  1   
  8   5  21  1   
  9   5  22  1   
 10   5  23  1   
 11   6   7  1   
 12   6  24  1   
 13   6  25  1   
 14   7   8  2   
 15   7   9  am  
 16   9  10  1   
 17   9  26  1   
 18  10  11  1   
 19  10  12  2   
 20  11  13  1   
 21  11  14  1   
 22  12  15  1   
 23  12  16  1   
 24  13  15  2   
 25  14  27  1   
 26  14  28  1   
 27  14  29  1   
 28  15  17  1   
 29  16  18  1   
 30  16  30  1   
 31  16  31  1   
 32  17  18  1   
 33  17  32  1   
 34  17  33  1   
@<TRIPOS>SUBSTRUCTURE
  1 ****   9 GROUP 4 **** **** 0

# MOE 2024.06 (io_trps.svl 2023.06)
