@<TRIPOS>MOLECULE
NONAME
54 56 1 0 0 
SMALL
USER_CHARGES


@<TRIPOS>ATOM
  1 O        4.2730     2.6380     1.5040 O.co2 1 <1>  -0.9000 
  2 C        3.4470     1.7120     1.5080 C.2   1 <1>   0.9060 
  3 O        3.1630     1.1200     2.5480 O.co2 1 <1>  -0.9000 
  4 C        2.9890     1.0930     0.1780 C.3   1 <1>  -0.1060 
  5 C        3.6950    -0.2840     0.1600 C.3   1 <1>   0.2000 
  6 C        3.4790     1.9120    -1.0630 C.3   1 <1>  -0.1600 
  7 C        1.4440     0.9540     0.1760 C.3   1 <1>  -0.0170 
  8 O        3.4150    -0.9490    -1.0360 O.3   1 <1>  -0.6800 
  9 C        5.2340    -0.1070     0.2780 C.3   1 <1>   0.3430 
 10 C        4.9390     1.6370    -1.4690 C.3   1 <1>   0.3430 
 11 C        0.7220     2.2920     0.0510 C.ar  1 <1>  -0.1440 
 12 N        5.7040     1.2120    -0.2730 N.4   1 <1>  -0.9590 
 13 C        0.6100     3.1300     1.1500 C.ar  1 <1>  -0.1500 
 14 C        0.1670     2.6840    -1.1580 C.ar  1 <1>  -0.1500 
 15 C        7.1740     1.3930    -0.3640 C.3   1 <1>   0.3430 
 16 C       -0.0390     4.3470     1.0410 C.ar  1 <1>  -0.1500 
 17 C       -0.4850     3.9010    -1.2690 C.ar  1 <1>  -0.1500 
 18 C        7.5610     2.8170     0.0640 C.3   1 <1>   0.1200 
 19 C       -0.5870     4.7340    -0.1690 C.ar  1 <1>  -0.1500 
 20 O        6.9120     3.7590    -0.7450 O.3   1 <1>  -0.5600 
 21 C        6.3920     4.8610    -0.0510 C.3   1 <1>   0.2630 
 22 C        7.5150     5.6260     0.6370 C.ar  1 <1>  -0.1440 
 23 C        8.5470     6.1790    -0.1060 C.ar  1 <1>  -0.1500 
 24 C        7.5170     5.7700     2.0170 C.ar  1 <1>  -0.1500 
 25 C        9.5700     6.8680     0.5220 C.ar  1 <1>  -0.1500 
 26 C        8.5400     6.4580     2.6460 C.ar  1 <1>  -0.1500 
 27 C        9.5670     7.0070     1.8980 C.ar  1 <1>  -0.1500 
 28 H        3.3470    -0.9070     0.9680 H     1 <1>   0.0800 
 29 H        3.3610     2.9640    -0.8670 H     1 <1>   0.0800 
 30 H        2.8660     1.6880    -1.9170 H     1 <1>   0.0800 
 31 H        1.1330     0.3260    -0.6370 H     1 <1>   0.0800 
 32 H        1.1230     0.4730     1.0840 H     1 <1>   0.0800 
 33 H        2.4620    -1.1650    -1.0790 H     1 <1>   0.4000 
 34 H        5.7180    -0.9250    -0.2270 H     1 <1>   0.0800 
 35 H        5.4930    -0.1460     1.3240 H     1 <1>   0.0800 
 36 H        5.3660     2.5270    -1.9000 H     1 <1>   0.0800 
 37 H        4.9660     0.8490    -2.2030 H     1 <1>   0.0800 
 38 H        5.3830     1.9160     0.4440 H     1 <1>   0.4500 
 39 H        1.0330     2.8390     2.0990 H     1 <1>   0.1500 
 40 H        0.2380     2.0460    -2.0200 H     1 <1>   0.1500 
 41 H        7.6620     0.6970     0.2970 H     1 <1>   0.0800 
 42 H        7.5150     1.2040    -1.3670 H     1 <1>   0.0800 
 43 H       -0.1130     4.9890     1.9000 H     1 <1>   0.1500 
 44 H       -0.9120     4.1990    -2.2100 H     1 <1>   0.1500 
 45 H        8.6210     2.9710    -0.0330 H     1 <1>   0.0800 
 46 H        7.2840     2.9600     1.0960 H     1 <1>   0.0800 
 47 H       -1.0910     5.6810    -0.2530 H     1 <1>   0.1500 
 48 H        5.8990     5.4960    -0.7660 H     1 <1>   0.0800 
 49 H        5.6590     4.5130     0.6570 H     1 <1>   0.0800 
 50 H        8.5510     6.0690    -1.1770 H     1 <1>   0.1500 
 51 H        6.7200     5.3450     2.6060 H     1 <1>   0.1500 
 52 H       10.3670     7.2960    -0.0610 H     1 <1>   0.1500 
 53 H        8.5350     6.5660     3.7160 H     1 <1>   0.1500 
 54 H       10.3620     7.5430     2.3870 H     1 <1>   0.1500 
@<TRIPOS>BOND
  1   1   2  ar  
  2   2   3  ar  
  3   2   4  1   
  4   4   5  1   
  5   4   6  1   
  6   4   7  1   
  7   5   8  1   
  8   5   9  1   
  9   5  28  1   
 10   6  10  1   
 11   6  29  1   
 12   6  30  1   
 13   7  11  1   
 14   7  31  1   
 15   7  32  1   
 16   8  33  1   
 17   9  12  1   
 18   9  34  1   
 19   9  35  1   
 20  10  12  1   
 21  10  36  1   
 22  10  37  1   
 23  11  13  ar  
 24  11  14  ar  
 25  12  15  1   
 26  12  38  1   
 27  13  16  ar  
 28  13  39  1   
 29  14  17  ar  
 30  14  40  1   
 31  15  18  1   
 32  15  41  1   
 33  15  42  1   
 34  16  19  ar  
 35  16  43  1   
 36  17  19  ar  
 37  17  44  1   
 38  18  20  1   
 39  18  45  1   
 40  18  46  1   
 41  19  47  1   
 42  20  21  1   
 43  21  22  1   
 44  21  48  1   
 45  21  49  1   
 46  22  23  ar  
 47  22  24  ar  
 48  23  25  ar  
 49  23  50  1   
 50  24  26  ar  
 51  24  51  1   
 52  25  27  ar  
 53  25  52  1   
 54  26  27  ar  
 55  26  53  1   
 56  27  54  1   
@<TRIPOS>SUBSTRUCTURE
  1 ****   1 GROUP 4 **** **** 0

# MOE 2024.06 (io_trps.svl 2023.06)
