@<TRIPOS>MOLECULE
NONAME
48 50 1 0 0 
SMALL
USER_CHARGES


@<TRIPOS>ATOM
  1 S        0.9750     1.5940    -1.5830 S.o2  1 <1>   1.3330 
  2 O        1.0330     0.5730    -2.5980 O.2   1 <1>  -0.6500 
  3 O        0.8960     2.9830    -2.0010 O.2   1 <1>  -0.6500 
  4 N        2.4190     1.4490    -0.6960 N.am  1 <1>  -0.8490 
  5 C       -0.3780     1.1710    -0.4560 C.3   1 <1>  -0.0550 
  6 C        2.6280     0.1060    -0.1310 C.3   1 <1>   0.1160 
  7 C        3.5830     1.7360    -1.5490 C.3   1 <1>   0.1160 
  8 C       -0.8010     2.1220     0.6960 C.3   1 <1>  -0.0800 
  9 C       -1.5610     3.3520     0.1860 C.3   1 <1>   0.2000 
 10 C        0.3400     2.7090     1.5340 C.3   1 <1>   0.2090 
 11 O       -2.5460     3.6620     1.1110 O.3   1 <1>  -0.6800 
 12 C       -0.5390     4.4920     0.1400 C.3   1 <1>   0.2090 
 13 N        0.6790     3.9790     0.8510 N.pl3 1 <1>  -0.8380 
 14 C        1.9480     4.3730     0.6500 C.ar  1 <1>   0.4610 
 15 N        2.3060     4.8370    -0.5430 N.ar  1 <1>  -0.1790 
 16 C        2.9580     4.2660     1.6360 C.ar  1 <1>  -0.1500 
 17 C        3.5820     5.2450    -0.8710 C.ar  1 <1>   0.3610 
 18 C        4.2440     4.6420     1.3910 C.ar  1 <1>  -0.1440 
 19 C        4.5950     5.1560     0.1030 C.ar  1 <1>   0.0000 
 20 C        3.8750     5.7150    -2.1550 C.ar  1 <1>  -0.1500 
 21 C        5.3000     4.5190     2.4830 C.3   1 <1>  -0.0970 
 22 C        5.8880     5.5660    -0.2620 C.ar  1 <1>  -0.1500 
 23 C        5.1510     6.1050    -2.4820 C.ar  1 <1>  -0.1500 
 24 C        6.1600     6.0300    -1.5270 C.ar  1 <1>  -0.1500 
 25 H       -1.2520     1.0080    -1.0580 H     1 <1>   0.0800 
 26 H       -0.1590     0.2160    -0.0220 H     1 <1>   0.0800 
 27 H        3.5800     0.0590     0.3710 H     1 <1>   0.0800 
 28 H        2.6110    -0.6420    -0.9090 H     1 <1>   0.0800 
 29 H        1.8670    -0.1270     0.5920 H     1 <1>   0.0800 
 30 H        4.4840     1.7510    -0.9580 H     1 <1>   0.0800 
 31 H        3.4760     2.6920    -2.0280 H     1 <1>   0.0800 
 32 H        3.6810     0.9870    -2.3190 H     1 <1>   0.0800 
 33 H       -1.4460     1.5450     1.3380 H     1 <1>   0.0800 
 34 H       -2.0440     3.1960    -0.7640 H     1 <1>   0.0800 
 35 H        1.1850     2.0440     1.5950 H     1 <1>   0.0800 
 36 H       -0.0070     2.9280     2.5310 H     1 <1>   0.0800 
 37 H       -2.1560     3.9260     1.9680 H     1 <1>   0.4000 
 38 H       -0.9210     5.3690     0.6360 H     1 <1>   0.0800 
 39 H       -0.3230     4.7460    -0.8810 H     1 <1>   0.0800 
 40 H        1.6400     4.6370    -1.2950 H     1 <1>   0.4570 
 41 H        2.6620     3.8830     2.5950 H     1 <1>   0.1500 
 42 H        3.0970     5.7750    -2.8970 H     1 <1>   0.1500 
 43 H        4.8780     4.1200     3.3880 H     1 <1>   0.0800 
 44 H        5.7160     5.4850     2.7080 H     1 <1>   0.0800 
 45 H        6.0900     3.8630     2.1650 H     1 <1>   0.0800 
 46 H        6.6890     5.5190     0.4550 H     1 <1>   0.1500 
 47 H        5.3850     6.4700    -3.4700 H     1 <1>   0.1500 
 48 H        7.1590     6.3400    -1.7910 H     1 <1>   0.1500 
@<TRIPOS>BOND
  1   1   2  2   
  2   1   3  2   
  3   1   4  am  
  4   1   5  1   
  5   4   6  1   
  6   4   7  1   
  7   5   8  1   
  8   5  25  1   
  9   5  26  1   
 10   6  27  1   
 11   6  28  1   
 12   6  29  1   
 13   7  30  1   
 14   7  31  1   
 15   7  32  1   
 16   8   9  1   
 17   8  10  1   
 18   8  33  1   
 19   9  11  1   
 20   9  12  1   
 21   9  34  1   
 22  10  13  1   
 23  10  35  1   
 24  10  36  1   
 25  11  37  1   
 26  12  13  1   
 27  12  38  1   
 28  12  39  1   
 29  13  14  1   
 30  14  15  ar  
 31  14  16  ar  
 32  15  17  ar  
 33  15  40  1   
 34  16  18  ar  
 35  16  41  1   
 36  17  19  ar  
 37  17  20  ar  
 38  18  19  ar  
 39  18  21  1   
 40  19  22  ar  
 41  20  23  ar  
 42  20  42  1   
 43  21  43  1   
 44  21  44  1   
 45  21  45  1   
 46  22  24  ar  
 47  22  46  1   
 48  23  24  ar  
 49  23  47  1   
 50  24  48  1   
@<TRIPOS>SUBSTRUCTURE
  1 ****  14 GROUP 4 **** **** 0

# MOE 2024.06 (io_trps.svl 2023.06)
