@<TRIPOS>MOLECULE
NONAME
42 44 1 0 0 
SMALL
USER_CHARGES


@<TRIPOS>ATOM
  1 O        0.1750    -0.4060    -0.4710 O.3   1 <1>  -0.5600 
  2 C        1.1850    -1.0900     0.2090 C.3   1 <1>   0.2000 
  3 C        0.0720     0.9510    -0.1620 C.3   1 <1>   0.1200 
  4 C        2.5480    -0.4980    -0.1840 C.3   1 <1>  -0.1600 
  5 C        1.0890    -2.5770    -0.1430 C.3   1 <1>  -0.1600 
  6 C        1.3610     1.6720    -0.5740 C.3   1 <1>  -0.1600 
  7 C        2.5850     1.0130     0.0720 C.3   1 <1>  -0.1600 
  8 C       -0.3060    -3.1400     0.1350 C.3   1 <1>   0.1100 
  9 N       -0.3160    -4.5950    -0.0840 N.3   1 <1>  -0.8100 
 10 C       -1.6530    -5.0450    -0.5570 C.3   1 <1>   0.2900 
 11 C        0.1310    -5.3250     1.1130 C.3   1 <1>   0.0300 
 12 C       -1.7340    -6.5100    -0.9850 C.2   1 <1>   0.2980 
 13 O       -1.7670    -7.4560    -0.1000 O.3   1 <1>  -0.2800 
 14 N       -1.8150    -6.9660    -2.1790 N.2   1 <1>  -0.3380 
 15 C       -1.8580    -8.5350    -0.8060 C.2   1 <1>   0.3930 
 16 N       -1.8930    -8.2930    -2.0610 N.2   1 <1>  -0.3380 
 17 C       -1.9110    -9.8850    -0.1100 C.3   1 <1>  -0.0150 
 18 C       -2.6230   -11.0540    -0.7220 C.3   1 <1>  -0.2000 
 19 C       -3.1910   -10.3810     0.4930 C.3   1 <1>  -0.2000 
 20 H        1.0170    -0.9620     1.2650 H     1 <1>   0.0800 
 21 H       -0.1110     1.0510     0.8940 H     1 <1>   0.0800 
 22 H       -0.7700     1.3470    -0.7030 H     1 <1>   0.0800 
 23 H        2.7250    -0.6910    -1.2280 H     1 <1>   0.0800 
 24 H        3.3280    -0.9800     0.3780 H     1 <1>   0.0800 
 25 H        1.8230    -3.1090     0.4320 H     1 <1>   0.0800 
 26 H        1.3180    -2.7130    -1.1850 H     1 <1>   0.0800 
 27 H        1.3050     2.7060    -0.2850 H     1 <1>   0.0800 
 28 H        1.4480     1.6330    -1.6460 H     1 <1>   0.0800 
 29 H        3.4890     1.4360    -0.3300 H     1 <1>   0.0800 
 30 H        2.5700     1.1960     1.1330 H     1 <1>   0.0800 
 31 H       -0.9940    -2.6580    -0.5410 H     1 <1>   0.0800 
 32 H       -0.6150    -2.9100     1.1410 H     1 <1>   0.0800 
 33 H       -1.9270    -4.4540    -1.4140 H     1 <1>   0.0800 
 34 H       -2.3850    -4.8690     0.2100 H     1 <1>   0.0800 
 35 H        1.0670    -4.9310     1.4660 H     1 <1>   0.0800 
 36 H        0.2850    -6.3630     0.8770 H     1 <1>   0.0800 
 37 H       -0.6000    -5.2450     1.9000 H     1 <1>   0.0800 
 38 H       -1.0000   -10.0910     0.4220 H     1 <1>   0.1000 
 39 H       -2.1850   -12.0310    -0.6230 H     1 <1>   0.1000 
 40 H       -3.1140   -10.9160    -1.6700 H     1 <1>   0.1000 
 41 H       -4.0800    -9.7850     0.3810 H     1 <1>   0.1000 
 42 H       -3.1510   -10.8930     1.4380 H     1 <1>   0.1000 
@<TRIPOS>BOND
  1   1   2  1   
  2   1   3  1   
  3   2   4  1   
  4   2   5  1   
  5   2  20  1   
  6   3   6  1   
  7   3  21  1   
  8   3  22  1   
  9   4   7  1   
 10   4  23  1   
 11   4  24  1   
 12   5   8  1   
 13   5  25  1   
 14   5  26  1   
 15   6   7  1   
 16   6  27  1   
 17   6  28  1   
 18   7  29  1   
 19   7  30  1   
 20   8   9  1   
 21   8  31  1   
 22   8  32  1   
 23   9  10  1   
 24   9  11  1   
 25  10  12  1   
 26  10  33  1   
 27  10  34  1   
 28  11  35  1   
 29  11  36  1   
 30  11  37  1   
 31  12  13  1   
 32  12  14  2   
 33  13  15  1   
 34  14  16  1   
 35  15  16  2   
 36  15  17  1   
 37  17  18  1   
 38  17  19  1   
 39  17  38  1   
 40  18  19  1   
 41  18  39  1   
 42  18  40  1   
 43  19  41  1   
 44  19  42  1   
@<TRIPOS>SUBSTRUCTURE
  1 ****   9 GROUP 4 **** **** 0

# MOE 2024.06 (io_trps.svl 2023.06)
