@<TRIPOS>MOLECULE
NONAME
45 46 1 0 0 
SMALL
USER_CHARGES


@<TRIPOS>ATOM
  1 S        0.0610     0.6060    -1.1790 S.3   1 <1>  -0.4600 
  2 C       -0.4050    -1.1240    -1.4680 C.3   1 <1>   0.2140 
  3 C        1.1590     0.9930    -2.5930 C.3   1 <1>   0.1310 
  4 C       -1.3340    -1.5640    -0.3500 C.ar  1 <1>  -0.1440 
  5 C        1.6470     2.4380    -2.5700 C.2   1 <1>   0.5690 
  6 C       -2.6550    -1.1430    -0.3380 C.ar  1 <1>  -0.1500 
  7 C       -0.8750    -2.3920     0.6610 C.ar  1 <1>  -0.1500 
  8 O        2.3860     2.8080    -3.4500 O.2   1 <1>  -0.5700 
  9 N        1.2520     3.2670    -1.5690 N.am  1 <1>  -0.7300 
 10 C       -3.5130    -1.5450     0.6720 C.ar  1 <1>  -0.1430 
 11 C       -1.7250    -2.8050     1.6740 C.ar  1 <1>  -0.1430 
 12 C        1.6190     4.6890    -1.4350 C.3   1 <1>   0.1400 
 13 C       -3.0430    -2.3780     1.6730 C.ar  1 <1>  -0.1500 
 14 C       -4.9570    -1.0790     0.6820 C.3   1 <1>  -0.0970 
 15 C       -1.2170    -3.7120     2.7800 C.3   1 <1>  -0.0970 
 16 C        2.7720     4.8140    -0.4410 C.3   1 <1>  -0.1600 
 17 C        3.2670     6.2630    -0.3480 C.3   1 <1>   0.0200 
 18 C        4.4080     6.3920     0.6440 C.2   1 <1>   0.0060 
 19 N        4.3150     7.0290     1.7650 N.2   1 <1>  -0.5650 
 20 N        5.6280     5.8500     0.4320 N.pl3 1 <1>   0.0330 
 21 C        5.5370     6.8960     2.3160 C.2   1 <1>   0.0770 
 22 C        6.3530     6.1780     1.5150 C.2   1 <1>  -0.3020 
 23 H        0.4990    -1.7060    -1.4850 H     1 <1>   0.0800 
 24 H       -0.8960    -1.1740    -2.4230 H     1 <1>   0.0800 
 25 H        0.6010     0.8120    -3.4920 H     1 <1>   0.0800 
 26 H        1.9980     0.3240    -2.5410 H     1 <1>   0.0800 
 27 H       -3.0130    -0.4930    -1.1160 H     1 <1>   0.1500 
 28 H        0.1500    -2.7170     0.6640 H     1 <1>   0.1500 
 29 H        0.6520     2.8700    -0.8360 H     1 <1>   0.3700 
 30 H        0.7640     5.2500    -1.0960 H     1 <1>   0.0800 
 31 H        1.9190     5.0720    -2.3970 H     1 <1>   0.0800 
 32 H       -3.7060    -2.6940     2.4580 H     1 <1>   0.1500 
 33 H       -5.0520    -0.1360     0.1760 H     1 <1>   0.0800 
 34 H       -5.3040    -0.9580     1.6920 H     1 <1>   0.0800 
 35 H       -5.5760    -1.8050     0.1850 H     1 <1>   0.0800 
 36 H       -0.4110    -4.3270     2.4240 H     1 <1>   0.0800 
 37 H       -2.0050    -4.3560     3.1280 H     1 <1>   0.0800 
 38 H       -0.8650    -3.1170     3.6030 H     1 <1>   0.0800 
 39 H        3.5800     4.1820    -0.7630 H     1 <1>   0.0800 
 40 H        2.4460     4.4910     0.5320 H     1 <1>   0.0800 
 41 H        2.4610     6.9000    -0.0280 H     1 <1>   0.0800 
 42 H        3.5980     6.6060    -1.3120 H     1 <1>   0.0800 
 43 H        5.9240     5.3040    -0.3820 H     1 <1>   0.2700 
 44 H        5.7660     7.3320     3.2740 H     1 <1>   0.1500 
 45 H        7.3800     5.8920     1.6540 H     1 <1>   0.1500 
@<TRIPOS>BOND
  1   1   2  1   
  2   1   3  1   
  3   2   4  1   
  4   2  23  1   
  5   2  24  1   
  6   3   5  1   
  7   3  25  1   
  8   3  26  1   
  9   4   6  ar  
 10   4   7  ar  
 11   5   8  2   
 12   5   9  am  
 13   6  10  ar  
 14   6  27  1   
 15   7  11  ar  
 16   7  28  1   
 17   9  12  1   
 18   9  29  1   
 19  10  13  ar  
 20  10  14  1   
 21  11  13  ar  
 22  11  15  1   
 23  12  16  1   
 24  12  30  1   
 25  12  31  1   
 26  13  32  1   
 27  14  33  1   
 28  14  34  1   
 29  14  35  1   
 30  15  36  1   
 31  15  37  1   
 32  15  38  1   
 33  16  17  1   
 34  16  39  1   
 35  16  40  1   
 36  17  18  1   
 37  17  41  1   
 38  17  42  1   
 39  18  19  2   
 40  18  20  1   
 41  19  21  1   
 42  20  22  1   
 43  20  43  1   
 44  21  22  2   
 45  21  44  1   
 46  22  45  1   
@<TRIPOS>SUBSTRUCTURE
  1 ****   1 GROUP 4 **** **** 0

# MOE 2024.06 (io_trps.svl 2023.06)
