@<TRIPOS>MOLECULE
NONAME
66 67 1 0 0 
SMALL
USER_CHARGES


@<TRIPOS>ATOM
  1 O       -1.9580    -1.9330    -1.7920 O.2   1 <1>  -0.5700 
  2 C       -1.3710    -2.1870    -0.7600 C.2   1 <1>   0.5690 
  3 N       -1.4950    -1.3710     0.3490 N.am  1 <1>  -0.6600 
  4 C       -0.5100    -3.4700    -0.7740 C.3   1 <1>   0.2810 
  5 C       -2.4230    -0.1820     0.3530 C.3   1 <1>   0.2810 
  6 C       -0.7980    -1.5850     1.6520 C.3   1 <1>   0.0600 
  7 N       -1.1640    -4.5320    -1.5910 N.am  1 <1>  -0.7300 
  8 C        0.8850    -3.2060    -1.3570 C.3   1 <1>  -0.0160 
  9 C       -3.8890    -0.5190    -0.0180 C.2   1 <1>   0.5690 
 10 C       -1.7910     0.9320    -0.4970 C.3   1 <1>  -0.2400 
 11 C       -1.1350    -5.8490    -1.2890 C.2   1 <1>   0.5690 
 12 C        1.7110    -2.3150    -0.4430 C.ar  1 <1>  -0.1440 
 13 O       -4.5700     0.2890    -0.6120 O.2   1 <1>  -0.5700 
 14 N       -4.4110    -1.7150     0.3710 N.am  1 <1>  -0.7300 
 15 O       -0.3380    -6.2980    -0.5010 O.2   1 <1>  -0.5700 
 16 C       -2.1250    -6.7860    -1.9600 C.3   1 <1>  -0.0990 
 17 C        1.7190    -0.9390    -0.6160 C.ar  1 <1>  -0.1500 
 18 C        2.4520    -2.8770     0.5860 C.ar  1 <1>  -0.1500 
 19 C       -5.6810    -2.2710    -0.1300 C.3   1 <1>   0.1400 
 20 C       -2.9600    -7.6170    -0.9600 C.3   1 <1>  -0.1600 
 21 C        2.4520    -0.1350     0.2380 C.ar  1 <1>  -0.1500 
 22 C        3.1870    -2.0750     1.4410 C.ar  1 <1>  -0.1500 
 23 C       -5.6630    -3.7950     0.0090 C.3   1 <1>  -0.1600 
 24 C       -4.1640    -6.9060    -0.3150 C.3   1 <1>   0.1400 
 25 C        3.1880    -0.6930     1.2710 C.ar  1 <1>   0.0820 
 26 C       -4.4720    -4.4390    -0.7210 C.3   1 <1>   0.1400 
 27 N       -3.8680    -5.5110     0.1210 N.am  1 <1>  -0.6600 
 28 O        3.8750     0.1640     2.0650 O.3   1 <1>  -0.3620 
 29 C       -3.1280    -5.1740     1.2290 C.2   1 <1>   0.5690 
 30 C        4.7380    -0.3080     3.0760 C.3   1 <1>   0.0400 
 31 O       -2.8980    -4.0210     1.5140 O.2   1 <1>  -0.5700 
 32 C       -2.5810    -6.2330     2.1580 C.3   1 <1>  -0.1790 
 33 H       -0.4110    -3.8480     0.2250 H     1 <1>   0.0800 
 34 H       -2.4740     0.1920     1.3590 H     1 <1>   0.0800 
 35 H       -1.5220    -1.8140     2.4150 H     1 <1>   0.0800 
 36 H       -0.2640    -0.6920     1.9270 H     1 <1>   0.0800 
 37 H       -0.0910    -2.3900     1.6080 H     1 <1>   0.0800 
 38 H       -1.8570    -4.1460    -2.2370 H     1 <1>   0.3700 
 39 H        1.3970    -4.1430    -1.4820 H     1 <1>   0.0800 
 40 H        0.7890    -2.7470    -2.3250 H     1 <1>   0.0800 
 41 H       -1.7870     0.6530    -1.5350 H     1 <1>   0.0800 
 42 H       -0.7870     1.1270    -0.1710 H     1 <1>   0.0800 
 43 H       -2.3680     1.8330    -0.3970 H     1 <1>   0.0800 
 44 H       -3.7810    -2.3980     0.8270 H     1 <1>   0.3700 
 45 H       -2.7750    -6.2330    -2.6120 H     1 <1>   0.0800 
 46 H       -1.5490    -7.4590    -2.5680 H     1 <1>   0.0800 
 47 H        1.1480    -0.4890    -1.4100 H     1 <1>   0.1500 
 48 H        2.4540    -3.9450     0.7260 H     1 <1>   0.1500 
 49 H       -6.4960    -1.8550     0.4370 H     1 <1>   0.0800 
 50 H       -5.8070    -1.9910    -1.1630 H     1 <1>   0.0800 
 51 H       -2.3140    -7.9960    -0.1880 H     1 <1>   0.0800 
 52 H       -3.3410    -8.4800    -1.4770 H     1 <1>   0.0800 
 53 H        2.4580     0.9320     0.1080 H     1 <1>   0.1500 
 54 H        3.7470    -2.5410     2.2280 H     1 <1>   0.1500 
 55 H       -6.5780    -4.1920    -0.3910 H     1 <1>   0.0800 
 56 H       -5.6400    -4.0290     1.0590 H     1 <1>   0.0800 
 57 H       -4.5070    -7.4790     0.5290 H     1 <1>   0.0800 
 58 H       -4.9740    -6.8870    -1.0230 H     1 <1>   0.0800 
 59 H       -3.7120    -3.7080    -0.9280 H     1 <1>   0.0800 
 60 H       -4.7910    -4.8300    -1.6710 H     1 <1>   0.0800 
 61 H        5.2070     0.5420     3.5390 H     1 <1>   0.0800 
 62 H        5.4850    -0.9390     2.6290 H     1 <1>   0.0800 
 63 H        4.1600    -0.8480     3.8040 H     1 <1>   0.0800 
 64 H       -3.3430    -6.9440     2.4100 H     1 <1>   0.0800 
 65 H       -2.2340    -5.7710     3.0640 H     1 <1>   0.0800 
 66 H       -1.7520    -6.7320     1.6960 H     1 <1>   0.0800 
@<TRIPOS>BOND
  1   1   2  2   
  2   2   3  am  
  3   2   4  1   
  4   3   5  1   
  5   3   6  1   
  6   4   7  1   
  7   4   8  1   
  8   4  33  1   
  9   5   9  1   
 10   5  10  1   
 11   5  34  1   
 12   6  35  1   
 13   6  36  1   
 14   6  37  1   
 15   7  11  am  
 16   7  38  1   
 17   8  12  1   
 18   8  39  1   
 19   8  40  1   
 20   9  13  2   
 21   9  14  am  
 22  10  41  1   
 23  10  42  1   
 24  10  43  1   
 25  11  15  2   
 26  11  16  1   
 27  12  17  ar  
 28  12  18  ar  
 29  14  19  1   
 30  14  44  1   
 31  16  20  1   
 32  16  45  1   
 33  16  46  1   
 34  17  21  ar  
 35  17  47  1   
 36  18  22  ar  
 37  18  48  1   
 38  19  23  1   
 39  19  49  1   
 40  19  50  1   
 41  20  24  1   
 42  20  51  1   
 43  20  52  1   
 44  21  25  ar  
 45  21  53  1   
 46  22  25  ar  
 47  22  54  1   
 48  23  26  1   
 49  23  55  1   
 50  23  56  1   
 51  24  27  1   
 52  24  57  1   
 53  24  58  1   
 54  25  28  1   
 55  26  27  1   
 56  26  59  1   
 57  26  60  1   
 58  27  29  am  
 59  28  30  1   
 60  29  31  2   
 61  29  32  1   
 62  30  61  1   
 63  30  62  1   
 64  30  63  1   
 65  32  64  1   
 66  32  65  1   
 67  32  66  1   
@<TRIPOS>SUBSTRUCTURE
  1 ****   2 GROUP 4 **** **** 0

# MOE 2024.06 (io_trps.svl 2023.06)
