@<TRIPOS>MOLECULE
NONAME
46 47 1 0 0 
SMALL
USER_CHARGES


@<TRIPOS>ATOM
  1 S       -0.6020     0.6790    -1.4390 S.o2  1 <1>   1.4470 
  2 O       -0.2390    -0.3890    -2.3480 O.2   1 <1>  -0.6500 
  3 O       -1.1770     1.8650    -2.0440 O.2   1 <1>  -0.6500 
  4 N       -1.7700     0.0400    -0.3860 N.am  1 <1>  -0.8490 
  5 C        0.8260     1.0880    -0.3970 C.ar  1 <1>  -0.0090 
  6 C       -1.2920    -1.1080     0.4240 C.3   1 <1>   0.1960 
  7 C       -3.0350    -0.1980    -1.0980 C.3   1 <1>   0.1960 
  8 C        0.9020     2.2600     0.3490 C.ar  1 <1>   0.0820 
  9 C        1.8850     0.1930    -0.2920 C.ar  1 <1>  -0.1500 
 10 C       -1.7550    -2.4460    -0.1420 C.3   1 <1>  -0.1860 
 11 C       -3.9560    -1.1440    -0.3250 C.3   1 <1>  -0.1600 
 12 O       -0.1050     3.1550     0.3340 O.3   1 <1>  -0.3620 
 13 C        1.9990     2.5250     1.1550 C.ar  1 <1>  -0.1500 
 14 C        2.9870     0.4370     0.5150 C.ar  1 <1>  -0.1440 
 15 C       -1.0190    -3.5730     0.5550 C.2   1 <1>   0.9060 
 16 C       -3.2940    -2.5140    -0.1050 C.3   1 <1>   0.2000 
 17 C        0.0830     4.3070    -0.4560 C.3   1 <1>   0.0400 
 18 C        3.0390     1.6190     1.2350 C.ar  1 <1>  -0.1500 
 19 C        4.1120    -0.5890     0.6280 C.3   1 <1>   0.0630 
 20 O        0.2150    -3.5370     0.5690 O.co2 1 <1>  -0.9000 
 21 O       -1.6510    -4.4900     1.0970 O.co2 1 <1>  -0.9000 
 22 O       -3.7180    -2.9690     1.1230 O.3   1 <1>  -0.6800 
 23 C        4.7740    -0.8330    -0.7320 C.3   1 <1>  -0.2400 
 24 C        3.5860    -1.9020     1.2190 C.3   1 <1>  -0.2400 
 25 H       -0.2210    -1.1020     0.5130 H     1 <1>   0.0800 
 26 H       -1.6860    -1.0110     1.4230 H     1 <1>   0.0800 
 27 H       -3.5270     0.7460    -1.2570 H     1 <1>   0.0800 
 28 H       -2.8310    -0.6320    -2.0640 H     1 <1>   0.0800 
 29 H        1.8340    -0.7310    -0.8460 H     1 <1>   0.1500 
 30 H       -1.4340    -2.4950    -1.1640 H     1 <1>   0.0800 
 31 H       -4.8710    -1.2790    -0.8690 H     1 <1>   0.0800 
 32 H       -4.1890    -0.6820     0.6180 H     1 <1>   0.0800 
 33 H        2.0280     3.4350     1.7250 H     1 <1>   0.1500 
 34 H       -3.6280    -3.2270    -0.8410 H     1 <1>   0.0800 
 35 H       -0.8190     4.8890    -0.4180 H     1 <1>   0.0800 
 36 H        0.2790     4.0050    -1.4700 H     1 <1>   0.0800 
 37 H        0.9090     4.8730    -0.0640 H     1 <1>   0.0800 
 38 H        3.8810     1.8330     1.8690 H     1 <1>   0.1500 
 39 H        4.8640    -0.2060     1.2970 H     1 <1>   0.0800 
 40 H       -3.0870    -3.7160     1.3600 H     1 <1>   0.4000 
 41 H        4.0770    -1.2770    -1.4200 H     1 <1>   0.0800 
 42 H        5.6140    -1.4940    -0.6230 H     1 <1>   0.0800 
 43 H        5.1190     0.0980    -1.1450 H     1 <1>   0.0800 
 44 H        2.8530    -2.3550     0.5730 H     1 <1>   0.0800 
 45 H        3.1180    -1.7180     2.1700 H     1 <1>   0.0800 
 46 H        4.3890    -2.6010     1.3620 H     1 <1>   0.0800 
@<TRIPOS>BOND
  1   1   2  2   
  2   1   3  2   
  3   1   4  am  
  4   1   5  1   
  5   4   6  1   
  6   4   7  1   
  7   5   8  ar  
  8   5   9  ar  
  9   6  10  1   
 10   6  25  1   
 11   6  26  1   
 12   7  11  1   
 13   7  27  1   
 14   7  28  1   
 15   8  12  1   
 16   8  13  ar  
 17   9  14  ar  
 18   9  29  1   
 19  10  15  1   
 20  10  16  1   
 21  10  30  1   
 22  11  16  1   
 23  11  31  1   
 24  11  32  1   
 25  12  17  1   
 26  13  18  ar  
 27  13  33  1   
 28  14  18  ar  
 29  14  19  1   
 30  15  20  ar  
 31  15  21  ar  
 32  16  22  1   
 33  16  34  1   
 34  17  35  1   
 35  17  36  1   
 36  17  37  1   
 37  18  38  1   
 38  19  23  1   
 39  19  24  1   
 40  19  39  1   
 41  22  40  1   
 42  23  41  1   
 43  23  42  1   
 44  23  43  1   
 45  24  44  1   
 46  24  45  1   
 47  24  46  1   
@<TRIPOS>SUBSTRUCTURE
  1 ****   6 GROUP 4 **** **** 0

# MOE 2024.06 (io_trps.svl 2023.06)
