@<TRIPOS>MOLECULE
NONAME
49 52 1 0 0 
SMALL
USER_CHARGES


@<TRIPOS>ATOM
  1 O       -2.6720    -1.9350     0.4190 O.3   1 <1>  -0.5600 
  2 C       -2.2010    -2.5380    -0.7490 C.3   1 <1>   0.1200 
  3 C       -2.8750    -2.8220     1.4820 C.3   1 <1>   0.1200 
  4 C       -0.8430    -3.2200    -0.4940 C.3   1 <1>   0.2090 
  5 C       -1.5590    -3.5240     1.8580 C.3   1 <1>   0.2090 
  6 N       -0.9340    -4.1900     0.6540 N.pl3 1 <1>  -0.8380 
  7 C       -0.5860    -5.5050     0.6590 C.ar  1 <1>   0.7710 
  8 N       -0.9380    -6.2680     1.6870 N.ar  1 <1>  -0.6200 
  9 N        0.1090    -6.0020    -0.3820 N.ar  1 <1>  -0.1790 
 10 C       -0.6160    -7.5390     1.6500 C.ar  1 <1>   0.4100 
 11 C        0.4900    -7.3000    -0.4430 C.ar  1 <1>   0.2180 
 12 N       -1.0730    -8.2720     2.6770 N.pl3 1 <1>  -0.8690 
 13 C        0.1330    -8.0910     0.5940 C.ar  1 <1>  -0.1500 
 14 C        1.2840    -7.7950    -1.6460 C.3   1 <1>  -0.0170 
 15 C       -1.2710    -9.7460     2.7090 C.3   1 <1>   0.3890 
 16 C        2.6530    -7.1110    -1.7570 C.3   1 <1>  -0.2400 
 17 C       -2.0330   -10.1770     1.4660 C.2   1 <1>   0.0060 
 18 N       -3.2640    -9.7720     1.1810 N.pl3 1 <1>   0.0330 
 19 N       -1.5640   -10.9330     0.5320 N.2   1 <1>  -0.3380 
 20 C       -3.5290   -10.3210    -0.0080 C.2   1 <1>   0.1330 
 21 N       -2.5040   -11.0240    -0.4040 N.2   1 <1>  -0.3380 
 22 C       -4.7770   -10.1100    -0.7000 C.ar  1 <1>   0.3630 
 23 N       -5.6600    -9.2650    -0.1510 N.ar  1 <1>  -0.6200 
 24 C       -5.0400   -10.7690    -1.9090 C.ar  1 <1>   0.1600 
 25 C       -6.7650    -9.1420    -0.8650 C.ar  1 <1>   0.1600 
 26 N       -6.1430   -10.6390    -2.6250 N.ar  1 <1>  -0.6200 
 27 C       -7.0010    -9.8050    -2.0630 C.ar  1 <1>   0.1600 
 28 H       -2.0980    -1.7660    -1.4920 H     1 <1>   0.0800 
 29 H       -2.9340    -3.2490    -1.0880 H     1 <1>   0.0800 
 30 H       -3.6230    -3.5410     1.1980 H     1 <1>   0.0800 
 31 H       -3.2430    -2.2520     2.3170 H     1 <1>   0.0800 
 32 H       -0.1170    -2.4580    -0.2600 H     1 <1>   0.0800 
 33 H       -0.5350    -3.7050    -1.4020 H     1 <1>   0.0800 
 34 H       -1.7590    -4.2220     2.6510 H     1 <1>   0.0800 
 35 H       -0.8770    -2.7880     2.2480 H     1 <1>   0.0800 
 36 H        0.3660    -5.3430    -1.1030 H     1 <1>   0.4570 
 37 H       -1.4900    -7.7580     3.4580 H     1 <1>   0.4000 
 38 H        0.4050    -9.1290     0.6280 H     1 <1>   0.1500 
 39 H        0.7180    -7.6290    -2.5470 H     1 <1>   0.0800 
 40 H        1.4340    -8.8580    -1.5580 H     1 <1>   0.0800 
 41 H       -1.8260   -10.0220     3.5890 H     1 <1>   0.0800 
 42 H       -0.3150   -10.2410     2.7420 H     1 <1>   0.0800 
 43 H        2.5570    -6.0530    -1.9220 H     1 <1>   0.0800 
 44 H        3.2010    -7.5300    -2.5850 H     1 <1>   0.0800 
 45 H        3.2290    -7.2740    -0.8620 H     1 <1>   0.0800 
 46 H       -3.8930    -9.1510     1.6970 H     1 <1>   0.2700 
 47 H       -4.2870   -11.4350    -2.2920 H     1 <1>   0.1500 
 48 H       -7.5280    -8.4830    -0.4880 H     1 <1>   0.1500 
 49 H       -7.9330    -9.6400    -2.5750 H     1 <1>   0.1500 
@<TRIPOS>BOND
  1   1   2  1   
  2   1   3  1   
  3   2   4  1   
  4   2  28  1   
  5   2  29  1   
  6   3   5  1   
  7   3  30  1   
  8   3  31  1   
  9   4   6  1   
 10   4  32  1   
 11   4  33  1   
 12   5   6  1   
 13   5  34  1   
 14   5  35  1   
 15   6   7  1   
 16   7   8  ar  
 17   7   9  ar  
 18   8  10  ar  
 19   9  11  ar  
 20   9  36  1   
 21  10  12  1   
 22  10  13  ar  
 23  11  13  ar  
 24  11  14  1   
 25  12  15  1   
 26  12  37  1   
 27  13  38  1   
 28  14  16  1   
 29  14  39  1   
 30  14  40  1   
 31  15  17  1   
 32  15  41  1   
 33  15  42  1   
 34  16  43  1   
 35  16  44  1   
 36  16  45  1   
 37  17  18  1   
 38  17  19  2   
 39  18  20  1   
 40  18  46  1   
 41  19  21  1   
 42  20  21  2   
 43  20  22  1   
 44  22  23  ar  
 45  22  24  ar  
 46  23  25  ar  
 47  24  26  ar  
 48  24  47  1   
 49  25  27  ar  
 50  25  48  1   
 51  26  27  ar  
 52  27  49  1   
@<TRIPOS>SUBSTRUCTURE
  1 ****  10 GROUP 4 **** **** 0

# MOE 2024.06 (io_trps.svl 2023.06)
