@<TRIPOS>MOLECULE
NONAME
42 43 1 0 0 
SMALL
USER_CHARGES


@<TRIPOS>ATOM
  1 F       -0.6460    -0.6970     1.1880 F     1 <1>  -0.1900 
  2 C       -1.7910    -1.1030     0.6770 C.ar  1 <1>   0.1900 
  3 C       -2.6300    -0.2410    -0.0280 C.ar  1 <1>   0.4100 
  4 C       -2.1550    -2.4120     0.8330 C.ar  1 <1>   0.1600 
  5 N       -3.7560    -0.7070    -0.5390 N.ar  1 <1>  -0.6200 
  6 N       -2.3600     1.1100    -0.2380 N.pl3 1 <1>  -0.8380 
  7 N       -3.2830    -2.8820     0.3340 N.ar  1 <1>  -0.6200 
  8 C       -4.0140    -1.9840    -0.3230 C.ar  1 <1>   0.7200 
  9 C       -2.9560     1.8370    -1.3930 C.3   1 <1>   0.1290 
 10 C       -1.8870     1.9770     0.8750 C.3   1 <1>   0.1290 
 11 N       -5.1870    -2.3960    -0.8630 N.pl3 1 <1>  -0.8690 
 12 C       -5.4170    -3.7780    -1.3110 C.3   1 <1>   0.2090 
 13 C       -6.1400    -4.5160    -0.1840 C.3   1 <1>  -0.1600 
 14 C       -6.2620    -6.0140    -0.4560 C.3   1 <1>   0.4230 
 15 N       -6.9260    -6.6920     0.6770 N.4   1 <1>  -0.9590 
 16 C       -4.9190    -6.7340    -0.5650 C.3   1 <1>  -0.1600 
 17 C       -6.5590    -8.1270     0.5840 C.3   1 <1>   0.3430 
 18 C       -8.4050    -6.4800     0.7380 C.3   1 <1>   0.2630 
 19 C       -5.1500    -8.1360     0.0040 C.3   1 <1>  -0.1600 
 20 H       -1.5120    -3.0820     1.3740 H     1 <1>   0.1500 
 21 H       -3.0810     1.1690    -2.2280 H     1 <1>   0.0800 
 22 H       -2.3100     2.6430    -1.6940 H     1 <1>   0.0800 
 23 H       -3.9180     2.2330    -1.1160 H     1 <1>   0.0800 
 24 H       -1.9200     1.4460     1.8100 H     1 <1>   0.0800 
 25 H       -2.5150     2.8470     0.9580 H     1 <1>   0.0800 
 26 H       -0.8740     2.2890     0.6840 H     1 <1>   0.0800 
 27 H       -5.5740    -1.6570    -1.4530 H     1 <1>   0.4000 
 28 H       -4.4700    -4.2400    -1.5380 H     1 <1>   0.0800 
 29 H       -6.0150    -3.7700    -2.2070 H     1 <1>   0.0800 
 30 H       -7.1160    -4.0800    -0.0780 H     1 <1>   0.0800 
 31 H       -5.5930    -4.3660     0.7310 H     1 <1>   0.0800 
 32 H       -6.8290    -6.1850    -1.3580 H     1 <1>   0.0800 
 33 H       -6.4890    -6.3130     1.5290 H     1 <1>   0.4500 
 34 H       -4.1710    -6.2230     0.0190 H     1 <1>   0.0800 
 35 H       -4.5850    -6.7690    -1.5870 H     1 <1>   0.0800 
 36 H       -7.2270    -8.6340    -0.0940 H     1 <1>   0.0800 
 37 H       -6.5950    -8.6100     1.5480 H     1 <1>   0.0800 
 38 H       -8.8740    -6.8500    -0.1590 H     1 <1>   0.0800 
 39 H       -8.6290    -5.4300     0.8360 H     1 <1>   0.0800 
 40 H       -8.8220    -6.9980     1.5860 H     1 <1>   0.0800 
 41 H       -4.4320    -8.3560     0.7750 H     1 <1>   0.0800 
 42 H       -5.0720    -8.8910    -0.7590 H     1 <1>   0.0800 
@<TRIPOS>BOND
  1   1   2  1   
  2   2   3  ar  
  3   2   4  ar  
  4   3   5  ar  
  5   3   6  1   
  6   4   7  ar  
  7   4  20  1   
  8   5   8  ar  
  9   6   9  1   
 10   6  10  1   
 11   7   8  ar  
 12   8  11  1   
 13   9  21  1   
 14   9  22  1   
 15   9  23  1   
 16  10  24  1   
 17  10  25  1   
 18  10  26  1   
 19  11  12  1   
 20  11  27  1   
 21  12  13  1   
 22  12  28  1   
 23  12  29  1   
 24  13  14  1   
 25  13  30  1   
 26  13  31  1   
 27  14  15  1   
 28  14  16  1   
 29  14  32  1   
 30  15  17  1   
 31  15  18  1   
 32  15  33  1   
 33  16  19  1   
 34  16  34  1   
 35  16  35  1   
 36  17  19  1   
 37  17  36  1   
 38  17  37  1   
 39  18  38  1   
 40  18  39  1   
 41  18  40  1   
 42  19  41  1   
 43  19  42  1   
@<TRIPOS>SUBSTRUCTURE
  1 ****   7 GROUP 4 **** **** 0

# MOE 2024.06 (io_trps.svl 2023.06)
