@<TRIPOS>MOLECULE
NONAME
37 37 1 0 0 
SMALL
USER_CHARGES


@<TRIPOS>ATOM
  1 O        0.4500    -0.2210    -2.2570 O.2   1 <1>  -0.5700 
  2 C        1.3570    -0.7330    -1.6540 C.2   1 <1>   0.5690 
  3 N        2.2650    -0.0440    -0.9020 N.am  1 <1>  -0.4940 
  4 C        1.4970    -2.2420    -1.7250 C.3   1 <1>  -0.0990 
  5 C        2.3700     1.3340    -0.6810 C.2   1 <1>   0.2040 
  6 C        0.9740    -2.9260    -0.4510 C.3   1 <1>  -0.1600 
  7 O        1.5990     2.2060    -1.2880 O.3   1 <1>  -0.0190 
  8 C        3.2120     2.0210     0.1170 C.2   1 <1>  -0.1810 
  9 C        0.9950    -4.4490    -0.5850 C.3   1 <1>   0.1400 
 10 N        1.8840     3.4350    -0.9390 N.2   1 <1>  -0.4100 
 11 C        2.8490     3.3500    -0.0960 C.2   1 <1>   0.1080 
 12 C        4.3020     1.5040     1.0400 C.3   1 <1>   0.0210 
 13 N        0.5180    -5.0450     0.6780 N.am  1 <1>  -0.7300 
 14 C        3.4790     4.5600     0.5610 C.3   1 <1>  -0.0590 
 15 C        5.6620     1.5390     0.3410 C.3   1 <1>  -0.2400 
 16 C       -0.7020    -5.5440     0.9760 C.2   1 <1>   0.5690 
 17 O       -0.9140    -5.9920     2.0720 O.2   1 <1>  -0.5700 
 18 C       -1.8130    -5.5430    -0.0450 C.3   1 <1>  -0.1790 
 19 H        2.9670    -0.6040    -0.4300 H     1 <1>   0.3700 
 20 H        2.5280    -2.4950    -1.8910 H     1 <1>   0.0800 
 21 H        0.9340    -2.5870    -2.5740 H     1 <1>   0.0800 
 22 H       -0.0390    -2.6050    -0.2740 H     1 <1>   0.0800 
 23 H        1.5750    -2.6310     0.3920 H     1 <1>   0.0800 
 24 H        1.9950    -4.7960    -0.7810 H     1 <1>   0.0800 
 25 H        0.3650    -4.7570    -1.4030 H     1 <1>   0.0800 
 26 H        4.0770     0.4940     1.3340 H     1 <1>   0.0800 
 27 H        4.3350     2.1030     1.9340 H     1 <1>   0.0800 
 28 H        1.1900    -5.0800     1.4480 H     1 <1>   0.3700 
 29 H        4.5180     4.6230     0.2940 H     1 <1>   0.0800 
 30 H        3.3880     4.4880     1.6280 H     1 <1>   0.0800 
 31 H        2.9830     5.4550     0.2310 H     1 <1>   0.0800 
 32 H        5.6390     0.9370    -0.5510 H     1 <1>   0.0800 
 33 H        6.4260     1.1580     0.9950 H     1 <1>   0.0800 
 34 H        5.9170     2.5470     0.0660 H     1 <1>   0.0800 
 35 H       -1.9750    -4.5460    -0.4090 H     1 <1>   0.0800 
 36 H       -2.7200    -5.8970     0.4090 H     1 <1>   0.0800 
 37 H       -1.5570    -6.1920    -0.8600 H     1 <1>   0.0800 
@<TRIPOS>BOND
  1   1   2  2   
  2   2   3  am  
  3   2   4  1   
  4   3   5  1   
  5   3  19  1   
  6   4   6  1   
  7   4  20  1   
  8   4  21  1   
  9   5   7  1   
 10   5   8  2   
 11   6   9  1   
 12   6  22  1   
 13   6  23  1   
 14   7  10  1   
 15   8  11  1   
 16   8  12  1   
 17   9  13  1   
 18   9  24  1   
 19   9  25  1   
 20  10  11  2   
 21  11  14  1   
 22  12  15  1   
 23  12  26  1   
 24  12  27  1   
 25  13  16  am  
 26  13  28  1   
 27  14  29  1   
 28  14  30  1   
 29  14  31  1   
 30  15  32  1   
 31  15  33  1   
 32  15  34  1   
 33  16  17  2   
 34  16  18  1   
 35  18  35  1   
 36  18  36  1   
 37  18  37  1   
@<TRIPOS>SUBSTRUCTURE
  1 ****   3 GROUP 4 **** **** 0

# MOE 2024.06 (io_trps.svl 2023.06)
