@<TRIPOS>MOLECULE
NONAME
51 53 1 0 0 
SMALL
USER_CHARGES


@<TRIPOS>ATOM
  1 O        1.5190    -0.5940    -1.4710 O.2   1 <1>  -0.5700 
  2 C        1.7350    -0.7180    -0.2810 C.2   1 <1>   0.7150 
  3 N        2.3450     0.2940     0.4080 N.am  1 <1>  -0.4940 
  4 C        1.3770    -1.9020     0.4390 C.2   1 <1>  -0.2370 
  5 C        2.3980     1.6480     0.0280 C.2   1 <1>  -0.0880 
  6 N        0.2980    -2.6940     0.1690 N.pl3 1 <1>   0.3140 
  7 C        1.9840    -2.4670     1.5220 C.2   1 <1>  -0.1500 
  8 N        3.4860     2.3290    -0.4400 N.pl3 1 <1>   0.3140 
  9 C        1.3480     2.5170     0.0480 C.2   1 <1>  -0.0540 
 10 N        0.2070    -3.7130     1.0510 N.2   1 <1>  -0.7070 
 11 C       -0.7350    -2.4810    -0.9040 C.3   1 <1>   0.1760 
 12 C        1.2210    -3.5700     1.8460 C.2   1 <1>   0.1390 
 13 N        3.1510     3.6250    -0.6960 N.2   1 <1>  -0.7070 
 14 C        4.8860     1.7960    -0.6960 C.3   1 <1>   0.2560 
 15 C       -0.0230     2.2880     0.4280 C.ar  1 <1>   0.0540 
 16 C        1.8930     3.7140    -0.4110 C.2   1 <1>   0.1390 
 17 C       -1.7040    -1.3630    -0.4930 C.3   1 <1>  -0.2400 
 18 C       -1.5190    -3.7650    -1.2290 C.3   1 <1>  -0.2400 
 19 C        5.4870     1.2240     0.6010 C.3   1 <1>  -0.2400 
 20 C        4.8460     0.7050    -1.7790 C.3   1 <1>  -0.2400 
 21 C        5.8260     2.9160    -1.1910 C.3   1 <1>  -0.2400 
 22 C       -1.0640     2.6050    -0.4410 C.ar  1 <1>  -0.1500 
 23 C       -0.3510     1.7380     1.6650 C.ar  1 <1>  -0.1500 
 24 C       -2.3830     2.3810    -0.0900 C.ar  1 <1>  -0.1500 
 25 C       -1.6670     1.5080     2.0210 C.ar  1 <1>  -0.1500 
 26 C       -2.6870     1.8300     1.1430 C.ar  1 <1>  -0.1500 
 27 H        2.4270     0.1070     1.4050 H     1 <1>   0.3700 
 28 H        2.8720    -2.1540     2.0390 H     1 <1>   0.1500 
 29 H       -0.2240    -2.1870    -1.8020 H     1 <1>   0.0800 
 30 H        1.4260    -4.2460     2.6600 H     1 <1>   0.1500 
 31 H        1.3270     4.6240    -0.5170 H     1 <1>   0.1500 
 32 H       -2.2100    -1.6230     0.4200 H     1 <1>   0.0800 
 33 H       -2.4370    -1.2060    -1.2620 H     1 <1>   0.0800 
 34 H       -1.1700    -0.4410    -0.3510 H     1 <1>   0.0800 
 35 H       -2.0890    -4.0860    -0.3750 H     1 <1>   0.0800 
 36 H       -0.8390    -4.5490    -1.5110 H     1 <1>   0.0800 
 37 H       -2.1950    -3.5900    -2.0460 H     1 <1>   0.0800 
 38 H        4.9400     0.3640     0.9370 H     1 <1>   0.0800 
 39 H        5.4790     1.9730     1.3740 H     1 <1>   0.0800 
 40 H        6.5050     0.9200     0.4360 H     1 <1>   0.0800 
 41 H        4.2890    -0.1510    -1.4490 H     1 <1>   0.0800 
 42 H        5.8410     0.3770    -2.0210 H     1 <1>   0.0800 
 43 H        4.3880     1.0890    -2.6730 H     1 <1>   0.0800 
 44 H        5.8910     3.7030    -0.4600 H     1 <1>   0.0800 
 45 H        5.4580     3.3320    -2.1130 H     1 <1>   0.0800 
 46 H        6.8160     2.5360    -1.3670 H     1 <1>   0.0800 
 47 H       -0.8320     3.0240    -1.4040 H     1 <1>   0.1500 
 48 H        0.4360     1.4940     2.3530 H     1 <1>   0.1500 
 49 H       -3.1730     2.6320    -0.7770 H     1 <1>   0.1500 
 50 H       -1.9010     1.0810     2.9800 H     1 <1>   0.1500 
 51 H       -3.7130     1.6530     1.4170 H     1 <1>   0.1500 
@<TRIPOS>BOND
  1   1   2  2   
  2   2   3  am  
  3   2   4  1   
  4   3   5  1   
  5   3  27  1   
  6   4   6  1   
  7   4   7  2   
  8   5   8  1   
  9   5   9  2   
 10   6  10  1   
 11   6  11  1   
 12   7  12  1   
 13   7  28  1   
 14   8  13  1   
 15   8  14  1   
 16   9  15  1   
 17   9  16  1   
 18  10  12  2   
 19  11  17  1   
 20  11  18  1   
 21  11  29  1   
 22  12  30  1   
 23  13  16  2   
 24  14  19  1   
 25  14  20  1   
 26  14  21  1   
 27  15  22  ar  
 28  15  23  ar  
 29  16  31  1   
 30  17  32  1   
 31  17  33  1   
 32  17  34  1   
 33  18  35  1   
 34  18  36  1   
 35  18  37  1   
 36  19  38  1   
 37  19  39  1   
 38  19  40  1   
 39  20  41  1   
 40  20  42  1   
 41  20  43  1   
 42  21  44  1   
 43  21  45  1   
 44  21  46  1   
 45  22  24  ar  
 46  22  47  1   
 47  23  25  ar  
 48  23  48  1   
 49  24  26  ar  
 50  24  49  1   
 51  25  26  ar  
 52  25  50  1   
 53  26  51  1   
@<TRIPOS>SUBSTRUCTURE
  1 ****   3 GROUP 4 **** **** 0

# MOE 2024.06 (io_trps.svl 2023.06)
