@<TRIPOS>MOLECULE
NONAME
39 41 1 0 0 
SMALL
USER_CHARGES


@<TRIPOS>ATOM
  1 S        0.8740     0.1370     0.0370 S.3   1 <1>  -0.4600 
  2 C        2.4210     0.8160     0.7260 C.3   1 <1>   0.2510 
  3 C        1.0200    -1.6440     0.3380 C.3   1 <1>  -0.0100 
  4 C        2.4710     2.3240     0.5330 C.2   1 <1>   0.3350 
  5 N        2.2550     3.1830     1.4500 N.2   1 <1>  -0.4100 
  6 N        2.7740     2.8710    -0.6390 N.2   1 <1>  -0.5650 
  7 O        2.3830     4.3570     0.9140 O.3   1 <1>  -0.0190 
  8 C        2.6960     4.1050    -0.3330 C.2   1 <1>   0.2980 
  9 C        2.9330     5.2850    -1.2740 C.3   1 <1>   0.2900 
 10 N        4.2930     5.8790    -1.1890 N.3   1 <1>  -0.8100 
 11 C        4.5900     6.4080     0.1700 C.3   1 <1>   0.2900 
 12 C        5.3170     4.9340    -1.6660 C.3   1 <1>   0.0300 
 13 C        5.7970     7.3410     0.2290 C.2   1 <1>   0.2980 
 14 O        6.9960     6.8170     0.2320 O.3   1 <1>  -0.0190 
 15 N        5.7610     8.6090     0.3050 N.2   1 <1>  -0.5650 
 16 N        7.7890     7.8380     0.3050 N.2   1 <1>  -0.4100 
 17 C        7.0640     8.8990     0.3420 C.2   1 <1>   0.4620 
 18 C        7.5580    10.2600     0.4200 C.ar  1 <1>   0.0540 
 19 C        8.9260    10.5250     0.5080 C.ar  1 <1>   0.1600 
 20 C        6.7080    11.3600     0.4110 C.ar  1 <1>  -0.1500 
 21 N        9.4840    11.7240     0.5860 N.ar  1 <1>  -0.6200 
 22 C        7.2670    12.6170     0.4900 C.ar  1 <1>  -0.1500 
 23 C        8.6420    12.7440     0.5750 C.ar  1 <1>   0.1600 
 24 H        3.2380     0.3430     0.2150 H     1 <1>   0.0800 
 25 H        2.4390     0.5680     1.7710 H     1 <1>   0.0800 
 26 H        0.1300    -2.1120    -0.0450 H     1 <1>   0.0800 
 27 H        1.1060    -1.7990     1.3980 H     1 <1>   0.0800 
 28 H        1.8920    -2.0000    -0.1810 H     1 <1>   0.0800 
 29 H        2.2010     6.0450    -1.0660 H     1 <1>   0.0800 
 30 H        2.7640     4.9510    -2.2830 H     1 <1>   0.0800 
 31 H        4.7490     5.5950     0.8560 H     1 <1>   0.0800 
 32 H        3.7390     6.9700     0.5160 H     1 <1>   0.0800 
 33 H        5.0390     4.5460    -2.6310 H     1 <1>   0.0800 
 34 H        5.4280     4.1110    -0.9800 H     1 <1>   0.0800 
 35 H        6.2640     5.4330    -1.7740 H     1 <1>   0.0800 
 36 H        9.6020     9.6880     0.5160 H     1 <1>   0.1500 
 37 H        5.6420    11.2330     0.3440 H     1 <1>   0.1500 
 38 H        6.6440    13.4930     0.4860 H     1 <1>   0.1500 
 39 H        9.0700    13.7300     0.6370 H     1 <1>   0.1500 
@<TRIPOS>BOND
  1   1   2  1   
  2   1   3  1   
  3   2   4  1   
  4   2  24  1   
  5   2  25  1   
  6   3  26  1   
  7   3  27  1   
  8   3  28  1   
  9   4   5  2   
 10   4   6  1   
 11   5   7  1   
 12   6   8  2   
 13   7   8  1   
 14   8   9  1   
 15   9  10  1   
 16   9  29  1   
 17   9  30  1   
 18  10  11  1   
 19  10  12  1   
 20  11  13  1   
 21  11  31  1   
 22  11  32  1   
 23  12  33  1   
 24  12  34  1   
 25  12  35  1   
 26  13  14  1   
 27  13  15  2   
 28  14  16  1   
 29  15  17  1   
 30  16  17  2   
 31  17  18  1   
 32  18  19  ar  
 33  18  20  ar  
 34  19  21  ar  
 35  19  36  1   
 36  20  22  ar  
 37  20  37  1   
 38  21  23  ar  
 39  22  23  ar  
 40  22  38  1   
 41  23  39  1   
@<TRIPOS>SUBSTRUCTURE
  1 ****  11 GROUP 4 **** **** 0

# MOE 2024.06 (io_trps.svl 2023.06)
