@<TRIPOS>MOLECULE
NONAME
57 60 1 0 0 
SMALL
USER_CHARGES


@<TRIPOS>ATOM
  1 O       -1.8630    -2.7980     1.2770 O.3   1 <1>  -0.3630 
  2 C       -1.9360    -1.5340     0.7960 C.ar  1 <1>   0.0820 
  3 C       -0.9690    -3.0270     2.3470 C.3   1 <1>   0.0400 
  4 C       -3.0780    -0.7950     1.0800 C.ar  1 <1>  -0.1440 
  5 C       -0.9230    -0.9840     0.0130 C.ar  1 <1>  -0.1440 
  6 C       -3.1950     0.5050     0.6170 C.ar  1 <1>  -0.1500 
  7 C       -4.1890    -1.4250     1.8870 C.3   1 <1>   0.4870 
  8 C       -1.0590     0.3170    -0.4420 C.ar  1 <1>  -0.1500 
  9 C        0.3300    -1.7520    -0.3840 C.3   1 <1>  -0.0960 
 10 C       -2.1840     1.0670    -0.1420 C.ar  1 <1>  -0.1440 
 11 N       -4.7970    -2.5000     1.0700 N.4   1 <1>  -0.9590 
 12 C       -2.3020     2.4920    -0.6530 C.3   1 <1>  -0.0970 
 13 C       -5.4370    -2.0320    -0.1960 C.3   1 <1>   0.3430 
 14 C       -5.7480    -3.3880     1.7770 C.3   1 <1>   0.3430 
 15 C       -6.7080    -2.8720    -0.3750 C.3   1 <1>   0.2000 
 16 C       -6.6530    -3.9730     0.6920 C.3   1 <1>  -0.0800 
 17 O       -7.8230    -2.0760    -0.1310 O.3   1 <1>  -0.6800 
 18 C       -6.1400    -5.3280     0.1490 C.3   1 <1>  -0.0170 
 19 C       -4.6450    -5.4060    -0.1420 C.ar  1 <1>   0.1670 
 20 N       -4.1650    -4.6160    -1.0530 N.ar  1 <1>  -0.6200 
 21 C       -3.8610    -6.3290     0.5700 C.ar  1 <1>  -0.1500 
 22 C       -2.8450    -4.7250    -1.3620 C.ar  1 <1>   0.3100 
 23 C       -2.5310    -6.4410     0.3000 C.ar  1 <1>  -0.1500 
 24 C       -1.9840    -5.6300    -0.7060 C.ar  1 <1>   0.0000 
 25 C       -2.3140    -3.9180    -2.3820 C.ar  1 <1>  -0.1500 
 26 C       -0.6320    -5.6980    -1.0990 C.ar  1 <1>  -0.1500 
 27 C       -0.9990    -4.0040    -2.7530 C.ar  1 <1>  -0.1500 
 28 C       -0.1490    -4.9060    -2.1040 C.ar  1 <1>  -0.1500 
 29 H       -1.0640    -4.0530     2.6530 H     1 <1>   0.0800 
 30 H       -1.2200    -2.3710     3.1620 H     1 <1>   0.0800 
 31 H        0.0380    -2.8390     2.0230 H     1 <1>   0.0800 
 32 H       -4.0710     1.0910     0.8390 H     1 <1>   0.1500 
 33 H       -4.9270    -0.6860     2.1480 H     1 <1>   0.0800 
 34 H       -3.7730    -1.8400     2.7900 H     1 <1>   0.0800 
 35 H       -0.2780     0.7540    -1.0410 H     1 <1>   0.1500 
 36 H        0.6050    -1.5170    -1.3960 H     1 <1>   0.0800 
 37 H        0.1670    -2.8110    -0.3230 H     1 <1>   0.0800 
 38 H        1.1440    -1.4860     0.2660 H     1 <1>   0.0800 
 39 H       -3.9980    -3.0840     0.7460 H     1 <1>   0.4500 
 40 H       -1.3380     2.9680    -0.6570 H     1 <1>   0.0800 
 41 H       -2.9590     3.0690    -0.0280 H     1 <1>   0.0800 
 42 H       -2.6890     2.4900    -1.6560 H     1 <1>   0.0800 
 43 H       -5.6850    -0.9850    -0.1550 H     1 <1>   0.0800 
 44 H       -4.7640    -2.2030    -1.0210 H     1 <1>   0.0800 
 45 H       -5.2320    -4.1610     2.3230 H     1 <1>   0.0800 
 46 H       -6.3450    -2.8070     2.4600 H     1 <1>   0.0800 
 47 H       -6.7920    -3.2560    -1.3790 H     1 <1>   0.0800 
 48 H       -7.6370    -4.1500     1.0910 H     1 <1>   0.0800 
 49 H       -7.8720    -1.7590     0.7900 H     1 <1>   0.4000 
 50 H       -6.6710    -5.5700    -0.7560 H     1 <1>   0.0800 
 51 H       -6.3940    -6.0930     0.8610 H     1 <1>   0.0800 
 52 H       -4.3140    -6.9520     1.3200 H     1 <1>   0.1500 
 53 H       -1.9000    -7.1390     0.8220 H     1 <1>   0.1500 
 54 H       -2.9770    -3.2320    -2.8750 H     1 <1>   0.1500 
 55 H        0.0170    -6.3940    -0.5960 H     1 <1>   0.1500 
 56 H       -0.6050    -3.3850    -3.5410 H     1 <1>   0.1500 
 57 H        0.8820    -4.9650    -2.4090 H     1 <1>   0.1500 
@<TRIPOS>BOND
  1   1   2  1   
  2   1   3  1   
  3   2   4  ar  
  4   2   5  ar  
  5   3  29  1   
  6   3  30  1   
  7   3  31  1   
  8   4   6  ar  
  9   4   7  1   
 10   5   8  ar  
 11   5   9  1   
 12   6  10  ar  
 13   6  32  1   
 14   7  11  1   
 15   7  33  1   
 16   7  34  1   
 17   8  10  ar  
 18   8  35  1   
 19   9  36  1   
 20   9  37  1   
 21   9  38  1   
 22  10  12  1   
 23  11  13  1   
 24  11  14  1   
 25  11  39  1   
 26  12  40  1   
 27  12  41  1   
 28  12  42  1   
 29  13  15  1   
 30  13  43  1   
 31  13  44  1   
 32  14  16  1   
 33  14  45  1   
 34  14  46  1   
 35  15  16  1   
 36  15  17  1   
 37  15  47  1   
 38  16  18  1   
 39  16  48  1   
 40  17  49  1   
 41  18  19  1   
 42  18  50  1   
 43  18  51  1   
 44  19  20  ar  
 45  19  21  ar  
 46  20  22  ar  
 47  21  23  ar  
 48  21  52  1   
 49  22  24  ar  
 50  22  25  ar  
 51  23  24  ar  
 52  23  53  1   
 53  24  26  ar  
 54  25  27  ar  
 55  25  54  1   
 56  26  28  ar  
 57  26  55  1   
 58  27  28  ar  
 59  27  56  1   
 60  28  57  1   
@<TRIPOS>SUBSTRUCTURE
  1 ****   1 GROUP 4 **** **** 0

# MOE 2024.06 (io_trps.svl 2023.06)
