@<TRIPOS>MOLECULE
NONAME
52 54 1 0 0 
SMALL
USER_CHARGES


@<TRIPOS>ATOM
  1 O       -2.6130     1.2180     2.2240 O.2   1 <1>  -0.5700 
  2 C       -2.3600     1.4350     1.0610 C.2   1 <1>   0.5690 
  3 N       -2.2470     0.4170     0.1480 N.am  1 <1>  -0.6600 
  4 C       -2.1790     2.8870     0.6720 C.3   1 <1>   0.1570 
  5 C       -2.1420    -1.0040     0.6290 C.3   1 <1>   0.3640 
  6 C       -2.1270     0.6340    -1.3330 C.3   1 <1>   0.1400 
  7 N       -0.8080     3.1310     0.1930 N.pl3 1 <1>   0.3140 
  8 C       -0.6850    -1.3790     0.9430 C.ar  1 <1>  -0.1440 
  9 C       -2.7850    -2.0400    -0.3480 C.3   1 <1>   0.2000 
 10 C       -2.0480    -0.6780    -2.1220 C.3   1 <1>   0.1200 
 11 N       -0.6060     3.6120    -1.0470 N.2   1 <1>  -0.7070 
 12 C        0.3630     2.9130     0.8210 C.2   1 <1>  -0.3320 
 13 C        0.4190    -0.6940     0.4440 C.ar  1 <1>  -0.1500 
 14 C       -0.4610    -2.4570     1.7910 C.ar  1 <1>  -0.1500 
 15 O       -3.0170    -1.5560    -1.6500 O.3   1 <1>  -0.5600 
 16 C       -4.1340    -2.5470     0.1760 C.3   1 <1>   0.1200 
 17 C        0.6750     3.6720    -1.1850 C.2   1 <1>   0.1080 
 18 C        1.3690     3.2460    -0.0430 C.2   1 <1>  -0.0860 
 19 C        0.4960     2.3860     2.2460 C.3   1 <1>  -0.0600 
 20 C        1.7050    -1.0740     0.7820 C.ar  1 <1>  -0.1500 
 21 C        0.8250    -2.8460     2.1250 C.ar  1 <1>  -0.1500 
 22 O       -3.9450    -3.3540     1.2950 O.3   1 <1>  -0.6800 
 23 C        1.2870     4.1390    -2.4900 C.3   1 <1>  -0.0590 
 24 C        2.7940     3.1700     0.1450 C.2   1 <1>   0.5950 
 25 C        1.9100    -2.1540     1.6200 C.ar  1 <1>  -0.1500 
 26 O        3.3490     2.2370     0.6670 O.2   1 <1>  -0.5700 
 27 C        3.6710     4.3150    -0.3120 C.3   1 <1>  -0.1790 
 28 H       -2.3590     3.5150     1.5220 H     1 <1>   0.0800 
 29 H       -2.8750     3.1440    -0.1030 H     1 <1>   0.0800 
 30 H       -2.6700    -1.0810     1.5640 H     1 <1>   0.0800 
 31 H       -2.9780     1.1950    -1.6770 H     1 <1>   0.0800 
 32 H       -1.2440     1.2030    -1.5540 H     1 <1>   0.0800 
 33 H       -2.1260    -2.8830    -0.4520 H     1 <1>   0.0800 
 34 H       -1.0790    -1.1370    -2.0240 H     1 <1>   0.0800 
 35 H       -2.2410    -0.4970    -3.1650 H     1 <1>   0.0800 
 36 H        0.3040     0.1560    -0.2020 H     1 <1>   0.1500 
 37 H       -1.2940    -2.9990     2.2060 H     1 <1>   0.1500 
 38 H       -4.6380    -3.1300    -0.5750 H     1 <1>   0.0800 
 39 H       -4.7550    -1.7170     0.4650 H     1 <1>   0.0800 
 40 H        1.5180     2.4290     2.5770 H     1 <1>   0.0800 
 41 H        0.1750     1.3610     2.3050 H     1 <1>   0.0800 
 42 H       -0.1010     2.9720     2.9220 H     1 <1>   0.0800 
 43 H        2.5460    -0.5200     0.3990 H     1 <1>   0.1500 
 44 H        0.9800    -3.6830     2.7830 H     1 <1>   0.1500 
 45 H       -3.6430    -4.2460     1.0300 H     1 <1>   0.4000 
 46 H        2.1090     3.5060    -2.7660 H     1 <1>   0.0800 
 47 H        1.6260     5.1540    -2.3940 H     1 <1>   0.0800 
 48 H        0.5490     4.0990    -3.2710 H     1 <1>   0.0800 
 49 H        2.9110    -2.4490     1.8820 H     1 <1>   0.1500 
 50 H        3.1020     5.2240    -0.3690 H     1 <1>   0.0800 
 51 H        4.0920     4.0870    -1.2730 H     1 <1>   0.0800 
 52 H        4.4700     4.4540     0.3920 H     1 <1>   0.0800 
@<TRIPOS>BOND
  1   1   2  2   
  2   2   3  am  
  3   2   4  1   
  4   3   5  1   
  5   3   6  1   
  6   4   7  1   
  7   4  28  1   
  8   4  29  1   
  9   5   8  1   
 10   5   9  1   
 11   5  30  1   
 12   6  10  1   
 13   6  31  1   
 14   6  32  1   
 15   7  11  1   
 16   7  12  1   
 17   8  13  ar  
 18   8  14  ar  
 19   9  15  1   
 20   9  16  1   
 21   9  33  1   
 22  10  15  1   
 23  10  34  1   
 24  10  35  1   
 25  11  17  2   
 26  12  18  2   
 27  12  19  1   
 28  13  20  ar  
 29  13  36  1   
 30  14  21  ar  
 31  14  37  1   
 32  16  22  1   
 33  16  38  1   
 34  16  39  1   
 35  17  18  1   
 36  17  23  1   
 37  18  24  1   
 38  19  40  1   
 39  19  41  1   
 40  19  42  1   
 41  20  25  ar  
 42  20  43  1   
 43  21  25  ar  
 44  21  44  1   
 45  22  45  1   
 46  23  46  1   
 47  23  47  1   
 48  23  48  1   
 49  24  26  2   
 50  24  27  1   
 51  25  49  1   
 52  27  50  1   
 53  27  51  1   
 54  27  52  1   
@<TRIPOS>SUBSTRUCTURE
  1 ****  13 GROUP 4 **** **** 0

# MOE 2024.06 (io_trps.svl 2023.06)
