@<TRIPOS>MOLECULE
NONAME
52 55 1 0 0 
SMALL
USER_CHARGES


@<TRIPOS>ATOM
  1 S        0.1850    -0.0160    -2.0010 S.3   1 <1>  -0.0800 
  2 C        1.4120    -0.5940    -0.8690 C.ar  1 <1>   0.0400 
  3 C       -0.1830    -1.6570    -2.5220 C.2   1 <1>  -0.1100 
  4 C        1.5060    -1.9780    -0.9260 C.ar  1 <1>   0.0000 
  5 C        2.1860     0.1910    -0.0360 C.ar  1 <1>  -0.1500 
  6 C        0.5740    -2.5560    -1.8650 C.2   1 <1>  -0.1810 
  7 C        2.4510    -2.5920    -0.1030 C.ar  1 <1>  -0.1500 
  8 C        3.1070    -0.4410     0.7780 C.ar  1 <1>  -0.1500 
  9 C        0.4960    -4.0540    -2.0560 C.3   1 <1>   0.5240 
 10 C        3.2370    -1.8260     0.7410 C.ar  1 <1>  -0.1500 
 11 N       -0.5920    -4.6020    -1.1990 N.4   1 <1>  -0.9590 
 12 C       -0.8260    -6.0490    -1.5490 C.3   1 <1>   0.3430 
 13 C       -0.3130    -4.3670     0.2480 C.3   1 <1>   0.3430 
 14 C       -1.5040    -6.9150    -0.4580 C.3   1 <1>   0.0000 
 15 C       -1.4910    -4.8170     1.1090 C.3   1 <1>  -0.1600 
 16 C       -2.2790    -5.9870     0.5100 C.3   1 <1>   0.2000 
 17 C       -2.5530    -7.8090    -1.1590 C.3   1 <1>   0.1200 
 18 C       -0.4680    -7.8670     0.2240 C.3   1 <1>  -0.0170 
 19 O       -2.8530    -6.7110     1.5350 O.3   1 <1>  -0.6800 
 20 O       -1.9900    -8.4030    -2.2820 O.3   1 <1>  -0.6800 
 21 C        0.8140    -7.2230     0.7410 C.ar  1 <1>  -0.1430 
 22 C        1.8990    -7.0440    -0.1060 C.ar  1 <1>  -0.1500 
 23 C        0.9230    -6.8320     2.0670 C.ar  1 <1>  -0.1500 
 24 C        3.0560    -6.4380     0.3520 C.ar  1 <1>  -0.1500 
 25 C        2.0780    -6.2220     2.5260 C.ar  1 <1>  -0.1500 
 26 C        3.1420    -6.0180     1.6670 C.ar  1 <1>  -0.1500 
 27 H       -0.9460    -1.7510    -3.2770 H     1 <1>   0.1500 
 28 H        2.0710     1.2610    -0.0300 H     1 <1>   0.1500 
 29 H        2.5840    -3.6580    -0.1130 H     1 <1>   0.1500 
 30 H        3.7290     0.1390     1.4400 H     1 <1>   0.1500 
 31 H        1.4410    -4.5110    -1.8080 H     1 <1>   0.0800 
 32 H        0.2800    -4.2620    -3.0910 H     1 <1>   0.0800 
 33 H        3.9650    -2.3010     1.3780 H     1 <1>   0.1500 
 34 H       -1.4350    -4.0610    -1.4260 H     1 <1>   0.4500 
 35 H       -1.4360    -6.0860    -2.4370 H     1 <1>   0.0800 
 36 H        0.1080    -6.5180    -1.8060 H     1 <1>   0.0800 
 37 H        0.5780    -4.8990     0.5340 H     1 <1>   0.0800 
 38 H       -0.1320    -3.3200     0.4320 H     1 <1>   0.0800 
 39 H       -2.1610    -3.9840     1.2300 H     1 <1>   0.0800 
 40 H       -1.1180    -5.0570     2.0880 H     1 <1>   0.0800 
 41 H       -3.1010    -5.5580    -0.0400 H     1 <1>   0.0800 
 42 H       -3.4040    -7.2350    -1.4880 H     1 <1>   0.0800 
 43 H       -2.9000    -8.5860    -0.4960 H     1 <1>   0.0800 
 44 H       -0.9400    -8.4030     1.0280 H     1 <1>   0.0800 
 45 H       -0.1690    -8.6220    -0.4830 H     1 <1>   0.0800 
 46 H       -2.1880    -7.0030     2.1880 H     1 <1>   0.4000 
 47 H       -2.5920    -9.0850    -2.6540 H     1 <1>   0.4000 
 48 H        1.8630    -7.3910    -1.1240 H     1 <1>   0.1500 
 49 H        0.1170    -7.0030     2.7590 H     1 <1>   0.1500 
 50 H        3.8980    -6.3060    -0.3080 H     1 <1>   0.1500 
 51 H        2.1550    -5.9150     3.5560 H     1 <1>   0.1500 
 52 H        4.0430    -5.5510     2.0270 H     1 <1>   0.1500 
@<TRIPOS>BOND
  1   1   2  1   
  2   1   3  1   
  3   2   4  ar  
  4   2   5  ar  
  5   3   6  2   
  6   3  27  1   
  7   4   6  1   
  8   4   7  ar  
  9   5   8  ar  
 10   5  28  1   
 11   6   9  1   
 12   7  10  ar  
 13   7  29  1   
 14   8  10  ar  
 15   8  30  1   
 16   9  11  1   
 17   9  31  1   
 18   9  32  1   
 19  10  33  1   
 20  11  12  1   
 21  11  13  1   
 22  11  34  1   
 23  12  14  1   
 24  12  35  1   
 25  12  36  1   
 26  13  15  1   
 27  13  37  1   
 28  13  38  1   
 29  14  16  1   
 30  14  17  1   
 31  14  18  1   
 32  15  16  1   
 33  15  39  1   
 34  15  40  1   
 35  16  19  1   
 36  16  41  1   
 37  17  20  1   
 38  17  42  1   
 39  17  43  1   
 40  18  21  1   
 41  18  44  1   
 42  18  45  1   
 43  19  46  1   
 44  20  47  1   
 45  21  22  ar  
 46  21  23  ar  
 47  22  24  ar  
 48  22  48  1   
 49  23  25  ar  
 50  23  49  1   
 51  24  26  ar  
 52  24  50  1   
 53  25  26  ar  
 54  25  51  1   
 55  26  52  1   
@<TRIPOS>SUBSTRUCTURE
  1 ****  13 GROUP 4 **** **** 0

# MOE 2024.06 (io_trps.svl 2023.06)
