@<TRIPOS>MOLECULE
NONAME
51 52 1 0 0 
SMALL
USER_CHARGES


@<TRIPOS>ATOM
  1 S        0.1670     0.6180    -0.1270 S.3   1 <1>  -0.4600 
  2 C        1.9310     0.5810     0.2850 C.3   1 <1>   0.2510 
  3 C       -0.3720    -1.0820     0.1870 C.3   1 <1>   0.0700 
  4 C        2.4880     1.9830     0.1200 C.2   1 <1>  -0.1810 
  5 C       -1.8640    -1.1660    -0.1360 C.3   1 <1>  -0.1600 
  6 C        3.4010     2.4560    -0.7570 C.2   1 <1>  -0.0400 
  7 C        2.1200     3.0790     0.9020 C.2   1 <1>  -0.1500 
  8 C       -2.4040    -2.5810     0.1040 C.3   1 <1>  -0.1600 
  9 O        3.6070     3.7370    -0.5530 O.3   1 <1>  -0.2800 
 10 C        4.1710     1.7810    -1.8720 C.3   1 <1>  -0.0600 
 11 C        2.8360     4.1450     0.4530 C.2   1 <1>   0.0550 
 12 C       -3.8980    -2.6610    -0.2200 C.3   1 <1>  -0.2400 
 13 C        2.8590     5.5190     0.8910 C.2   1 <1>   0.7150 
 14 O        2.2250     5.8940     1.8610 O.2   1 <1>  -0.5700 
 15 N        3.6210     6.4280     0.2230 N.am  1 <1>  -0.7300 
 16 C        3.8230     7.8420     0.5970 C.3   1 <1>   0.2780 
 17 C        5.2890     8.2140     0.3660 C.2   1 <1>  -0.0380 
 18 N        6.1990     7.3370     0.9160 N.pl3 1 <1>  -0.6000 
 19 C        5.7390     9.3060    -0.3230 C.2   1 <1>  -0.1240 
 20 C        7.5530     7.5110     0.7890 C.2   1 <1>  -0.0500 
 21 C        7.1480     9.5120    -0.4900 C.2   1 <1>   0.5410 
 22 C        4.8200    10.3580    -0.9510 C.3   1 <1>  -0.1020 
 23 C        8.0450     8.5730     0.1020 C.2   1 <1>  -0.1240 
 24 O        7.5810    10.4710    -1.1310 O.2   1 <1>  -0.5700 
 25 C        9.5470     8.7820    -0.0520 C.3   1 <1>  -0.1020 
 26 H        2.4020    -0.1180    -0.3800 H     1 <1>   0.0800 
 27 H        2.0200     0.2460     1.3030 H     1 <1>   0.0800 
 28 H       -0.1780    -1.2970     1.2230 H     1 <1>   0.0800 
 29 H        0.2080    -1.7290    -0.4480 H     1 <1>   0.0800 
 30 H       -2.0170    -0.8910    -1.1650 H     1 <1>   0.0800 
 31 H       -2.3970    -0.4650     0.4830 H     1 <1>   0.0800 
 32 H        1.3990     3.0690     1.7010 H     1 <1>   0.1500 
 33 H       -2.2520    -2.8570     1.1340 H     1 <1>   0.0800 
 34 H       -1.8710    -3.2830    -0.5140 H     1 <1>   0.0800 
 35 H        3.9060     0.7430    -1.9450 H     1 <1>   0.0800 
 36 H        5.2260     1.8610    -1.6850 H     1 <1>   0.0800 
 37 H        3.9460     2.2620    -2.8070 H     1 <1>   0.0800 
 38 H       -4.4550    -1.9820     0.4020 H     1 <1>   0.0800 
 39 H       -4.2610    -3.6590    -0.0460 H     1 <1>   0.0800 
 40 H       -4.0730    -2.4080    -1.2510 H     1 <1>   0.0800 
 41 H        4.1720     6.0950    -0.5720 H     1 <1>   0.3700 
 42 H        3.5780     7.9850     1.6360 H     1 <1>   0.0800 
 43 H        3.1560     8.4410     0.0090 H     1 <1>   0.0800 
 44 H        5.8330     6.5190     1.4250 H     1 <1>   0.4000 
 45 H        8.1940     6.7780     1.2520 H     1 <1>   0.1500 
 46 H        5.1930    11.3440    -0.7340 H     1 <1>   0.0800 
 47 H        3.8140    10.3150    -0.5840 H     1 <1>   0.0800 
 48 H        4.8070    10.2340    -2.0200 H     1 <1>   0.0800 
 49 H        9.8270     9.7300     0.3720 H     1 <1>   0.0800 
 50 H        9.8090     8.7850    -1.0960 H     1 <1>   0.0800 
 51 H       10.1010     8.0050     0.4410 H     1 <1>   0.0800 
@<TRIPOS>BOND
  1   1   2  1   
  2   1   3  1   
  3   2   4  1   
  4   2  26  1   
  5   2  27  1   
  6   3   5  1   
  7   3  28  1   
  8   3  29  1   
  9   4   6  2   
 10   4   7  1   
 11   5   8  1   
 12   5  30  1   
 13   5  31  1   
 14   6   9  1   
 15   6  10  1   
 16   7  11  2   
 17   7  32  1   
 18   8  12  1   
 19   8  33  1   
 20   8  34  1   
 21   9  11  1   
 22  10  35  1   
 23  10  36  1   
 24  10  37  1   
 25  11  13  1   
 26  12  38  1   
 27  12  39  1   
 28  12  40  1   
 29  13  14  2   
 30  13  15  am  
 31  15  16  1   
 32  15  41  1   
 33  16  17  1   
 34  16  42  1   
 35  16  43  1   
 36  17  18  1   
 37  17  19  2   
 38  18  20  1   
 39  18  44  1   
 40  19  21  1   
 41  19  22  1   
 42  20  23  2   
 43  20  45  1   
 44  21  23  1   
 45  21  24  2   
 46  22  46  1   
 47  22  47  1   
 48  22  48  1   
 49  23  25  1   
 50  25  49  1   
 51  25  50  1   
 52  25  51  1   
@<TRIPOS>SUBSTRUCTURE
  1 ****  11 GROUP 4 **** **** 0

# MOE 2024.06 (io_trps.svl 2023.06)
