@<TRIPOS>MOLECULE
NONAME
56 59 1 0 0 
SMALL
USER_CHARGES


@<TRIPOS>ATOM
  1 O       -1.3250     0.1330     0.2450 O.2   1 <1>  -0.5700 
  2 C       -2.1560     0.9160    -0.1850 C.2   1 <1>   0.7150 
  3 N       -3.3320     0.3850    -0.6620 N.am  1 <1>  -0.6600 
  4 C       -1.9440     2.3360    -0.1680 C.2   1 <1>  -0.2370 
  5 C       -3.3590    -1.0200    -1.1310 C.3   1 <1>   0.1400 
  6 C       -4.6390     0.8400    -0.1030 C.3   1 <1>   0.1400 
  7 N       -1.0040     2.9880     0.5630 N.pl3 1 <1>   0.3140 
  8 C       -2.5920     3.3170    -0.8520 C.2   1 <1>  -0.1500 
  9 C       -3.8880    -1.8190     0.0670 C.3   1 <1>   0.4230 
 10 C       -5.2360    -0.2240     0.8590 C.3   1 <1>  -0.1600 
 11 N       -1.0480     4.3110     0.3830 N.2   1 <1>  -0.7070 
 12 C       -0.0060     2.4120     1.4800 C.3   1 <1>   0.0160 
 13 C       -2.0130     4.5240    -0.4780 C.2   1 <1>   0.2350 
 14 N       -3.2600    -3.1660     0.3240 N.4   1 <1>  -0.9590 
 15 C       -5.4780    -1.6710     0.1630 C.3   1 <1>   0.0000 
 16 C       -2.3960     5.8390    -0.9580 C.ar  1 <1>   0.0540 
 17 C       -3.4010    -4.1080    -0.7960 C.3   1 <1>   0.3430 
 18 C       -1.8310    -3.0180     0.7500 C.3   1 <1>   0.2630 
 19 C       -5.7540    -3.0740    -0.5940 C.3   1 <1>  -0.1600 
 20 C       -7.0610    -1.4950     0.3540 C.3   1 <1>   0.1200 
 21 C       -1.5120     6.9150    -0.8800 C.ar  1 <1>  -0.1500 
 22 C       -3.6530     6.0860    -1.5140 C.ar  1 <1>  -0.1500 
 23 C       -4.7260    -3.8290    -1.4750 C.3   1 <1>  -0.1600 
 24 O       -7.3580    -1.7660     1.6870 O.3   1 <1>  -0.6800 
 25 C       -1.8570     8.1740    -1.3380 C.ar  1 <1>  -0.1500 
 26 C       -4.0050     7.3420    -1.9750 C.ar  1 <1>  -0.1500 
 27 C       -3.1060     8.3900    -1.8890 C.ar  1 <1>  -0.1500 
 28 H       -4.0130    -1.0990    -1.9800 H     1 <1>   0.0800 
 29 H       -2.3700    -1.3360    -1.4150 H     1 <1>   0.0800 
 30 H       -4.5080     1.7660     0.4330 H     1 <1>   0.0800 
 31 H       -5.3210     1.0250    -0.9160 H     1 <1>   0.0800 
 32 H       -3.3910     3.2020    -1.5600 H     1 <1>   0.1500 
 33 H       -3.4510    -1.2790     0.8850 H     1 <1>   0.0800 
 34 H       -4.6320    -0.2950     1.7500 H     1 <1>   0.0800 
 35 H       -6.0820     0.2930     1.2840 H     1 <1>   0.0800 
 36 H       -0.5060     1.8350     2.2340 H     1 <1>   0.0800 
 37 H        0.5490     3.2060     1.9440 H     1 <1>   0.0800 
 38 H        0.6640     1.7850     0.9230 H     1 <1>   0.0800 
 39 H       -3.7950    -3.5550     1.1140 H     1 <1>   0.4500 
 40 H       -2.5970    -3.9820    -1.5040 H     1 <1>   0.0800 
 41 H       -3.3770    -5.1200    -0.4240 H     1 <1>   0.0800 
 42 H       -1.2420    -2.5920    -0.0460 H     1 <1>   0.0800 
 43 H       -1.4150    -3.9760     1.0160 H     1 <1>   0.0800 
 44 H       -1.7620    -2.3630     1.6040 H     1 <1>   0.0800 
 45 H       -6.1200    -3.7820     0.1350 H     1 <1>   0.0800 
 46 H       -6.5200    -2.9600    -1.3470 H     1 <1>   0.0800 
 47 H       -7.7470    -2.1230    -0.1880 H     1 <1>   0.0800 
 48 H       -7.4200    -0.5090     0.1020 H     1 <1>   0.0800 
 49 H       -0.5380     6.7540    -0.4500 H     1 <1>   0.1500 
 50 H       -4.3700     5.2910    -1.5830 H     1 <1>   0.1500 
 51 H       -4.5390    -3.2720    -2.3760 H     1 <1>   0.0800 
 52 H       -5.1460    -4.7690    -1.7920 H     1 <1>   0.0800 
 53 H       -8.3190    -1.6790     1.8630 H     1 <1>   0.4000 
 54 H       -1.1520     8.9840    -1.2640 H     1 <1>   0.1500 
 55 H       -4.9800     7.5070    -2.4000 H     1 <1>   0.1500 
 56 H       -3.3770     9.3680    -2.2470 H     1 <1>   0.1500 
@<TRIPOS>BOND
  1   1   2  2   
  2   2   3  am  
  3   2   4  1   
  4   3   5  1   
  5   3   6  1   
  6   4   7  1   
  7   4   8  2   
  8   5   9  1   
  9   5  28  1   
 10   5  29  1   
 11   6  10  1   
 12   6  30  1   
 13   6  31  1   
 14   7  11  1   
 15   7  12  1   
 16   8  13  1   
 17   8  32  1   
 18   9  14  1   
 19   9  15  1   
 20   9  33  1   
 21  10  15  1   
 22  10  34  1   
 23  10  35  1   
 24  11  13  2   
 25  12  36  1   
 26  12  37  1   
 27  12  38  1   
 28  13  16  1   
 29  14  17  1   
 30  14  18  1   
 31  14  39  1   
 32  15  19  1   
 33  15  20  1   
 34  16  21  ar  
 35  16  22  ar  
 36  17  23  1   
 37  17  40  1   
 38  17  41  1   
 39  18  42  1   
 40  18  43  1   
 41  18  44  1   
 42  19  23  1   
 43  19  45  1   
 44  19  46  1   
 45  20  24  1   
 46  20  47  1   
 47  20  48  1   
 48  21  25  ar  
 49  21  49  1   
 50  22  26  ar  
 51  22  50  1   
 52  23  51  1   
 53  23  52  1   
 54  24  53  1   
 55  25  27  ar  
 56  25  54  1   
 57  26  27  ar  
 58  26  55  1   
 59  27  56  1   
@<TRIPOS>SUBSTRUCTURE
  1 ****   3 GROUP 4 **** **** 0

# MOE 2024.06 (io_trps.svl 2023.06)
