@<TRIPOS>MOLECULE
NONAME
48 51 1 0 0 
SMALL
USER_CHARGES


@<TRIPOS>ATOM
  1 O       -1.4590     0.4540     2.1240 O.2   1 <1>  -0.5700 
  2 C       -2.1700     0.9430     1.2670 C.2   1 <1>   0.7030 
  3 N       -3.2200     0.1950     0.7780 N.am  1 <1>  -0.6600 
  4 C       -1.8790     2.2800     0.7850 C.2   1 <1>   0.2770 
  5 C       -3.9370     0.4270    -0.5030 C.3   1 <1>   0.1400 
  6 C       -3.5330    -1.1700     1.2880 C.3   1 <1>   0.1400 
  7 N       -0.6410     2.6950     0.2840 N.pl3 1 <1>  -0.6290 
  8 C       -2.6900     3.3720     0.7360 C.2   1 <1>   0.1820 
  9 C       -5.0690    -0.5970    -0.4950 C.3   1 <1>   0.2000 
 10 C       -4.4970    -1.7970     0.2640 C.3   1 <1>  -0.0800 
 11 C       -0.7430     3.9950    -0.0600 C.cat 1 <1>   0.7910 
 12 C        0.5570     2.0310     0.1610 C.2   1 <1>   0.2290 
 13 N       -1.9930     4.4120     0.2030 N.pl3 1 <1>  -0.7000 
 14 C       -4.1290     3.5500     1.1890 C.3   1 <1>  -0.0720 
 15 O       -6.1200    -0.0770     0.2420 O.3   1 <1>  -0.6800 
 16 C       -3.7840    -2.7640    -0.7040 C.3   1 <1>  -0.0170 
 17 C        0.3580     4.6830    -0.5890 C.2   1 <1>  -0.1410 
 18 C        1.6430     2.6830    -0.3490 C.2   1 <1>  -0.1500 
 19 C       -3.2640    -4.0060     0.0020 C.ar  1 <1>   0.1670 
 20 C        1.5570     4.0360    -0.7410 C.2   1 <1>  -0.1380 
 21 N       -1.9920    -3.9900     0.3650 N.ar  1 <1>  -0.6200 
 22 C       -4.1170    -5.0850     0.2340 C.ar  1 <1>   0.1600 
 23 C        2.7880     4.7240    -1.3070 C.3   1 <1>  -0.1020 
 24 C       -1.6340    -5.1100     0.9720 C.ar  1 <1>   0.1600 
 25 N       -3.7620    -6.2030     0.8420 N.ar  1 <1>  -0.6200 
 26 C       -2.4900    -6.1800     1.2030 C.ar  1 <1>   0.1600 
 27 H       -4.3220     1.4260    -0.5930 H     1 <1>   0.0800 
 28 H       -3.2690     0.2220    -1.3220 H     1 <1>   0.0800 
 29 H       -2.6300    -1.7440     1.4110 H     1 <1>   0.0800 
 30 H       -4.0140    -1.0840     2.2480 H     1 <1>   0.0800 
 31 H       -5.4350    -0.8310    -1.4820 H     1 <1>   0.0800 
 32 H       -5.2800    -2.3410     0.7650 H     1 <1>   0.0800 
 33 H        0.6080     0.9980     0.4770 H     1 <1>   0.1500 
 34 H       -2.3250     5.3670     0.0500 H     1 <1>   0.4500 
 35 H       -4.5060     2.6480     1.6360 H     1 <1>   0.0800 
 36 H       -4.7540     3.8060     0.3520 H     1 <1>   0.0800 
 37 H       -4.1900     4.3370     1.9190 H     1 <1>   0.0800 
 38 H       -5.8440     0.0420     1.1720 H     1 <1>   0.4000 
 39 H       -2.9620    -2.2690    -1.1910 H     1 <1>   0.0800 
 40 H       -4.4720    -3.0730    -1.4710 H     1 <1>   0.0800 
 41 H        0.2350     5.7140    -0.8640 H     1 <1>   0.1500 
 42 H        2.5840     2.1700    -0.4540 H     1 <1>   0.1500 
 43 H       -5.1380    -5.0190    -0.0970 H     1 <1>   0.1500 
 44 H        3.1210     4.2140    -2.1940 H     1 <1>   0.0800 
 45 H        3.5840     4.7110    -0.5840 H     1 <1>   0.0800 
 46 H        2.5770     5.7470    -1.5630 H     1 <1>   0.0800 
 47 H       -0.6130    -5.1860     1.3020 H     1 <1>   0.1500 
 48 H       -2.1060    -7.0500     1.7060 H     1 <1>   0.1500 
@<TRIPOS>BOND
  1   1   2  2   
  2   2   3  am  
  3   2   4  1   
  4   3   5  1   
  5   3   6  1   
  6   4   7  1   
  7   4   8  2   
  8   5   9  1   
  9   5  27  1   
 10   5  28  1   
 11   6  10  1   
 12   6  29  1   
 13   6  30  1   
 14   7  11  ar  
 15   7  12  1   
 16   8  13  1   
 17   8  14  1   
 18   9  10  1   
 19   9  15  1   
 20   9  31  1   
 21  10  16  1   
 22  10  32  1   
 23  11  13  ar  
 24  11  17  1   
 25  12  18  2   
 26  12  33  1   
 27  13  34  1   
 28  14  35  1   
 29  14  36  1   
 30  14  37  1   
 31  15  38  1   
 32  16  19  1   
 33  16  39  1   
 34  16  40  1   
 35  17  20  2   
 36  17  41  1   
 37  18  20  1   
 38  18  42  1   
 39  19  21  ar  
 40  19  22  ar  
 41  20  23  1   
 42  21  24  ar  
 43  22  25  ar  
 44  22  43  1   
 45  23  44  1   
 46  23  45  1   
 47  23  46  1   
 48  24  26  ar  
 49  24  47  1   
 50  25  26  ar  
 51  26  48  1   
@<TRIPOS>SUBSTRUCTURE
  1 ****   3 GROUP 4 **** **** 0

# MOE 2024.06 (io_trps.svl 2023.06)
