@<TRIPOS>MOLECULE
NONAME
45 48 1 0 0 
SMALL
USER_CHARGES


@<TRIPOS>ATOM
  1 S       -1.3210     1.4670    -2.3540 S.3   1 <1>  -0.0800 
  2 C       -1.2700     2.0880    -0.7110 C.2   1 <1>  -0.1400 
  3 C       -2.9980     0.9780    -2.1500 C.2   1 <1>  -0.1100 
  4 C       -2.4540     1.9260    -0.1060 C.2   1 <1>  -0.1810 
  5 C       -0.0210     2.7190    -0.1050 C.3   1 <1>   0.4600 
  6 C       -3.4440     1.2870    -0.9170 C.2   1 <1>  -0.1500 
  7 C       -2.6370     2.4070     1.3160 C.3   1 <1>   0.0210 
  8 O       -0.2630     2.9680     1.2670 O.3   1 <1>  -0.5600 
  9 C        1.1670     1.7550    -0.1640 C.3   1 <1>  -0.1600 
 10 C        0.3330     4.0420    -0.7970 C.3   1 <1>  -0.1600 
 11 C       -1.5370     3.4370     1.6440 C.3   1 <1>   0.1200 
 12 C        2.4370     2.3890     0.4050 C.3   1 <1>   0.1400 
 13 C        1.6080     4.6550    -0.2160 C.3   1 <1>   0.1400 
 14 N        2.7200     3.6670    -0.3100 N.am  1 <1>  -0.6600 
 15 C        3.9430     3.8980    -0.8970 C.2   1 <1>   0.5690 
 16 O        4.8160     3.0610    -0.8930 O.2   1 <1>  -0.5700 
 17 C        4.2630     5.2160    -1.5930 C.3   1 <1>   0.0440 
 18 C        4.3070     6.4200    -0.6520 C.ar  1 <1>  -0.1430 
 19 C        4.8900     6.3130     0.6050 C.ar  1 <1>  -0.1500 
 20 C        3.7630     7.6370    -1.0480 C.ar  1 <1>  -0.1500 
 21 C        4.9050     7.4150     1.4380 C.ar  1 <1>   0.1900 
 22 C        3.7850     8.7390    -0.2050 C.ar  1 <1>  -0.1500 
 23 F        5.4540     7.2890     2.6200 F     1 <1>  -0.1900 
 24 C        4.3570     8.6350     1.0530 C.ar  1 <1>   0.0820 
 25 O        4.3710     9.7080     1.8700 O.3   1 <1>  -0.5330 
 26 H       -3.4780     0.5030    -2.9860 H     1 <1>   0.1500 
 27 H       -4.4330     1.0920    -0.5410 H     1 <1>   0.1500 
 28 H       -2.5730     1.5750     1.9930 H     1 <1>   0.0800 
 29 H       -3.6010     2.8680     1.4300 H     1 <1>   0.0800 
 30 H        1.3560     1.4710    -1.1830 H     1 <1>   0.0800 
 31 H        0.9260     0.8620     0.3830 H     1 <1>   0.0800 
 32 H       -0.4830     4.7330    -0.7130 H     1 <1>   0.0800 
 33 H        0.4880     3.8590    -1.8450 H     1 <1>   0.0800 
 34 H       -1.5150     3.6300     2.7020 H     1 <1>   0.0800 
 35 H       -1.7260     4.3620     1.1300 H     1 <1>   0.0800 
 36 H        3.2580     1.7010     0.3020 H     1 <1>   0.0800 
 37 H        2.3070     2.5950     1.4540 H     1 <1>   0.0800 
 38 H        1.4540     4.9110     0.8190 H     1 <1>   0.0800 
 39 H        1.8370     5.5590    -0.7490 H     1 <1>   0.0800 
 40 H        3.5370     5.3700    -2.3680 H     1 <1>   0.0800 
 41 H        5.2220     5.1250    -2.0690 H     1 <1>   0.0800 
 42 H        5.3280     5.3900     0.9440 H     1 <1>   0.1500 
 43 H        3.3180     7.7360    -2.0230 H     1 <1>   0.1500 
 44 H        3.3580     9.6690    -0.5330 H     1 <1>   0.1500 
 45 H        3.9740    10.5040     1.4770 H     1 <1>   0.4500 
@<TRIPOS>BOND
  1   1   2  1   
  2   1   3  1   
  3   2   4  2   
  4   2   5  1   
  5   3   6  2   
  6   3  26  1   
  7   4   6  1   
  8   4   7  1   
  9   5   8  1   
 10   5   9  1   
 11   5  10  1   
 12   6  27  1   
 13   7  11  1   
 14   7  28  1   
 15   7  29  1   
 16   8  11  1   
 17   9  12  1   
 18   9  30  1   
 19   9  31  1   
 20  10  13  1   
 21  10  32  1   
 22  10  33  1   
 23  11  34  1   
 24  11  35  1   
 25  12  14  1   
 26  12  36  1   
 27  12  37  1   
 28  13  14  1   
 29  13  38  1   
 30  13  39  1   
 31  14  15  am  
 32  15  16  2   
 33  15  17  1   
 34  17  18  1   
 35  17  40  1   
 36  17  41  1   
 37  18  19  ar  
 38  18  20  ar  
 39  19  21  ar  
 40  19  42  1   
 41  20  22  ar  
 42  20  43  1   
 43  21  23  1   
 44  21  24  ar  
 45  22  24  ar  
 46  22  44  1   
 47  24  25  1   
 48  25  45  1   
@<TRIPOS>SUBSTRUCTURE
  1 ****  13 GROUP 4 **** **** 0

# MOE 2024.06 (io_trps.svl 2023.06)
