@<TRIPOS>MOLECULE
NONAME
56 58 1 0 0 
SMALL
USER_CHARGES


@<TRIPOS>ATOM
  1 O       -0.6240     0.3620    -0.1210 O.2   1 <1>  -0.5700 
  2 C       -1.7010     0.8740     0.0640 C.2   1 <1>   0.5690 
  3 N       -2.8350     0.1310     0.2420 N.am  1 <1>  -0.6600 
  4 C       -1.7490     2.3890     0.0990 C.3   1 <1>  -0.0990 
  5 C       -2.7800    -1.3680     0.3290 C.3   1 <1>   0.1400 
  6 C       -4.2360     0.6520     0.3330 C.3   1 <1>   0.1400 
  7 C       -0.3230     2.9420     0.1550 C.3   1 <1>   0.3430 
  8 C       -3.8020    -2.0330    -0.6120 C.3   1 <1>   0.3440 
  9 C       -5.1740    -0.1100    -0.6330 C.3   1 <1>   0.2000 
 10 N       -0.2940     4.4330     0.2700 N.4   1 <1>  -0.9590 
 11 O       -5.0770    -1.4860    -0.4000 O.3   1 <1>  -0.5600 
 12 C       -3.8450    -3.5400    -0.3780 C.ar  1 <1>  -0.1430 
 13 C       -6.6640     0.2880    -0.5220 C.3   1 <1>  -0.0800 
 14 C       -0.7640     5.1220    -0.9850 C.3   1 <1>   0.3430 
 15 C        1.1010     4.8920     0.6080 C.3   1 <1>   0.3430 
 16 C       -3.0180    -4.3720    -1.1200 C.ar  1 <1>  -0.1500 
 17 C       -4.6850    -4.1020     0.5740 C.ar  1 <1>  -0.1500 
 18 C       -6.8990     1.7580    -0.9030 C.3   1 <1>  -0.2400 
 19 C       -7.2780     0.0090     0.8610 C.3   1 <1>  -0.2400 
 20 C       -0.5800     6.6500    -0.8980 C.3   1 <1>   0.1200 
 21 C        1.2050     6.4290     0.6270 C.3   1 <1>   0.1200 
 22 C       -3.0290    -5.7410    -0.9130 C.ar  1 <1>  -0.1500 
 23 C       -4.6980    -5.4700     0.7820 C.ar  1 <1>  -0.1500 
 24 O        0.7450     6.9610    -0.5810 O.3   1 <1>  -0.5600 
 25 C       -3.8690    -6.2910     0.0390 C.ar  1 <1>  -0.1500 
 26 H       -2.2520     2.7260    -0.7880 H     1 <1>   0.0800 
 27 H       -2.2920     2.6950     0.9730 H     1 <1>   0.0800 
 28 H       -1.7980    -1.7310     0.0820 H     1 <1>   0.0800 
 29 H       -2.9930    -1.6720     1.3390 H     1 <1>   0.0800 
 30 H       -4.5870     0.5250     1.3420 H     1 <1>   0.0800 
 31 H       -4.2690     1.6980     0.0970 H     1 <1>   0.0800 
 32 H        0.2160     2.6290    -0.7250 H     1 <1>   0.0800 
 33 H        0.1740     2.5040     1.0080 H     1 <1>   0.0800 
 34 H       -3.5280    -1.8430    -1.6360 H     1 <1>   0.0800 
 35 H       -4.8540     0.0690    -1.6460 H     1 <1>   0.0800 
 36 H       -0.9040     4.7230     1.0450 H     1 <1>   0.4500 
 37 H       -7.1950    -0.3140    -1.2410 H     1 <1>   0.0800 
 38 H       -0.2000     4.7630    -1.8310 H     1 <1>   0.0800 
 39 H       -1.8040     4.9020    -1.1630 H     1 <1>   0.0800 
 40 H        1.3960     4.5030     1.5690 H     1 <1>   0.0800 
 41 H        1.7960     4.5170    -0.1260 H     1 <1>   0.0800 
 42 H       -2.3580    -3.9600    -1.8630 H     1 <1>   0.1500 
 43 H       -5.3370    -3.4720     1.1560 H     1 <1>   0.1500 
 44 H       -6.4620     2.4250    -0.1820 H     1 <1>   0.0800 
 45 H       -7.9550     1.9590    -0.9460 H     1 <1>   0.0800 
 46 H       -6.4830     1.9660    -1.8730 H     1 <1>   0.0800 
 47 H       -6.8430     0.6330     1.6200 H     1 <1>   0.0800 
 48 H       -7.1290    -1.0220     1.1350 H     1 <1>   0.0800 
 49 H       -8.3370     0.1950     0.8380 H     1 <1>   0.0800 
 50 H       -1.2260     7.0810    -0.1520 H     1 <1>   0.0800 
 51 H       -0.8030     7.1050    -1.8470 H     1 <1>   0.0800 
 52 H        2.2320     6.7290     0.7450 H     1 <1>   0.0800 
 53 H        0.6310     6.8510     1.4340 H     1 <1>   0.0800 
 54 H       -2.3840    -6.3780    -1.4930 H     1 <1>   0.1500 
 55 H       -5.3540    -5.8940     1.5220 H     1 <1>   0.1500 
 56 H       -3.8790    -7.3550     0.2000 H     1 <1>   0.1500 
@<TRIPOS>BOND
  1   1   2  2   
  2   2   3  am  
  3   2   4  1   
  4   3   5  1   
  5   3   6  1   
  6   4   7  1   
  7   4  26  1   
  8   4  27  1   
  9   5   8  1   
 10   5  28  1   
 11   5  29  1   
 12   6   9  1   
 13   6  30  1   
 14   6  31  1   
 15   7  10  1   
 16   7  32  1   
 17   7  33  1   
 18   8  11  1   
 19   8  12  1   
 20   8  34  1   
 21   9  11  1   
 22   9  13  1   
 23   9  35  1   
 24  10  14  1   
 25  10  15  1   
 26  10  36  1   
 27  12  16  ar  
 28  12  17  ar  
 29  13  18  1   
 30  13  19  1   
 31  13  37  1   
 32  14  20  1   
 33  14  38  1   
 34  14  39  1   
 35  15  21  1   
 36  15  40  1   
 37  15  41  1   
 38  16  22  ar  
 39  16  42  1   
 40  17  23  ar  
 41  17  43  1   
 42  18  44  1   
 43  18  45  1   
 44  18  46  1   
 45  19  47  1   
 46  19  48  1   
 47  19  49  1   
 48  20  24  1   
 49  20  50  1   
 50  20  51  1   
 51  21  24  1   
 52  21  52  1   
 53  21  53  1   
 54  22  25  ar  
 55  22  54  1   
 56  23  25  ar  
 57  23  55  1   
 58  25  56  1   
@<TRIPOS>SUBSTRUCTURE
  1 ****   3 GROUP 4 **** **** 0

# MOE 2024.06 (io_trps.svl 2023.06)
