@<TRIPOS>MOLECULE
NONAME
53 55 1 0 0 
SMALL
USER_CHARGES


@<TRIPOS>ATOM
  1 O       -3.7970     2.4410     3.5110 O.2   1 <1>  -0.5700 
  2 C       -3.5690     2.9130     2.4240 C.2   1 <1>   0.5690 
  3 N       -4.4640     2.7450     1.3900 N.am  1 <1>  -0.6600 
  4 C       -2.2300     3.6130     2.2280 C.3   1 <1>   0.0440 
  5 C       -5.7090     1.9350     1.5910 C.3   1 <1>   0.1400 
  6 C       -4.0940     2.8050    -0.0540 C.3   1 <1>   0.1400 
  7 C       -1.2920     2.7810     1.3570 C.ar  1 <1>  -0.1440 
  8 C       -5.6040     0.5530     0.8940 C.3   1 <1>   0.4230 
  9 C       -3.6980     1.3930    -0.5540 C.3   1 <1>   0.3430 
 10 C       -0.7800     3.2990     0.1780 C.ar  1 <1>  -0.1500 
 11 C       -0.9600     1.4870     1.7300 C.ar  1 <1>  -0.1500 
 12 N       -4.2150     0.2810     0.3420 N.4   1 <1>  -0.9590 
 13 C       -6.6630     0.3870    -0.2190 C.3   1 <1>   0.1200 
 14 C        0.0140     2.5180    -0.6410 C.ar  1 <1>  -0.1500 
 15 C       -0.1550     0.7100     0.9160 C.ar  1 <1>  -0.1500 
 16 C       -4.1980    -1.0810    -0.2810 C.3   1 <1>   0.4230 
 17 O       -6.5620    -0.8810    -0.8080 O.3   1 <1>  -0.5600 
 18 C        0.3260     1.2170    -0.2820 C.ar  1 <1>  -0.1430 
 19 C       -5.3100    -1.2050    -1.3520 C.3   1 <1>   0.1200 
 20 C       -2.7990    -1.4300    -0.8100 C.3   1 <1>  -0.1600 
 21 C        1.1960     0.3770    -1.2000 C.3   1 <1>   0.2630 
 22 C       -2.6600    -2.9340    -1.1000 C.3   1 <1>  -0.1600 
 23 O        0.3610    -0.4350    -1.9450 O.3   1 <1>  -0.6800 
 24 C       -1.2360    -3.2980    -1.5280 C.3   1 <1>  -0.2400 
 25 H       -2.4030     4.5800     1.7950 H     1 <1>   0.0800 
 26 H       -1.7720     3.7670     3.1880 H     1 <1>   0.0800 
 27 H       -5.8970     1.7810     2.6400 H     1 <1>   0.0800 
 28 H       -6.5520     2.4860     1.2100 H     1 <1>   0.0800 
 29 H       -4.9450     3.1510    -0.6160 H     1 <1>   0.0800 
 30 H       -3.3060     3.5100    -0.2350 H     1 <1>   0.0800 
 31 H       -5.8310    -0.1900     1.6410 H     1 <1>   0.0800 
 32 H       -2.6210     1.3360    -0.6010 H     1 <1>   0.0800 
 33 H       -4.0680     1.2680    -1.5570 H     1 <1>   0.0800 
 34 H       -0.9950     4.3130    -0.1160 H     1 <1>   0.1500 
 35 H       -1.3210     1.0850     2.6630 H     1 <1>   0.1500 
 36 H       -3.5940     0.2830     1.1630 H     1 <1>   0.4500 
 37 H       -6.5520     1.1330    -0.9860 H     1 <1>   0.0800 
 38 H       -7.6530     0.4690     0.1960 H     1 <1>   0.0800 
 39 H        0.3950     2.9290    -1.5610 H     1 <1>   0.1500 
 40 H        0.1040    -0.2890     1.2230 H     1 <1>   0.1500 
 41 H       -4.4300    -1.8000     0.4890 H     1 <1>   0.0800 
 42 H       -5.3740    -2.2180    -1.7090 H     1 <1>   0.0800 
 43 H       -5.1200    -0.5620    -2.1930 H     1 <1>   0.0800 
 44 H       -2.5860    -0.8770    -1.7090 H     1 <1>   0.0800 
 45 H       -2.0710    -1.1660    -0.0640 H     1 <1>   0.0800 
 46 H        1.8780    -0.2420    -0.6430 H     1 <1>   0.0800 
 47 H        1.7540     0.9960    -1.8810 H     1 <1>   0.0800 
 48 H       -2.9100    -3.5030    -0.2190 H     1 <1>   0.0800 
 49 H       -3.3330    -3.2300    -1.8870 H     1 <1>   0.0800 
 50 H       -0.0190    -1.1250    -1.3720 H     1 <1>   0.4000 
 51 H       -0.5270    -3.0540    -0.7560 H     1 <1>   0.0800 
 52 H       -0.9680    -2.7850    -2.4350 H     1 <1>   0.0800 
 53 H       -1.1720    -4.3560    -1.7150 H     1 <1>   0.0800 
@<TRIPOS>BOND
  1   1   2  2   
  2   2   3  am  
  3   2   4  1   
  4   3   5  1   
  5   3   6  1   
  6   4   7  1   
  7   4  25  1   
  8   4  26  1   
  9   5   8  1   
 10   5  27  1   
 11   5  28  1   
 12   6   9  1   
 13   6  29  1   
 14   6  30  1   
 15   7  10  ar  
 16   7  11  ar  
 17   8  12  1   
 18   8  13  1   
 19   8  31  1   
 20   9  12  1   
 21   9  32  1   
 22   9  33  1   
 23  10  14  ar  
 24  10  34  1   
 25  11  15  ar  
 26  11  35  1   
 27  12  16  1   
 28  12  36  1   
 29  13  17  1   
 30  13  37  1   
 31  13  38  1   
 32  14  18  ar  
 33  14  39  1   
 34  15  18  ar  
 35  15  40  1   
 36  16  19  1   
 37  16  20  1   
 38  16  41  1   
 39  17  19  1   
 40  18  21  1   
 41  19  42  1   
 42  19  43  1   
 43  20  22  1   
 44  20  44  1   
 45  20  45  1   
 46  21  23  1   
 47  21  46  1   
 48  21  47  1   
 49  22  24  1   
 50  22  48  1   
 51  22  49  1   
 52  23  50  1   
 53  24  51  1   
 54  24  52  1   
 55  24  53  1   
@<TRIPOS>SUBSTRUCTURE
  1 ****   9 GROUP 4 **** **** 0

# MOE 2024.06 (io_trps.svl 2023.06)
