@<TRIPOS>MOLECULE
NONAME
38 41 1 0 0 
SMALL
USER_CHARGES


@<TRIPOS>ATOM
  1 S       -0.6000     0.0830     0.4730 S.3   1 <1>  -0.0800 
  2 C        0.5350     1.3760     0.2800 C.2   1 <1>  -0.1400 
  3 C        0.7570    -1.0380     0.3170 C.2   1 <1>   0.1980 
  4 C        1.7470     0.8830     0.1260 C.2   1 <1>   0.0460 
  5 C        0.4140     2.8650     0.2580 C.3   1 <1>   0.0200 
  6 N        1.8980    -0.4880     0.1420 N.2   1 <1>  -0.5650 
  7 C        0.4490    -2.5160     0.3940 C.3   1 <1>   0.0200 
  8 C        2.7660     1.9720    -0.0430 C.3   1 <1>   0.0210 
  9 C        1.9000     3.2670     0.0350 C.3   1 <1>  -0.1600 
 10 C       -0.1100    -3.0030    -0.9420 C.3   1 <1>   0.1400 
 11 N       -0.2960    -4.4740    -0.9140 N.am  1 <1>  -0.7300 
 12 C       -1.4320    -5.1250    -0.5190 C.2   1 <1>   0.7150 
 13 O       -2.3580    -4.4490    -0.1100 O.2   1 <1>  -0.5700 
 14 C       -1.5020    -6.5580    -0.5840 C.2   1 <1>  -0.0450 
 15 S       -0.0940    -7.4630    -1.1970 S.3   1 <1>  -0.0800 
 16 C       -2.4710    -7.4580    -0.2640 C.2   1 <1>   0.0620 
 17 C       -0.8880    -9.0170    -0.9860 C.2   1 <1>  -0.1100 
 18 O       -3.6880    -7.1410     0.2290 O.3   1 <1>  -0.3420 
 19 C       -2.1210    -8.8310    -0.4850 C.2   1 <1>   0.0620 
 20 C       -4.6810    -8.1480     0.2310 C.3   1 <1>   0.1200 
 21 O       -2.9920    -9.8360    -0.1990 O.3   1 <1>  -0.3420 
 22 C       -4.0730    -9.4950     0.6500 C.3   1 <1>   0.1200 
 23 H        0.0370     3.2310     1.1970 H     1 <1>   0.0800 
 24 H       -0.2140     3.1860    -0.5540 H     1 <1>   0.0800 
 25 H       -0.2630    -2.6930     1.1790 H     1 <1>   0.0800 
 26 H        1.3580    -3.0420     0.6190 H     1 <1>   0.0800 
 27 H        3.2560     1.8770    -0.9960 H     1 <1>   0.0800 
 28 H        3.4890     1.9280     0.7520 H     1 <1>   0.0800 
 29 H        2.2390     3.8850     0.8480 H     1 <1>   0.0800 
 30 H        1.9940     3.8230    -0.8810 H     1 <1>   0.0800 
 31 H        0.5690    -2.7440    -1.7370 H     1 <1>   0.0800 
 32 H       -1.0540    -2.5210    -1.1350 H     1 <1>   0.0800 
 33 H        0.4910    -5.0420    -1.2330 H     1 <1>   0.3700 
 34 H       -0.3520    -9.9080    -1.2550 H     1 <1>   0.1500 
 35 H       -5.0920    -8.2130    -0.7610 H     1 <1>   0.0800 
 36 H       -5.4530    -7.8460     0.9150 H     1 <1>   0.0800 
 37 H       -4.8050   -10.2800     0.5840 H     1 <1>   0.0800 
 38 H       -3.7030    -9.4410     1.6580 H     1 <1>   0.0800 
@<TRIPOS>BOND
  1   1   2  1   
  2   1   3  1   
  3   2   4  2   
  4   2   5  1   
  5   3   6  2   
  6   3   7  1   
  7   4   6  1   
  8   4   8  1   
  9   5   9  1   
 10   5  23  1   
 11   5  24  1   
 12   7  10  1   
 13   7  25  1   
 14   7  26  1   
 15   8   9  1   
 16   8  27  1   
 17   8  28  1   
 18   9  29  1   
 19   9  30  1   
 20  10  11  1   
 21  10  31  1   
 22  10  32  1   
 23  11  12  am  
 24  11  33  1   
 25  12  13  2   
 26  12  14  1   
 27  14  15  1   
 28  14  16  2   
 29  15  17  1   
 30  16  18  1   
 31  16  19  1   
 32  17  19  2   
 33  17  34  1   
 34  18  20  1   
 35  19  21  1   
 36  20  22  1   
 37  20  35  1   
 38  20  36  1   
 39  21  22  1   
 40  22  37  1   
 41  22  38  1   
@<TRIPOS>SUBSTRUCTURE
  1 ****  11 GROUP 4 **** **** 0

# MOE 2024.06 (io_trps.svl 2023.06)
