@<TRIPOS>MOLECULE
NONAME
47 49 1 0 0 
SMALL
USER_CHARGES


@<TRIPOS>ATOM
  1 O       -3.4740     0.8310     2.3970 O.2   1 <1>  -0.5700 
  2 C       -3.5560     0.4070     1.2710 C.2   1 <1>   0.6900 
  3 N       -3.3500     1.2030     0.1930 N.am  1 <1>  -0.4900 
  4 N       -3.8710    -0.9080     1.0610 N.am  1 <1>  -0.5390 
  5 C       -3.4410     0.7420    -1.0840 C.2   1 <1>   0.6160 
  6 C       -4.0000    -1.4490    -0.2160 C.2   1 <1>  -0.0290 
  7 O       -3.2500     1.5030    -2.0050 O.2   1 <1>  -0.5700 
  8 C       -3.7790    -0.6320    -1.2750 C.2   1 <1>  -0.1360 
  9 C       -4.3980    -2.9150    -0.3560 C.3   1 <1>   0.4810 
 10 N       -5.7870    -3.0880     0.1620 N.4   1 <1>  -0.9590 
 11 C       -6.1250    -4.5430     0.3710 C.3   1 <1>   0.3430 
 12 C       -6.7820    -2.4200    -0.7340 C.3   1 <1>   0.3430 
 13 C       -7.3950    -4.7940     1.2190 C.3   1 <1>   0.1400 
 14 C       -7.8430    -1.6910     0.0870 C.3   1 <1>  -0.1600 
 15 N       -8.5620    -3.9690     0.7720 N.am  1 <1>  -0.6600 
 16 C       -8.5080    -2.5360     1.1770 C.3   1 <1>   0.1400 
 17 C       -9.6430    -4.4290     0.0610 C.2   1 <1>   0.5690 
 18 O      -10.3780    -3.6600    -0.5060 O.2   1 <1>  -0.5700 
 19 C       -9.9360    -5.9150    -0.0550 C.3   1 <1>  -0.0990 
 20 C      -11.3610    -6.1870    -0.5640 C.3   1 <1>   0.0960 
 21 N      -11.6090    -7.6390    -0.6290 N.pl3 1 <1>   0.0480 
 22 C      -11.4710    -8.4640    -1.6680 C.2   1 <1>   0.0360 
 23 C      -11.9970    -8.4620     0.3460 C.2   1 <1>   0.0360 
 24 N      -11.7430    -9.6820    -1.3510 N.2   1 <1>  -0.3380 
 25 N      -12.0800    -9.6810    -0.0600 N.2   1 <1>  -0.3380 
 26 H       -3.1020     2.1760     0.3440 H     1 <1>   0.3700 
 27 H       -3.8870    -1.4410     1.9350 H     1 <1>   0.3700 
 28 H       -3.8440    -0.9470    -2.3010 H     1 <1>   0.1500 
 29 H       -3.7080    -3.5210     0.2100 H     1 <1>   0.0800 
 30 H       -4.3460    -3.2160    -1.3900 H     1 <1>   0.0800 
 31 H       -5.8330    -2.5960     1.0620 H     1 <1>   0.4500 
 32 H       -5.3000    -5.0370     0.8580 H     1 <1>   0.0800 
 33 H       -6.2580    -5.0170    -0.5880 H     1 <1>   0.0800 
 34 H       -7.2620    -3.1550    -1.3620 H     1 <1>   0.0800 
 35 H       -6.2950    -1.7040    -1.3760 H     1 <1>   0.0800 
 36 H       -7.1840    -4.5750     2.2520 H     1 <1>   0.0800 
 37 H       -7.6330    -5.8410     1.1710 H     1 <1>   0.0800 
 38 H       -8.6130    -1.3660    -0.5930 H     1 <1>   0.0800 
 39 H       -7.4280    -0.8000     0.5240 H     1 <1>   0.0800 
 40 H       -9.5080    -2.1690     1.3540 H     1 <1>   0.0800 
 41 H       -7.9680    -2.4420     2.1030 H     1 <1>   0.0800 
 42 H       -9.8280    -6.3640     0.9150 H     1 <1>   0.0800 
 43 H       -9.2260    -6.3540    -0.7330 H     1 <1>   0.0800 
 44 H      -11.4940    -5.7670    -1.5460 H     1 <1>   0.0800 
 45 H      -12.0830    -5.7390     0.0950 H     1 <1>   0.0800 
 46 H      -11.1690    -8.1400    -2.6470 H     1 <1>   0.1500 
 47 H      -12.2100    -8.1350     1.3480 H     1 <1>   0.1500 
@<TRIPOS>BOND
  1   1   2  2   
  2   2   3  am  
  3   2   4  am  
  4   3   5  am  
  5   3  26  1   
  6   4   6  1   
  7   4  27  1   
  8   5   7  2   
  9   5   8  1   
 10   6   8  2   
 11   6   9  1   
 12   8  28  1   
 13   9  10  1   
 14   9  29  1   
 15   9  30  1   
 16  10  11  1   
 17  10  12  1   
 18  10  31  1   
 19  11  13  1   
 20  11  32  1   
 21  11  33  1   
 22  12  14  1   
 23  12  34  1   
 24  12  35  1   
 25  13  15  1   
 26  13  36  1   
 27  13  37  1   
 28  14  16  1   
 29  14  38  1   
 30  14  39  1   
 31  15  16  1   
 32  15  17  am  
 33  16  40  1   
 34  16  41  1   
 35  17  18  2   
 36  17  19  1   
 37  19  20  1   
 38  19  42  1   
 39  19  43  1   
 40  20  21  1   
 41  20  44  1   
 42  20  45  1   
 43  21  22  1   
 44  21  23  1   
 45  22  24  2   
 46  22  46  1   
 47  23  25  2   
 48  23  47  1   
 49  24  25  1   
@<TRIPOS>SUBSTRUCTURE
  1 ****  12 GROUP 4 **** **** 0

# MOE 2024.06 (io_trps.svl 2023.06)
