@<TRIPOS>MOLECULE
NONAME
50 51 1 0 0 
SMALL
USER_CHARGES


@<TRIPOS>ATOM
  1 CL       0.4680     0.6330     0.5810 Cl    1 <1>  -0.1770 
  2 C       -1.0960     1.3520     0.2100 C.ar  1 <1>   0.1770 
  3 C       -1.1850     2.4080    -0.7410 C.ar  1 <1>   0.4100 
  4 C       -2.2190     0.9330     0.8570 C.ar  1 <1>   0.2170 
  5 N       -2.3260     3.0530    -0.9310 N.ar  1 <1>  -0.6200 
  6 N       -0.1280     2.7960    -1.5150 N.pl3 1 <1>  -0.8380 
  7 N       -3.3740     1.5860     0.5640 N.ar  1 <1>  -0.1790 
  8 C       -2.2850    -0.1900     1.8870 C.3   1 <1>  -0.0970 
  9 C       -3.3960     2.6180    -0.2980 C.ar  1 <1>   0.7710 
 10 C        0.0820     4.2140    -1.9400 C.3   1 <1>   0.2090 
 11 C        0.6660     1.8010    -2.3020 C.3   1 <1>   0.1290 
 12 N       -4.5350     3.2550    -0.5510 N.pl3 1 <1>  -0.9000 
 13 C        0.8450     5.0010    -0.8560 C.3   1 <1>  -0.0800 
 14 C        1.0260     6.4680    -1.2840 C.3   1 <1>  -0.1600 
 15 C        2.2200     4.3840    -0.5340 C.3   1 <1>  -0.1600 
 16 C        1.8410     7.2670    -0.2650 C.3   1 <1>   0.3430 
 17 C        3.0110     5.2280     0.4650 C.3   1 <1>   0.3430 
 18 N        3.1690     6.6160    -0.0570 N.4   1 <1>  -0.9590 
 19 C        4.0470     7.4080     0.8680 C.3   1 <1>   0.3430 
 20 C        4.4930     8.7490     0.2740 C.3   1 <1>   0.1200 
 21 O        5.3220     9.3510     1.2070 O.3   1 <1>  -0.5600 
 22 C        5.8380    10.5850     0.8140 C.3   1 <1>   0.0400 
 23 H       -4.2570     1.3280     0.9950 H     1 <1>   0.4570 
 24 H       -1.3260    -0.6550     2.0310 H     1 <1>   0.0800 
 25 H       -2.9720    -0.9540     1.5650 H     1 <1>   0.0800 
 26 H       -2.6100     0.1920     2.8380 H     1 <1>   0.0800 
 27 H       -0.8680     4.6870    -2.1270 H     1 <1>   0.0800 
 28 H        0.6340     4.2400    -2.8650 H     1 <1>   0.0800 
 29 H        0.2780     0.8060    -2.1640 H     1 <1>   0.0800 
 30 H        1.6950     1.8170    -1.9900 H     1 <1>   0.0800 
 31 H        0.6130     2.0320    -3.3520 H     1 <1>   0.0800 
 32 H       -5.4710     3.0780    -0.1830 H     1 <1>   0.4000 
 33 H       -4.5040     4.0260    -1.2280 H     1 <1>   0.4000 
 34 H        0.2430     4.9850     0.0370 H     1 <1>   0.0800 
 35 H        0.0590     6.9300    -1.3890 H     1 <1>   0.0800 
 36 H        1.5120     6.5200    -2.2430 H     1 <1>   0.0800 
 37 H        2.7950     4.2640    -1.4350 H     1 <1>   0.0800 
 38 H        2.0830     3.4050    -0.1090 H     1 <1>   0.0800 
 39 H        1.3060     7.3100     0.6710 H     1 <1>   0.0800 
 40 H        1.9700     8.2740    -0.6260 H     1 <1>   0.0800 
 41 H        3.9790     4.7800     0.6240 H     1 <1>   0.0800 
 42 H        2.4900     5.2500     1.4090 H     1 <1>   0.0800 
 43 H        3.6370     6.5440    -0.9700 H     1 <1>   0.4500 
 44 H        4.9330     6.8370     1.0920 H     1 <1>   0.0800 
 45 H        3.5260     7.5950     1.7930 H     1 <1>   0.0800 
 46 H        3.6540     9.4010     0.1020 H     1 <1>   0.0800 
 47 H        5.0540     8.6000    -0.6320 H     1 <1>   0.0800 
 48 H        6.4620    10.9560     1.6090 H     1 <1>   0.0800 
 49 H        5.0290    11.2750     0.6420 H     1 <1>   0.0800 
 50 H        6.4290    10.4610    -0.0770 H     1 <1>   0.0800 
@<TRIPOS>BOND
  1   1   2  1   
  2   2   3  ar  
  3   2   4  ar  
  4   3   5  ar  
  5   3   6  1   
  6   4   7  ar  
  7   4   8  1   
  8   5   9  ar  
  9   6  10  1   
 10   6  11  1   
 11   7   9  ar  
 12   7  23  1   
 13   8  24  1   
 14   8  25  1   
 15   8  26  1   
 16   9  12  1   
 17  10  13  1   
 18  10  27  1   
 19  10  28  1   
 20  11  29  1   
 21  11  30  1   
 22  11  31  1   
 23  12  32  1   
 24  12  33  1   
 25  13  14  1   
 26  13  15  1   
 27  13  34  1   
 28  14  16  1   
 29  14  35  1   
 30  14  36  1   
 31  15  17  1   
 32  15  37  1   
 33  15  38  1   
 34  16  18  1   
 35  16  39  1   
 36  16  40  1   
 37  17  18  1   
 38  17  41  1   
 39  17  42  1   
 40  18  19  1   
 41  18  43  1   
 42  19  20  1   
 43  19  44  1   
 44  19  45  1   
 45  20  21  1   
 46  20  46  1   
 47  20  47  1   
 48  21  22  1   
 49  22  48  1   
 50  22  49  1   
 51  22  50  1   
@<TRIPOS>SUBSTRUCTURE
  1 ****  13 GROUP 4 **** **** 0

# MOE 2024.06 (io_trps.svl 2023.06)
