@<TRIPOS>MOLECULE
NONAME
32 32 1 0 0 
SMALL
USER_CHARGES


@<TRIPOS>ATOM
  1 F       -1.2780    -1.9380    -2.0070 F     1 <1>  -0.3400 
  2 C       -0.2900    -2.4360    -1.2770 C.3   1 <1>   1.0200 
  3 F        0.8100    -2.3420    -2.0080 F     1 <1>  -0.3400 
  4 F       -0.1350    -1.6160    -0.2470 F     1 <1>  -0.3400 
  5 C       -0.5670    -3.8720    -0.8340 C.3   1 <1>  -0.1600 
  6 C       -1.8470    -4.0240     0.0220 C.3   1 <1>  -0.0990 
  7 C       -2.1180    -5.4530     0.4780 C.2   1 <1>   0.5690 
  8 O       -1.3800    -6.3330     0.0960 O.2   1 <1>  -0.5700 
  9 N       -3.1890    -5.7330     1.2820 N.am  1 <1>  -0.6600 
 10 C       -3.3930    -7.1210     1.7950 C.3   1 <1>   0.3200 
 11 C       -4.3040    -4.7810     1.5760 C.3   1 <1>   0.1400 
 12 C       -4.0960    -7.9710     0.7520 C.2   1 <1>   0.0060 
 13 C       -5.3980    -4.8790     0.5070 C.3   1 <1>   0.1200 
 14 N       -5.2880    -8.4660     0.8710 N.2   1 <1>  -0.5650 
 15 N       -3.4990    -8.2700    -0.4190 N.pl3 1 <1>   0.0330 
 16 O       -6.3530    -3.9030     0.7490 O.3   1 <1>  -0.6800 
 17 C       -5.4740    -9.1280    -0.2880 C.2   1 <1>   0.0770 
 18 C       -4.3930    -9.0180    -1.0900 C.2   1 <1>  -0.3020 
 19 H        0.2820    -4.2180    -0.2730 H     1 <1>   0.0800 
 20 H       -0.6510    -4.4820    -1.7150 H     1 <1>   0.0800 
 21 H       -2.6940    -3.6840    -0.5450 H     1 <1>   0.0800 
 22 H       -1.7580    -3.4070     0.8980 H     1 <1>   0.0800 
 23 H       -3.9800    -7.1020     2.6970 H     1 <1>   0.0800 
 24 H       -2.4420    -7.5650     2.0330 H     1 <1>   0.0800 
 25 H       -3.9300    -3.7730     1.6060 H     1 <1>   0.0800 
 26 H       -4.7240    -5.0070     2.5400 H     1 <1>   0.0800 
 27 H       -5.8840    -5.8400     0.5210 H     1 <1>   0.0800 
 28 H       -4.9880    -4.6960    -0.4710 H     1 <1>   0.0800 
 29 H       -2.5620    -7.9480    -0.7020 H     1 <1>   0.2700 
 30 H       -6.9850    -4.2010     1.4340 H     1 <1>   0.4000 
 31 H       -6.3920    -9.6560    -0.4880 H     1 <1>   0.1500 
 32 H       -4.2150    -9.4180    -2.0710 H     1 <1>   0.1500 
@<TRIPOS>BOND
  1   1   2  1   
  2   2   3  1   
  3   2   4  1   
  4   2   5  1   
  5   5   6  1   
  6   5  19  1   
  7   5  20  1   
  8   6   7  1   
  9   6  21  1   
 10   6  22  1   
 11   7   8  2   
 12   7   9  am  
 13   9  10  1   
 14   9  11  1   
 15  10  12  1   
 16  10  23  1   
 17  10  24  1   
 18  11  13  1   
 19  11  25  1   
 20  11  26  1   
 21  12  14  2   
 22  12  15  1   
 23  13  16  1   
 24  13  27  1   
 25  13  28  1   
 26  14  17  1   
 27  15  18  1   
 28  15  29  1   
 29  16  30  1   
 30  17  18  2   
 31  17  31  1   
 32  18  32  1   
@<TRIPOS>SUBSTRUCTURE
  1 ****   7 GROUP 4 **** **** 0

# MOE 2024.06 (io_trps.svl 2023.06)
