@<TRIPOS>MOLECULE
NONAME
46 48 1 0 0 
SMALL
USER_CHARGES


@<TRIPOS>ATOM
  1 O       -1.5770     0.2150     2.6350 O.2   1 <1>  -0.5700 
  2 C       -1.9840     0.7800     1.6380 C.2   1 <1>   0.5440 
  3 N       -2.8730     0.1220     0.8240 N.am  1 <1>  -0.6600 
  4 C       -1.5510     2.1280     1.3240 C.ar  1 <1>   0.0860 
  5 C       -3.6180     0.7380    -0.3020 C.3   1 <1>   0.1400 
  6 C       -3.3590    -1.2550     1.0840 C.3   1 <1>   0.1400 
  7 C       -0.6340     2.4230     0.3030 C.ar  1 <1>  -0.1440 
  8 C       -2.0910     3.1820     2.0560 C.ar  1 <1>  -0.1500 
  9 C       -4.8150    -0.1890    -0.5200 C.3   1 <1>   0.2000 
 10 C       -4.3140    -1.5670    -0.0760 C.3   1 <1>  -0.0800 
 11 C       -0.3120     3.7470     0.0140 C.ar  1 <1>  -0.1440 
 12 C        0.0190     1.2880    -0.4900 C.3   1 <1>  -0.0960 
 13 C       -1.7630     4.4920     1.7770 C.ar  1 <1>  -0.1500 
 14 O       -5.8290     0.2010     0.3390 O.3   1 <1>  -0.6800 
 15 C       -3.5860    -2.2850    -1.2280 C.3   1 <1>   0.0210 
 16 C       -0.8790     4.7720     0.7540 C.ar  1 <1>  -0.1500 
 17 C        0.6580     4.1200    -1.1000 C.3   1 <1>  -0.0970 
 18 C       -3.0900    -3.6530    -0.8050 C.2   1 <1>   0.1080 
 19 N       -3.8890    -4.6450    -0.5660 N.2   1 <1>  -0.7070 
 20 C       -1.7550    -3.9970    -0.6230 C.2   1 <1>  -0.1500 
 21 N       -3.0770    -5.6610    -0.2210 N.pl3 1 <1>   0.3000 
 22 C       -1.7780    -5.2930    -0.2470 C.2   1 <1>  -0.3320 
 23 C       -0.6230    -6.2150     0.0960 C.3   1 <1>  -0.0600 
 24 H       -3.9290     1.7440    -0.0770 H     1 <1>   0.0800 
 25 H       -2.9910     0.7430    -1.1760 H     1 <1>   0.0800 
 26 H       -2.5340    -1.9440     1.1470 H     1 <1>   0.0800 
 27 H       -3.8900    -1.2680     2.0210 H     1 <1>   0.0800 
 28 H       -2.7790     2.9600     2.8530 H     1 <1>   0.1500 
 29 H       -5.1970    -0.1650    -1.5270 H     1 <1>   0.0800 
 30 H       -5.1280    -2.1920     0.2500 H     1 <1>   0.0800 
 31 H        1.0630     1.4890    -0.6470 H     1 <1>   0.0800 
 32 H       -0.4630     1.1840    -1.4440 H     1 <1>   0.0800 
 33 H       -0.0410     0.3480     0.0280 H     1 <1>   0.0800 
 34 H       -2.1930     5.2930     2.3540 H     1 <1>   0.1500 
 35 H       -5.4700     0.2490     1.2480 H     1 <1>   0.4000 
 36 H       -2.7520    -1.7000    -1.5710 H     1 <1>   0.0800 
 37 H       -4.2640    -2.4180    -2.0520 H     1 <1>   0.0800 
 38 H       -0.6330     5.7980     0.5430 H     1 <1>   0.1500 
 39 H        0.6410     5.1790    -1.2890 H     1 <1>   0.0800 
 40 H        0.3940     3.6170    -2.0120 H     1 <1>   0.0800 
 41 H        1.6590     3.8440    -0.8210 H     1 <1>   0.0800 
 42 H       -0.9070    -3.3490    -0.7560 H     1 <1>   0.1500 
 43 H       -3.4390    -6.5890     0.0270 H     1 <1>   0.2700 
 44 H        0.3100    -5.6890     0.0030 H     1 <1>   0.0800 
 45 H       -0.6090    -7.0590    -0.5710 H     1 <1>   0.0800 
 46 H       -0.7170    -6.5680     1.1080 H     1 <1>   0.0800 
@<TRIPOS>BOND
  1   1   2  2   
  2   2   3  am  
  3   2   4  1   
  4   3   5  1   
  5   3   6  1   
  6   4   7  ar  
  7   4   8  ar  
  8   5   9  1   
  9   5  24  1   
 10   5  25  1   
 11   6  10  1   
 12   6  26  1   
 13   6  27  1   
 14   7  11  ar  
 15   7  12  1   
 16   8  13  ar  
 17   8  28  1   
 18   9  10  1   
 19   9  14  1   
 20   9  29  1   
 21  10  15  1   
 22  10  30  1   
 23  11  16  ar  
 24  11  17  1   
 25  12  31  1   
 26  12  32  1   
 27  12  33  1   
 28  13  16  ar  
 29  13  34  1   
 30  14  35  1   
 31  15  18  1   
 32  15  36  1   
 33  15  37  1   
 34  16  38  1   
 35  17  39  1   
 36  17  40  1   
 37  17  41  1   
 38  18  19  2   
 39  18  20  1   
 40  19  21  1   
 41  20  22  2   
 42  20  42  1   
 43  21  22  1   
 44  21  43  1   
 45  22  23  1   
 46  23  44  1   
 47  23  45  1   
 48  23  46  1   
@<TRIPOS>SUBSTRUCTURE
  1 ****   3 GROUP 4 **** **** 0

# MOE 2024.06 (io_trps.svl 2023.06)
