@<TRIPOS>MOLECULE
NONAME
46 47 1 0 0 
SMALL
USER_CHARGES


@<TRIPOS>ATOM
  1 S        0.9800     0.0490    -1.2060 S.o2  1 <1>   1.0900 
  2 O        0.8320    -0.1790    -2.6240 O.2   1 <1>  -0.6500 
  3 O        0.7560    -0.9830    -0.2210 O.2   1 <1>  -0.6500 
  4 C        2.5820     0.7780    -0.9110 C.3   1 <1>  -0.0550 
  5 C        0.0670     1.5080    -0.7240 C.3   1 <1>  -0.0550 
  6 C        2.3790     2.0110    -0.0160 C.3   1 <1>  -0.0800 
  7 C        1.0650     2.6550    -0.4940 C.3   1 <1>  -0.1600 
  8 C        3.5890     2.9600    -0.0680 C.3   1 <1>  -0.1600 
  9 C        3.4250     4.1540     0.8790 C.3   1 <1>   0.3430 
 10 N        4.5860     5.0790     0.7520 N.4   1 <1>  -0.9590 
 11 C        5.8190     4.5440     1.3910 C.3   1 <1>   0.5240 
 12 C        4.2930     6.4490     1.2610 C.3   1 <1>   0.3430 
 13 C        6.9830     5.3130     0.8170 C.2   1 <1>  -0.1810 
 14 C        3.3780     7.1740     0.2810 C.3   1 <1>  -0.2400 
 15 C        7.8080     6.1800     1.5230 C.2   1 <1>   0.1390 
 16 C        7.4590     5.3400    -0.4490 C.2   1 <1>  -0.3020 
 17 N        8.7090     6.7140     0.7650 N.2   1 <1>  -0.7070 
 18 N        8.5070     6.1910    -0.4570 N.pl3 1 <1>   0.3140 
 19 C        9.3660     6.5430    -1.6090 C.3   1 <1>   0.0960 
 20 C       10.3410     5.4070    -1.9420 C.3   1 <1>  -0.2400 
 21 H        2.9980     1.0830    -1.8530 H     1 <1>   0.0800 
 22 H        3.2490     0.0680    -0.4580 H     1 <1>   0.0800 
 23 H       -0.4530     1.3030     0.1940 H     1 <1>   0.0800 
 24 H       -0.6590     1.7720    -1.4700 H     1 <1>   0.0800 
 25 H        2.2390     1.6600     0.9950 H     1 <1>   0.0800 
 26 H        0.6700     3.3600     0.2180 H     1 <1>   0.0800 
 27 H        1.2260     3.1610    -1.4320 H     1 <1>   0.0800 
 28 H        3.7120     3.3170    -1.0760 H     1 <1>   0.0800 
 29 H        4.4650     2.3960     0.2020 H     1 <1>   0.0800 
 30 H        3.3310     3.8120     1.8980 H     1 <1>   0.0800 
 31 H        2.5180     4.6740     0.6180 H     1 <1>   0.0800 
 32 H        4.8280     5.1880    -0.2410 H     1 <1>   0.4500 
 33 H        5.9460     3.5000     1.1600 H     1 <1>   0.0800 
 34 H        5.7770     4.6610     2.4620 H     1 <1>   0.0800 
 35 H        5.2100     7.0120     1.3480 H     1 <1>   0.0800 
 36 H        3.8340     6.3990     2.2350 H     1 <1>   0.0800 
 37 H        3.8260     7.2200    -0.6960 H     1 <1>   0.0800 
 38 H        3.2350     8.1850     0.6220 H     1 <1>   0.0800 
 39 H        2.4110     6.7120     0.2190 H     1 <1>   0.0800 
 40 H        7.7320     6.4040     2.5760 H     1 <1>   0.1500 
 41 H        7.1410     4.8200    -1.3340 H     1 <1>   0.1500 
 42 H        9.9160     7.4330    -1.3570 H     1 <1>   0.0800 
 43 H        8.7380     6.7570    -2.4530 H     1 <1>   0.0800 
 44 H       10.9710     5.2010    -1.0940 H     1 <1>   0.0800 
 45 H       10.9680     5.6960    -2.7670 H     1 <1>   0.0800 
 46 H        9.8070     4.5140    -2.2160 H     1 <1>   0.0800 
@<TRIPOS>BOND
  1   1   2  2   
  2   1   3  2   
  3   1   4  1   
  4   1   5  1   
  5   4   6  1   
  6   4  21  1   
  7   4  22  1   
  8   5   7  1   
  9   5  23  1   
 10   5  24  1   
 11   6   7  1   
 12   6   8  1   
 13   6  25  1   
 14   7  26  1   
 15   7  27  1   
 16   8   9  1   
 17   8  28  1   
 18   8  29  1   
 19   9  10  1   
 20   9  30  1   
 21   9  31  1   
 22  10  11  1   
 23  10  12  1   
 24  10  32  1   
 25  11  13  1   
 26  11  33  1   
 27  11  34  1   
 28  12  14  1   
 29  12  35  1   
 30  12  36  1   
 31  13  15  1   
 32  13  16  2   
 33  14  37  1   
 34  14  38  1   
 35  14  39  1   
 36  15  17  2   
 37  15  40  1   
 38  16  18  1   
 39  16  41  1   
 40  17  18  1   
 41  18  19  1   
 42  19  20  1   
 43  19  42  1   
 44  19  43  1   
 45  20  44  1   
 46  20  45  1   
 47  20  46  1   
@<TRIPOS>SUBSTRUCTURE
  1 ****   8 GROUP 4 **** **** 0

# MOE 2024.06 (io_trps.svl 2023.06)
