@<TRIPOS>MOLECULE
NONAME
54 56 1 0 0 
SMALL
USER_CHARGES


@<TRIPOS>ATOM
  1 O        0.0670     1.3040     1.5520 O.2   1 <1>  -0.5700 
  2 C        0.4590     0.2500     1.1010 C.2   1 <1>   0.5690 
  3 N        1.3780     0.2040     0.0770 N.am  1 <1>  -0.6600 
  4 C       -0.1120    -1.0330     1.7320 C.3   1 <1>   0.1710 
  5 C        1.8860     1.4490    -0.5520 C.3   1 <1>   0.1400 
  6 C        1.8470    -1.0670    -0.5480 C.3   1 <1>   0.0600 
  7 N       -0.7500    -1.9900     0.7840 N.3   1 <1>  -0.8100 
  8 C        3.2110     1.8430     0.1030 C.3   1 <1>  -0.1600 
  9 C       -1.1670    -3.2420     1.4260 C.3   1 <1>   0.2530 
 10 C       -1.8320    -1.3540     0.0080 C.3   1 <1>   0.1100 
 11 C        3.7180     3.1850    -0.4300 C.3   1 <1>   0.0210 
 12 C       -1.0470    -4.4140     0.4550 C.ar  1 <1>  -0.1440 
 13 C       -2.6680    -2.3390    -0.8250 C.3   1 <1>   0.1200 
 14 C        5.0270     3.5610     0.2460 C.2   1 <1>  -0.1810 
 15 C       -1.3600    -4.3450    -0.9080 C.ar  1 <1>   0.0820 
 16 C       -0.5770    -5.6160     0.9670 C.ar  1 <1>  -0.1500 
 17 O       -1.8500    -3.2450    -1.5310 O.3   1 <1>  -0.3630 
 18 C        5.1750     4.0870     1.5300 C.2   1 <1>   0.1080 
 19 C        6.2870     3.4650    -0.2330 C.2   1 <1>  -0.3320 
 20 C       -1.1740    -5.4550    -1.7180 C.ar  1 <1>  -0.1500 
 21 C       -0.4060    -6.7230     0.1540 C.ar  1 <1>  -0.1500 
 22 N        6.4150     4.3040     1.8320 N.2   1 <1>  -0.7070 
 23 C        4.0590     4.3850     2.5080 C.3   1 <1>  -0.0590 
 24 N        7.1010     3.9220     0.7420 N.pl3 1 <1>   0.3000 
 25 C        6.8070     2.9600    -1.5690 C.3   1 <1>  -0.0600 
 26 C       -0.7020    -6.6420    -1.1930 C.ar  1 <1>  -0.1500 
 27 H       -0.8290    -0.7460     2.4800 H     1 <1>   0.0800 
 28 H        0.7010    -1.5260     2.2330 H     1 <1>   0.0800 
 29 H        1.1670     2.2400    -0.4200 H     1 <1>   0.0800 
 30 H        2.0180     1.2940    -1.6090 H     1 <1>   0.0800 
 31 H        1.8950    -1.8550     0.1830 H     1 <1>   0.0800 
 32 H        2.8270    -0.9390    -0.9720 H     1 <1>   0.0800 
 33 H        1.1610    -1.3620    -1.3230 H     1 <1>   0.0800 
 34 H        3.9510     1.0860    -0.0850 H     1 <1>   0.0800 
 35 H        3.0640     1.9200     1.1650 H     1 <1>   0.0800 
 36 H       -2.1750    -3.1600     1.7970 H     1 <1>   0.0800 
 37 H       -0.5250    -3.4350     2.2680 H     1 <1>   0.0800 
 38 H       -1.3990    -0.6320    -0.6630 H     1 <1>   0.0800 
 39 H       -2.4920    -0.8240     0.6730 H     1 <1>   0.0800 
 40 H        2.9900     3.9550    -0.2470 H     1 <1>   0.0800 
 41 H        3.8650     3.1230    -1.4930 H     1 <1>   0.0800 
 42 H       -3.2460    -1.7960    -1.5490 H     1 <1>   0.0800 
 43 H       -3.3450    -2.9010    -0.2070 H     1 <1>   0.0800 
 44 H       -0.3330    -5.7020     2.0110 H     1 <1>   0.1500 
 45 H       -1.4070    -5.3790    -2.7640 H     1 <1>   0.1500 
 46 H       -0.0400    -7.6460     0.5690 H     1 <1>   0.1500 
 47 H        3.1980     4.7680     1.9940 H     1 <1>   0.0800 
 48 H        4.3910     5.1190     3.2200 H     1 <1>   0.0800 
 49 H        3.7920     3.4880     3.0330 H     1 <1>   0.0800 
 50 H        8.1240     3.9820     0.6960 H     1 <1>   0.2700 
 51 H        6.0040     2.5810    -2.1730 H     1 <1>   0.0800 
 52 H        7.5160     2.1670    -1.4130 H     1 <1>   0.0800 
 53 H        7.2890     3.7600    -2.1030 H     1 <1>   0.0800 
 54 H       -0.5650    -7.4980    -1.8310 H     1 <1>   0.1500 
@<TRIPOS>BOND
  1   1   2  2   
  2   2   3  am  
  3   2   4  1   
  4   3   5  1   
  5   3   6  1   
  6   4   7  1   
  7   4  27  1   
  8   4  28  1   
  9   5   8  1   
 10   5  29  1   
 11   5  30  1   
 12   6  31  1   
 13   6  32  1   
 14   6  33  1   
 15   7   9  1   
 16   7  10  1   
 17   8  11  1   
 18   8  34  1   
 19   8  35  1   
 20   9  12  1   
 21   9  36  1   
 22   9  37  1   
 23  10  13  1   
 24  10  38  1   
 25  10  39  1   
 26  11  14  1   
 27  11  40  1   
 28  11  41  1   
 29  12  15  ar  
 30  12  16  ar  
 31  13  17  1   
 32  13  42  1   
 33  13  43  1   
 34  14  18  1   
 35  14  19  2   
 36  15  17  1   
 37  15  20  ar  
 38  16  21  ar  
 39  16  44  1   
 40  18  22  2   
 41  18  23  1   
 42  19  24  1   
 43  19  25  1   
 44  20  26  ar  
 45  20  45  1   
 46  21  26  ar  
 47  21  46  1   
 48  22  24  1   
 49  23  47  1   
 50  23  48  1   
 51  23  49  1   
 52  24  50  1   
 53  25  51  1   
 54  25  52  1   
 55  25  53  1   
 56  26  54  1   
@<TRIPOS>SUBSTRUCTURE
  1 ****   3 GROUP 4 **** **** 0

# MOE 2024.06 (io_trps.svl 2023.06)
