@<TRIPOS>MOLECULE
NONAME
39 40 1 0 0 
SMALL
USER_CHARGES


@<TRIPOS>ATOM
  1 O       -0.2700    -0.1390     0.6590 O.2   1 <1>  -0.5700 
  2 C       -0.8340    -1.1570     0.3110 C.2   1 <1>   0.7800 
  3 O       -0.1580    -2.2590    -0.0200 O.3   1 <1>  -0.4300 
  4 N       -2.1850    -1.2320     0.2400 N.am  1 <1>  -0.6600 
  5 C        1.2430    -2.4310    -0.0250 C.3   1 <1>   0.2800 
  6 C       -3.0800    -0.1210     0.6920 C.3   1 <1>   0.3200 
  7 C       -2.9390    -2.4940    -0.0520 C.3   1 <1>   0.3210 
  8 C        1.8030    -2.2560     1.3910 C.3   1 <1>  -0.2400 
  9 C        1.4650    -3.8740    -0.4810 C.3   1 <1>  -0.2400 
 10 C        1.8900    -1.4770    -1.0350 C.3   1 <1>  -0.2400 
 11 C       -4.4080    -0.8190     0.6610 C.2   1 <1>  -0.0400 
 12 C       -4.3520    -2.0850     0.2680 C.2   1 <1>  -0.1810 
 13 O       -5.6350    -0.4480     0.9430 O.3   1 <1>  -0.2800 
 14 C       -5.6700    -2.5780     0.2980 C.2   1 <1>  -0.0860 
 15 C       -6.3960    -1.5020     0.7260 C.2   1 <1>  -0.0100 
 16 C       -6.0930    -3.9080    -0.0490 C.2   1 <1>   0.8060 
 17 O       -5.3230    -4.7720    -0.4180 O.2   1 <1>  -0.5700 
 18 O       -7.3960    -4.1840     0.0460 O.3   1 <1>  -0.4300 
 19 C       -7.9040    -5.4590    -0.2740 C.3   1 <1>   0.1200 
 20 C       -9.4140    -5.4330    -0.0580 C.3   1 <1>  -0.2400 
 21 H       -3.0490     0.7010    -0.0010 H     1 <1>   0.0800 
 22 H       -2.8240     0.2000     1.6860 H     1 <1>   0.0800 
 23 H       -2.6090    -3.2950     0.5870 H     1 <1>   0.0800 
 24 H       -2.8350    -2.7680    -1.0880 H     1 <1>   0.0800 
 25 H        1.2760    -2.8870     2.0830 H     1 <1>   0.0800 
 26 H        1.7290    -1.2340     1.7150 H     1 <1>   0.0800 
 27 H        2.8440    -2.5250     1.4090 H     1 <1>   0.0800 
 28 H        0.9970    -4.5580     0.2030 H     1 <1>   0.0800 
 29 H        2.5160    -4.0970    -0.5160 H     1 <1>   0.0800 
 30 H        1.0540    -4.0230    -1.4630 H     1 <1>   0.0800 
 31 H        1.8130    -0.4560    -0.7090 H     1 <1>   0.0800 
 32 H        1.4230    -1.5770    -1.9980 H     1 <1>   0.0800 
 33 H        2.9350    -1.7050    -1.1370 H     1 <1>   0.0800 
 34 H       -7.4560    -1.4220     0.8960 H     1 <1>   0.1500 
 35 H       -7.4350    -6.1860     0.3690 H     1 <1>   0.0800 
 36 H       -7.6650    -5.6760    -1.3010 H     1 <1>   0.0800 
 37 H       -9.6390    -5.2060     0.9690 H     1 <1>   0.0800 
 38 H       -9.8310    -6.3950    -0.2940 H     1 <1>   0.0800 
 39 H       -9.8680    -4.6970    -0.6980 H     1 <1>   0.0800 
@<TRIPOS>BOND
  1   1   2  2   
  2   2   3  1   
  3   2   4  am  
  4   3   5  1   
  5   4   6  1   
  6   4   7  1   
  7   5   8  1   
  8   5   9  1   
  9   5  10  1   
 10   6  11  1   
 11   6  21  1   
 12   6  22  1   
 13   7  12  1   
 14   7  23  1   
 15   7  24  1   
 16   8  25  1   
 17   8  26  1   
 18   8  27  1   
 19   9  28  1   
 20   9  29  1   
 21   9  30  1   
 22  10  31  1   
 23  10  32  1   
 24  10  33  1   
 25  11  12  2   
 26  11  13  1   
 27  12  14  1   
 28  13  15  1   
 29  14  15  2   
 30  14  16  1   
 31  15  34  1   
 32  16  17  2   
 33  16  18  1   
 34  18  19  1   
 35  19  20  1   
 36  19  35  1   
 37  19  36  1   
 38  20  37  1   
 39  20  38  1   
 40  20  39  1   
@<TRIPOS>SUBSTRUCTURE
  1 ****   7 GROUP 4 **** **** 0

# MOE 2024.06 (io_trps.svl 2023.06)
