@<TRIPOS>MOLECULE
NONAME
45 47 1 0 0 
SMALL
USER_CHARGES


@<TRIPOS>ATOM
  1 CL      -2.7610    -0.3870    -0.0070 Cl    1 <1>  -0.1770 
  2 C       -2.5350    -2.0950     0.2850 C.ar  1 <1>   0.1770 
  3 C       -2.6410    -2.9830    -0.7570 C.ar  1 <1>  -0.1500 
  4 C       -2.2490    -2.5130     1.5900 C.ar  1 <1>  -0.1500 
  5 C       -2.4550    -4.3450    -0.4950 C.ar  1 <1>   0.0000 
  6 C       -2.0650    -3.8510     1.8540 C.ar  1 <1>  -0.1500 
  7 C       -2.1720    -4.7660     0.8010 C.ar  1 <1>  -0.1520 
  8 C       -2.4830    -5.5050    -1.2890 C.2   1 <1>  -0.1500 
  9 N       -2.0350    -6.1280     0.7850 N.pl3 1 <1>   0.0330 
 10 C       -2.2330    -6.5880    -0.4960 C.2   1 <1>  -0.2370 
 11 C       -2.1610    -7.9750    -0.8650 C.2   1 <1>   0.7150 
 12 O       -1.9400    -8.3120    -2.0090 O.2   1 <1>  -0.5700 
 13 N       -2.3820    -8.9380     0.0690 N.am  1 <1>  -0.7300 
 14 C       -2.3090   -10.3990    -0.1720 C.3   1 <1>   0.2200 
 15 C       -3.6960   -10.9840    -0.4020 C.3   1 <1>  -0.0800 
 16 C       -1.9420   -11.0810     1.1370 C.3   1 <1>   0.1200 
 17 C       -4.2240   -11.1760     1.0260 C.3   1 <1>   0.1200 
 18 C       -4.6080   -10.1640    -1.3410 C.3   1 <1>  -0.0550 
 19 O       -3.1210   -11.0660     1.8800 O.3   1 <1>  -0.5600 
 20 S       -6.1580   -10.9710    -1.7520 S.o2  1 <1>   1.3330 
 21 O       -5.8700   -12.3540    -2.0610 O.2   1 <1>  -0.6500 
 22 O       -6.8840   -10.1590    -2.7020 O.2   1 <1>  -0.6500 
 23 N       -7.0280   -10.9360    -0.2930 N.am  1 <1>  -0.8490 
 24 C       -7.7080    -9.6580    -0.0540 C.3   1 <1>   0.1160 
 25 C       -7.9970   -12.0330    -0.2030 C.3   1 <1>   0.1160 
 26 H       -2.8590    -2.6500    -1.7540 H     1 <1>   0.1500 
 27 H       -2.1770    -1.7740     2.3670 H     1 <1>   0.1500 
 28 H       -1.8430    -4.1930     2.8500 H     1 <1>   0.1500 
 29 H       -2.6710    -5.5110    -2.3490 H     1 <1>   0.1500 
 30 H       -1.7570    -6.6960     1.5910 H     1 <1>   0.2700 
 31 H       -2.7880    -8.6960     0.9720 H     1 <1>   0.3700 
 32 H       -1.6170   -10.6260    -0.9670 H     1 <1>   0.0800 
 33 H       -3.5680   -11.9630    -0.8320 H     1 <1>   0.0800 
 34 H       -1.1630   -10.5690     1.6750 H     1 <1>   0.0800 
 35 H       -1.6640   -12.1080     0.9730 H     1 <1>   0.0800 
 36 H       -4.6760   -12.1450     1.1560 H     1 <1>   0.0800 
 37 H       -4.9270   -10.4090     1.3030 H     1 <1>   0.0800 
 38 H       -4.0710    -9.9920    -2.2550 H     1 <1>   0.0800 
 39 H       -4.8140    -9.2050    -0.9090 H     1 <1>   0.0800 
 40 H       -8.1670    -9.6580     0.9200 H     1 <1>   0.0800 
 41 H       -8.4700    -9.4910    -0.7990 H     1 <1>   0.0800 
 42 H       -7.0030    -8.8460    -0.0970 H     1 <1>   0.0800 
 43 H       -8.5260   -11.9900     0.7340 H     1 <1>   0.0800 
 44 H       -7.4880   -12.9810    -0.2570 H     1 <1>   0.0800 
 45 H       -8.7050   -11.9750    -1.0130 H     1 <1>   0.0800 
@<TRIPOS>BOND
  1   1   2  1   
  2   2   3  ar  
  3   2   4  ar  
  4   3   5  ar  
  5   3  26  1   
  6   4   6  ar  
  7   4  27  1   
  8   5   7  ar  
  9   5   8  1   
 10   6   7  ar  
 11   6  28  1   
 12   7   9  1   
 13   8  10  2   
 14   8  29  1   
 15   9  10  1   
 16   9  30  1   
 17  10  11  1   
 18  11  12  2   
 19  11  13  am  
 20  13  14  1   
 21  13  31  1   
 22  14  15  1   
 23  14  16  1   
 24  14  32  1   
 25  15  17  1   
 26  15  18  1   
 27  15  33  1   
 28  16  19  1   
 29  16  34  1   
 30  16  35  1   
 31  17  19  1   
 32  17  36  1   
 33  17  37  1   
 34  18  20  1   
 35  18  38  1   
 36  18  39  1   
 37  20  21  2   
 38  20  22  2   
 39  20  23  am  
 40  23  24  1   
 41  23  25  1   
 42  24  40  1   
 43  24  41  1   
 44  24  42  1   
 45  25  43  1   
 46  25  44  1   
 47  25  45  1   
@<TRIPOS>SUBSTRUCTURE
  1 ****  11 GROUP 4 **** **** 0

# MOE 2024.06 (io_trps.svl 2023.06)
