@<TRIPOS>MOLECULE
NONAME
51 54 1 0 0 
SMALL
USER_CHARGES


@<TRIPOS>ATOM
  1 CL       0.1510    -3.1610    -1.7570 Cl    1 <1>  -0.1770 
  2 C        1.2480    -1.9040    -1.2240 C.ar  1 <1>   0.1770 
  3 C        1.7520    -1.8960     0.0800 C.ar  1 <1>   0.0530 
  4 C        1.5730    -0.9220    -2.1420 C.ar  1 <1>  -0.1500 
  5 C        1.4420    -2.9060     1.0630 C.2   1 <1>   0.0870 
  6 C        2.5960    -0.8390     0.4230 C.ar  1 <1>  -0.1500 
  7 C        2.4160     0.1100    -1.7740 C.ar  1 <1>  -0.1500 
  8 O        1.4500    -4.1920     0.7430 O.3   1 <1>  -0.2800 
  9 C        1.1330    -2.7920     2.3820 C.2   1 <1>  -0.1500 
 10 C        2.9260     0.1490    -0.4880 C.ar  1 <1>  -0.1500 
 11 C        1.1430    -4.9030     1.8100 C.2   1 <1>  -0.0400 
 12 C        0.9390    -4.0870     2.8670 C.2   1 <1>  -0.1500 
 13 C        1.0730    -6.4160     1.6910 C.3   1 <1>   0.5230 
 14 N       -0.1260    -6.8090     0.8980 N.4   1 <1>  -0.9590 
 15 C       -0.1600    -6.2740    -0.4910 C.3   1 <1>   0.3430 
 16 C       -0.3620    -8.2770     0.7850 C.3   1 <1>   0.3430 
 17 C       -1.2080    -7.1400    -1.1850 C.3   1 <1>   0.2000 
 18 C       -0.8850    -8.5310    -0.6370 C.3   1 <1>  -0.0800 
 19 O       -2.4710    -6.7680    -0.7130 O.3   1 <1>  -0.5600 
 20 C       -2.0490    -9.5400    -0.6870 C.3   1 <1>   0.0200 
 21 C       -3.0820    -5.7270    -1.4170 C.3   1 <1>   0.0400 
 22 C       -1.6000   -10.9040    -0.1980 C.2   1 <1>  -0.0400 
 23 O       -1.2090   -11.0580     1.0380 O.3   1 <1>  -0.0190 
 24 C       -1.5020   -12.0930    -0.8110 C.2   1 <1>  -0.1500 
 25 N       -0.8370   -12.2780     1.2830 N.2   1 <1>  -0.4100 
 26 C       -1.0100   -12.9290     0.1890 C.2   1 <1>   0.1080 
 27 C       -0.7160   -14.4040     0.0200 C.3   1 <1>  -0.0590 
 28 H        1.1660    -0.9630    -3.1370 H     1 <1>   0.1500 
 29 H        3.0060    -0.7940     1.4170 H     1 <1>   0.1500 
 30 H        2.6750     0.8800    -2.4830 H     1 <1>   0.1500 
 31 H        1.0470    -1.8890     2.9610 H     1 <1>   0.1500 
 32 H        3.5820     0.9520    -0.1970 H     1 <1>   0.1500 
 33 H        0.6790    -4.3320     3.8830 H     1 <1>   0.1500 
 34 H        1.0100    -6.8440     2.6780 H     1 <1>   0.0800 
 35 H        1.9700    -6.7780     1.2170 H     1 <1>   0.0800 
 36 H       -0.9600    -6.4040     1.3470 H     1 <1>   0.4500 
 37 H       -0.4330    -5.2330    -0.5100 H     1 <1>   0.0800 
 38 H        0.7990    -6.4040    -0.9650 H     1 <1>   0.0800 
 39 H        0.5470    -8.8360     0.9450 H     1 <1>   0.0800 
 40 H       -1.0940    -8.5880     1.5130 H     1 <1>   0.0800 
 41 H       -1.1790    -7.0890    -2.2610 H     1 <1>   0.0800 
 42 H       -0.0700    -8.9350    -1.2120 H     1 <1>   0.0800 
 43 H       -2.4060    -9.6280    -1.6980 H     1 <1>   0.0800 
 44 H       -2.8710    -9.2070    -0.0770 H     1 <1>   0.0800 
 45 H       -4.0360    -5.5280    -0.9600 H     1 <1>   0.0800 
 46 H       -3.2320    -6.0260    -2.4400 H     1 <1>   0.0800 
 47 H       -2.4700    -4.8420    -1.3680 H     1 <1>   0.0800 
 48 H       -1.7330   -12.3760    -1.8210 H     1 <1>   0.1500 
 49 H        0.0300   -14.5440    -0.7400 H     1 <1>   0.0800 
 50 H       -1.6130   -14.9240    -0.2630 H     1 <1>   0.0800 
 51 H       -0.3540   -14.8150     0.9440 H     1 <1>   0.0800 
@<TRIPOS>BOND
  1   1   2  1   
  2   2   3  ar  
  3   2   4  ar  
  4   3   5  1   
  5   3   6  ar  
  6   4   7  ar  
  7   4  28  1   
  8   5   8  1   
  9   5   9  2   
 10   6  10  ar  
 11   6  29  1   
 12   7  10  ar  
 13   7  30  1   
 14   8  11  1   
 15   9  12  1   
 16   9  31  1   
 17  10  32  1   
 18  11  12  2   
 19  11  13  1   
 20  12  33  1   
 21  13  14  1   
 22  13  34  1   
 23  13  35  1   
 24  14  15  1   
 25  14  16  1   
 26  14  36  1   
 27  15  17  1   
 28  15  37  1   
 29  15  38  1   
 30  16  18  1   
 31  16  39  1   
 32  16  40  1   
 33  17  18  1   
 34  17  19  1   
 35  17  41  1   
 36  18  20  1   
 37  18  42  1   
 38  19  21  1   
 39  20  22  1   
 40  20  43  1   
 41  20  44  1   
 42  21  45  1   
 43  21  46  1   
 44  21  47  1   
 45  22  23  1   
 46  22  24  2   
 47  23  25  1   
 48  24  26  1   
 49  24  48  1   
 50  25  26  2   
 51  26  27  1   
 52  27  49  1   
 53  27  50  1   
 54  27  51  1   
@<TRIPOS>SUBSTRUCTURE
  1 ****  15 GROUP 4 **** **** 0

# MOE 2024.06 (io_trps.svl 2023.06)
