@<TRIPOS>MOLECULE
NONAME
46 48 1 0 0 
SMALL
USER_CHARGES


@<TRIPOS>ATOM
  1 CL      -5.6240    -0.2290     1.0290 Cl    1 <1>  -0.1770 
  2 C       -4.1000     0.5230     0.6150 C.ar  1 <1>   0.1770 
  3 C       -2.9940    -0.2530     0.2870 C.ar  1 <1>  -0.1440 
  4 C       -4.0370     1.9050     0.6200 C.ar  1 <1>  -0.1500 
  5 C       -1.8110     0.3920    -0.0440 C.ar  1 <1>  -0.1500 
  6 C       -3.0530    -1.7740     0.2780 C.3   1 <1>  -0.0160 
  7 C       -2.8490     2.5340     0.2900 C.ar  1 <1>  -0.1500 
  8 C       -1.7390     1.7750    -0.0420 C.ar  1 <1>  -0.1500 
  9 C       -3.6290    -2.2860    -1.0470 C.3   1 <1>  -0.0990 
 10 C       -3.7790    -3.7930    -1.0250 C.2   1 <1>   0.5690 
 11 O       -2.8650    -4.4550    -1.4550 O.2   1 <1>  -0.5700 
 12 N       -4.9090    -4.3730    -0.5200 N.am  1 <1>  -0.6600 
 13 C       -6.1030    -3.6800     0.0300 C.3   1 <1>   0.1400 
 14 C       -5.0690    -5.8440    -0.4260 C.3   1 <1>   0.1400 
 15 C       -7.1110    -4.7950     0.3050 C.3   1 <1>   0.2000 
 16 C       -6.2750    -6.0580     0.4890 C.3   1 <1>  -0.0800 
 17 O       -7.8580    -4.5420     1.4440 O.3   1 <1>  -0.6800 
 18 C       -7.0520    -7.3500     0.1920 C.3   1 <1>   0.0210 
 19 C       -6.1450    -8.5610     0.2780 C.2   1 <1>   0.1080 
 20 N       -5.5390    -8.9110     1.3710 N.2   1 <1>  -0.7070 
 21 C       -5.8500    -9.4130    -0.7810 C.2   1 <1>  -0.1500 
 22 N       -4.8350   -10.0070     1.0340 N.pl3 1 <1>   0.3000 
 23 C       -5.0060   -10.3310    -0.2660 C.2   1 <1>  -0.3320 
 24 C       -4.3410   -11.5140    -0.9440 C.3   1 <1>  -0.0600 
 25 H       -4.9080     2.4780     0.8790 H     1 <1>   0.1500 
 26 H       -0.9380    -0.1810    -0.3070 H     1 <1>   0.1500 
 27 H       -2.0650    -2.1810     0.4120 H     1 <1>   0.0800 
 28 H       -3.6510    -2.1220     1.1010 H     1 <1>   0.0800 
 29 H       -2.7880     3.6090     0.2910 H     1 <1>   0.1500 
 30 H       -0.8150     2.2630    -0.3000 H     1 <1>   0.1500 
 31 H       -2.9630    -2.0190    -1.8480 H     1 <1>   0.0800 
 32 H       -4.5760    -1.8240    -1.2500 H     1 <1>   0.0800 
 33 H       -5.8350    -3.1770     0.9430 H     1 <1>   0.0800 
 34 H       -6.5010    -2.9780    -0.6820 H     1 <1>   0.0800 
 35 H       -5.2530    -6.2380    -1.4110 H     1 <1>   0.0800 
 36 H       -4.1820    -6.3040    -0.0210 H     1 <1>   0.0800 
 37 H       -7.7850    -4.8870    -0.5300 H     1 <1>   0.0800 
 38 H       -5.8990    -6.1000     1.4970 H     1 <1>   0.0800 
 39 H       -7.2890    -4.5800     2.2370 H     1 <1>   0.4000 
 40 H       -7.4900    -7.3020    -0.7880 H     1 <1>   0.0800 
 41 H       -7.8460    -7.4630     0.9080 H     1 <1>   0.0800 
 42 H       -6.2260    -9.3340    -1.7850 H     1 <1>   0.1500 
 43 H       -4.2490   -10.5090     1.7110 H     1 <1>   0.2700 
 44 H       -4.6340   -11.5600    -1.9780 H     1 <1>   0.0800 
 45 H       -4.6330   -12.4310    -0.4640 H     1 <1>   0.0800 
 46 H       -3.2710   -11.4160    -0.8960 H     1 <1>   0.0800 
@<TRIPOS>BOND
  1   1   2  1   
  2   2   3  ar  
  3   2   4  ar  
  4   3   5  ar  
  5   3   6  1   
  6   4   7  ar  
  7   4  25  1   
  8   5   8  ar  
  9   5  26  1   
 10   6   9  1   
 11   6  27  1   
 12   6  28  1   
 13   7   8  ar  
 14   7  29  1   
 15   8  30  1   
 16   9  10  1   
 17   9  31  1   
 18   9  32  1   
 19  10  11  2   
 20  10  12  am  
 21  12  13  1   
 22  12  14  1   
 23  13  15  1   
 24  13  33  1   
 25  13  34  1   
 26  14  16  1   
 27  14  35  1   
 28  14  36  1   
 29  15  16  1   
 30  15  17  1   
 31  15  37  1   
 32  16  18  1   
 33  16  38  1   
 34  17  39  1   
 35  18  19  1   
 36  18  40  1   
 37  18  41  1   
 38  19  20  2   
 39  19  21  1   
 40  20  22  1   
 41  21  23  2   
 42  21  42  1   
 43  22  23  1   
 44  22  43  1   
 45  23  24  1   
 46  24  44  1   
 47  24  45  1   
 48  24  46  1   
@<TRIPOS>SUBSTRUCTURE
  1 ****  12 GROUP 4 **** **** 0

# MOE 2024.06 (io_trps.svl 2023.06)
