@<TRIPOS>MOLECULE
NONAME
32 34 1 0 0 
SMALL
USER_CHARGES


@<TRIPOS>ATOM
  1 O        0.7110     0.0160     1.4630 O.3   1 <1>  -0.0190 
  2 N        1.5890     0.9820     1.3830 N.2   1 <1>  -0.4100 
  3 C        1.1910    -0.9080     0.6700 C.2   1 <1>   0.3930 
  4 C        2.5020     0.5900     0.5790 C.2   1 <1>   0.5990 
  5 N        2.2890    -0.6280     0.0980 N.2   1 <1>  -0.5650 
  6 C        0.4070    -2.2030     0.5180 C.3   1 <1>  -0.0150 
  7 N        3.6270     1.3310     0.2110 N.pl3 1 <1>  -0.8210 
  8 C        0.4750    -3.0210    -0.7360 C.3   1 <1>  -0.2000 
  9 C       -0.7780    -2.2700    -0.3960 C.3   1 <1>  -0.2000 
 10 C        3.9480     2.4890     1.0940 C.3   1 <1>   0.3900 
 11 C        4.8120     0.5830    -0.3090 C.3   1 <1>   0.1290 
 12 C        5.0030     3.3940     0.4760 C.2   1 <1>  -0.1810 
 13 C        4.9660     4.1200    -0.6650 C.2   1 <1>  -0.3320 
 14 C        6.2610     3.6440     1.0130 C.2   1 <1>   0.1390 
 15 N        6.1570     4.7490    -0.7600 N.pl3 1 <1>   0.3000 
 16 C        3.8540     4.2470    -1.6920 C.3   1 <1>  -0.0600 
 17 N        6.9610     4.4540     0.2790 N.2   1 <1>  -0.7070 
 18 H        0.3450    -2.7390     1.4480 H     1 <1>   0.1000 
 19 H        0.4810    -4.0940    -0.6510 H     1 <1>   0.1000 
 20 H        1.0890    -2.6680    -1.5470 H     1 <1>   0.1000 
 21 H       -1.0300    -1.4020    -0.9820 H     1 <1>   0.1000 
 22 H       -1.6460    -2.8200    -0.0780 H     1 <1>   0.1000 
 23 H        4.2890     2.1250     2.0480 H     1 <1>   0.0800 
 24 H        3.0600     3.0760     1.2570 H     1 <1>   0.0800 
 25 H        4.5030    -0.1830    -0.9980 H     1 <1>   0.0800 
 26 H        5.3460     0.1270     0.5060 H     1 <1>   0.0800 
 27 H        5.4730     1.2480    -0.8370 H     1 <1>   0.0800 
 28 H        6.6290     3.2200     1.9320 H     1 <1>   0.1500 
 29 H        6.4490     5.3790    -1.5160 H     1 <1>   0.2700 
 30 H        3.0150     3.6350    -1.4110 H     1 <1>   0.0800 
 31 H        4.2000     3.9210    -2.6560 H     1 <1>   0.0800 
 32 H        3.5240     5.2680    -1.7610 H     1 <1>   0.0800 
@<TRIPOS>BOND
  1   1   2  1   
  2   1   3  1   
  3   2   4  2   
  4   3   5  2   
  5   3   6  1   
  6   4   5  1   
  7   4   7  1   
  8   6   8  1   
  9   6   9  1   
 10   6  18  1   
 11   7  10  1   
 12   7  11  1   
 13   8   9  1   
 14   8  19  1   
 15   8  20  1   
 16   9  21  1   
 17   9  22  1   
 18  10  12  1   
 19  10  23  1   
 20  10  24  1   
 21  11  25  1   
 22  11  26  1   
 23  11  27  1   
 24  12  13  2   
 25  12  14  1   
 26  13  15  1   
 27  13  16  1   
 28  14  17  2   
 29  14  28  1   
 30  15  17  1   
 31  15  29  1   
 32  16  30  1   
 33  16  31  1   
 34  16  32  1   
@<TRIPOS>SUBSTRUCTURE
  1 ****   7 GROUP 4 **** **** 0

# MOE 2024.06 (io_trps.svl 2023.06)
