@<TRIPOS>MOLECULE
NONAME
60 63 1 0 0 
SMALL
USER_CHARGES


@<TRIPOS>ATOM
  1 O       -0.7830     0.4440     1.1900 O.2   1 <1>  -0.5700 
  2 C       -1.6120     0.9460     0.4680 C.2   1 <1>   0.5690 
  3 N       -2.7720     0.2890     0.1880 N.am  1 <1>  -0.7300 
  4 C       -1.3150     2.3030    -0.2000 C.3   1 <1>   0.0610 
  5 C       -3.1510    -1.0270     0.7560 C.3   1 <1>   0.1400 
  6 C       -0.5280     3.2470     0.7540 C.3   1 <1>   0.2200 
  7 C       -2.5880     3.1670    -0.4770 C.3   1 <1>  -0.1600 
  8 C       -0.5450     1.9680    -1.5140 C.3   1 <1>  -0.1600 
  9 C       -2.6940    -2.1490    -0.1740 C.3   1 <1>  -0.0160 
 10 N       -0.9010     4.5590     0.2340 N.am  1 <1>  -0.6600 
 11 C       -1.2010     3.3690     2.1360 C.3   1 <1>  -0.1600 
 12 C       -2.3440     4.4530     0.3260 C.3   1 <1>   0.2200 
 13 C        0.0160     3.1300    -2.3510 C.3   1 <1>  -0.2400 
 14 C       -3.1060    -3.4980     0.3930 C.ar  1 <1>  -0.1430 
 15 C       -0.0730     5.6180     0.0000 C.2   1 <1>   0.5690 
 16 C       -2.4930     4.1490     1.8210 C.3   1 <1>  -0.1600 
 17 C       -2.3230    -4.1120     1.3580 C.ar  1 <1>  -0.1500 
 18 C       -4.2660    -4.1220    -0.0420 C.ar  1 <1>  -0.1500 
 19 O        1.1260     5.5100     0.1070 O.2   1 <1>  -0.5700 
 20 C       -0.6660     6.9620    -0.4290 C.3   1 <1>  -0.0190 
 21 C       -2.6950    -5.3370     1.8850 C.ar  1 <1>  -0.1500 
 22 C       -4.6380    -5.3480     0.4840 C.ar  1 <1>  -0.1500 
 23 C       -1.0060     6.9700    -1.9340 C.3   1 <1>  -0.1600 
 24 C        0.2320     8.1710    -0.1110 C.3   1 <1>  -0.1600 
 25 C       -3.8530    -5.9560     1.4480 C.ar  1 <1>  -0.1500 
 26 C       -1.1440     8.3920    -2.5000 C.3   1 <1>   0.1200 
 27 C       -0.4320     9.4910    -0.5460 C.3   1 <1>   0.1200 
 28 O       -1.4630     9.2690    -1.4670 O.3   1 <1>  -0.5600 
 29 H       -3.4150     0.6790    -0.5010 H     1 <1>   0.3700 
 30 H       -2.6870    -1.1510     1.7210 H     1 <1>   0.0800 
 31 H       -4.2180    -1.0680     0.8900 H     1 <1>   0.0800 
 32 H        0.5350     3.0700     0.7900 H     1 <1>   0.0800 
 33 H       -3.5050     2.7100    -0.1560 H     1 <1>   0.0800 
 34 H       -2.6860     3.4090    -1.5180 H     1 <1>   0.0800 
 35 H        0.2860     1.3320    -1.2580 H     1 <1>   0.0800 
 36 H       -1.1940     1.3870    -2.1450 H     1 <1>   0.0800 
 37 H       -3.1280    -2.0170    -1.1480 H     1 <1>   0.0800 
 38 H       -1.6230    -2.1160    -0.2720 H     1 <1>   0.0800 
 39 H       -1.3930     2.4270     2.6160 H     1 <1>   0.0800 
 40 H       -0.5640     3.9470     2.7820 H     1 <1>   0.0800 
 41 H       -2.8930     5.3120    -0.0200 H     1 <1>   0.0800 
 42 H        0.7940     3.6410    -1.8110 H     1 <1>   0.0800 
 43 H       -0.7490     3.8380    -2.6120 H     1 <1>   0.0800 
 44 H        0.4460     2.7480    -3.2590 H     1 <1>   0.0800 
 45 H       -2.5270     5.0650     2.3840 H     1 <1>   0.0800 
 46 H       -3.3780     3.5750     2.0290 H     1 <1>   0.0800 
 47 H       -1.4210    -3.6370     1.7040 H     1 <1>   0.1500 
 48 H       -4.8840    -3.6600    -0.7900 H     1 <1>   0.1500 
 49 H       -1.5760     7.1120     0.1230 H     1 <1>   0.0800 
 50 H       -2.0820    -5.8080     2.6330 H     1 <1>   0.1500 
 51 H       -5.5380    -5.8280     0.1430 H     1 <1>   0.1500 
 52 H       -1.9210     6.4300    -2.0970 H     1 <1>   0.0800 
 53 H       -0.2340     6.4630    -2.4850 H     1 <1>   0.0800 
 54 H        1.1700     8.0660    -0.6290 H     1 <1>   0.0800 
 55 H        0.4530     8.2060     0.9410 H     1 <1>   0.0800 
 56 H       -4.1410    -6.9080     1.8560 H     1 <1>   0.1500 
 57 H       -1.9300     8.4380    -3.2340 H     1 <1>   0.0800 
 58 H       -0.2230     8.7220    -2.9520 H     1 <1>   0.0800 
 59 H        0.2890    10.1540    -0.9930 H     1 <1>   0.0800 
 60 H       -0.8720     9.9830     0.3040 H     1 <1>   0.0800 
@<TRIPOS>BOND
  1   1   2  2   
  2   2   3  am  
  3   2   4  1   
  4   3   5  1   
  5   3  29  1   
  6   4   6  1   
  7   4   7  1   
  8   4   8  1   
  9   5   9  1   
 10   5  30  1   
 11   5  31  1   
 12   6  10  1   
 13   6  11  1   
 14   6  32  1   
 15   7  12  1   
 16   7  33  1   
 17   7  34  1   
 18   8  13  1   
 19   8  35  1   
 20   8  36  1   
 21   9  14  1   
 22   9  37  1   
 23   9  38  1   
 24  10  12  1   
 25  10  15  am  
 26  11  16  1   
 27  11  39  1   
 28  11  40  1   
 29  12  16  1   
 30  12  41  1   
 31  13  42  1   
 32  13  43  1   
 33  13  44  1   
 34  14  17  ar  
 35  14  18  ar  
 36  15  19  2   
 37  15  20  1   
 38  16  45  1   
 39  16  46  1   
 40  17  21  ar  
 41  17  47  1   
 42  18  22  ar  
 43  18  48  1   
 44  20  23  1   
 45  20  24  1   
 46  20  49  1   
 47  21  25  ar  
 48  21  50  1   
 49  22  25  ar  
 50  22  51  1   
 51  23  26  1   
 52  23  52  1   
 53  23  53  1   
 54  24  27  1   
 55  24  54  1   
 56  24  55  1   
 57  25  56  1   
 58  26  28  1   
 59  26  57  1   
 60  26  58  1   
 61  27  28  1   
 62  27  59  1   
 63  27  60  1   
@<TRIPOS>SUBSTRUCTURE
  1 ****   4 GROUP 4 **** **** 0

# MOE 2024.06 (io_trps.svl 2023.06)
