@<TRIPOS>MOLECULE
NONAME
51 53 1 0 0 
SMALL
USER_CHARGES


@<TRIPOS>ATOM
  1 O        0.3260     0.1840    -0.2110 O.3   1 <1>  -0.5600 
  2 C        1.5970    -0.3770    -0.3990 C.3   1 <1>   0.3440 
  3 C        0.2620     1.5490    -0.5220 C.3   1 <1>   0.2000 
  4 C        1.5560    -1.8620    -0.0480 C.ar  1 <1>  -0.1440 
  5 C        2.6330     0.3600     0.4760 C.3   1 <1>   0.1100 
  6 C       -1.2020     2.0330    -0.4000 C.3   1 <1>  -0.0800 
  7 C        1.2450     2.3360     0.3740 C.3   1 <1>   0.1100 
  8 C        0.7620    -2.3360     0.9890 C.ar  1 <1>  -0.1500 
  9 C        2.3320    -2.7620    -0.7650 C.ar  1 <1>  -0.1500 
 10 N        2.6230     1.8210     0.2420 N.3   1 <1>  -0.8100 
 11 C       -1.8030     1.8260     1.0020 C.3   1 <1>  -0.2400 
 12 C       -2.0930     1.3390    -1.4420 C.3   1 <1>  -0.2400 
 13 C        0.7470    -3.6830     1.3050 C.ar  1 <1>  -0.1500 
 14 C        2.3190    -4.1100    -0.4500 C.ar  1 <1>  -0.1500 
 15 C        3.5890     2.5080     1.1290 C.3   1 <1>   0.2530 
 16 C        1.5270    -4.5710     0.5860 C.ar  1 <1>  -0.1500 
 17 C        3.6690     4.0190     0.9000 C.ar  1 <1>   0.1670 
 18 N        4.4240     4.4700    -0.0810 N.ar  1 <1>  -0.6200 
 19 C        2.9750     4.8840     1.7160 C.ar  1 <1>  -0.1500 
 20 C        4.4570     5.7840    -0.2370 C.ar  1 <1>   0.4770 
 21 C        3.0870     6.2290     1.4650 C.ar  1 <1>   0.1600 
 22 N        3.8270     6.6970     0.4860 N.ar  1 <1>  -0.6200 
 23 C        5.3210     6.3030    -1.3750 C.3   1 <1>  -0.0170 
 24 C        6.7730     6.5450    -0.9370 C.3   1 <1>  -0.2400 
 25 H        1.8570    -0.2620    -1.4370 H     1 <1>   0.0800 
 26 H        0.5730     1.6680    -1.5470 H     1 <1>   0.0800 
 27 H        3.6100    -0.0310     0.2550 H     1 <1>   0.0800 
 28 H        2.4160     0.1500     1.5090 H     1 <1>   0.0800 
 29 H       -1.2150     3.0880    -0.6160 H     1 <1>   0.0800 
 30 H        0.9310     2.2680     1.4000 H     1 <1>   0.0800 
 31 H        1.2200     3.3700     0.0770 H     1 <1>   0.0800 
 32 H        0.1490    -1.6510     1.5490 H     1 <1>   0.1500 
 33 H        2.9530    -2.4170    -1.5740 H     1 <1>   0.1500 
 34 H       -1.7740     0.7850     1.2710 H     1 <1>   0.0800 
 35 H       -2.8280     2.1520     1.0190 H     1 <1>   0.0800 
 36 H       -1.2650     2.3890     1.7420 H     1 <1>   0.0800 
 37 H       -2.1270     0.2790    -1.2600 H     1 <1>   0.0800 
 38 H       -1.7070     1.5020    -2.4330 H     1 <1>   0.0800 
 39 H       -3.0950     1.7270    -1.4000 H     1 <1>   0.0800 
 40 H        0.1270    -4.0390     2.1090 H     1 <1>   0.1500 
 41 H        2.9240    -4.8000    -1.0110 H     1 <1>   0.1500 
 42 H        3.3280     2.3190     2.1550 H     1 <1>   0.0800 
 43 H        4.5690     2.0980     0.9590 H     1 <1>   0.0800 
 44 H        1.5150    -5.6190     0.8310 H     1 <1>   0.1500 
 45 H        2.3630     4.5250     2.5210 H     1 <1>   0.1500 
 46 H        2.5600     6.9400     2.0790 H     1 <1>   0.1500 
 47 H        5.3020     5.5880    -2.1780 H     1 <1>   0.0800 
 48 H        4.8980     7.2200    -1.7430 H     1 <1>   0.0800 
 49 H        7.2080     5.6280    -0.5820 H     1 <1>   0.0800 
 50 H        6.8010     7.2710    -0.1430 H     1 <1>   0.0800 
 51 H        7.3540     6.9100    -1.7640 H     1 <1>   0.0800 
@<TRIPOS>BOND
  1   1   2  1   
  2   1   3  1   
  3   2   4  1   
  4   2   5  1   
  5   2  25  1   
  6   3   6  1   
  7   3   7  1   
  8   3  26  1   
  9   4   8  ar  
 10   4   9  ar  
 11   5  10  1   
 12   5  27  1   
 13   5  28  1   
 14   6  11  1   
 15   6  12  1   
 16   6  29  1   
 17   7  10  1   
 18   7  30  1   
 19   7  31  1   
 20   8  13  ar  
 21   8  32  1   
 22   9  14  ar  
 23   9  33  1   
 24  10  15  1   
 25  11  34  1   
 26  11  35  1   
 27  11  36  1   
 28  12  37  1   
 29  12  38  1   
 30  12  39  1   
 31  13  16  ar  
 32  13  40  1   
 33  14  16  ar  
 34  14  41  1   
 35  15  17  1   
 36  15  42  1   
 37  15  43  1   
 38  16  44  1   
 39  17  18  ar  
 40  17  19  ar  
 41  18  20  ar  
 42  19  21  ar  
 43  19  45  1   
 44  20  22  ar  
 45  20  23  1   
 46  21  22  ar  
 47  21  46  1   
 48  23  24  1   
 49  23  47  1   
 50  23  48  1   
 51  24  49  1   
 52  24  50  1   
 53  24  51  1   
@<TRIPOS>SUBSTRUCTURE
  1 ****  10 GROUP 4 **** **** 0

# MOE 2024.06 (io_trps.svl 2023.06)
