@<TRIPOS>MOLECULE
NONAME
63 66 1 0 0 
SMALL
USER_CHARGES


@<TRIPOS>ATOM
  1 O        3.1140     0.7120     2.7260 O.2   1 <1>  -0.5700 
  2 C        3.1090    -0.2710     2.0240 C.2   1 <1>   0.5690 
  3 N        2.0760    -0.5940     1.1870 N.am  1 <1>  -0.6600 
  4 C        4.2990    -1.2070     2.0630 C.3   1 <1>  -0.0990 
  5 C        2.1340    -1.8300     0.3670 C.3   1 <1>   0.1400 
  6 C        0.8380     0.2240     1.0860 C.3   1 <1>   0.0600 
  7 C        4.7160    -1.6040     0.6360 C.3   1 <1>  -0.0800 
  8 C        3.5250    -1.9770    -0.2790 C.3   1 <1>  -0.0800 
  9 C        5.6880    -2.7900     0.5990 C.3   1 <1>  -0.1600 
 10 C        3.8050    -3.4020    -0.7750 C.3   1 <1>  -0.1600 
 11 C        5.3240    -3.5420    -0.6750 C.3   1 <1>   0.2200 
 12 N        5.8210    -4.9530    -0.6700 N.am  1 <1>  -0.6600 
 13 C        6.9260    -5.3490    -1.3960 C.2   1 <1>   0.5690 
 14 C        5.1160    -5.9420     0.2050 C.3   1 <1>   0.0600 
 15 O        7.3250    -6.4920    -1.3600 O.2   1 <1>  -0.5700 
 16 C        7.7130    -4.3800    -2.3000 C.3   1 <1>   0.1710 
 17 N        8.3270    -3.2090    -1.6130 N.3   1 <1>  -0.8100 
 18 C        8.9970    -2.3150    -2.5820 C.3   1 <1>   0.1100 
 19 C        9.3100    -3.6530    -0.5950 C.3   1 <1>   0.1100 
 20 C        9.6290    -1.0910    -1.8920 C.3   1 <1>   0.2090 
 21 C        9.9640    -2.4660     0.1370 C.3   1 <1>   0.2090 
 22 N       10.5850    -1.5050    -0.8230 N.pl3 1 <1>  -0.8380 
 23 C       11.3250    -0.4780    -0.2480 C.ar  1 <1>   0.1000 
 24 C       10.7230     0.5170     0.5160 C.ar  1 <1>  -0.1500 
 25 C       12.6980    -0.4370    -0.4350 C.ar  1 <1>  -0.1500 
 26 C       11.4740     1.5330     1.0830 C.ar  1 <1>  -0.1440 
 27 C       13.4570     0.5730     0.1270 C.ar  1 <1>  -0.1500 
 28 C       12.8450     1.5580     0.8850 C.ar  1 <1>  -0.1500 
 29 C       10.8120     2.6170     1.9160 C.3   1 <1>  -0.0970 
 30 H        5.1190    -0.7280     2.5670 H     1 <1>   0.0800 
 31 H        4.0140    -2.0740     2.6300 H     1 <1>   0.0800 
 32 H        1.9310    -2.6690     1.0120 H     1 <1>   0.0800 
 33 H        1.3790    -1.8040    -0.4000 H     1 <1>   0.0800 
 34 H        0.7170     0.5760     0.0770 H     1 <1>   0.0800 
 35 H        0.8940     1.0750     1.7430 H     1 <1>   0.0800 
 36 H       -0.0140    -0.3700     1.3640 H     1 <1>   0.0800 
 37 H        5.2050    -0.7530     0.1900 H     1 <1>   0.0800 
 38 H        3.5560    -1.3190    -1.1320 H     1 <1>   0.0800 
 39 H        5.5400    -3.4200     1.4570 H     1 <1>   0.0800 
 40 H        6.7090    -2.4570     0.5730 H     1 <1>   0.0800 
 41 H        3.4640    -3.5470    -1.7840 H     1 <1>   0.0800 
 42 H        3.3150    -4.1030    -0.1250 H     1 <1>   0.0800 
 43 H        5.7430    -3.0020    -1.5050 H     1 <1>   0.0800 
 44 H        4.8190    -5.4870     1.1320 H     1 <1>   0.0800 
 45 H        5.7590    -6.7750     0.4340 H     1 <1>   0.0800 
 46 H        4.2450    -6.3150    -0.3040 H     1 <1>   0.0800 
 47 H        7.0400    -4.0290    -3.0600 H     1 <1>   0.0800 
 48 H        8.4860    -4.9430    -2.7930 H     1 <1>   0.0800 
 49 H        9.7710    -2.8520    -3.1040 H     1 <1>   0.0800 
 50 H        8.2790    -1.9700    -3.3050 H     1 <1>   0.0800 
 51 H        8.8200    -4.2730     0.1350 H     1 <1>   0.0800 
 52 H       10.0840    -4.2380    -1.0630 H     1 <1>   0.0800 
 53 H        8.8490    -0.4860    -1.4640 H     1 <1>   0.0800 
 54 H       10.1530    -0.4990    -2.6210 H     1 <1>   0.0800 
 55 H       10.7220    -2.8330     0.8060 H     1 <1>   0.0800 
 56 H        9.2180    -1.9590     0.7220 H     1 <1>   0.0800 
 57 H        9.6610     0.4840     0.6600 H     1 <1>   0.1500 
 58 H       13.1590    -1.2070    -1.0240 H     1 <1>   0.1500 
 59 H       14.5210     0.5940    -0.0260 H     1 <1>   0.1500 
 60 H       13.4400     2.3410     1.3190 H     1 <1>   0.1500 
 61 H       11.2740     2.6660     2.8860 H     1 <1>   0.0800 
 62 H        9.7640     2.4160     2.0450 H     1 <1>   0.0800 
 63 H       10.9230     3.5680     1.4280 H     1 <1>   0.0800 
@<TRIPOS>BOND
  1   1   2  2   
  2   2   3  am  
  3   2   4  1   
  4   3   5  1   
  5   3   6  1   
  6   4   7  1   
  7   4  30  1   
  8   4  31  1   
  9   5   8  1   
 10   5  32  1   
 11   5  33  1   
 12   6  34  1   
 13   6  35  1   
 14   6  36  1   
 15   7   8  1   
 16   7   9  1   
 17   7  37  1   
 18   8  10  1   
 19   8  38  1   
 20   9  11  1   
 21   9  39  1   
 22   9  40  1   
 23  10  11  1   
 24  10  41  1   
 25  10  42  1   
 26  11  12  1   
 27  11  43  1   
 28  12  13  am  
 29  12  14  1   
 30  13  15  2   
 31  13  16  1   
 32  14  44  1   
 33  14  45  1   
 34  14  46  1   
 35  16  17  1   
 36  16  47  1   
 37  16  48  1   
 38  17  18  1   
 39  17  19  1   
 40  18  20  1   
 41  18  49  1   
 42  18  50  1   
 43  19  21  1   
 44  19  51  1   
 45  19  52  1   
 46  20  22  1   
 47  20  53  1   
 48  20  54  1   
 49  21  22  1   
 50  21  55  1   
 51  21  56  1   
 52  22  23  1   
 53  23  24  ar  
 54  23  25  ar  
 55  24  26  ar  
 56  24  57  1   
 57  25  27  ar  
 58  25  58  1   
 59  26  28  ar  
 60  26  29  1   
 61  27  28  ar  
 62  27  59  1   
 63  28  60  1   
 64  29  61  1   
 65  29  62  1   
 66  29  63  1   
@<TRIPOS>SUBSTRUCTURE
  1 ****   9 GROUP 4 **** **** 0

# MOE 2024.06 (io_trps.svl 2023.06)
