@<TRIPOS>MOLECULE
NONAME
47 49 1 0 0 
SMALL
USER_CHARGES


@<TRIPOS>ATOM
  1 F        0.1960    -1.1130    -0.3530 F     1 <1>  -0.3400 
  2 C        0.1780    -2.4260    -0.5300 C.3   1 <1>   0.8800 
  3 F       -0.0660    -2.6170    -1.8210 F     1 <1>  -0.3400 
  4 O       -0.8990    -2.9500     0.2140 O.3   1 <1>  -0.3630 
  5 C       -1.0530    -4.2850     0.3940 C.ar  1 <1>   0.0820 
  6 C       -0.3170    -5.2580    -0.2770 C.ar  1 <1>  -0.1500 
  7 C       -2.0130    -4.6750     1.3130 C.ar  1 <1>  -0.1500 
  8 C       -0.5510    -6.5990    -0.0250 C.ar  1 <1>  -0.1500 
  9 C       -2.2460    -6.0140     1.5650 C.ar  1 <1>  -0.1500 
 10 C       -1.5200    -6.9860     0.8900 C.ar  1 <1>  -0.1440 
 11 C       -1.7810    -8.4580     1.1410 C.3   1 <1>   0.4870 
 12 N       -2.6350    -8.9650     0.0360 N.4   1 <1>  -0.9590 
 13 C       -2.6240   -10.4630    -0.0100 C.3   1 <1>   0.5660 
 14 C       -4.0310    -8.4190     0.0980 C.3   1 <1>   0.3430 
 15 C       -1.2100   -10.9020    -0.3680 C.ar  1 <1>  -0.1430 
 16 C       -3.6660   -11.0610    -0.9940 C.3   1 <1>   0.2000 
 17 C       -4.9340    -9.0570    -0.9710 C.3   1 <1>   0.1200 
 18 C       -0.5990   -10.5040    -1.5520 C.ar  1 <1>  -0.1500 
 19 C       -0.5120   -11.7120     0.5170 C.ar  1 <1>  -0.1500 
 20 O       -4.9240   -10.4480    -0.8400 O.3   1 <1>  -0.5600 
 21 C       -3.8260   -12.5710    -0.7520 C.3   1 <1>   0.1200 
 22 C        0.6950   -10.9020    -1.8360 C.ar  1 <1>  -0.1500 
 23 C        0.7820   -12.1080     0.2310 C.ar  1 <1>  -0.1500 
 24 O       -3.9700   -12.8280     0.6100 O.3   1 <1>  -0.6800 
 25 C        1.3860   -11.7020    -0.9440 C.ar  1 <1>  -0.1500 
 26 H        1.1290    -2.8480    -0.2580 H     1 <1>   0.0800 
 27 H        0.4340    -4.9980    -1.0010 H     1 <1>   0.1500 
 28 H       -2.5760    -3.9170     1.8320 H     1 <1>   0.1500 
 29 H        0.0360    -7.3360    -0.5500 H     1 <1>   0.1500 
 30 H       -2.9930    -6.2820     2.2930 H     1 <1>   0.1500 
 31 H       -2.2680    -8.5980     2.0920 H     1 <1>   0.0800 
 32 H       -0.8380    -8.9810     1.1590 H     1 <1>   0.0800 
 33 H       -2.1980    -8.6400    -0.8300 H     1 <1>   0.4500 
 34 H       -2.8620   -10.8400     0.9720 H     1 <1>   0.0800 
 35 H       -4.4610    -8.6210     1.0660 H     1 <1>   0.0800 
 36 H       -4.0140    -7.3500    -0.0410 H     1 <1>   0.0800 
 37 H       -3.3550   -10.9060    -2.0120 H     1 <1>   0.0800 
 38 H       -4.6140    -8.7950    -1.9650 H     1 <1>   0.0800 
 39 H       -5.9510    -8.7260    -0.8410 H     1 <1>   0.0800 
 40 H       -1.1110    -9.8900    -2.2730 H     1 <1>   0.1500 
 41 H       -0.9670   -12.0500     1.4350 H     1 <1>   0.1500 
 42 H       -2.9570   -13.1060    -1.0970 H     1 <1>   0.0800 
 43 H       -4.6960   -12.9400    -1.2710 H     1 <1>   0.0800 
 44 H        1.1710   -10.5970    -2.7540 H     1 <1>   0.1500 
 45 H        1.3210   -12.7370     0.9200 H     1 <1>   0.1500 
 46 H       -4.3110   -13.7360     0.7550 H     1 <1>   0.4000 
 47 H        2.3940   -12.0120    -1.1660 H     1 <1>   0.1500 
@<TRIPOS>BOND
  1   1   2  1   
  2   2   3  1   
  3   2   4  1   
  4   2  26  1   
  5   4   5  1   
  6   5   6  ar  
  7   5   7  ar  
  8   6   8  ar  
  9   6  27  1   
 10   7   9  ar  
 11   7  28  1   
 12   8  10  ar  
 13   8  29  1   
 14   9  10  ar  
 15   9  30  1   
 16  10  11  1   
 17  11  12  1   
 18  11  31  1   
 19  11  32  1   
 20  12  13  1   
 21  12  14  1   
 22  12  33  1   
 23  13  15  1   
 24  13  16  1   
 25  13  34  1   
 26  14  17  1   
 27  14  35  1   
 28  14  36  1   
 29  15  18  ar  
 30  15  19  ar  
 31  16  20  1   
 32  16  21  1   
 33  16  37  1   
 34  17  20  1   
 35  17  38  1   
 36  17  39  1   
 37  18  22  ar  
 38  18  40  1   
 39  19  23  ar  
 40  19  41  1   
 41  21  24  1   
 42  21  42  1   
 43  21  43  1   
 44  22  25  ar  
 45  22  44  1   
 46  23  25  ar  
 47  23  45  1   
 48  24  46  1   
 49  25  47  1   
@<TRIPOS>SUBSTRUCTURE
  1 ****  12 GROUP 4 **** **** 0

# MOE 2024.06 (io_trps.svl 2023.06)
