@<TRIPOS>MOLECULE
NONAME
44 46 1 0 0 
SMALL
USER_CHARGES


@<TRIPOS>ATOM
  1 F        0.2910    -0.5150     1.1140 F     1 <1>  -0.1900 
  2 C        0.2660    -1.8110     0.9400 C.ar  1 <1>   0.1900 
  3 C        0.9860    -2.4350    -0.0860 C.ar  1 <1>   0.0820 
  4 C       -0.5140    -2.5340     1.8220 C.ar  1 <1>  -0.1500 
  5 O        1.7890    -1.8330    -1.0080 O.3   1 <1>  -0.3630 
  6 C        0.8860    -3.8130    -0.1940 C.ar  1 <1>  -0.1500 
  7 C       -0.5910    -3.9090     1.6840 C.ar  1 <1>  -0.1500 
  8 C        2.1180    -0.4630    -0.9640 C.3   1 <1>   0.0400 
  9 C        0.0990    -4.5750     0.6690 C.ar  1 <1>   0.0860 
 10 C        0.0130    -6.0150     0.5140 C.2   1 <1>   0.5440 
 11 O        1.0300    -6.6710     0.4000 O.2   1 <1>  -0.5700 
 12 N       -1.1990    -6.6650     0.4770 N.am  1 <1>  -0.6600 
 13 C       -2.4950    -6.0220     0.1400 C.3   1 <1>   0.1400 
 14 C       -1.2970    -8.1390     0.3260 C.3   1 <1>   0.1400 
 15 C       -3.3270    -7.1340    -0.4950 C.3   1 <1>   0.2000 
 16 C       -2.7810    -8.4290     0.0980 C.3   1 <1>  -0.0800 
 17 O       -4.6740    -6.9970    -0.1980 O.3   1 <1>  -0.6800 
 18 C       -3.0390    -9.6580    -0.7860 C.3   1 <1>   0.0210 
 19 C       -2.4000   -10.8960    -0.1880 C.2   1 <1>   0.1080 
 20 N       -2.7640   -11.3940     0.9520 N.2   1 <1>  -0.7070 
 21 C       -1.3650   -11.6190    -0.7720 C.2   1 <1>  -0.1500 
 22 N       -1.9640   -12.4620     1.1280 N.pl3 1 <1>   0.3000 
 23 C       -1.1060   -12.6180     0.0980 C.2   1 <1>  -0.3320 
 24 C       -0.0750   -13.7280     0.0070 C.3   1 <1>  -0.0600 
 25 H       -1.0490    -2.0250     2.6030 H     1 <1>   0.1500 
 26 H        1.4370    -4.3140    -0.9710 H     1 <1>   0.1500 
 27 H       -1.1870    -4.4820     2.3730 H     1 <1>   0.1500 
 28 H        2.8210    -0.2620    -1.7530 H     1 <1>   0.0800 
 29 H        2.5670    -0.2400    -0.0120 H     1 <1>   0.0800 
 30 H        1.2260     0.1180    -1.1160 H     1 <1>   0.0800 
 31 H       -2.9590    -5.6710     1.0450 H     1 <1>   0.0800 
 32 H       -2.3530    -5.2080    -0.5500 H     1 <1>   0.0800 
 33 H       -0.7080    -8.4460    -0.5230 H     1 <1>   0.0800 
 34 H       -0.9300    -8.6390     1.2070 H     1 <1>   0.0800 
 35 H       -3.2090    -7.1080    -1.5650 H     1 <1>   0.0800 
 36 H       -3.2190    -8.5960     1.0670 H     1 <1>   0.0800 
 37 H       -4.8370    -7.2160     0.7400 H     1 <1>   0.4000 
 38 H       -2.6460    -9.4950    -1.7730 H     1 <1>   0.0800 
 39 H       -4.0980    -9.8240    -0.8700 H     1 <1>   0.0800 
 40 H       -0.8910   -11.4060    -1.7130 H     1 <1>   0.1500 
 41 H       -2.0270   -13.0610     1.9600 H     1 <1>   0.2700 
 42 H        0.4860   -13.6370    -0.9060 H     1 <1>   0.0800 
 43 H       -0.5600   -14.6880     0.0170 H     1 <1>   0.0800 
 44 H        0.6080   -13.6700     0.8350 H     1 <1>   0.0800 
@<TRIPOS>BOND
  1   1   2  1   
  2   2   3  ar  
  3   2   4  ar  
  4   3   5  1   
  5   3   6  ar  
  6   4   7  ar  
  7   4  25  1   
  8   5   8  1   
  9   6   9  ar  
 10   6  26  1   
 11   7   9  ar  
 12   7  27  1   
 13   8  28  1   
 14   8  29  1   
 15   8  30  1   
 16   9  10  1   
 17  10  11  2   
 18  10  12  am  
 19  12  13  1   
 20  12  14  1   
 21  13  15  1   
 22  13  31  1   
 23  13  32  1   
 24  14  16  1   
 25  14  33  1   
 26  14  34  1   
 27  15  16  1   
 28  15  17  1   
 29  15  35  1   
 30  16  18  1   
 31  16  36  1   
 32  17  37  1   
 33  18  19  1   
 34  18  38  1   
 35  18  39  1   
 36  19  20  2   
 37  19  21  1   
 38  20  22  1   
 39  21  23  2   
 40  21  40  1   
 41  22  23  1   
 42  22  41  1   
 43  23  24  1   
 44  24  42  1   
 45  24  43  1   
 46  24  44  1   
@<TRIPOS>SUBSTRUCTURE
  1 ****  12 GROUP 4 **** **** 0

# MOE 2024.06 (io_trps.svl 2023.06)
