@<TRIPOS>MOLECULE
NONAME
50 52 1 0 0 
SMALL
USER_CHARGES


@<TRIPOS>ATOM
  1 O        1.0220    -3.1090    -1.9960 O.3   1 <1>  -0.3630 
  2 C        0.5400    -3.2660    -0.7490 C.ar  1 <1>   0.7020 
  3 C        2.2700    -2.4910    -2.2440 C.3   1 <1>   0.0400 
  4 N        1.2770    -2.8260     0.2610 N.ar  1 <1>  -0.6200 
  5 N       -0.6380    -3.8600    -0.7010 N.ar  1 <1>  -0.6200 
  6 C        0.7450    -3.0240     1.4520 C.ar  1 <1>   0.3930 
  7 C       -1.1500    -4.0380     0.4990 C.ar  1 <1>   0.4100 
  8 O        1.4130    -2.6200     2.5510 O.3   1 <1>  -0.3630 
  9 C       -0.4680    -3.6300     1.6230 C.ar  1 <1>  -0.1500 
 10 N       -2.3870    -4.6570     0.5740 N.pl3 1 <1>  -0.8380 
 11 C        2.6760    -1.9920     2.4500 C.3   1 <1>   0.0400 
 12 C       -2.8630    -5.4470    -0.5970 C.3   1 <1>   0.2090 
 13 C       -3.4710    -4.0350     1.3850 C.3   1 <1>   0.2090 
 14 C       -3.8740    -6.5330    -0.1630 C.3   1 <1>   0.4230 
 15 C       -4.4400    -5.1310     1.8440 C.3   1 <1>  -0.1600 
 16 N       -4.3170    -7.4570    -1.2970 N.4   1 <1>  -0.9590 
 17 C       -5.0510    -5.9510     0.6730 C.3   1 <1>   0.0000 
 18 C       -5.5780    -8.2170    -1.0130 C.3   1 <1>   0.3430 
 19 C       -4.4000    -6.8130    -2.6500 C.3   1 <1>   0.2630 
 20 C       -5.8840    -7.1260     1.2690 C.3   1 <1>  -0.1600 
 21 C       -5.9460    -5.0390    -0.2150 C.3   1 <1>   0.1200 
 22 C       -5.7490    -8.4470     0.4870 C.3   1 <1>  -0.1600 
 23 O       -6.8980    -4.3680     0.5370 O.3   1 <1>  -0.6800 
 24 H        2.4360    -2.4800    -3.3060 H     1 <1>   0.0800 
 25 H        3.0430    -3.0570    -1.7550 H     1 <1>   0.0800 
 26 H        2.2420    -1.4840    -1.8630 H     1 <1>   0.0800 
 27 H       -0.8620    -3.7860     2.6050 H     1 <1>   0.1500 
 28 H        3.0190    -1.7590     3.4420 H     1 <1>   0.0800 
 29 H        2.5710    -1.0890     1.8740 H     1 <1>   0.0800 
 30 H        3.3630    -2.6660     1.9700 H     1 <1>   0.0800 
 31 H       -3.2980    -4.7660    -1.3060 H     1 <1>   0.0800 
 32 H       -2.0190    -5.9310    -1.0580 H     1 <1>   0.0800 
 33 H       -3.0610    -3.5360     2.2460 H     1 <1>   0.0800 
 34 H       -3.9860    -3.2950     0.7940 H     1 <1>   0.0800 
 35 H       -3.3250    -7.1500     0.5280 H     1 <1>   0.0800 
 36 H       -3.8940    -5.7810     2.5060 H     1 <1>   0.0800 
 37 H       -5.2180    -4.6750     2.4320 H     1 <1>   0.0800 
 38 H       -3.5690    -8.1640    -1.3550 H     1 <1>   0.4500 
 39 H       -6.4290    -7.6610    -1.3720 H     1 <1>   0.0800 
 40 H       -5.5590    -9.1640    -1.5290 H     1 <1>   0.0800 
 41 H       -5.1360    -6.0250    -2.6510 H     1 <1>   0.0800 
 42 H       -4.6780    -7.5420    -3.3950 H     1 <1>   0.0800 
 43 H       -3.4470    -6.3940    -2.9310 H     1 <1>   0.0800 
 44 H       -5.5830    -7.3240     2.2840 H     1 <1>   0.0800 
 45 H       -6.9240    -6.8540     1.3180 H     1 <1>   0.0800 
 46 H       -6.4700    -5.6030    -0.9640 H     1 <1>   0.0800 
 47 H       -5.3610    -4.2830    -0.7090 H     1 <1>   0.0800 
 48 H       -6.6270    -9.0470     0.6560 H     1 <1>   0.0800 
 49 H       -4.9080    -9.0110     0.8550 H     1 <1>   0.0800 
 50 H       -7.5500    -4.9740     0.9410 H     1 <1>   0.4000 
@<TRIPOS>BOND
  1   1   2  1   
  2   1   3  1   
  3   2   4  ar  
  4   2   5  ar  
  5   3  24  1   
  6   3  25  1   
  7   3  26  1   
  8   4   6  ar  
  9   5   7  ar  
 10   6   8  1   
 11   6   9  ar  
 12   7   9  ar  
 13   7  10  1   
 14   8  11  1   
 15   9  27  1   
 16  10  12  1   
 17  10  13  1   
 18  11  28  1   
 19  11  29  1   
 20  11  30  1   
 21  12  14  1   
 22  12  31  1   
 23  12  32  1   
 24  13  15  1   
 25  13  33  1   
 26  13  34  1   
 27  14  16  1   
 28  14  17  1   
 29  14  35  1   
 30  15  17  1   
 31  15  36  1   
 32  15  37  1   
 33  16  18  1   
 34  16  19  1   
 35  16  38  1   
 36  17  20  1   
 37  17  21  1   
 38  18  22  1   
 39  18  39  1   
 40  18  40  1   
 41  19  41  1   
 42  19  42  1   
 43  19  43  1   
 44  20  22  1   
 45  20  44  1   
 46  20  45  1   
 47  21  23  1   
 48  21  46  1   
 49  21  47  1   
 50  22  48  1   
 51  22  49  1   
 52  23  50  1   
@<TRIPOS>SUBSTRUCTURE
  1 ****  10 GROUP 4 **** **** 0

# MOE 2024.06 (io_trps.svl 2023.06)
