@<TRIPOS>MOLECULE
NONAME
56 60 1 0 0 
SMALL
USER_CHARGES


@<TRIPOS>ATOM
  1 O       -0.2860     0.0420     0.0340 O.2   1 <1>  -0.5700 
  2 C       -1.3420     0.6440     0.0540 C.2   1 <1>   0.5440 
  3 N       -2.5090    -0.0700    -0.1090 N.am  1 <1>  -0.6600 
  4 C       -1.3380     2.0720     0.2280 C.ar  1 <1>   0.0860 
  5 C       -3.7450     0.4740    -0.7330 C.3   1 <1>   0.1400 
  6 C       -2.5050    -1.5530    -0.1830 C.3   1 <1>   0.1400 
  7 C       -0.3830     2.8780    -0.3600 C.ar  1 <1>   0.1600 
  8 C       -2.2710     2.7420     0.9950 C.ar  1 <1>   0.1600 
  9 C       -4.4080    -0.7270    -1.4080 C.3   1 <1>   0.2000 
 10 C       -3.9100    -1.9480    -0.6410 C.3   1 <1>  -0.0800 
 11 N       -0.3700     4.1830    -0.2400 N.ar  1 <1>  -0.6200 
 12 N       -2.2900     4.0440     1.1340 N.ar  1 <1>  -0.6200 
 13 O       -5.7900    -0.6540    -1.3390 O.3   1 <1>  -0.6800 
 14 C       -3.9400    -3.2370    -1.4800 C.3   1 <1>  -0.0170 
 15 C       -1.3310     4.7280     0.5060 C.ar  1 <1>   0.7200 
 16 C       -3.4720    -4.4350    -0.6600 C.ar  1 <1>  -0.1430 
 17 N       -1.3340     6.0940     0.6410 N.pl3 1 <1>  -0.8380 
 18 C       -4.3090    -5.0820     0.2800 C.ar  1 <1>   0.0000 
 19 C       -2.2050    -4.9150    -0.8110 C.ar  1 <1>  -0.1500 
 20 C       -2.3190     6.8420     1.4840 C.3   1 <1>   0.2090 
 21 C       -0.2830     6.9840     0.0530 C.3   1 <1>   0.2090 
 22 C       -3.7640    -6.1690     1.0060 C.ar  1 <1>   0.3100 
 23 C       -5.6510    -4.7170     0.5420 C.ar  1 <1>  -0.1500 
 24 C       -1.7670    -6.0030    -0.0470 C.ar  1 <1>   0.1600 
 25 C       -2.8310     8.0930     0.7490 C.3   1 <1>   0.1200 
 26 C       -0.9180     8.2270    -0.5960 C.3   1 <1>   0.1200 
 27 N       -2.4950    -6.6170     0.8310 N.ar  1 <1>  -0.6200 
 28 C       -4.5660    -6.8230     1.9560 C.ar  1 <1>  -0.1500 
 29 C       -6.4070    -5.3780     1.4730 C.ar  1 <1>  -0.1500 
 30 O       -1.7690     8.8880     0.3000 O.3   1 <1>  -0.5600 
 31 C       -5.8590    -6.4420     2.1920 C.ar  1 <1>  -0.1500 
 32 H       -4.3830     0.8760     0.0340 H     1 <1>   0.0800 
 33 H       -3.5080     1.2340    -1.4580 H     1 <1>   0.0800 
 34 H       -1.7650    -1.8670    -0.9000 H     1 <1>   0.0800 
 35 H       -2.2680    -1.9820     0.7770 H     1 <1>   0.0800 
 36 H        0.3910     2.4160    -0.9510 H     1 <1>   0.1500 
 37 H       -3.0240     2.1740     1.5110 H     1 <1>   0.1500 
 38 H       -4.1190    -0.7690    -2.4440 H     1 <1>   0.0800 
 39 H       -4.5040    -2.0770     0.2470 H     1 <1>   0.0800 
 40 H       -6.0880    -0.6340    -0.4090 H     1 <1>   0.4000 
 41 H       -3.3050    -3.1170    -2.3400 H     1 <1>   0.0800 
 42 H       -4.9340    -3.4130    -1.8530 H     1 <1>   0.0800 
 43 H       -1.5130    -4.4780    -1.5080 H     1 <1>   0.1500 
 44 H       -3.1630     6.2270     1.7390 H     1 <1>   0.0800 
 45 H       -1.8420     7.1410     2.4010 H     1 <1>   0.0800 
 46 H        0.3890     7.2970     0.8320 H     1 <1>   0.0800 
 47 H        0.2960     6.4690    -0.6930 H     1 <1>   0.0800 
 48 H       -6.0950    -3.9060    -0.0020 H     1 <1>   0.1500 
 49 H       -0.7580    -6.3500    -0.1980 H     1 <1>   0.1500 
 50 H       -3.4310     8.6910     1.4110 H     1 <1>   0.0800 
 51 H       -3.4300     7.8080    -0.0980 H     1 <1>   0.0800 
 52 H       -1.4860     7.9440    -1.4650 H     1 <1>   0.0800 
 53 H       -0.1520     8.9200    -0.8940 H     1 <1>   0.0800 
 54 H       -4.1240    -7.6400     2.4950 H     1 <1>   0.1500 
 55 H       -7.4270    -5.0900     1.6620 H     1 <1>   0.1500 
 56 H       -6.4620    -6.9530     2.9220 H     1 <1>   0.1500 
@<TRIPOS>BOND
  1   1   2  2   
  2   2   3  am  
  3   2   4  1   
  4   3   5  1   
  5   3   6  1   
  6   4   7  ar  
  7   4   8  ar  
  8   5   9  1   
  9   5  32  1   
 10   5  33  1   
 11   6  10  1   
 12   6  34  1   
 13   6  35  1   
 14   7  11  ar  
 15   7  36  1   
 16   8  12  ar  
 17   8  37  1   
 18   9  10  1   
 19   9  13  1   
 20   9  38  1   
 21  10  14  1   
 22  10  39  1   
 23  11  15  ar  
 24  12  15  ar  
 25  13  40  1   
 26  14  16  1   
 27  14  41  1   
 28  14  42  1   
 29  15  17  1   
 30  16  18  ar  
 31  16  19  ar  
 32  17  20  1   
 33  17  21  1   
 34  18  22  ar  
 35  18  23  ar  
 36  19  24  ar  
 37  19  43  1   
 38  20  25  1   
 39  20  44  1   
 40  20  45  1   
 41  21  26  1   
 42  21  46  1   
 43  21  47  1   
 44  22  27  ar  
 45  22  28  ar  
 46  23  29  ar  
 47  23  48  1   
 48  24  27  ar  
 49  24  49  1   
 50  25  30  1   
 51  25  50  1   
 52  25  51  1   
 53  26  30  1   
 54  26  52  1   
 55  26  53  1   
 56  28  31  ar  
 57  28  54  1   
 58  29  31  ar  
 59  29  55  1   
 60  31  56  1   
@<TRIPOS>SUBSTRUCTURE
  1 ****   3 GROUP 4 **** **** 0

# MOE 2024.06 (io_trps.svl 2023.06)
