@<TRIPOS>MOLECULE
NONAME
53 56 1 0 0 
SMALL
USER_CHARGES


@<TRIPOS>ATOM
  1 O        0.4770     0.4330    -3.6980 O.2   1 <1>  -0.5700 
  2 C        0.6800    -0.1190    -2.6460 C.2   1 <1>   0.5690 
  3 N        1.3010     0.4540    -1.5810 N.am  1 <1>  -0.4940 
  4 C        0.2250    -1.5660    -2.4550 C.3   1 <1>   0.1710 
  5 C        1.7550     1.7360    -1.3820 C.2   1 <1>   0.5420 
  6 N        0.0820    -1.9530    -1.0190 N.3   1 <1>  -0.8100 
  7 O        2.2970     2.0190    -0.2440 O.3   1 <1>  -0.2800 
  8 N        1.7250     2.7550    -2.1650 N.2   1 <1>  -0.3380 
  9 C       -1.1660    -1.3830    -0.4410 C.3   1 <1>   0.1100 
 10 C        0.0590    -3.4300    -0.8770 C.3   1 <1>   0.1100 
 11 C        2.6010     3.2850    -0.3280 C.2   1 <1>   0.4250 
 12 N        2.2730     3.7570    -1.4840 N.2   1 <1>  -0.3380 
 13 C       -1.3670    -1.7790     1.0350 C.3   1 <1>   0.2090 
 14 C       -0.1040    -3.8680     0.5910 C.3   1 <1>   0.2090 
 15 C        3.2370     3.9480     0.7820 C.ar  1 <1>   0.0530 
 16 N       -1.3380    -3.2640     1.1780 N.pl3 1 <1>  -0.8380 
 17 C        2.7750     5.1700     1.2860 C.ar  1 <1>   0.0820 
 18 C        4.3540     3.3810     1.3980 C.ar  1 <1>  -0.1500 
 19 C       -2.4850    -3.9920     1.4100 C.ar  1 <1>   0.7200 
 20 O        1.6730     5.7430     0.7660 O.3   1 <1>  -0.3630 
 21 C        3.4080     5.7950     2.3490 C.ar  1 <1>  -0.1500 
 22 C        4.9900     4.0040     2.4570 C.ar  1 <1>  -0.1500 
 23 N       -2.5310    -5.2320     0.9240 N.ar  1 <1>  -0.6200 
 24 N       -3.4540    -3.3870     2.0960 N.ar  1 <1>  -0.6200 
 25 C        1.8760     6.8040    -0.1360 C.3   1 <1>   0.1200 
 26 C        4.5180     5.2140     2.9340 C.ar  1 <1>  -0.1500 
 27 C       -3.6270    -5.9110     1.1600 C.ar  1 <1>   0.1600 
 28 C       -4.5380    -4.0900     2.3180 C.ar  1 <1>   0.1600 
 29 C        0.5290     7.1590    -0.7560 C.3   1 <1>  -0.2400 
 30 C       -4.6780    -5.3780     1.8650 C.ar  1 <1>  -0.1500 
 31 H        1.3490    -0.1710    -0.7760 H     1 <1>   0.3700 
 32 H        0.9650    -2.1910    -2.9220 H     1 <1>   0.0800 
 33 H       -0.7060    -1.7140    -2.9750 H     1 <1>   0.0800 
 34 H       -2.0190    -1.7290    -0.9990 H     1 <1>   0.0800 
 35 H       -1.1450    -0.3090    -0.5060 H     1 <1>   0.0800 
 36 H        0.9770    -3.8420    -1.2570 H     1 <1>   0.0800 
 37 H       -0.7560    -3.8440    -1.4470 H     1 <1>   0.0800 
 38 H       -2.2980    -1.3690     1.3840 H     1 <1>   0.0800 
 39 H       -0.5810    -1.3520     1.6320 H     1 <1>   0.0800 
 40 H        0.7500    -3.5370     1.1550 H     1 <1>   0.0800 
 41 H       -0.1290    -4.9410     0.6490 H     1 <1>   0.0800 
 42 H        4.7310     2.4400     1.0360 H     1 <1>   0.1500 
 43 H        3.0250     6.7280     2.7200 H     1 <1>   0.1500 
 44 H        5.8520     3.5480     2.9140 H     1 <1>   0.1500 
 45 H        2.5690     6.4820    -0.8950 H     1 <1>   0.0800 
 46 H        2.2870     7.6390     0.4040 H     1 <1>   0.0800 
 47 H        5.0110     5.6990     3.7600 H     1 <1>   0.1500 
 48 H       -3.6890    -6.9180     0.7830 H     1 <1>   0.1500 
 49 H       -5.3330    -3.6270     2.8770 H     1 <1>   0.1500 
 50 H        0.1380     6.3090    -1.2880 H     1 <1>   0.0800 
 51 H        0.6500     7.9700    -1.4510 H     1 <1>   0.0800 
 52 H       -0.1650     7.4580     0.0080 H     1 <1>   0.0800 
 53 H       -5.5700    -5.9440     2.0530 H     1 <1>   0.1500 
@<TRIPOS>BOND
  1   1   2  2   
  2   2   3  am  
  3   2   4  1   
  4   3   5  1   
  5   3  31  1   
  6   4   6  1   
  7   4  32  1   
  8   4  33  1   
  9   5   7  1   
 10   5   8  2   
 11   6   9  1   
 12   6  10  1   
 13   7  11  1   
 14   8  12  1   
 15   9  13  1   
 16   9  34  1   
 17   9  35  1   
 18  10  14  1   
 19  10  36  1   
 20  10  37  1   
 21  11  12  2   
 22  11  15  1   
 23  13  16  1   
 24  13  38  1   
 25  13  39  1   
 26  14  16  1   
 27  14  40  1   
 28  14  41  1   
 29  15  17  ar  
 30  15  18  ar  
 31  16  19  1   
 32  17  20  1   
 33  17  21  ar  
 34  18  22  ar  
 35  18  42  1   
 36  19  23  ar  
 37  19  24  ar  
 38  20  25  1   
 39  21  26  ar  
 40  21  43  1   
 41  22  26  ar  
 42  22  44  1   
 43  23  27  ar  
 44  24  28  ar  
 45  25  29  1   
 46  25  45  1   
 47  25  46  1   
 48  26  47  1   
 49  27  30  ar  
 50  27  48  1   
 51  28  30  ar  
 52  28  49  1   
 53  29  50  1   
 54  29  51  1   
 55  29  52  1   
 56  30  53  1   
@<TRIPOS>SUBSTRUCTURE
  1 ****   3 GROUP 4 **** **** 0

# MOE 2024.06 (io_trps.svl 2023.06)
