@<TRIPOS>MOLECULE
NONAME
50 52 1 0 0 
SMALL
USER_CHARGES


@<TRIPOS>ATOM
  1 O        0.6220     1.2740     1.3770 O.co2 1 <1>  -0.9000 
  2 C        1.4300     0.3870     1.1080 C.2   1 <1>   0.9060 
  3 O        1.7040    -0.5080     1.9280 O.co2 1 <1>  -0.9000 
  4 C        2.1170     0.3690    -0.2720 C.3   1 <1>  -0.1060 
  5 C        3.5230    -0.2410    -0.1260 C.3   1 <1>   0.4230 
  6 C        2.3030     1.8070    -0.8220 C.3   1 <1>  -0.1600 
  7 C        1.2920    -0.4570    -1.2870 C.3   1 <1>  -0.1600 
  8 N        3.4190    -1.6780     0.3050 N.4   1 <1>  -0.9590 
  9 C        4.3910     0.6430     0.8040 C.3   1 <1>   0.1100 
 10 C        3.2030     2.6520     0.0880 C.3   1 <1>   0.1100 
 11 C        1.2760    -1.9470    -0.9110 C.3   1 <1>  -0.1600 
 12 C        2.6840    -2.5030    -0.6860 C.3   1 <1>   0.3430 
 13 C        4.6890    -2.3090     0.7460 C.3   1 <1>   0.2630 
 14 N        4.5200     2.0080     0.2580 N.3   1 <1>  -0.8100 
 15 C        5.4090     2.8260     1.1210 C.3   1 <1>   0.2530 
 16 C        5.8490     4.1480     0.4860 C.ar  1 <1>   0.1670 
 17 N        6.9390     4.1230    -0.2710 N.ar  1 <1>  -0.6200 
 18 C        5.1210     5.3000     0.7460 C.ar  1 <1>  -0.1500 
 19 C        7.2990     5.2830    -0.7970 C.ar  1 <1>   0.1600 
 20 C        5.5130     6.5000     0.1930 C.ar  1 <1>  -0.1500 
 21 C        6.6370     6.4870    -0.6060 C.ar  1 <1>  -0.1430 
 22 C        7.1380     7.7650    -1.2590 C.3   1 <1>  -0.0170 
 23 C        8.1110     8.4970    -0.3330 C.3   1 <1>  -0.2400 
 24 H        3.9950    -0.2180    -1.0930 H     1 <1>   0.0800 
 25 H        1.3430     2.2900    -0.8980 H     1 <1>   0.0800 
 26 H        2.7360     1.7870    -1.8060 H     1 <1>   0.0800 
 27 H        0.2820    -0.0820    -1.3130 H     1 <1>   0.0800 
 28 H        1.7110    -0.3470    -2.2730 H     1 <1>   0.0800 
 29 H        2.7770    -1.5770     1.1380 H     1 <1>   0.4500 
 30 H        5.3770     0.2230     0.8740 H     1 <1>   0.0800 
 31 H        3.9600     0.6870     1.7910 H     1 <1>   0.0800 
 32 H        2.7280     2.7900     1.0470 H     1 <1>   0.0800 
 33 H        3.3280     3.6190    -0.3680 H     1 <1>   0.0800 
 34 H        0.7940    -2.5070    -1.6920 H     1 <1>   0.0800 
 35 H        0.6970    -2.0880    -0.0140 H     1 <1>   0.0800 
 36 H        3.2220    -2.5080    -1.6200 H     1 <1>   0.0800 
 37 H        2.6080    -3.5180    -0.3300 H     1 <1>   0.0800 
 38 H        5.4020    -2.3180    -0.0610 H     1 <1>   0.0800 
 39 H        4.5060    -3.3220     1.0660 H     1 <1>   0.0800 
 40 H        5.1050    -1.7640     1.5770 H     1 <1>   0.0800 
 41 H        4.9160     3.0250     2.0560 H     1 <1>   0.0800 
 42 H        6.3020     2.2660     1.3370 H     1 <1>   0.0800 
 43 H        4.2510     5.2580     1.3750 H     1 <1>   0.1500 
 44 H        8.1780     5.2720    -1.4180 H     1 <1>   0.1500 
 45 H        4.9620     7.4050     0.3800 H     1 <1>   0.1500 
 46 H        7.6300     7.5310    -2.1870 H     1 <1>   0.0800 
 47 H        6.3040     8.4060    -1.4860 H     1 <1>   0.0800 
 48 H        8.9580     7.8710    -0.1120 H     1 <1>   0.0800 
 49 H        7.6230     8.7530     0.5910 H     1 <1>   0.0800 
 50 H        8.4610     9.4000    -0.8010 H     1 <1>   0.0800 
@<TRIPOS>BOND
  1   1   2  ar  
  2   2   3  ar  
  3   2   4  1   
  4   4   5  1   
  5   4   6  1   
  6   4   7  1   
  7   5   8  1   
  8   5   9  1   
  9   5  24  1   
 10   6  10  1   
 11   6  25  1   
 12   6  26  1   
 13   7  11  1   
 14   7  27  1   
 15   7  28  1   
 16   8  12  1   
 17   8  13  1   
 18   8  29  1   
 19   9  14  1   
 20   9  30  1   
 21   9  31  1   
 22  10  14  1   
 23  10  32  1   
 24  10  33  1   
 25  11  12  1   
 26  11  34  1   
 27  11  35  1   
 28  12  36  1   
 29  12  37  1   
 30  13  38  1   
 31  13  39  1   
 32  13  40  1   
 33  14  15  1   
 34  15  16  1   
 35  15  41  1   
 36  15  42  1   
 37  16  17  ar  
 38  16  18  ar  
 39  17  19  ar  
 40  18  20  ar  
 41  18  43  1   
 42  19  21  ar  
 43  19  44  1   
 44  20  21  ar  
 45  20  45  1   
 46  21  22  1   
 47  22  23  1   
 48  22  46  1   
 49  22  47  1   
 50  23  48  1   
 51  23  49  1   
 52  23  50  1   
@<TRIPOS>SUBSTRUCTURE
  1 ****  14 GROUP 4 **** **** 0

# MOE 2024.06 (io_trps.svl 2023.06)
