@<TRIPOS>MOLECULE
NONAME
48 50 1 0 0 
SMALL
USER_CHARGES


@<TRIPOS>ATOM
  1 O        1.8490     2.3420    -1.0510 O.3   1 <1>  -0.5600 
  2 C        2.2680     3.2880    -0.1120 C.3   1 <1>   0.1200 
  3 C        0.7360     2.7370    -1.7950 C.3   1 <1>   0.1200 
  4 C        1.1250     3.6110     0.8680 C.3   1 <1>   0.1100 
  5 C       -0.4500     3.0400    -0.8610 C.3   1 <1>   0.1100 
  6 N       -0.0910     4.0640     0.1520 N.3   1 <1>  -0.8100 
  7 C       -1.1940     4.3050     1.1110 C.3   1 <1>   0.1100 
  8 C       -2.3450     5.1610     0.5200 C.3   1 <1>   0.4230 
  9 N       -1.9910     6.6050     0.2950 N.4   1 <1>  -0.9590 
 10 C       -3.5680     5.1000     1.4460 C.3   1 <1>  -0.1600 
 11 C       -3.1010     7.3680    -0.3430 C.3   1 <1>   0.3430 
 12 C       -0.6900     6.8340    -0.4220 C.3   1 <1>   0.4860 
 13 C       -4.7560     5.8920     0.8850 C.3   1 <1>  -0.1600 
 14 C       -4.3350     7.3300     0.5590 C.3   1 <1>  -0.1600 
 15 C       -0.2880     8.3030    -0.3550 C.ar  1 <1>   0.1670 
 16 N       -0.5310     8.9440     0.7840 N.ar  1 <1>  -0.6200 
 17 C        0.3000     8.8990    -1.4650 C.ar  1 <1>   0.1600 
 18 C       -0.1380    10.2090     0.7310 C.ar  1 <1>   0.1600 
 19 N        0.6770    10.1620    -1.5150 N.ar  1 <1>  -0.6200 
 20 C        0.4480    10.8050    -0.3840 C.ar  1 <1>   0.1670 
 21 C        0.8640    12.2620    -0.3560 C.3   1 <1>  -0.0970 
 22 H        2.5890     4.1740    -0.6320 H     1 <1>   0.0800 
 23 H        3.1080     2.8740     0.4180 H     1 <1>   0.0800 
 24 H        0.4900     1.9320    -2.4640 H     1 <1>   0.0800 
 25 H        1.0000     3.6030    -2.3760 H     1 <1>   0.0800 
 26 H        1.4560     4.3780     1.5460 H     1 <1>   0.0800 
 27 H        0.9090     2.7260     1.4450 H     1 <1>   0.0800 
 28 H       -0.7410     2.1230    -0.3760 H     1 <1>   0.0800 
 29 H       -1.2780     3.3830    -1.4560 H     1 <1>   0.0800 
 30 H       -0.8140     4.8070     1.9850 H     1 <1>   0.0800 
 31 H       -1.5840     3.3540     1.4340 H     1 <1>   0.0800 
 32 H       -2.6260     4.7210    -0.4220 H     1 <1>   0.0800 
 33 H       -1.8330     7.0540     1.2090 H     1 <1>   0.4500 
 34 H       -3.3050     5.4800     2.4190 H     1 <1>   0.0800 
 35 H       -3.8690     4.0740     1.5730 H     1 <1>   0.0800 
 36 H       -3.3400     6.9380    -1.3020 H     1 <1>   0.0800 
 37 H       -2.8090     8.3960    -0.4920 H     1 <1>   0.0800 
 38 H       -0.7590     6.5020    -1.4440 H     1 <1>   0.0800 
 39 H        0.0940     6.2830     0.0630 H     1 <1>   0.0800 
 40 H       -5.5610     5.9020     1.6020 H     1 <1>   0.0800 
 41 H       -5.1200     5.4130    -0.0080 H     1 <1>   0.0800 
 42 H       -5.1460     7.8370     0.0660 H     1 <1>   0.0800 
 43 H       -4.1250     7.8680     1.4670 H     1 <1>   0.0800 
 44 H        0.4700     8.3160    -2.3540 H     1 <1>   0.1500 
 45 H       -0.2870    10.8060     1.6140 H     1 <1>   0.1500 
 46 H        0.6460    12.7130     0.5940 H     1 <1>   0.0800 
 47 H        0.3430    12.8010    -1.1260 H     1 <1>   0.0800 
 48 H        1.9210    12.3370    -0.5410 H     1 <1>   0.0800 
@<TRIPOS>BOND
  1   1   2  1   
  2   1   3  1   
  3   2   4  1   
  4   2  22  1   
  5   2  23  1   
  6   3   5  1   
  7   3  24  1   
  8   3  25  1   
  9   4   6  1   
 10   4  26  1   
 11   4  27  1   
 12   5   6  1   
 13   5  28  1   
 14   5  29  1   
 15   6   7  1   
 16   7   8  1   
 17   7  30  1   
 18   7  31  1   
 19   8   9  1   
 20   8  10  1   
 21   8  32  1   
 22   9  11  1   
 23   9  12  1   
 24   9  33  1   
 25  10  13  1   
 26  10  34  1   
 27  10  35  1   
 28  11  14  1   
 29  11  36  1   
 30  11  37  1   
 31  12  15  1   
 32  12  38  1   
 33  12  39  1   
 34  13  14  1   
 35  13  40  1   
 36  13  41  1   
 37  14  42  1   
 38  14  43  1   
 39  15  16  ar  
 40  15  17  ar  
 41  16  18  ar  
 42  17  19  ar  
 43  17  44  1   
 44  18  20  ar  
 45  18  45  1   
 46  19  20  ar  
 47  20  21  1   
 48  21  46  1   
 49  21  47  1   
 50  21  48  1   
@<TRIPOS>SUBSTRUCTURE
  1 ****  12 GROUP 4 **** **** 0

# MOE 2024.06 (io_trps.svl 2023.06)
