@<TRIPOS>MOLECULE
NONAME
49 51 1 0 0 
SMALL
USER_CHARGES


@<TRIPOS>ATOM
  1 F        2.3190     0.5880     3.3120 F     1 <1>  -0.1900 
  2 C        2.5870     1.5000     2.3990 C.ar  1 <1>   0.1900 
  3 C        3.0040     1.1560     1.1130 C.ar  1 <1>   0.4100 
  4 C        2.4400     2.8190     2.7250 C.ar  1 <1>   0.1600 
  5 N        3.2340     2.1140     0.2340 N.ar  1 <1>  -0.6200 
  6 N        3.1990    -0.1540     0.6790 N.pl3 1 <1>  -0.8380 
  7 N        2.6910     3.7800     1.8560 N.ar  1 <1>  -0.6200 
  8 C        3.0850     3.3610     0.6620 C.ar  1 <1>   0.7200 
  9 C        3.8300    -1.1750     1.5480 C.3   1 <1>   0.2090 
 10 C        3.4170    -0.4840    -0.7510 C.3   1 <1>   0.2090 
 11 N        3.3780     4.3650    -0.1890 N.pl3 1 <1>  -0.8690 
 12 C        4.6430    -2.0510     0.6030 C.3   1 <1>  -0.1600 
 13 C        3.9430    -1.9120    -0.7450 C.3   1 <1>  -0.1600 
 14 C        4.5610     4.2540    -1.0380 C.3   1 <1>   0.4700 
 15 C        5.7970     4.5300    -0.1920 C.2   1 <1>  -0.1810 
 16 C        4.4290     5.2370    -2.1940 C.3   1 <1>  -0.2400 
 17 C        6.8340     3.6180    -0.0090 C.2   1 <1>   0.1080 
 18 C        6.1630     5.6110     0.5430 C.2   1 <1>  -0.3320 
 19 N        7.7730     4.0840     0.7470 N.2   1 <1>  -0.7070 
 20 C        6.9030     2.2210    -0.5850 C.3   1 <1>  -0.0590 
 21 N        7.3650     5.3150     1.0930 N.pl3 1 <1>   0.3140 
 22 C        5.4380     6.9290     0.7830 C.3   1 <1>  -0.0600 
 23 C        8.1910     6.1550     1.9860 C.3   1 <1>   0.0960 
 24 C        9.1130     7.0810     1.1830 C.3   1 <1>  -0.2400 
 25 H        2.1140     3.0940     3.7120 H     1 <1>   0.1500 
 26 H        3.0570    -1.7540     2.0250 H     1 <1>   0.0800 
 27 H        4.4580    -0.7200     2.2960 H     1 <1>   0.0800 
 28 H        4.1560     0.1790    -1.1680 H     1 <1>   0.0800 
 29 H        2.4990    -0.3960    -1.3060 H     1 <1>   0.0800 
 30 H        3.4130     5.2280     0.3430 H     1 <1>   0.4000 
 31 H        4.6860    -3.0710     0.9420 H     1 <1>   0.0800 
 32 H        5.6420    -1.6580     0.5390 H     1 <1>   0.0800 
 33 H        4.6020    -2.0990    -1.5740 H     1 <1>   0.0800 
 34 H        3.1080    -2.5890    -0.7970 H     1 <1>   0.0800 
 35 H        4.6160     3.2640    -1.4570 H     1 <1>   0.0800 
 36 H        4.3420     6.2450    -1.8400 H     1 <1>   0.0800 
 37 H        3.5630     4.9890    -2.7810 H     1 <1>   0.0800 
 38 H        5.3000     5.1680    -2.8190 H     1 <1>   0.0800 
 39 H        6.0770     1.6380    -0.2200 H     1 <1>   0.0800 
 40 H        7.8190     1.7480    -0.2820 H     1 <1>   0.0800 
 41 H        6.8710     2.2620    -1.6570 H     1 <1>   0.0800 
 42 H        4.4710     6.9320     0.3180 H     1 <1>   0.0800 
 43 H        6.0110     7.7450     0.3810 H     1 <1>   0.0800 
 44 H        5.2960     7.0850     1.8370 H     1 <1>   0.0800 
 45 H        8.7800     5.5010     2.6030 H     1 <1>   0.0800 
 46 H        7.5420     6.7270     2.6220 H     1 <1>   0.0800 
 47 H        9.7650     6.4950     0.5600 H     1 <1>   0.0800 
 48 H        9.7150     7.6680     1.8520 H     1 <1>   0.0800 
 49 H        8.5360     7.7450     0.5650 H     1 <1>   0.0800 
@<TRIPOS>BOND
  1   1   2  1   
  2   2   3  ar  
  3   2   4  ar  
  4   3   5  ar  
  5   3   6  1   
  6   4   7  ar  
  7   4  25  1   
  8   5   8  ar  
  9   6   9  1   
 10   6  10  1   
 11   7   8  ar  
 12   8  11  1   
 13   9  12  1   
 14   9  26  1   
 15   9  27  1   
 16  10  13  1   
 17  10  28  1   
 18  10  29  1   
 19  11  14  1   
 20  11  30  1   
 21  12  13  1   
 22  12  31  1   
 23  12  32  1   
 24  13  33  1   
 25  13  34  1   
 26  14  15  1   
 27  14  16  1   
 28  14  35  1   
 29  15  17  1   
 30  15  18  2   
 31  16  36  1   
 32  16  37  1   
 33  16  38  1   
 34  17  19  2   
 35  17  20  1   
 36  18  21  1   
 37  18  22  1   
 38  19  21  1   
 39  20  39  1   
 40  20  40  1   
 41  20  41  1   
 42  21  23  1   
 43  22  42  1   
 44  22  43  1   
 45  22  44  1   
 46  23  24  1   
 47  23  45  1   
 48  23  46  1   
 49  24  47  1   
 50  24  48  1   
 51  24  49  1   
@<TRIPOS>SUBSTRUCTURE
  1 ****   8 GROUP 4 **** **** 0

# MOE 2024.06 (io_trps.svl 2023.06)
