@<TRIPOS>MOLECULE
NONAME
53 55 1 0 0 
SMALL
USER_CHARGES


@<TRIPOS>ATOM
  1 O       -0.6480     0.2450     1.5170 O.2   1 <1>  -0.5700 
  2 C       -1.4820     0.4780     0.6730 C.2   1 <1>   0.5690 
  3 N       -2.2990    -0.4940     0.1960 N.am  1 <1>  -0.7300 
  4 C       -1.5830     1.9200     0.1400 C.3   1 <1>   0.4040 
  5 C       -2.3240    -1.8780     0.7050 C.3   1 <1>   0.2840 
  6 N       -0.3490     2.7480     0.4150 N.4   1 <1>  -0.9590 
  7 C       -3.6710    -2.4630     0.3300 C.ar  1 <1>  -0.1440 
  8 C       -0.4980     4.2090     0.1430 C.3   1 <1>   0.3430 
  9 C        0.8610     2.2790    -0.3030 C.3   1 <1>   0.3430 
 10 C       -4.7630    -2.2930     1.1680 C.ar  1 <1>  -0.1500 
 11 C       -3.8270    -3.1600    -0.8590 C.ar  1 <1>  -0.1500 
 12 C        0.7980     4.6680    -0.5370 C.3   1 <1>   0.0630 
 13 C        1.7630     3.4990    -0.3100 C.3   1 <1>  -0.1600 
 14 C       -5.9980    -2.8110     0.8200 C.ar  1 <1>  -0.1500 
 15 C       -5.0620    -3.6790    -1.2070 C.ar  1 <1>  -0.1500 
 16 C        1.2310     6.0540    -0.0430 C.ar  1 <1>  -0.1440 
 17 C       -6.1480    -3.5040    -0.3680 C.ar  1 <1>  -0.1500 
 18 C        0.3340     7.1190    -0.1440 C.ar  1 <1>   0.0820 
 19 C        2.4930     6.2860     0.4920 C.ar  1 <1>  -0.1500 
 20 O       -0.8680     6.8640    -0.7430 O.3   1 <1>  -0.3620 
 21 C        0.6730     8.3860     0.3580 C.ar  1 <1>   0.0820 
 22 C        2.8430     7.5400     0.9540 C.ar  1 <1>  -0.1500 
 23 C       -1.3540     7.7570    -1.7260 C.3   1 <1>   0.0400 
 24 O       -0.2540     9.3870     0.3270 O.3   1 <1>  -0.3630 
 25 C        1.9400     8.5840     0.8960 C.ar  1 <1>  -0.1500 
 26 C       -0.0170    10.6480     0.9150 C.3   1 <1>   0.0400 
 27 H       -3.0500    -0.3230    -0.4790 H     1 <1>   0.3700 
 28 H       -2.4320     2.3830     0.6130 H     1 <1>   0.0800 
 29 H       -1.7670     1.8860    -0.9190 H     1 <1>   0.0800 
 30 H       -2.1920    -1.8860     1.7740 H     1 <1>   0.0800 
 31 H       -1.5270    -2.4470     0.2560 H     1 <1>   0.0800 
 32 H       -0.1410     2.6190     1.4190 H     1 <1>   0.4500 
 33 H       -0.6360     4.7480     1.0670 H     1 <1>   0.0800 
 34 H       -1.3350     4.4100    -0.5040 H     1 <1>   0.0800 
 35 H        0.6110     2.0060    -1.3160 H     1 <1>   0.0800 
 36 H        1.3190     1.4380     0.1960 H     1 <1>   0.0800 
 37 H       -4.6590    -1.7560     2.0950 H     1 <1>   0.1500 
 38 H       -2.9900    -3.3050    -1.5210 H     1 <1>   0.1500 
 39 H        0.6000     4.7450    -1.5920 H     1 <1>   0.0800 
 40 H        2.5170     3.4390    -1.0760 H     1 <1>   0.0800 
 41 H        2.2370     3.5620     0.6530 H     1 <1>   0.0800 
 42 H       -6.8420    -2.6780     1.4730 H     1 <1>   0.1500 
 43 H       -5.1780    -4.2200    -2.1300 H     1 <1>   0.1500 
 44 H       -7.1080    -3.9090    -0.6390 H     1 <1>   0.1500 
 45 H        3.2340     5.5110     0.5600 H     1 <1>   0.1500 
 46 H        3.8250     7.7060     1.3650 H     1 <1>   0.1500 
 47 H       -1.9860     7.2100    -2.4010 H     1 <1>   0.0800 
 48 H       -0.5240     8.1850    -2.2610 H     1 <1>   0.0800 
 49 H       -1.9270     8.5290    -1.2430 H     1 <1>   0.0800 
 50 H        2.2480     9.5390     1.2750 H     1 <1>   0.1500 
 51 H       -0.9060    11.2410     0.8000 H     1 <1>   0.0800 
 52 H        0.8050    11.1220     0.4080 H     1 <1>   0.0800 
 53 H        0.1970    10.5120     1.9600 H     1 <1>   0.0800 
@<TRIPOS>BOND
  1   1   2  2   
  2   2   3  am  
  3   2   4  1   
  4   3   5  1   
  5   3  27  1   
  6   4   6  1   
  7   4  28  1   
  8   4  29  1   
  9   5   7  1   
 10   5  30  1   
 11   5  31  1   
 12   6   8  1   
 13   6   9  1   
 14   6  32  1   
 15   7  10  ar  
 16   7  11  ar  
 17   8  12  1   
 18   8  33  1   
 19   8  34  1   
 20   9  13  1   
 21   9  35  1   
 22   9  36  1   
 23  10  14  ar  
 24  10  37  1   
 25  11  15  ar  
 26  11  38  1   
 27  12  13  1   
 28  12  16  1   
 29  12  39  1   
 30  13  40  1   
 31  13  41  1   
 32  14  17  ar  
 33  14  42  1   
 34  15  17  ar  
 35  15  43  1   
 36  16  18  ar  
 37  16  19  ar  
 38  17  44  1   
 39  18  20  1   
 40  18  21  ar  
 41  19  22  ar  
 42  19  45  1   
 43  20  23  1   
 44  21  24  1   
 45  21  25  ar  
 46  22  25  ar  
 47  22  46  1   
 48  23  47  1   
 49  23  48  1   
 50  23  49  1   
 51  24  26  1   
 52  25  50  1   
 53  26  51  1   
 54  26  52  1   
 55  26  53  1   
@<TRIPOS>SUBSTRUCTURE
  1 ****   6 GROUP 4 **** **** 0

# MOE 2024.06 (io_trps.svl 2023.06)
