@<TRIPOS>MOLECULE
NONAME
51 53 1 0 0 
SMALL
USER_CHARGES


@<TRIPOS>ATOM
  1 O       -1.4850     0.4090    -1.6060 O.2   1 <1>  -0.5700 
  2 C       -1.6410     0.8200    -0.4740 C.2   1 <1>   0.5440 
  3 N       -1.8820    -0.0880     0.5150 N.am  1 <1>  -0.7300 
  4 C       -1.5930     2.2430    -0.1870 C.ar  1 <1>   0.0860 
  5 C       -1.8870    -1.5610     0.3470 C.3   1 <1>   0.2200 
  6 C       -1.9150     3.1790    -1.1690 C.ar  1 <1>  -0.1500 
  7 C       -1.2220     2.7380     1.0640 C.ar  1 <1>  -0.1500 
  8 C       -3.3070    -2.1100     0.3140 C.3   1 <1>  -0.0800 
  9 C       -1.3780    -2.1930     1.6340 C.3   1 <1>   0.1200 
 10 C       -1.8690     4.5390    -0.9220 C.ar  1 <1>  -0.1500 
 11 C       -1.1740     4.0960     1.3210 C.ar  1 <1>  -0.1500 
 12 C       -3.6590    -2.2490     1.8010 C.3   1 <1>   0.1200 
 13 C       -4.3260    -1.2990    -0.5080 C.3   1 <1>  -0.0160 
 14 O       -2.4600    -2.1320     2.5120 O.3   1 <1>  -0.5600 
 15 C       -1.4900     5.0090     0.3260 C.ar  1 <1>  -0.1430 
 16 C       -5.6750    -2.0000    -0.5440 C.ar  1 <1>  -0.1430 
 17 C       -1.4150     6.5020     0.5930 C.3   1 <1>   0.4860 
 18 C       -6.7120    -1.6410     0.2940 C.ar  1 <1>  -0.1500 
 19 C       -5.9290    -3.0360    -1.4190 C.ar  1 <1>  -0.1500 
 20 N        0.0180     6.9170     0.5870 N.4   1 <1>  -0.9590 
 21 C       -7.9170    -2.3210     0.2210 C.ar  1 <1>   0.1600 
 22 C       -7.1710    -3.6500    -1.4120 C.ar  1 <1>   0.1600 
 23 C        0.1830     8.3190     1.0760 C.3   1 <1>   0.2630 
 24 C        0.6410     6.7390    -0.7640 C.3   1 <1>   0.2630 
 25 N       -8.1710    -3.3180    -0.6100 N.ar  1 <1>  -0.6200 
 26 H       -2.1480     0.2120     1.4550 H     1 <1>   0.3700 
 27 H       -1.3050    -1.8510    -0.5120 H     1 <1>   0.0800 
 28 H       -2.2060     2.8230    -2.1450 H     1 <1>   0.1500 
 29 H       -0.9600     2.0470     1.8470 H     1 <1>   0.1500 
 30 H       -3.2630    -3.1030    -0.0980 H     1 <1>   0.0800 
 31 H       -0.5360    -1.6710     2.0530 H     1 <1>   0.0800 
 32 H       -1.1310    -3.2290     1.4820 H     1 <1>   0.0800 
 33 H       -2.1340     5.2180    -1.7150 H     1 <1>   0.1500 
 34 H       -0.8870     4.4270     2.3060 H     1 <1>   0.1500 
 35 H       -4.1030    -3.2060     2.0160 H     1 <1>   0.0800 
 36 H       -4.3130    -1.4630     2.1330 H     1 <1>   0.0800 
 37 H       -3.9590    -1.1810    -1.5130 H     1 <1>   0.0800 
 38 H       -4.4470    -0.3140    -0.0930 H     1 <1>   0.0800 
 39 H       -1.8580     6.7120     1.5530 H     1 <1>   0.0800 
 40 H       -1.9640     7.0400    -0.1620 H     1 <1>   0.0800 
 41 H       -6.5970    -0.8410     1.0010 H     1 <1>   0.1500 
 42 H       -5.1750    -3.3700    -2.1070 H     1 <1>   0.1500 
 43 H        0.5020     6.2760     1.2330 H     1 <1>   0.4500 
 44 H       -8.7150    -2.0280     0.8820 H     1 <1>   0.1500 
 45 H       -7.3510    -4.4560    -2.1020 H     1 <1>   0.1500 
 46 H       -0.3220     9.0090     0.4190 H     1 <1>   0.0800 
 47 H        1.2280     8.5820     1.1110 H     1 <1>   0.0800 
 48 H       -0.2280     8.4230     2.0670 H     1 <1>   0.0800 
 49 H        0.1430     7.3580    -1.4930 H     1 <1>   0.0800 
 50 H        0.5680     5.7100    -1.0780 H     1 <1>   0.0800 
 51 H        1.6840     7.0110    -0.7350 H     1 <1>   0.0800 
@<TRIPOS>BOND
  1   1   2  2   
  2   2   3  am  
  3   2   4  1   
  4   3   5  1   
  5   3  26  1   
  6   4   6  ar  
  7   4   7  ar  
  8   5   8  1   
  9   5   9  1   
 10   5  27  1   
 11   6  10  ar  
 12   6  28  1   
 13   7  11  ar  
 14   7  29  1   
 15   8  12  1   
 16   8  13  1   
 17   8  30  1   
 18   9  14  1   
 19   9  31  1   
 20   9  32  1   
 21  10  15  ar  
 22  10  33  1   
 23  11  15  ar  
 24  11  34  1   
 25  12  14  1   
 26  12  35  1   
 27  12  36  1   
 28  13  16  1   
 29  13  37  1   
 30  13  38  1   
 31  15  17  1   
 32  16  18  ar  
 33  16  19  ar  
 34  17  20  1   
 35  17  39  1   
 36  17  40  1   
 37  18  21  ar  
 38  18  41  1   
 39  19  22  ar  
 40  19  42  1   
 41  20  23  1   
 42  20  24  1   
 43  20  43  1   
 44  21  25  ar  
 45  21  44  1   
 46  22  25  ar  
 47  22  45  1   
 48  23  46  1   
 49  23  47  1   
 50  23  48  1   
 51  24  49  1   
 52  24  50  1   
 53  24  51  1   
@<TRIPOS>SUBSTRUCTURE
  1 ****   2 GROUP 4 **** **** 0

# MOE 2024.06 (io_trps.svl 2023.06)
