@<TRIPOS>MOLECULE
NONAME
59 62 1 0 0 
SMALL
USER_CHARGES


@<TRIPOS>ATOM
  1 O       -3.6130     2.8310    -1.1950 O.2   1 <1>  -0.5700 
  2 C       -3.0680     2.2750    -0.2540 C.2   1 <1>   0.5440 
  3 N       -3.5850     1.0260     0.0620 N.am  1 <1>  -0.6600 
  4 C       -1.9700     2.9240     0.4890 C.ar  1 <1>   0.3960 
  5 C       -5.0340     0.7720    -0.1920 C.3   1 <1>   0.1400 
  6 C       -2.7310    -0.1720     0.3130 C.3   1 <1>   0.1400 
  7 N       -1.1760     2.1570     1.2720 N.ar  1 <1>  -0.6200 
  8 C       -1.7400     4.3190     0.4110 C.ar  1 <1>   0.0830 
  9 C       -5.5230    -0.5070     0.4960 C.3   1 <1>   0.2200 
 10 C       -3.2890    -1.3980    -0.4230 C.3   1 <1>  -0.1600 
 11 C       -0.1890     2.7370     1.9230 C.ar  1 <1>   0.1600 
 12 O       -2.4840     5.1730    -0.3250 O.3   1 <1>  -0.3620 
 13 C       -0.6900     4.9000     1.0950 C.ar  1 <1>  -0.1500 
 14 N       -6.9870    -0.6140     0.2740 N.am  1 <1>  -0.7300 
 15 C       -4.7380    -1.7360    -0.0250 C.3   1 <1>   0.2000 
 16 C        0.1000     4.0860     1.8680 C.ar  1 <1>  -0.1500 
 17 C       -3.7590     5.5450     0.1510 C.3   1 <1>   0.1200 
 18 C       -7.9060    -0.2860     1.2080 C.2   1 <1>   0.5690 
 19 O       -5.3550    -2.2690    -1.1690 O.3   1 <1>  -0.5600 
 20 C       -4.5970     5.9780    -1.0580 C.3   1 <1>  -0.1600 
 21 O       -7.7080    -0.4420     2.3870 O.2   1 <1>  -0.5700 
 22 C       -9.1690     0.4150     0.7480 C.3   1 <1>  -0.0990 
 23 C       -6.0190    -3.4770    -0.9640 C.3   1 <1>   0.0400 
 24 C       -5.9710     6.5450    -0.6680 C.3   1 <1>   0.0960 
 25 C       -8.8650     1.8770     0.3540 C.3   1 <1>  -0.1600 
 26 N       -6.7070     5.6500     0.2460 N.pl3 1 <1>   0.3140 
 27 C       -8.3850     2.7180     1.5540 C.3   1 <1>   0.0210 
 28 N       -6.9020     5.9540     1.5310 N.2   1 <1>  -0.4180 
 29 C       -7.2120     4.4410    -0.0070 C.2   1 <1>  -0.3020 
 30 C       -7.7150     4.0260     1.1680 C.2   1 <1>   0.0460 
 31 N       -7.5150     4.9720     2.0920 N.2   1 <1>  -0.2270 
 32 H       -5.5990     1.6130     0.1720 H     1 <1>   0.0800 
 33 H       -5.1860     0.6870    -1.2540 H     1 <1>   0.0800 
 34 H       -1.7310     0.0170    -0.0360 H     1 <1>   0.0800 
 35 H       -2.6900    -0.3590     1.3730 H     1 <1>   0.0800 
 36 H       -5.3340    -0.3990     1.5510 H     1 <1>   0.0800 
 37 H       -2.6620    -2.2470    -0.2240 H     1 <1>   0.0800 
 38 H       -3.2410    -1.1940    -1.4790 H     1 <1>   0.0800 
 39 H        0.4310     2.1040     2.5370 H     1 <1>   0.1500 
 40 H       -0.5060     5.9570     1.0170 H     1 <1>   0.1500 
 41 H       -7.2360    -0.6860    -0.7140 H     1 <1>   0.3700 
 42 H       -4.7220    -2.4780     0.7560 H     1 <1>   0.0800 
 43 H        0.9280     4.4880     2.4240 H     1 <1>   0.1500 
 44 H       -4.2090     4.7030     0.6500 H     1 <1>   0.0800 
 45 H       -3.6320     6.3510     0.8520 H     1 <1>   0.0800 
 46 H       -4.0590     6.7310    -1.6060 H     1 <1>   0.0800 
 47 H       -4.7390     5.1330    -1.7090 H     1 <1>   0.0800 
 48 H       -9.5760    -0.1150    -0.0930 H     1 <1>   0.0800 
 49 H       -9.8950     0.3890     1.5410 H     1 <1>   0.0800 
 50 H       -6.4850    -3.7650    -1.8900 H     1 <1>   0.0800 
 51 H       -6.7690    -3.3490    -0.2020 H     1 <1>   0.0800 
 52 H       -5.3050    -4.2270    -0.6700 H     1 <1>   0.0800 
 53 H       -6.5690     6.7010    -1.5470 H     1 <1>   0.0800 
 54 H       -5.8430     7.4910    -0.1740 H     1 <1>   0.0800 
 55 H       -8.1070     1.8730    -0.4090 H     1 <1>   0.0800 
 56 H       -9.7460     2.3330    -0.0620 H     1 <1>   0.0800 
 57 H       -7.6710     2.1730     2.1440 H     1 <1>   0.0800 
 58 H       -9.2250     2.9340     2.1900 H     1 <1>   0.0800 
 59 H       -7.1650     3.9680    -0.9690 H     1 <1>   0.1500 
@<TRIPOS>BOND
  1   1   2  2   
  2   2   3  am  
  3   2   4  1   
  4   3   5  1   
  5   3   6  1   
  6   4   7  ar  
  7   4   8  ar  
  8   5   9  1   
  9   5  32  1   
 10   5  33  1   
 11   6  10  1   
 12   6  34  1   
 13   6  35  1   
 14   7  11  ar  
 15   8  12  1   
 16   8  13  ar  
 17   9  14  1   
 18   9  15  1   
 19   9  36  1   
 20  10  15  1   
 21  10  37  1   
 22  10  38  1   
 23  11  16  ar  
 24  11  39  1   
 25  12  17  1   
 26  13  16  ar  
 27  13  40  1   
 28  14  18  am  
 29  14  41  1   
 30  15  19  1   
 31  15  42  1   
 32  16  43  1   
 33  17  20  1   
 34  17  44  1   
 35  17  45  1   
 36  18  21  2   
 37  18  22  1   
 38  19  23  1   
 39  20  24  1   
 40  20  46  1   
 41  20  47  1   
 42  22  25  1   
 43  22  48  1   
 44  22  49  1   
 45  23  50  1   
 46  23  51  1   
 47  23  52  1   
 48  24  26  1   
 49  24  53  1   
 50  24  54  1   
 51  25  27  1   
 52  25  55  1   
 53  25  56  1   
 54  26  28  1   
 55  26  29  1   
 56  27  30  1   
 57  27  57  1   
 58  27  58  1   
 59  28  31  2   
 60  29  30  2   
 61  29  59  1   
 62  30  31  1   
@<TRIPOS>SUBSTRUCTURE
  1 ****   5 GROUP 4 **** **** 0

# MOE 2024.06 (io_trps.svl 2023.06)
