@<TRIPOS>MOLECULE
NONAME
48 51 1 0 0 
SMALL
USER_CHARGES


@<TRIPOS>ATOM
  1 S       -0.9100    -0.6430     1.2080 S.3   1 <1>  -0.0800 
  2 C       -2.4600    -1.4620     0.9680 C.2   1 <1>   0.0410 
  3 C       -0.1440    -2.0980     1.8160 C.2   1 <1>  -0.1100 
  4 C       -3.5480    -0.6820     0.4260 C.2   1 <1>   0.2880 
  5 C       -2.3220    -2.7570     1.3620 C.2   1 <1>  -0.1500 
  6 C       -1.0240    -3.1140     1.8310 C.2   1 <1>  -0.1500 
  7 N       -3.6830     0.6020     0.6360 N.2   1 <1>  -0.7070 
  8 C       -4.5890    -1.1460    -0.3890 C.2   1 <1>  -0.1810 
  9 N       -4.7930     0.9980    -0.0180 N.pl3 1 <1>   0.5930 
 10 C       -5.3510    -0.0620    -0.6510 C.2   1 <1>  -0.3020 
 11 C       -4.7330    -2.5800    -0.8570 C.3   1 <1>   0.5240 
 12 C       -5.2580     2.3450    -0.0410 C.ar  1 <1>  -0.0230 
 13 N       -6.1830    -2.9120    -1.0110 N.4   1 <1>  -0.9590 
 14 C       -6.6200     2.6400    -0.0810 C.ar  1 <1>  -0.1500 
 15 C       -4.3520     3.4020    -0.0250 C.ar  1 <1>  -0.1500 
 16 C       -6.3170    -4.2230    -1.7490 C.3   1 <1>   0.3430 
 17 C       -6.8210    -2.9080     0.3520 C.3   1 <1>   0.3430 
 18 C       -7.0590     3.9510    -0.1170 C.ar  1 <1>  -0.1500 
 19 C       -4.7900     4.7140    -0.0610 C.ar  1 <1>  -0.1500 
 20 C       -6.4040    -5.4140    -0.8000 C.3   1 <1>  -0.1860 
 21 C       -8.0500    -3.8090     0.3660 C.3   1 <1>  -0.1600 
 22 C       -6.1450     4.9890    -0.1090 C.ar  1 <1>  -0.1500 
 23 C       -5.0530    -5.4590    -0.1350 C.2   1 <1>   0.9060 
 24 C       -7.6520    -5.2680     0.0990 C.3   1 <1>   0.2000 
 25 O       -4.0700    -5.4610    -0.8760 O.co2 1 <1>  -0.9000 
 26 O       -4.9490    -5.2250     1.0730 O.co2 1 <1>  -0.9000 
 27 O       -7.4250    -5.8730     1.3100 O.3   1 <1>  -0.6800 
 28 H        0.8910    -2.0360     2.0990 H     1 <1>   0.1500 
 29 H       -3.0910    -3.5110     1.3580 H     1 <1>   0.1500 
 30 H       -0.8180    -4.1200     2.1550 H     1 <1>   0.1500 
 31 H       -6.2360     0.0490    -1.2460 H     1 <1>   0.1500 
 32 H       -4.2820    -3.2410    -0.1390 H     1 <1>   0.0800 
 33 H       -4.2140    -2.7130    -1.7920 H     1 <1>   0.0800 
 34 H       -6.5880    -2.1650    -1.5790 H     1 <1>   0.4500 
 35 H       -7.3480     1.8490    -0.0780 H     1 <1>   0.1500 
 36 H       -3.2950     3.1960     0.0180 H     1 <1>   0.1500 
 37 H       -7.2120    -4.2030    -2.3480 H     1 <1>   0.0800 
 38 H       -5.4780    -4.3610    -2.4130 H     1 <1>   0.0800 
 39 H       -6.1200    -3.2800     1.0850 H     1 <1>   0.0800 
 40 H       -7.0880    -1.9020     0.6330 H     1 <1>   0.0800 
 41 H       -8.1130     4.1700    -0.1490 H     1 <1>   0.1500 
 42 H       -4.0770     5.5190    -0.0490 H     1 <1>   0.1500 
 43 H       -6.4980    -6.3130    -1.3780 H     1 <1>   0.0800 
 44 H       -8.7370    -3.4740    -0.3880 H     1 <1>   0.0800 
 45 H       -8.5520    -3.7350     1.3160 H     1 <1>   0.0800 
 46 H       -6.4860     6.0100    -0.1370 H     1 <1>   0.1500 
 47 H       -8.4900    -5.7790    -0.3450 H     1 <1>   0.0800 
 48 H       -6.4590    -5.7260     1.5440 H     1 <1>   0.4000 
@<TRIPOS>BOND
  1   1   2  1   
  2   1   3  1   
  3   2   4  1   
  4   2   5  2   
  5   3   6  2   
  6   3  28  1   
  7   4   7  2   
  8   4   8  1   
  9   5   6  1   
 10   5  29  1   
 11   6  30  1   
 12   7   9  1   
 13   8  10  2   
 14   8  11  1   
 15   9  10  1   
 16   9  12  1   
 17  10  31  1   
 18  11  13  1   
 19  11  32  1   
 20  11  33  1   
 21  12  14  ar  
 22  12  15  ar  
 23  13  16  1   
 24  13  17  1   
 25  13  34  1   
 26  14  18  ar  
 27  14  35  1   
 28  15  19  ar  
 29  15  36  1   
 30  16  20  1   
 31  16  37  1   
 32  16  38  1   
 33  17  21  1   
 34  17  39  1   
 35  17  40  1   
 36  18  22  ar  
 37  18  41  1   
 38  19  22  ar  
 39  19  42  1   
 40  20  23  1   
 41  20  24  1   
 42  20  43  1   
 43  21  24  1   
 44  21  44  1   
 45  21  45  1   
 46  22  46  1   
 47  23  25  ar  
 48  23  26  ar  
 49  24  27  1   
 50  24  47  1   
 51  27  48  1   
@<TRIPOS>SUBSTRUCTURE
  1 ****   8 GROUP 4 **** **** 0

# MOE 2024.06 (io_trps.svl 2023.06)
