@<TRIPOS>MOLECULE
NONAME
49 52 1 0 0 
SMALL
USER_CHARGES


@<TRIPOS>ATOM
  1 F       -1.3970    -0.9780     1.4940 F     1 <1>  -0.1900 
  2 C       -1.1410    -2.1420     0.9620 C.ar  1 <1>   0.1900 
  3 C       -2.1640    -3.0070     0.7070 C.ar  1 <1>  -0.1500 
  4 C        0.1880    -2.4510     0.6760 C.ar  1 <1>  -0.1500 
  5 C       -1.8970    -4.2590     0.1360 C.ar  1 <1>   0.3100 
  6 C        0.4700    -3.6700     0.1170 C.ar  1 <1>  -0.1500 
  7 N       -2.9500    -5.0760    -0.0900 N.ar  1 <1>  -0.6200 
  8 C       -0.5540    -4.6030    -0.1680 C.ar  1 <1>   0.0000 
  9 C       -2.7020    -6.2390    -0.6260 C.ar  1 <1>   0.4100 
 10 C       -0.3230    -5.8710    -0.7460 C.ar  1 <1>  -0.1440 
 11 N       -3.7500    -7.1050    -0.8480 N.pl3 1 <1>  -0.8380 
 12 C       -1.4060    -6.6650    -0.9650 C.ar  1 <1>  -0.1500 
 13 C        1.0760    -6.3430    -1.1190 C.3   1 <1>  -0.0970 
 14 C       -5.0930    -6.5690    -1.1840 C.3   1 <1>   0.2090 
 15 C       -3.9180    -8.2240     0.1090 C.3   1 <1>   0.2090 
 16 C       -5.9370    -6.8410     0.0590 C.3   1 <1>  -0.0800 
 17 C       -5.3460    -8.1280     0.6630 C.3   1 <1>  -0.0800 
 18 C       -7.4770    -6.8460    -0.1570 C.3   1 <1>   0.2800 
 19 C       -6.1980    -9.3660     0.3390 C.3   1 <1>  -0.1600 
 20 O       -7.7740    -7.3980    -1.3890 O.3   1 <1>  -0.6800 
 21 C       -8.1390    -7.7530     0.8960 C.3   1 <1>  -0.1600 
 22 C       -8.0860    -5.4260    -0.1980 C.3   1 <1>  -0.1600 
 23 C       -7.6460    -9.2180     0.8500 C.3   1 <1>  -0.1600 
 24 C       -8.0800    -4.6460     1.1300 C.3   1 <1>  -0.2400 
 25 H       -3.1800    -2.7510     0.9350 H     1 <1>   0.1500 
 26 H        0.9560    -1.7320     0.8980 H     1 <1>   0.1500 
 27 H        1.4900    -3.9210    -0.1090 H     1 <1>   0.1500 
 28 H       -1.3180    -7.6390    -1.4060 H     1 <1>   0.1500 
 29 H        1.0440    -7.3290    -1.5460 H     1 <1>   0.0800 
 30 H        1.7010    -6.3730    -0.2440 H     1 <1>   0.0800 
 31 H        1.5090    -5.6750    -1.8410 H     1 <1>   0.0800 
 32 H       -5.0640    -5.5200    -1.4200 H     1 <1>   0.0800 
 33 H       -5.4620    -7.1080    -2.0380 H     1 <1>   0.0800 
 34 H       -3.7620    -9.1570    -0.4040 H     1 <1>   0.0800 
 35 H       -3.2010    -8.1390     0.9080 H     1 <1>   0.0800 
 36 H       -5.6960    -6.0600     0.7530 H     1 <1>   0.0800 
 37 H       -5.2940    -8.0270     1.7330 H     1 <1>   0.0800 
 38 H       -6.2180    -9.4950    -0.7300 H     1 <1>   0.0800 
 39 H       -5.7530   -10.2480     0.7650 H     1 <1>   0.0800 
 40 H       -8.7310    -7.5650    -1.4430 H     1 <1>   0.4000 
 41 H       -7.8980    -7.3610     1.8680 H     1 <1>   0.0800 
 42 H       -9.2100    -7.7210     0.8040 H     1 <1>   0.0800 
 43 H       -7.5500    -4.8480    -0.9300 H     1 <1>   0.0800 
 44 H       -9.1080    -5.4960    -0.5250 H     1 <1>   0.0800 
 45 H       -7.7220    -9.6370     1.8380 H     1 <1>   0.0800 
 46 H       -8.2900    -9.7920     0.2070 H     1 <1>   0.0800 
 47 H       -7.0800    -4.5060     1.5000 H     1 <1>   0.0800 
 48 H       -8.6620    -5.1510     1.8790 H     1 <1>   0.0800 
 49 H       -8.5120    -3.6730     0.9750 H     1 <1>   0.0800 
@<TRIPOS>BOND
  1   1   2  1   
  2   2   3  ar  
  3   2   4  ar  
  4   3   5  ar  
  5   3  25  1   
  6   4   6  ar  
  7   4  26  1   
  8   5   7  ar  
  9   5   8  ar  
 10   6   8  ar  
 11   6  27  1   
 12   7   9  ar  
 13   8  10  ar  
 14   9  11  1   
 15   9  12  ar  
 16  10  12  ar  
 17  10  13  1   
 18  11  14  1   
 19  11  15  1   
 20  12  28  1   
 21  13  29  1   
 22  13  30  1   
 23  13  31  1   
 24  14  16  1   
 25  14  32  1   
 26  14  33  1   
 27  15  17  1   
 28  15  34  1   
 29  15  35  1   
 30  16  17  1   
 31  16  18  1   
 32  16  36  1   
 33  17  19  1   
 34  17  37  1   
 35  18  20  1   
 36  18  21  1   
 37  18  22  1   
 38  19  23  1   
 39  19  38  1   
 40  19  39  1   
 41  20  40  1   
 42  21  23  1   
 43  21  41  1   
 44  21  42  1   
 45  22  24  1   
 46  22  43  1   
 47  22  44  1   
 48  23  45  1   
 49  23  46  1   
 50  24  47  1   
 51  24  48  1   
 52  24  49  1   
@<TRIPOS>SUBSTRUCTURE
  1 ****   7 GROUP 4 **** **** 0

# MOE 2024.06 (io_trps.svl 2023.06)
