@<TRIPOS>MOLECULE
NONAME
44 47 1 0 0 
SMALL
USER_CHARGES


@<TRIPOS>ATOM
  1 S       -0.0920     1.0220    -2.6990 S.3   1 <1>  -0.0800 
  2 C       -0.0450     2.0900    -1.3130 C.2   1 <1>  -0.1400 
  3 C        1.5490     1.4800    -3.1310 C.2   1 <1>  -0.1100 
  4 C        1.1320     2.7190    -1.2040 C.2   1 <1>  -0.1810 
  5 C       -1.2130     2.2590    -0.3790 C.3   1 <1>   0.0200 
  6 C        2.0480     2.3730    -2.2540 C.2   1 <1>  -0.1500 
  7 C        1.4040     3.6910    -0.0540 C.3   1 <1>   0.4610 
  8 C       -0.9770     3.5550     0.4140 C.3   1 <1>   0.1200 
  9 O        0.3470     3.6280     0.8890 O.3   1 <1>  -0.5600 
 10 C        2.6710     3.2830     0.7050 C.3   1 <1>  -0.1600 
 11 C        1.5330     5.1320    -0.5680 C.3   1 <1>  -0.1600 
 12 C        3.0070     4.2760     1.8170 C.3   1 <1>   0.1400 
 13 C        1.8830     6.1090     0.5570 C.3   1 <1>   0.1400 
 14 N        3.1220     5.6440     1.2370 N.am  1 <1>  -0.6600 
 15 C        4.2920     6.3850     1.3240 C.2   1 <1>   0.5440 
 16 O        5.3130     5.7940     1.6410 O.2   1 <1>  -0.5700 
 17 C        4.3740     7.8180     1.0190 C.ar  1 <1>   0.3960 
 18 N        3.4360     8.6710     1.4750 N.ar  1 <1>  -0.6200 
 19 C        5.4480     8.2700     0.2570 C.ar  1 <1>  -0.1500 
 20 C        3.5820     9.9470     1.1690 C.ar  1 <1>   0.1600 
 21 C        5.5840     9.6020    -0.0630 C.ar  1 <1>   0.0820 
 22 C        4.6160    10.4640     0.4140 C.ar  1 <1>  -0.1500 
 23 O        6.6430     9.9720    -0.8140 O.3   1 <1>  -0.3630 
 24 C        6.8720    11.3220    -1.1550 C.3   1 <1>   0.0400 
 25 H        1.9720     1.0250    -4.0090 H     1 <1>   0.1500 
 26 H       -1.2740     1.4190     0.2890 H     1 <1>   0.0800 
 27 H       -2.1310     2.3320    -0.9320 H     1 <1>   0.0800 
 28 H        3.0320     2.8070    -2.3030 H     1 <1>   0.1500 
 29 H       -1.6330     3.5940     1.2660 H     1 <1>   0.0800 
 30 H       -1.1660     4.4130    -0.2050 H     1 <1>   0.0800 
 31 H        3.5060     3.2400     0.0300 H     1 <1>   0.0800 
 32 H        2.5350     2.3010     1.1180 H     1 <1>   0.0800 
 33 H        0.6260     5.4360    -1.0540 H     1 <1>   0.0800 
 34 H        2.3140     5.1720    -1.3040 H     1 <1>   0.0800 
 35 H        3.9230     3.9840     2.3020 H     1 <1>   0.0800 
 36 H        2.2260     4.2750     2.5600 H     1 <1>   0.0800 
 37 H        1.0820     6.1530     1.2750 H     1 <1>   0.0800 
 38 H        2.0130     7.0900     0.1370 H     1 <1>   0.0800 
 39 H        6.1850     7.5680    -0.0860 H     1 <1>   0.1500 
 40 H        2.8310    10.6230     1.5430 H     1 <1>   0.1500 
 41 H        4.6470    11.5180     0.2160 H     1 <1>   0.1500 
 42 H        7.7730    11.3690    -1.7400 H     1 <1>   0.0800 
 43 H        6.9930    11.8940    -0.2520 H     1 <1>   0.0800 
 44 H        6.0410    11.6820    -1.7340 H     1 <1>   0.0800 
@<TRIPOS>BOND
  1   1   2  1   
  2   1   3  1   
  3   2   4  2   
  4   2   5  1   
  5   3   6  2   
  6   3  25  1   
  7   4   6  1   
  8   4   7  1   
  9   5   8  1   
 10   5  26  1   
 11   5  27  1   
 12   6  28  1   
 13   7   9  1   
 14   7  10  1   
 15   7  11  1   
 16   8   9  1   
 17   8  29  1   
 18   8  30  1   
 19  10  12  1   
 20  10  31  1   
 21  10  32  1   
 22  11  13  1   
 23  11  33  1   
 24  11  34  1   
 25  12  14  1   
 26  12  35  1   
 27  12  36  1   
 28  13  14  1   
 29  13  37  1   
 30  13  38  1   
 31  14  15  am  
 32  15  16  2   
 33  15  17  1   
 34  17  18  ar  
 35  17  19  ar  
 36  18  20  ar  
 37  19  21  ar  
 38  19  39  1   
 39  20  22  ar  
 40  20  40  1   
 41  21  22  ar  
 42  21  23  1   
 43  22  41  1   
 44  23  24  1   
 45  24  42  1   
 46  24  43  1   
 47  24  44  1   
@<TRIPOS>SUBSTRUCTURE
  1 ****  13 GROUP 4 **** **** 0

# MOE 2024.06 (io_trps.svl 2023.06)
