@<TRIPOS>MOLECULE
NONAME
36 37 1 0 0 
SMALL
USER_CHARGES


@<TRIPOS>ATOM
  1 CL       0.0720    -3.2870     2.9940 Cl    1 <1>  -0.1770 
  2 C        1.2450    -2.5860     1.8920 C.ar  1 <1>   0.1770 
  3 C        1.4110    -3.0930     0.6090 C.ar  1 <1>   0.4100 
  4 C        2.0160    -1.5250     2.2780 C.ar  1 <1>   0.1600 
  5 N        2.2940    -2.5520    -0.2110 N.ar  1 <1>  -0.6200 
  6 N        0.6720    -4.1610     0.1550 N.pl3 1 <1>  -0.8690 
  7 N        2.9040    -0.9790     1.4630 N.ar  1 <1>  -0.6200 
  8 C        2.9870    -1.5320     0.2630 C.ar  1 <1>   0.4770 
  9 C        0.5140    -4.4880    -1.2780 C.3   1 <1>   0.4690 
 10 C        3.9920    -0.9230    -0.6850 C.3   1 <1>  -0.0960 
 11 C       -0.8250    -5.1840    -1.5090 C.2   1 <1>   0.0070 
 12 C        1.6760    -5.3720    -1.7330 C.3   1 <1>  -0.2400 
 13 N       -1.6480    -4.8270    -2.4380 N.2   1 <1>  -0.3380 
 14 N       -1.3060    -6.2250    -0.8090 N.pl3 1 <1>   0.0480 
 15 N       -2.7010    -5.6400    -2.3710 N.2   1 <1>  -0.3380 
 16 C       -2.4780    -6.4570    -1.4040 C.2   1 <1>   0.0370 
 17 C       -0.7560    -6.9730     0.3450 C.3   1 <1>   0.0960 
 18 C       -1.5170    -6.6200     1.6300 C.3   1 <1>  -0.1600 
 19 C       -0.8800    -7.2880     2.8530 C.3   1 <1>  -0.2400 
 20 H        1.9090    -1.1120     3.2650 H     1 <1>   0.1500 
 21 H       -0.2040    -4.3050     0.6610 H     1 <1>   0.4000 
 22 H        0.5230    -3.5760    -1.8530 H     1 <1>   0.0800 
 23 H        4.5140    -1.7010    -1.2100 H     1 <1>   0.0800 
 24 H        4.7050    -0.3270    -0.1460 H     1 <1>   0.0800 
 25 H        3.4790    -0.3010    -1.3940 H     1 <1>   0.0800 
 26 H        1.7280    -6.2750    -1.1590 H     1 <1>   0.0800 
 27 H        2.6030    -4.8390    -1.6370 H     1 <1>   0.0800 
 28 H        1.5410    -5.6280    -2.7680 H     1 <1>   0.0800 
 29 H       -3.1490    -7.2390    -1.0980 H     1 <1>   0.1500 
 30 H        0.2850    -6.7370     0.4640 H     1 <1>   0.0800 
 31 H       -0.8390    -8.0270     0.1450 H     1 <1>   0.0800 
 32 H       -2.5410    -6.9440     1.5460 H     1 <1>   0.0800 
 33 H       -1.5120    -5.5530     1.7760 H     1 <1>   0.0800 
 34 H       -0.8850    -8.3590     2.7480 H     1 <1>   0.0800 
 35 H       -1.4300    -7.0300     3.7410 H     1 <1>   0.0800 
 36 H        0.1370    -6.9560     2.9770 H     1 <1>   0.0800 
@<TRIPOS>BOND
  1   1   2  1   
  2   2   3  ar  
  3   2   4  ar  
  4   3   5  ar  
  5   3   6  1   
  6   4   7  ar  
  7   4  20  1   
  8   5   8  ar  
  9   6   9  1   
 10   6  21  1   
 11   7   8  ar  
 12   8  10  1   
 13   9  11  1   
 14   9  12  1   
 15   9  22  1   
 16  10  23  1   
 17  10  24  1   
 18  10  25  1   
 19  11  13  2   
 20  11  14  1   
 21  12  26  1   
 22  12  27  1   
 23  12  28  1   
 24  13  15  1   
 25  14  16  1   
 26  14  17  1   
 27  15  16  2   
 28  16  29  1   
 29  17  18  1   
 30  17  30  1   
 31  17  31  1   
 32  18  19  1   
 33  18  32  1   
 34  18  33  1   
 35  19  34  1   
 36  19  35  1   
 37  19  36  1   
@<TRIPOS>SUBSTRUCTURE
  1 ****   6 GROUP 4 **** **** 0

# MOE 2024.06 (io_trps.svl 2023.06)
