@<TRIPOS>MOLECULE
NONAME
47 48 1 0 0 
SMALL
USER_CHARGES


@<TRIPOS>ATOM
  1 O        0.1080    -2.3900     0.5960 O.2   1 <1>  -0.5700 
  2 C        1.1770    -1.9680     0.2640 C.2   1 <1>   0.4480 
  3 C        2.0860    -2.8140    -0.6220 C.3   1 <1>  -0.0190 
  4 C        1.6790    -0.6120     0.7310 C.3   1 <1>  -0.0990 
  5 C        1.2060    -3.6220    -1.5920 C.3   1 <1>   0.3430 
  6 C        2.9920    -3.7240     0.2480 C.3   1 <1>  -0.1600 
  7 C        1.0990     0.5600    -0.0820 C.3   1 <1>  -0.0800 
  8 N        0.6070    -4.7660    -0.8510 N.4   1 <1>  -0.9590 
  9 C        3.0200    -5.1760    -0.2620 C.3   1 <1>  -0.1600 
 10 C        1.4940     0.4990    -1.5640 C.3   1 <1>  -0.2400 
 11 C        1.5690     1.8910     0.5170 C.3   1 <1>  -0.2400 
 12 C        1.6150    -5.7850    -0.4080 C.3   1 <1>   0.3430 
 13 C       -0.5710    -5.3600    -1.5390 C.3   1 <1>   0.4860 
 14 C       -1.1780    -6.4400    -0.6650 C.ar  1 <1>  -0.1430 
 15 C       -1.9120    -6.1470     0.4830 C.ar  1 <1>   0.1670 
 16 C       -0.9830    -7.7630    -1.0180 C.ar  1 <1>  -0.1500 
 17 N       -2.4130    -7.0690     1.2840 N.ar  1 <1>  -0.6200 
 18 C       -2.2060    -4.7260     0.9380 C.3   1 <1>  -0.0970 
 19 C       -1.5200    -8.7240    -0.1900 C.ar  1 <1>  -0.1500 
 20 C       -2.2150    -8.3290     0.9360 C.ar  1 <1>   0.1600 
 21 H        2.7010    -2.1590    -1.2120 H     1 <1>   0.0800 
 22 H        2.7530    -0.5880     0.7020 H     1 <1>   0.0800 
 23 H        1.3840    -0.4960     1.7600 H     1 <1>   0.0800 
 24 H        1.8020    -3.9900    -2.4110 H     1 <1>   0.0800 
 25 H        0.4320    -2.9830    -1.9860 H     1 <1>   0.0800 
 26 H        2.6330    -3.7340     1.2640 H     1 <1>   0.0800 
 27 H        3.9940    -3.3260     0.2710 H     1 <1>   0.0800 
 28 H        0.0230     0.5260    -0.0130 H     1 <1>   0.0800 
 29 H        0.2300    -4.3310     0.0140 H     1 <1>   0.4500 
 30 H        3.5960    -5.7870     0.4110 H     1 <1>   0.0800 
 31 H        3.5170    -5.2130    -1.2160 H     1 <1>   0.0800 
 32 H        2.5650     0.4870    -1.6750 H     1 <1>   0.0800 
 33 H        1.1150     1.3640    -2.0800 H     1 <1>   0.0800 
 34 H        1.0770    -0.3690    -2.0400 H     1 <1>   0.0800 
 35 H        2.6400     1.9790     0.4660 H     1 <1>   0.0800 
 36 H        1.2670     1.9690     1.5470 H     1 <1>   0.0800 
 37 H        1.1340     2.7170    -0.0190 H     1 <1>   0.0800 
 38 H        1.6590    -6.5960    -1.1170 H     1 <1>   0.0800 
 39 H        1.3000    -6.1960     0.5390 H     1 <1>   0.0800 
 40 H       -0.2690    -5.7860    -2.4820 H     1 <1>   0.0800 
 41 H       -1.3090    -4.5980    -1.7350 H     1 <1>   0.0800 
 42 H       -0.4380    -8.0550    -1.9000 H     1 <1>   0.1500 
 43 H       -2.1390    -4.0090     0.1430 H     1 <1>   0.0800 
 44 H       -1.5280    -4.4490     1.7250 H     1 <1>   0.0800 
 45 H       -3.2060    -4.6790     1.3330 H     1 <1>   0.0800 
 46 H       -1.4050    -9.7710    -0.4100 H     1 <1>   0.1500 
 47 H       -2.6310    -9.0840     1.5830 H     1 <1>   0.1500 
@<TRIPOS>BOND
  1   1   2  2   
  2   2   3  1   
  3   2   4  1   
  4   3   5  1   
  5   3   6  1   
  6   3  21  1   
  7   4   7  1   
  8   4  22  1   
  9   4  23  1   
 10   5   8  1   
 11   5  24  1   
 12   5  25  1   
 13   6   9  1   
 14   6  26  1   
 15   6  27  1   
 16   7  10  1   
 17   7  11  1   
 18   7  28  1   
 19   8  12  1   
 20   8  13  1   
 21   8  29  1   
 22   9  12  1   
 23   9  30  1   
 24   9  31  1   
 25  10  32  1   
 26  10  33  1   
 27  10  34  1   
 28  11  35  1   
 29  11  36  1   
 30  11  37  1   
 31  12  38  1   
 32  12  39  1   
 33  13  14  1   
 34  13  40  1   
 35  13  41  1   
 36  14  15  ar  
 37  14  16  ar  
 38  15  17  ar  
 39  15  18  1   
 40  16  19  ar  
 41  16  42  1   
 42  17  20  ar  
 43  18  43  1   
 44  18  44  1   
 45  18  45  1   
 46  19  20  ar  
 47  19  46  1   
 48  20  47  1   
@<TRIPOS>SUBSTRUCTURE
  1 ****   8 GROUP 4 **** **** 0

# MOE 2024.06 (io_trps.svl 2023.06)
