@<TRIPOS>MOLECULE
NONAME
36 39 1 0 0 
SMALL
USER_CHARGES


@<TRIPOS>ATOM
  1 CL       0.5020    -0.3070    -2.5190 Cl    1 <1>  -0.1770 
  2 C        1.4650    -1.1600    -1.3220 C.ar  1 <1>   0.1770 
  3 C        1.0750    -2.3890    -0.7930 C.ar  1 <1>   0.4100 
  4 C        2.6450    -0.6160    -0.8970 C.ar  1 <1>   0.1600 
  5 N        1.8490    -3.0010     0.0880 N.ar  1 <1>  -0.6200 
  6 N       -0.1070    -3.0220    -1.1320 N.pl3 1 <1>  -0.8380 
  7 N        3.4150    -1.2190    -0.0070 N.ar  1 <1>  -0.6200 
  8 C        2.9630    -2.3820     0.4310 C.ar  1 <1>   0.4770 
  9 C       -0.1450    -4.5140    -1.2840 C.3   1 <1>   0.3900 
 10 C       -1.4100    -2.3750    -0.7880 C.3   1 <1>   0.2090 
 11 C        3.8300    -3.0910     1.4430 C.3   1 <1>  -0.0960 
 12 C       -1.1300    -5.1480    -0.3140 C.2   1 <1>  -0.1810 
 13 C       -1.9470    -2.9070     0.5430 C.3   1 <1>   0.0210 
 14 C       -1.4290    -6.4400    -0.0520 C.2   1 <1>  -0.2370 
 15 C       -1.9670    -4.4160     0.5160 C.2   1 <1>   0.1080 
 16 N       -2.4000    -6.4200     0.8860 N.pl3 1 <1>   0.3000 
 17 C       -0.8680    -7.7230    -0.6310 C.3   1 <1>  -0.0150 
 18 N       -2.7390    -5.1650     1.2380 N.2   1 <1>  -0.7070 
 19 C       -0.1160    -8.6620     0.2570 C.3   1 <1>  -0.2000 
 20 C        0.6090    -7.8900    -0.8020 C.3   1 <1>  -0.2000 
 21 H        2.9690     0.3310    -1.2910 H     1 <1>   0.1500 
 22 H        0.8330    -4.9340    -1.1300 H     1 <1>   0.0800 
 23 H       -0.4480    -4.7500    -2.2880 H     1 <1>   0.0800 
 24 H       -2.1190    -2.5850    -1.5710 H     1 <1>   0.0800 
 25 H       -1.2920    -1.3090    -0.7190 H     1 <1>   0.0800 
 26 H        3.2330    -3.7510     2.0460 H     1 <1>   0.0800 
 27 H        4.3090    -2.3740     2.0830 H     1 <1>   0.0800 
 28 H        4.5780    -3.6640     0.9300 H     1 <1>   0.0800 
 29 H       -2.9400    -2.5360     0.7140 H     1 <1>   0.0800 
 30 H       -1.3140    -2.5800     1.3470 H     1 <1>   0.0800 
 31 H       -2.8420    -7.2460     1.3030 H     1 <1>   0.2700 
 32 H       -1.5080    -8.1560    -1.3800 H     1 <1>   0.1000 
 33 H       -0.2490    -9.7210     0.1240 H     1 <1>   0.1000 
 34 H        0.0480    -8.3890     1.2860 H     1 <1>   0.1000 
 35 H        1.2760    -7.1100    -0.4770 H     1 <1>   0.1000 
 36 H        0.9720    -8.4110    -1.6700 H     1 <1>   0.1000 
@<TRIPOS>BOND
  1   1   2  1   
  2   2   3  ar  
  3   2   4  ar  
  4   3   5  ar  
  5   3   6  1   
  6   4   7  ar  
  7   4  21  1   
  8   5   8  ar  
  9   6   9  1   
 10   6  10  1   
 11   7   8  ar  
 12   8  11  1   
 13   9  12  1   
 14   9  22  1   
 15   9  23  1   
 16  10  13  1   
 17  10  24  1   
 18  10  25  1   
 19  11  26  1   
 20  11  27  1   
 21  11  28  1   
 22  12  14  2   
 23  12  15  1   
 24  13  15  1   
 25  13  29  1   
 26  13  30  1   
 27  14  16  1   
 28  14  17  1   
 29  15  18  2   
 30  16  18  1   
 31  16  31  1   
 32  17  19  1   
 33  17  20  1   
 34  17  32  1   
 35  19  20  1   
 36  19  33  1   
 37  19  34  1   
 38  20  35  1   
 39  20  36  1   
@<TRIPOS>SUBSTRUCTURE
  1 ****   9 GROUP 4 **** **** 0

# MOE 2024.06 (io_trps.svl 2023.06)
