@<TRIPOS>MOLECULE
NONAME
54 56 1 0 0 
SMALL
USER_CHARGES


@<TRIPOS>ATOM
  1 S        0.1120    -0.2190    -0.1930 S.3   1 <1>  -0.0800 
  2 C       -1.4280    -0.8950     0.1960 C.2   1 <1>   0.4420 
  3 C       -0.5710     1.3650     0.0450 C.2   1 <1>   0.3250 
  4 N       -2.2970     0.0110     0.4590 N.2   1 <1>  -0.3380 
  5 N       -1.5280    -2.2690     0.1720 N.am  1 <1>  -0.4940 
  6 N       -1.8120     1.2790     0.3730 N.2   1 <1>  -0.3380 
  7 C        0.2430     2.5470    -0.1320 C.ar  1 <1>   0.0530 
  8 C       -2.6090    -3.0550     0.4530 C.2   1 <1>   0.5690 
  9 C       -0.3170     3.8130     0.0590 C.ar  1 <1>  -0.1500 
 10 C        1.5940     2.5050    -0.4910 C.ar  1 <1>  -0.1500 
 11 O       -3.6760    -2.6230     0.8020 O.2   1 <1>  -0.5700 
 12 C       -2.4400    -4.5640     0.3220 C.3   1 <1>  -0.0990 
 13 C        0.4230     4.9690    -0.0990 C.ar  1 <1>  -0.1500 
 14 C        2.3380     3.6600    -0.6510 C.ar  1 <1>  -0.1500 
 15 C       -3.7840    -5.3260     0.4060 C.3   1 <1>  -0.1600 
 16 C        1.7580     4.9020    -0.4580 C.ar  1 <1>  -0.1430 
 17 C       -3.6660    -6.8450     0.2200 C.3   1 <1>   0.4230 
 18 C        2.5740     6.1700    -0.6310 C.3   1 <1>  -0.0970 
 19 N       -5.0230    -7.4160     0.0360 N.4   1 <1>  -0.9590 
 20 C       -2.9540    -7.5210     1.3960 C.3   1 <1>  -0.2400 
 21 C       -5.9710    -7.2930     1.1990 C.3   1 <1>   0.3430 
 22 C       -5.0400    -8.8160    -0.5060 C.3   1 <1>   0.3430 
 23 C       -7.4000    -7.7360     0.7970 C.3   1 <1>   0.1100 
 24 C       -6.4800    -9.2590    -0.8670 C.3   1 <1>   0.1100 
 25 N       -7.4740    -8.1900    -0.6110 N.3   1 <1>  -0.8100 
 26 C       -8.8320    -8.6260    -0.9630 C.3   1 <1>   0.0300 
 27 H       -0.6710    -2.7480    -0.0880 H     1 <1>   0.3700 
 28 H       -1.3540     3.8910     0.3380 H     1 <1>   0.1500 
 29 H        2.0860     1.5650    -0.6520 H     1 <1>   0.1500 
 30 H       -1.7850    -4.8860     1.1110 H     1 <1>   0.0800 
 31 H       -1.9690    -4.7740    -0.6210 H     1 <1>   0.0800 
 32 H       -0.0460     5.9250     0.0580 H     1 <1>   0.1500 
 33 H        3.3760     3.5910    -0.9270 H     1 <1>   0.1500 
 34 H       -4.4300    -4.9320    -0.3610 H     1 <1>   0.0800 
 35 H       -4.2330    -5.1100     1.3600 H     1 <1>   0.0800 
 36 H       -3.0970    -7.0290    -0.6780 H     1 <1>   0.0800 
 37 H        1.9460     6.9790    -0.9590 H     1 <1>   0.0800 
 38 H        3.3470     6.0230    -1.3630 H     1 <1>   0.0800 
 39 H        3.0290     6.4400     0.3050 H     1 <1>   0.0800 
 40 H       -5.5120    -6.8830    -0.7010 H     1 <1>   0.4500 
 41 H       -3.4260    -7.2810     2.3310 H     1 <1>   0.0800 
 42 H       -1.9350    -7.1850     1.4480 H     1 <1>   0.0800 
 43 H       -2.9280    -8.5880     1.2730 H     1 <1>   0.0800 
 44 H       -6.0110    -6.2720     1.5390 H     1 <1>   0.0800 
 45 H       -5.6290    -7.9000     2.0200 H     1 <1>   0.0800 
 46 H       -4.6340    -9.5000     0.2200 H     1 <1>   0.0800 
 47 H       -4.4280    -8.8750    -1.3910 H     1 <1>   0.0800 
 48 H       -8.0720    -6.9050     0.9370 H     1 <1>   0.0800 
 49 H       -7.7220    -8.5250     1.4560 H     1 <1>   0.0800 
 50 H       -6.7330   -10.1380    -0.2990 H     1 <1>   0.0800 
 51 H       -6.5100    -9.5290    -1.9090 H     1 <1>   0.0800 
 52 H       -9.5290    -7.8190    -0.8090 H     1 <1>   0.0800 
 53 H       -9.1330    -9.4670    -0.3600 H     1 <1>   0.0800 
 54 H       -8.8710    -8.9080    -2.0020 H     1 <1>   0.0800 
@<TRIPOS>BOND
  1   1   2  1   
  2   1   3  1   
  3   2   4  2   
  4   2   5  1   
  5   3   6  2   
  6   3   7  1   
  7   4   6  1   
  8   5   8  am  
  9   5  27  1   
 10   7   9  ar  
 11   7  10  ar  
 12   8  11  2   
 13   8  12  1   
 14   9  13  ar  
 15   9  28  1   
 16  10  14  ar  
 17  10  29  1   
 18  12  15  1   
 19  12  30  1   
 20  12  31  1   
 21  13  16  ar  
 22  13  32  1   
 23  14  16  ar  
 24  14  33  1   
 25  15  17  1   
 26  15  34  1   
 27  15  35  1   
 28  16  18  1   
 29  17  19  1   
 30  17  20  1   
 31  17  36  1   
 32  18  37  1   
 33  18  38  1   
 34  18  39  1   
 35  19  21  1   
 36  19  22  1   
 37  19  40  1   
 38  20  41  1   
 39  20  42  1   
 40  20  43  1   
 41  21  23  1   
 42  21  44  1   
 43  21  45  1   
 44  22  24  1   
 45  22  46  1   
 46  22  47  1   
 47  23  25  1   
 48  23  48  1   
 49  23  49  1   
 50  24  25  1   
 51  24  50  1   
 52  24  51  1   
 53  25  26  1   
 54  26  52  1   
 55  26  53  1   
 56  26  54  1   
@<TRIPOS>SUBSTRUCTURE
  1 ****   8 GROUP 4 **** **** 0

# MOE 2024.06 (io_trps.svl 2023.06)
