@<TRIPOS>MOLECULE
NONAME
45 47 1 0 0 
SMALL
USER_CHARGES


@<TRIPOS>ATOM
  1 O       -3.2120     1.5980    -2.2690 O.2   1 <1>  -0.5700 
  2 C       -2.7720     1.5630    -1.1470 C.2   1 <1>   0.5690 
  3 N       -2.6090     0.4000    -0.4740 N.am  1 <1>  -0.7300 
  4 C       -2.3850     2.8570    -0.4600 C.3   1 <1>  -0.0990 
  5 C       -2.8850    -0.9450    -1.0250 C.3   1 <1>   0.2200 
  6 C       -0.8630     2.9810    -0.2750 C.3   1 <1>  -0.1600 
  7 C       -4.0130    -1.5860    -0.2350 C.3   1 <1>  -0.0800 
  8 C       -1.7180    -1.8700    -0.7000 C.3   1 <1>   0.1200 
  9 C       -0.4760     4.3100     0.3870 C.3   1 <1>   0.0210 
 10 C       -3.2740    -2.1990     0.9630 C.3   1 <1>   0.1200 
 11 C       -4.7540    -2.6480    -1.0710 C.3   1 <1>  -0.0170 
 12 O       -1.9210    -2.2830     0.6170 O.3   1 <1>  -0.5600 
 13 C        1.0230     4.4220     0.6170 C.2   1 <1>  -0.1810 
 14 C       -5.8970    -3.2760    -0.2880 C.ar  1 <1>  -0.1440 
 15 C        1.6580     5.4820     1.2580 C.2   1 <1>   0.1390 
 16 C        2.0270     3.5830     0.2790 C.2   1 <1>  -0.3020 
 17 C       -5.8190    -4.5530     0.2310 C.ar  1 <1>  -0.1500 
 18 C       -7.0770    -2.5980    -0.0590 C.ar  1 <1>  -0.1500 
 19 N        2.9440     5.3250     1.3200 N.2   1 <1>  -0.7070 
 20 N        3.1710     4.1460     0.7120 N.pl3 1 <1>   0.3000 
 21 C       -6.8900    -5.0710     0.9390 C.ar  1 <1>   0.1600 
 22 C       -8.0900    -3.2080     0.6620 C.ar  1 <1>   0.1600 
 23 N       -8.0240    -4.4280     1.1690 N.ar  1 <1>  -0.6200 
 24 H       -2.2040     0.3920     0.4640 H     1 <1>   0.3700 
 25 H       -2.7440     3.6770    -1.0570 H     1 <1>   0.0800 
 26 H       -2.8800     2.9010     0.4930 H     1 <1>   0.0800 
 27 H       -3.0800    -0.8890    -2.0830 H     1 <1>   0.0800 
 28 H       -0.5060     2.1680     0.3330 H     1 <1>   0.0800 
 29 H       -0.3850     2.9140    -1.2380 H     1 <1>   0.0800 
 30 H       -4.7260    -0.8480     0.0900 H     1 <1>   0.0800 
 31 H       -0.7640    -1.3810    -0.7850 H     1 <1>   0.0800 
 32 H       -1.7370    -2.7440    -1.3260 H     1 <1>   0.0800 
 33 H       -0.9750     4.3980     1.3370 H     1 <1>   0.0800 
 34 H       -0.7930     5.1290    -0.2340 H     1 <1>   0.0800 
 35 H       -3.6280    -3.1830     1.2170 H     1 <1>   0.0800 
 36 H       -3.3500    -1.5610     1.8260 H     1 <1>   0.0800 
 37 H       -4.0700    -3.4160    -1.3890 H     1 <1>   0.0800 
 38 H       -5.1570    -2.1870    -1.9560 H     1 <1>   0.0800 
 39 H        1.1500     6.3420     1.6620 H     1 <1>   0.1500 
 40 H        1.9980     2.6390    -0.2340 H     1 <1>   0.1500 
 41 H       -4.9360    -5.1510     0.0940 H     1 <1>   0.1500 
 42 H       -7.2190    -1.6010    -0.4350 H     1 <1>   0.1500 
 43 H        4.1160     3.7570     0.6090 H     1 <1>   0.2700 
 44 H       -6.8110    -6.0680     1.3380 H     1 <1>   0.1500 
 45 H       -9.0030    -2.6630     0.8310 H     1 <1>   0.1500 
@<TRIPOS>BOND
  1   1   2  2   
  2   2   3  am  
  3   2   4  1   
  4   3   5  1   
  5   3  24  1   
  6   4   6  1   
  7   4  25  1   
  8   4  26  1   
  9   5   7  1   
 10   5   8  1   
 11   5  27  1   
 12   6   9  1   
 13   6  28  1   
 14   6  29  1   
 15   7  10  1   
 16   7  11  1   
 17   7  30  1   
 18   8  12  1   
 19   8  31  1   
 20   8  32  1   
 21   9  13  1   
 22   9  33  1   
 23   9  34  1   
 24  10  12  1   
 25  10  35  1   
 26  10  36  1   
 27  11  14  1   
 28  11  37  1   
 29  11  38  1   
 30  13  15  1   
 31  13  16  2   
 32  14  17  ar  
 33  14  18  ar  
 34  15  19  2   
 35  15  39  1   
 36  16  20  1   
 37  16  40  1   
 38  17  21  ar  
 39  17  41  1   
 40  18  22  ar  
 41  18  42  1   
 42  19  20  1   
 43  20  43  1   
 44  21  23  ar  
 45  21  44  1   
 46  22  23  ar  
 47  22  45  1   
@<TRIPOS>SUBSTRUCTURE
  1 ****   3 GROUP 4 **** **** 0

# MOE 2024.06 (io_trps.svl 2023.06)
