@<TRIPOS>MOLECULE
NONAME
38 39 1 0 0 
SMALL
USER_CHARGES


@<TRIPOS>ATOM
  1 O       -1.5030    -0.2150    -1.0400 O.2   1 <1>  -0.5700 
  2 C       -2.2450     0.6990    -0.7120 C.2   1 <1>   0.7160 
  3 N       -3.6000     0.5240    -0.9260 N.am  1 <1>  -0.6600 
  4 C       -1.6810     1.9000    -0.1020 C.2   1 <1>   0.1410 
  5 C       -4.0890    -0.5100    -1.8720 C.3   1 <1>   0.3200 
  6 C       -4.6390     1.1110    -0.0260 C.3   1 <1>   0.1400 
  7 N       -2.2870     3.1300    -0.1150 N.2   1 <1>  -0.5650 
  8 C       -0.4990     2.0480     0.5470 C.2   1 <1>  -0.0400 
  9 C       -4.3290    -1.7960    -1.1130 C.2   1 <1>  -0.3320 
 10 C       -5.4480     2.2000    -0.7400 C.3   1 <1>   0.1200 
 11 C       -1.4600     3.8900     0.4990 C.2   1 <1>   0.3280 
 12 O       -0.3760     3.2890     0.9160 O.3   1 <1>  -0.2800 
 13 C        0.6200     1.0780     0.8920 C.3   1 <1>   0.0200 
 14 N       -3.3370    -2.4480    -0.4850 N.pl3 1 <1>   0.0330 
 15 C       -5.4510    -2.5190    -0.9030 C.2   1 <1>   0.0770 
 16 O       -6.5110     2.5880     0.0640 O.3   1 <1>  -0.6800 
 17 C        1.8650     1.3600     0.0470 C.3   1 <1>  -0.2400 
 18 C       -3.9190    -3.5290     0.0760 C.2   1 <1>   0.0070 
 19 N       -5.1890    -3.6060    -0.1530 N.2   1 <1>  -0.5650 
 20 C       -3.1470    -4.5420     0.8910 C.3   1 <1>  -0.0600 
 21 H       -3.3610    -0.6760    -2.6480 H     1 <1>   0.0800 
 22 H       -5.0000    -0.1810    -2.3390 H     1 <1>   0.0800 
 23 H       -4.1730     1.5350     0.8470 H     1 <1>   0.0800 
 24 H       -5.2980     0.3260     0.3010 H     1 <1>   0.0800 
 25 H       -5.8500     1.8440    -1.6710 H     1 <1>   0.0800 
 26 H       -4.8370     3.0680    -0.9200 H     1 <1>   0.0800 
 27 H       -1.5760     4.9420     0.6960 H     1 <1>   0.1500 
 28 H        0.3000     0.0660     0.7250 H     1 <1>   0.0800 
 29 H        0.8610     1.1790     1.9360 H     1 <1>   0.0800 
 30 H       -2.3530    -2.1500    -0.4480 H     1 <1>   0.2700 
 31 H       -6.4490    -2.3170    -1.2530 H     1 <1>   0.1500 
 32 H       -7.1450     1.8550     0.1900 H     1 <1>   0.4000 
 33 H        1.6320     1.2500    -0.9980 H     1 <1>   0.0800 
 34 H        2.6500     0.6710     0.3010 H     1 <1>   0.0800 
 35 H        2.2130     2.3630     0.2200 H     1 <1>   0.0800 
 36 H       -2.6990    -4.0650     1.7430 H     1 <1>   0.0800 
 37 H       -2.3790    -4.9920     0.2880 H     1 <1>   0.0800 
 38 H       -3.8120    -5.3130     1.2360 H     1 <1>   0.0800 
@<TRIPOS>BOND
  1   1   2  2   
  2   2   3  am  
  3   2   4  1   
  4   3   5  1   
  5   3   6  1   
  6   4   7  1   
  7   4   8  2   
  8   5   9  1   
  9   5  21  1   
 10   5  22  1   
 11   6  10  1   
 12   6  23  1   
 13   6  24  1   
 14   7  11  2   
 15   8  12  1   
 16   8  13  1   
 17   9  14  1   
 18   9  15  2   
 19  10  16  1   
 20  10  25  1   
 21  10  26  1   
 22  11  12  1   
 23  11  27  1   
 24  13  17  1   
 25  13  28  1   
 26  13  29  1   
 27  14  18  1   
 28  14  30  1   
 29  15  19  1   
 30  15  31  1   
 31  16  32  1   
 32  17  33  1   
 33  17  34  1   
 34  17  35  1   
 35  18  19  2   
 36  18  20  1   
 37  20  36  1   
 38  20  37  1   
 39  20  38  1   
@<TRIPOS>SUBSTRUCTURE
  1 ****   2 GROUP 4 **** **** 0

# MOE 2024.06 (io_trps.svl 2023.06)
