@<TRIPOS>MOLECULE
NONAME
48 51 1 0 0 
SMALL
USER_CHARGES


@<TRIPOS>ATOM
  1 O        0.2630     1.3090    -2.1820 O.2   1 <1>  -0.5700 
  2 C        0.1510     2.2680    -1.4430 C.2   1 <1>   0.5440 
  3 N       -1.0690     2.8990    -1.3240 N.am  1 <1>  -0.6600 
  4 C        1.2950     2.7000    -0.6820 C.ar  1 <1>   0.0860 
  5 C       -2.2640     2.4710    -2.1060 C.3   1 <1>   0.1400 
  6 C       -1.3560     3.9960    -0.3580 C.3   1 <1>   0.1400 
  7 C        1.6990     2.0280     0.4730 C.ar  1 <1>   0.0000 
  8 C        2.0580     3.8060    -1.0090 C.ar  1 <1>  -0.1500 
  9 C       -3.3480     1.9900    -1.1400 C.3   1 <1>  -0.1600 
 10 C       -2.4220     3.5220     0.6300 C.3   1 <1>  -0.1600 
 11 C        2.7640     2.5160     1.1840 C.ar  1 <1>   0.3970 
 12 C        1.3150     0.9030     1.2220 C.2   1 <1>   0.1080 
 13 C        3.1330     4.2030    -0.2100 C.ar  1 <1>   0.1660 
 14 C       -3.6930     3.0550    -0.0940 C.3   1 <1>   0.4180 
 15 O        2.9360     1.7330     2.2350 O.3   1 <1>  -0.0190 
 16 N        3.5020     3.5870     0.8900 N.ar  1 <1>  -0.5670 
 17 N        2.0560     0.7570     2.2550 N.2   1 <1>  -0.4100 
 18 C        0.1790    -0.0310     0.8580 C.3   1 <1>  -0.0590 
 19 C        3.9490     5.4190    -0.5990 C.3   1 <1>  -0.0960 
 20 O       -4.2450     4.1370    -0.8050 O.3   1 <1>  -0.5600 
 21 C       -4.7090     2.4900     0.8960 C.2   1 <1>  -0.2880 
 22 C       -5.0390     5.0440    -0.0910 C.3   1 <1>   0.1200 
 23 C       -5.8920     3.0510     1.1580 C.2   1 <1>  -0.2760 
 24 C       -6.2840     4.3480     0.4740 C.3   1 <1>  -0.0220 
 25 C       -6.9260     2.4760     2.1100 C.3   1 <1>  -0.1020 
 26 H       -2.0130     1.6820    -2.7930 H     1 <1>   0.0800 
 27 H       -2.6280     3.3070    -2.6790 H     1 <1>   0.0800 
 28 H       -1.7170     4.8550    -0.9000 H     1 <1>   0.0800 
 29 H       -0.4720     4.2890     0.1800 H     1 <1>   0.0800 
 30 H        1.8130     4.3640    -1.8950 H     1 <1>   0.1500 
 31 H       -3.0000     1.0990    -0.6510 H     1 <1>   0.0800 
 32 H       -4.2360     1.7340    -1.6880 H     1 <1>   0.0800 
 33 H       -2.6580     4.3050     1.3240 H     1 <1>   0.0800 
 34 H       -2.0210     2.7050     1.2020 H     1 <1>   0.0800 
 35 H       -0.7410     0.5170     0.7830 H     1 <1>   0.0800 
 36 H        0.0710    -0.7930     1.6090 H     1 <1>   0.0800 
 37 H        0.3840    -0.5030    -0.0860 H     1 <1>   0.0800 
 38 H        3.5910     5.8560    -1.5130 H     1 <1>   0.0800 
 39 H        4.9770     5.1330    -0.7310 H     1 <1>   0.0800 
 40 H        3.8950     6.1540     0.1830 H     1 <1>   0.0800 
 41 H       -4.3760     1.5800     1.3600 H     1 <1>   0.1500 
 42 H       -5.3260     5.8310    -0.7650 H     1 <1>   0.0800 
 43 H       -4.4500     5.4660     0.7040 H     1 <1>   0.0800 
 44 H       -6.9800     4.1460    -0.3200 H     1 <1>   0.0800 
 45 H       -6.7570     5.0110     1.1750 H     1 <1>   0.0800 
 46 H       -7.1230     3.1690     2.9080 H     1 <1>   0.0800 
 47 H       -6.5740     1.5540     2.5360 H     1 <1>   0.0800 
 48 H       -7.8430     2.2800     1.5840 H     1 <1>   0.0800 
@<TRIPOS>BOND
  1   1   2  2   
  2   2   3  am  
  3   2   4  1   
  4   3   5  1   
  5   3   6  1   
  6   4   7  ar  
  7   4   8  ar  
  8   5   9  1   
  9   5  26  1   
 10   5  27  1   
 11   6  10  1   
 12   6  28  1   
 13   6  29  1   
 14   7  11  ar  
 15   7  12  1   
 16   8  13  ar  
 17   8  30  1   
 18   9  14  1   
 19   9  31  1   
 20   9  32  1   
 21  10  14  1   
 22  10  33  1   
 23  10  34  1   
 24  11  15  1   
 25  11  16  ar  
 26  12  17  2   
 27  12  18  1   
 28  13  16  ar  
 29  13  19  1   
 30  14  20  1   
 31  14  21  1   
 32  15  17  1   
 33  18  35  1   
 34  18  36  1   
 35  18  37  1   
 36  19  38  1   
 37  19  39  1   
 38  19  40  1   
 39  20  22  1   
 40  21  23  2   
 41  21  41  1   
 42  22  24  1   
 43  22  42  1   
 44  22  43  1   
 45  23  24  1   
 46  23  25  1   
 47  24  44  1   
 48  24  45  1   
 49  25  46  1   
 50  25  47  1   
 51  25  48  1   
@<TRIPOS>SUBSTRUCTURE
  1 ****   6 GROUP 4 **** **** 0

# MOE 2024.06 (io_trps.svl 2023.06)
