@<TRIPOS>MOLECULE
NONAME
55 58 1 0 0 
SMALL
USER_CHARGES


@<TRIPOS>ATOM
  1 S       -0.7990    -1.0060    -0.5580 S.3   1 <1>  -0.0800 
  2 C       -2.3430    -0.8260     0.2560 C.2   1 <1>  -0.1400 
  3 C       -0.5890     0.7320    -0.6680 C.2   1 <1>  -0.1400 
  4 C       -2.6360     0.4810     0.4160 C.2   1 <1>  -0.1500 
  5 C       -3.0320    -2.1250     0.6170 C.3   1 <1>   0.5230 
  6 C       -1.6400     1.3630    -0.1110 C.2   1 <1>  -0.1500 
  7 C        0.6840     1.2180    -1.3410 C.3   1 <1>   0.0200 
  8 N       -4.4770    -1.8830     0.8700 N.4   1 <1>  -0.9590 
  9 C        0.7680     2.7460    -1.3870 C.3   1 <1>  -0.2400 
 10 C       -5.0920    -3.0870     1.5360 C.3   1 <1>   0.3430 
 11 C       -5.1700    -1.5430    -0.4120 C.3   1 <1>   0.3430 
 12 C       -6.5060    -2.8370     2.0980 C.3   1 <1>   0.1400 
 13 C       -6.2660    -0.4890    -0.2110 C.3   1 <1>  -0.1600 
 14 N       -7.4170    -2.2630     1.0660 N.am  1 <1>  -0.6600 
 15 C       -7.2970    -0.7950     0.8820 C.3   1 <1>   0.1400 
 16 C       -8.2430    -3.0300     0.2520 C.2   1 <1>   0.7160 
 17 O       -9.0440    -2.4350    -0.4460 O.2   1 <1>  -0.5700 
 18 C       -8.1560    -4.4880     0.1640 C.2   1 <1>   0.2030 
 19 N       -7.0990    -5.2510     0.4170 N.2   1 <1>  -0.7070 
 20 C       -9.2290    -5.2850    -0.2410 C.2   1 <1>  -0.1500 
 21 N       -7.5170    -6.5070     0.1770 N.pl3 1 <1>   0.3000 
 22 C       -8.8040    -6.5700    -0.2250 C.2   1 <1>  -0.2050 
 23 C       -9.5020    -7.7920    -0.5390 C.ar  1 <1>   0.0530 
 24 C       -8.8760    -8.8460    -1.2010 C.ar  1 <1>  -0.1500 
 25 C      -10.8380    -7.9510    -0.1800 C.ar  1 <1>  -0.1500 
 26 C       -9.5550   -10.0180    -1.4830 C.ar  1 <1>  -0.1500 
 27 C      -11.5220    -9.1200    -0.4610 C.ar  1 <1>  -0.1500 
 28 C      -10.8800   -10.1580    -1.1120 C.ar  1 <1>  -0.1500 
 29 H       -3.5080     0.8990     0.8860 H     1 <1>   0.1500 
 30 H       -2.5590    -2.5360     1.4940 H     1 <1>   0.0800 
 31 H       -2.9160    -2.8290    -0.1920 H     1 <1>   0.0800 
 32 H       -1.7590     2.4310    -0.0450 H     1 <1>   0.1500 
 33 H        0.7210     0.8290    -2.3440 H     1 <1>   0.0800 
 34 H        1.5330     0.8320    -0.8030 H     1 <1>   0.0800 
 35 H       -4.5370    -1.0720     1.4930 H     1 <1>   0.4500 
 36 H       -0.0620     3.1490    -1.9410 H     1 <1>   0.0800 
 37 H        1.6800     3.0490    -1.8690 H     1 <1>   0.0800 
 38 H        0.7560     3.1510    -0.3910 H     1 <1>   0.0800 
 39 H       -4.4650    -3.4100     2.3510 H     1 <1>   0.0800 
 40 H       -5.1450    -3.9000     0.8310 H     1 <1>   0.0800 
 41 H       -5.6080    -2.4350    -0.8330 H     1 <1>   0.0800 
 42 H       -4.4600    -1.1570    -1.1280 H     1 <1>   0.0800 
 43 H       -6.4480    -2.1710     2.9410 H     1 <1>   0.0800 
 44 H       -6.9120    -3.7630     2.4690 H     1 <1>   0.0800 
 45 H       -6.8000    -0.4030    -1.1420 H     1 <1>   0.0800 
 46 H       -5.8260     0.4740    -0.0290 H     1 <1>   0.0800 
 47 H       -8.2530    -0.3730     0.6140 H     1 <1>   0.0800 
 48 H       -6.9990    -0.3380     1.8110 H     1 <1>   0.0800 
 49 H      -10.2020    -4.9150    -0.5160 H     1 <1>   0.1500 
 50 H       -6.9200    -7.3340     0.3020 H     1 <1>   0.2700 
 51 H       -7.8520    -8.7510    -1.5100 H     1 <1>   0.1500 
 52 H      -11.3440    -7.1500     0.3280 H     1 <1>   0.1500 
 53 H       -9.0550   -10.8220    -1.9950 H     1 <1>   0.1500 
 54 H      -12.5540    -9.2220    -0.1730 H     1 <1>   0.1500 
 55 H      -11.4100   -11.0690    -1.3310 H     1 <1>   0.1500 
@<TRIPOS>BOND
  1   1   2  1   
  2   1   3  1   
  3   2   4  2   
  4   2   5  1   
  5   3   6  2   
  6   3   7  1   
  7   4   6  1   
  8   4  29  1   
  9   5   8  1   
 10   5  30  1   
 11   5  31  1   
 12   6  32  1   
 13   7   9  1   
 14   7  33  1   
 15   7  34  1   
 16   8  10  1   
 17   8  11  1   
 18   8  35  1   
 19   9  36  1   
 20   9  37  1   
 21   9  38  1   
 22  10  12  1   
 23  10  39  1   
 24  10  40  1   
 25  11  13  1   
 26  11  41  1   
 27  11  42  1   
 28  12  14  1   
 29  12  43  1   
 30  12  44  1   
 31  13  15  1   
 32  13  45  1   
 33  13  46  1   
 34  14  15  1   
 35  14  16  am  
 36  15  47  1   
 37  15  48  1   
 38  16  17  2   
 39  16  18  1   
 40  18  19  2   
 41  18  20  1   
 42  19  21  1   
 43  20  22  2   
 44  20  49  1   
 45  21  22  1   
 46  21  50  1   
 47  22  23  1   
 48  23  24  ar  
 49  23  25  ar  
 50  24  26  ar  
 51  24  51  1   
 52  25  27  ar  
 53  25  52  1   
 54  26  28  ar  
 55  26  53  1   
 56  27  28  ar  
 57  27  54  1   
 58  28  55  1   
@<TRIPOS>SUBSTRUCTURE
  1 ****  10 GROUP 4 **** **** 0

# MOE 2024.06 (io_trps.svl 2023.06)
