@<TRIPOS>MOLECULE
NONAME
47 49 1 0 0 
SMALL
USER_CHARGES


@<TRIPOS>ATOM
  1 O       -0.4330     0.2290    -0.1300 O.2   1 <1>  -0.5700 
  2 C       -1.5010     0.7630    -0.3120 C.2   1 <1>   0.5690 
  3 N       -2.6410     0.0300    -0.4910 N.am  1 <1>  -0.6600 
  4 C       -1.5860     2.2860    -0.3410 C.3   1 <1>  -0.0990 
  5 C       -4.0150     0.5600    -0.6620 C.3   1 <1>   0.1400 
  6 C       -2.6510    -1.4520    -0.4610 C.3   1 <1>   0.1400 
  7 C       -0.2270     3.0020    -0.2250 C.3   1 <1>  -0.1600 
  8 C       -4.9140    -0.6760    -0.7370 C.3   1 <1>   0.2000 
  9 C       -4.1000    -1.8260    -0.1450 C.3   1 <1>  -0.0800 
 10 C       -0.3560     4.5310    -0.3230 C.3   1 <1>  -0.0800 
 11 O       -6.0800    -0.5030    -0.0080 O.3   1 <1>  -0.6800 
 12 C       -4.5330    -3.1980    -0.6920 C.3   1 <1>  -0.0170 
 13 C        0.9950     5.2350    -0.2440 C.3   1 <1>  -0.1600 
 14 C       -1.1540     5.1680     0.8140 C.3   1 <1>  -0.1600 
 15 C       -3.7340    -4.3320    -0.0700 C.ar  1 <1>   0.1670 
 16 C        0.6600     6.6770     0.1360 C.3   1 <1>  -0.1600 
 17 C       -0.6800     6.6220     0.8790 C.3   1 <1>  -0.1600 
 18 N       -2.5570    -4.5930    -0.6150 N.ar  1 <1>  -0.6200 
 19 C       -4.2510    -5.0340     1.0180 C.ar  1 <1>   0.1600 
 20 C       -1.9350    -5.5870    -0.0030 C.ar  1 <1>   0.1600 
 21 N       -3.6310    -6.0290     1.6310 N.ar  1 <1>  -0.6200 
 22 C       -2.4540    -6.2810     1.0830 C.ar  1 <1>   0.1600 
 23 H       -2.0530     2.5780    -1.2630 H     1 <1>   0.0800 
 24 H       -2.2180     2.5930     0.4710 H     1 <1>   0.0800 
 25 H       -4.2720     1.1730     0.1840 H     1 <1>   0.0800 
 26 H       -4.0830     1.1310    -1.5720 H     1 <1>   0.0800 
 27 H       -2.3560    -1.8240    -1.4280 H     1 <1>   0.0800 
 28 H       -1.9710    -1.8310     0.2840 H     1 <1>   0.0800 
 29 H        0.4160     2.6550    -1.0160 H     1 <1>   0.0800 
 30 H        0.2370     2.7340     0.7090 H     1 <1>   0.0800 
 31 H       -5.1800    -0.8700    -1.7630 H     1 <1>   0.0800 
 32 H       -4.1980    -1.8220     0.9260 H     1 <1>   0.0800 
 33 H       -0.8180     4.7960    -1.2600 H     1 <1>   0.0800 
 34 H       -5.8730    -0.3390     0.9320 H     1 <1>   0.4000 
 35 H       -4.4050    -3.2260    -1.7600 H     1 <1>   0.0800 
 36 H       -5.5790    -3.3440    -0.4890 H     1 <1>   0.0800 
 37 H        1.5910     4.7940     0.5370 H     1 <1>   0.0800 
 38 H        1.5350     5.1780    -1.1730 H     1 <1>   0.0800 
 39 H       -2.2150     5.1030     0.6480 H     1 <1>   0.0800 
 40 H       -0.9120     4.6790     1.7430 H     1 <1>   0.0800 
 41 H        1.4360     7.1080     0.7460 H     1 <1>   0.0800 
 42 H        0.5500     7.2680    -0.7570 H     1 <1>   0.0800 
 43 H       -1.3910     7.2660     0.3900 H     1 <1>   0.0800 
 44 H       -0.5700     6.9380     1.9020 H     1 <1>   0.0800 
 45 H       -5.2180    -4.7600     1.4000 H     1 <1>   0.1500 
 46 H       -0.9670    -5.8660    -0.3790 H     1 <1>   0.1500 
 47 H       -1.8720    -7.0760     1.5140 H     1 <1>   0.1500 
@<TRIPOS>BOND
  1   1   2  2   
  2   2   3  am  
  3   2   4  1   
  4   3   5  1   
  5   3   6  1   
  6   4   7  1   
  7   4  23  1   
  8   4  24  1   
  9   5   8  1   
 10   5  25  1   
 11   5  26  1   
 12   6   9  1   
 13   6  27  1   
 14   6  28  1   
 15   7  10  1   
 16   7  29  1   
 17   7  30  1   
 18   8   9  1   
 19   8  11  1   
 20   8  31  1   
 21   9  12  1   
 22   9  32  1   
 23  10  13  1   
 24  10  14  1   
 25  10  33  1   
 26  11  34  1   
 27  12  15  1   
 28  12  35  1   
 29  12  36  1   
 30  13  16  1   
 31  13  37  1   
 32  13  38  1   
 33  14  17  1   
 34  14  39  1   
 35  14  40  1   
 36  15  18  ar  
 37  15  19  ar  
 38  16  17  1   
 39  16  41  1   
 40  16  42  1   
 41  17  43  1   
 42  17  44  1   
 43  18  20  ar  
 44  19  21  ar  
 45  19  45  1   
 46  20  22  ar  
 47  20  46  1   
 48  21  22  ar  
 49  22  47  1   
@<TRIPOS>SUBSTRUCTURE
  1 ****   3 GROUP 4 **** **** 0

# MOE 2024.06 (io_trps.svl 2023.06)
