@<TRIPOS>MOLECULE
NONAME
46 48 1 0 0 
SMALL
USER_CHARGES


@<TRIPOS>ATOM
  1 CL       0.1000     2.1420     2.9400 Cl    1 <1>  -0.1770 
  2 C        0.3990     2.9940     1.4410 C.ar  1 <1>   0.1770 
  3 C        1.6870     3.3760     1.0770 C.ar  1 <1>  -0.1440 
  4 C       -0.6950     3.2620     0.6400 C.ar  1 <1>  -0.1500 
  5 C        1.8630     4.0280    -0.1450 C.ar  1 <1>  -0.1440 
  6 C        2.8710     3.0790     1.9980 C.3   1 <1>  -0.0960 
  7 C       -0.5130     3.9220    -0.5590 C.ar  1 <1>  -0.1500 
  8 C        0.7600     4.3000    -0.9450 C.ar  1 <1>  -0.1500 
  9 C        3.2300     4.4670    -0.6540 C.3   1 <1>   0.3530 
 10 N        3.5150     5.8050    -0.1020 N.pl3 1 <1>  -0.8690 
 11 C        4.3470     6.6830    -0.7500 C.ar  1 <1>   0.4100 
 12 N        5.2070     6.1740    -1.6210 N.ar  1 <1>  -0.6200 
 13 C        4.2580     8.0380    -0.4680 C.ar  1 <1>  -0.1500 
 14 C        5.9900     7.0440    -2.2340 C.ar  1 <1>   0.1600 
 15 C        5.0840     8.9500    -1.0960 C.ar  1 <1>   0.0860 
 16 C        5.9690     8.4060    -2.0170 C.ar  1 <1>  -0.1500 
 17 C        5.0190    10.3700    -0.8170 C.2   1 <1>   0.5440 
 18 O        3.9540    10.9420    -0.9500 O.2   1 <1>  -0.5700 
 19 N        6.1260    11.0840    -0.4040 N.am  1 <1>  -0.6600 
 20 C        6.1020    12.5710    -0.3010 C.3   1 <1>   0.1400 
 21 C        7.3580    10.4550     0.1510 C.3   1 <1>   0.1400 
 22 C        6.2590    12.9910     1.1640 C.3   1 <1>  -0.1600 
 23 C        7.5290    10.8610     1.6190 C.3   1 <1>  -0.1600 
 24 C        7.5220    12.3870     1.7930 C.3   1 <1>  -0.1600 
 25 H       -1.6750     2.9540     0.9560 H     1 <1>   0.1500 
 26 H        2.5670     3.0460     3.0280 H     1 <1>   0.0800 
 27 H        3.6250     3.8410     1.9230 H     1 <1>   0.0800 
 28 H        3.3060     2.1310     1.7380 H     1 <1>   0.0800 
 29 H       -1.3570     4.1400    -1.1910 H     1 <1>   0.1500 
 30 H        0.8910     4.8140    -1.8830 H     1 <1>   0.1500 
 31 H        3.2250     4.5080    -1.7310 H     1 <1>   0.0800 
 32 H        4.0010     3.7790    -0.3540 H     1 <1>   0.0800 
 33 H        2.6860     6.2080     0.3370 H     1 <1>   0.4000 
 34 H        3.5380     8.3850     0.2480 H     1 <1>   0.1500 
 35 H        6.6870     6.6440    -2.9510 H     1 <1>   0.1500 
 36 H        6.6340     9.0530    -2.5590 H     1 <1>   0.1500 
 37 H        5.1820    12.9680    -0.6950 H     1 <1>   0.0800 
 38 H        6.9120    12.9740    -0.8850 H     1 <1>   0.0800 
 39 H        8.2080    10.7880    -0.4210 H     1 <1>   0.0800 
 40 H        7.3100     9.3830     0.0900 H     1 <1>   0.0800 
 41 H        5.3880    12.6680     1.7080 H     1 <1>   0.0800 
 42 H        6.3020    14.0640     1.2220 H     1 <1>   0.0800 
 43 H        8.4540    10.4600     1.9940 H     1 <1>   0.0800 
 44 H        6.7280    10.4290     2.1930 H     1 <1>   0.0800 
 45 H        7.5610    12.6340     2.8400 H     1 <1>   0.0800 
 46 H        8.3930    12.8050     1.3190 H     1 <1>   0.0800 
@<TRIPOS>BOND
  1   1   2  1   
  2   2   3  ar  
  3   2   4  ar  
  4   3   5  ar  
  5   3   6  1   
  6   4   7  ar  
  7   4  25  1   
  8   5   8  ar  
  9   5   9  1   
 10   6  26  1   
 11   6  27  1   
 12   6  28  1   
 13   7   8  ar  
 14   7  29  1   
 15   8  30  1   
 16   9  10  1   
 17   9  31  1   
 18   9  32  1   
 19  10  11  1   
 20  10  33  1   
 21  11  12  ar  
 22  11  13  ar  
 23  12  14  ar  
 24  13  15  ar  
 25  13  34  1   
 26  14  16  ar  
 27  14  35  1   
 28  15  16  ar  
 29  15  17  1   
 30  16  36  1   
 31  17  18  2   
 32  17  19  am  
 33  19  20  1   
 34  19  21  1   
 35  20  22  1   
 36  20  37  1   
 37  20  38  1   
 38  21  23  1   
 39  21  39  1   
 40  21  40  1   
 41  22  24  1   
 42  22  41  1   
 43  22  42  1   
 44  23  24  1   
 45  23  43  1   
 46  23  44  1   
 47  24  45  1   
 48  24  46  1   
@<TRIPOS>SUBSTRUCTURE
  1 ****  13 GROUP 4 **** **** 0

# MOE 2024.06 (io_trps.svl 2023.06)
