@<TRIPOS>MOLECULE
NONAME
50 52 1 0 0 
SMALL
USER_CHARGES


@<TRIPOS>ATOM
  1 O        0.8000    -0.2020    -1.2610 O.2   1 <1>  -0.5700 
  2 C        1.4660    -0.5510    -0.3180 C.2   1 <1>   0.5690 
  3 N        2.3290     0.3210     0.2990 N.am  1 <1>  -0.6600 
  4 C        1.3490    -1.9880     0.1520 C.3   1 <1>  -0.0990 
  5 C        3.3310    -0.0430     1.3510 C.3   1 <1>   0.1400 
  6 C        2.3140     1.7640    -0.0670 C.3   1 <1>   0.1400 
  7 C        0.4210    -2.8280    -0.7420 C.3   1 <1>   0.0960 
  8 C        4.7690    -0.1400     0.7900 C.3   1 <1>   0.3430 
  9 C        3.2520     2.0250    -1.2500 C.3   1 <1>  -0.1600 
 10 N        0.3430    -4.2180    -0.2500 N.pl3 1 <1>   0.3140 
 11 N        5.1970     1.0450    -0.0360 N.4   1 <1>  -0.9590 
 12 C        4.4620     1.0930    -1.3370 C.3   1 <1>   0.3430 
 13 N        1.4120    -4.9630    -0.0650 N.2   1 <1>  -0.4180 
 14 C       -0.7110    -4.9410     0.0970 C.2   1 <1>   0.0060 
 15 C        6.6760     1.0150    -0.2390 C.3   1 <1>   0.3430 
 16 N        0.9940    -6.0930     0.3800 N.2   1 <1>   0.0000 
 17 N       -0.3300    -6.0950     0.4880 N.2   1 <1>  -0.3380 
 18 C       -2.1590    -4.4880     0.0470 C.3   1 <1>  -0.0600 
 19 C        7.2200     2.3760    -0.6990 C.3   1 <1>  -0.0800 
 20 C        8.7340     2.2650    -0.7600 C.3   1 <1>   0.1200 
 21 C        7.0600     3.4670     0.3630 C.3   1 <1>  -0.1600 
 22 O        9.1020     2.3740     0.5690 O.3   1 <1>  -0.5600 
 23 C        8.3570     3.3840     1.1710 C.3   1 <1>   0.1200 
 24 H        0.9660    -1.9890     1.1560 H     1 <1>   0.0800 
 25 H        2.3280    -2.4290     0.1450 H     1 <1>   0.0800 
 26 H        3.0740    -0.9820     1.8080 H     1 <1>   0.0800 
 27 H        3.3050     0.6940     2.1350 H     1 <1>   0.0800 
 28 H        2.6120     2.3560     0.7820 H     1 <1>   0.0800 
 29 H        1.3120     2.0660    -0.3280 H     1 <1>   0.0800 
 30 H        0.7970    -2.8490    -1.7490 H     1 <1>   0.0800 
 31 H       -0.5640    -2.4000    -0.7570 H     1 <1>   0.0800 
 32 H        4.8440    -1.0350     0.1940 H     1 <1>   0.0800 
 33 H        5.4420    -0.2560     1.6240 H     1 <1>   0.0800 
 34 H        3.5740     3.0510    -1.2330 H     1 <1>   0.0800 
 35 H        2.6820     1.8990    -2.1540 H     1 <1>   0.0800 
 36 H        4.9730     1.9030     0.4820 H     1 <1>   0.4500 
 37 H        5.1110     1.4440    -2.1230 H     1 <1>   0.0800 
 38 H        4.1280     0.1030    -1.6030 H     1 <1>   0.0800 
 39 H        6.9330     0.2580    -0.9620 H     1 <1>   0.0800 
 40 H        7.1640     0.7620     0.6900 H     1 <1>   0.0800 
 41 H       -2.3050    -3.6380     0.6880 H     1 <1>   0.0800 
 42 H       -2.8010    -5.2830     0.3820 H     1 <1>   0.0800 
 43 H       -2.4330    -4.2290    -0.9600 H     1 <1>   0.0800 
 44 H        6.8240     2.6610    -1.6570 H     1 <1>   0.0800 
 45 H        9.1760     3.0860    -1.3010 H     1 <1>   0.0800 
 46 H        9.0910     1.3290    -1.1550 H     1 <1>   0.0800 
 47 H        6.2010     3.3500     0.9980 H     1 <1>   0.0800 
 48 H        7.0080     4.4380    -0.1010 H     1 <1>   0.0800 
 49 H        8.1910     3.1170     2.2010 H     1 <1>   0.0800 
 50 H        8.9210     4.3010     1.1160 H     1 <1>   0.0800 
@<TRIPOS>BOND
  1   1   2  2   
  2   2   3  am  
  3   2   4  1   
  4   3   5  1   
  5   3   6  1   
  6   4   7  1   
  7   4  24  1   
  8   4  25  1   
  9   5   8  1   
 10   5  26  1   
 11   5  27  1   
 12   6   9  1   
 13   6  28  1   
 14   6  29  1   
 15   7  10  1   
 16   7  30  1   
 17   7  31  1   
 18   8  11  1   
 19   8  32  1   
 20   8  33  1   
 21   9  12  1   
 22   9  34  1   
 23   9  35  1   
 24  10  13  1   
 25  10  14  1   
 26  11  12  1   
 27  11  15  1   
 28  11  36  1   
 29  12  37  1   
 30  12  38  1   
 31  13  16  2   
 32  14  17  2   
 33  14  18  1   
 34  15  19  1   
 35  15  39  1   
 36  15  40  1   
 37  16  17  1   
 38  18  41  1   
 39  18  42  1   
 40  18  43  1   
 41  19  20  1   
 42  19  21  1   
 43  19  44  1   
 44  20  22  1   
 45  20  45  1   
 46  20  46  1   
 47  21  23  1   
 48  21  47  1   
 49  21  48  1   
 50  22  23  1   
 51  23  49  1   
 52  23  50  1   
@<TRIPOS>SUBSTRUCTURE
  1 ****   3 GROUP 4 **** **** 0

# MOE 2024.06 (io_trps.svl 2023.06)
