@<TRIPOS>MOLECULE
NONAME
59 62 1 0 0 
SMALL
USER_CHARGES


@<TRIPOS>ATOM
  1 O       -1.2570     0.3140     0.6270 O.2   1 <1>  -0.5700 
  2 C       -1.9370     1.1080     0.0000 C.2   1 <1>   0.5440 
  3 N       -2.9730     0.5900    -0.7490 N.am  1 <1>  -0.6600 
  4 C       -1.6800     2.5360     0.0870 C.ar  1 <1>   0.0860 
  5 C       -2.9540    -0.8520    -1.1030 C.3   1 <1>   0.1400 
  6 C       -4.3430     1.1590    -0.6400 C.3   1 <1>   0.1400 
  7 C       -1.1710     3.1080     1.2530 C.ar  1 <1>  -0.1500 
  8 C       -1.9220     3.3950    -0.9870 C.ar  1 <1>  -0.1500 
  9 C       -3.6680    -1.6430     0.0160 C.3   1 <1>   0.4230 
 10 C       -5.0930     0.3930     0.4590 C.3   1 <1>  -0.1600 
 11 C       -0.9320     4.4660     1.3470 C.ar  1 <1>  -0.1500 
 12 C       -1.6840     4.7530    -0.8930 C.ar  1 <1>  -0.1500 
 13 N       -3.5310    -3.1540    -0.1070 N.4   1 <1>  -0.9590 
 14 C       -5.1310    -1.1490     0.2370 C.3   1 <1>   0.0000 
 15 C       -1.1850     5.3150     0.2760 C.ar  1 <1>   0.0000 
 16 C       -4.5300    -3.9260     0.6990 C.3   1 <1>   0.3430 
 17 C       -3.4760    -3.6870    -1.5070 C.3   1 <1>   0.2630 
 18 C       -5.7130    -1.8230     1.5150 C.3   1 <1>  -0.1600 
 19 C       -6.0050    -1.4930    -1.0040 C.3   1 <1>   0.1200 
 20 C       -0.9330     6.7330     0.3730 C.ar  1 <1>   0.0000 
 21 C       -4.9910    -3.1250     1.9160 C.3   1 <1>  -0.1600 
 22 O       -7.2520    -0.8970    -0.9350 O.3   1 <1>  -0.6800 
 23 C        0.3030     7.2920     0.0360 C.ar  1 <1>  -0.1440 
 24 C       -1.9450     7.5800     0.8130 C.ar  1 <1>  -0.1500 
 25 C        0.5000     8.6600     0.1430 C.ar  1 <1>  -0.1500 
 26 C        1.4430     6.4080    -0.4510 C.3   1 <1>  -0.0970 
 27 C       -1.7450     8.9440     0.9190 C.ar  1 <1>  -0.1500 
 28 C       -0.5190     9.4860     0.5820 C.ar  1 <1>  -0.1500 
 29 H       -3.4340    -0.9830    -2.0550 H     1 <1>   0.0800 
 30 H       -1.9330    -1.1820    -1.1880 H     1 <1>   0.0800 
 31 H       -4.3000     2.2050    -0.3830 H     1 <1>   0.0800 
 32 H       -4.8530     1.0720    -1.5850 H     1 <1>   0.0800 
 33 H       -0.9600     2.4730     2.0960 H     1 <1>   0.1500 
 34 H       -2.2980     2.9900    -1.9100 H     1 <1>   0.1500 
 35 H       -3.1420    -1.3700     0.9180 H     1 <1>   0.0800 
 36 H       -4.6010     0.6140     1.3910 H     1 <1>   0.0800 
 37 H       -6.0890     0.7920     0.5400 H     1 <1>   0.0800 
 38 H       -0.5410     4.8830     2.2590 H     1 <1>   0.1500 
 39 H       -1.8800     5.3960    -1.7340 H     1 <1>   0.1500 
 40 H       -2.6120    -3.3490     0.3200 H     1 <1>   0.4500 
 41 H       -5.3930    -4.1510     0.0930 H     1 <1>   0.0800 
 42 H       -4.0980    -4.8610     1.0200 H     1 <1>   0.0800 
 43 H       -4.3920    -3.4710    -2.0310 H     1 <1>   0.0800 
 44 H       -3.3320    -4.7560    -1.4940 H     1 <1>   0.0800 
 45 H       -2.6550    -3.2450    -2.0490 H     1 <1>   0.0800 
 46 H       -5.6540    -1.1540     2.3570 H     1 <1>   0.0800 
 47 H       -6.7590    -2.0340     1.3780 H     1 <1>   0.0800 
 48 H       -6.1610    -2.5530    -1.0940 H     1 <1>   0.0800 
 49 H       -5.5540    -1.1390    -1.9130 H     1 <1>   0.0800 
 50 H       -5.6580    -3.7290     2.5070 H     1 <1>   0.0800 
 51 H       -4.1380    -2.9010     2.5340 H     1 <1>   0.0800 
 52 H       -7.7680    -1.2020    -0.1630 H     1 <1>   0.4000 
 53 H       -2.9000     7.1600     1.0760 H     1 <1>   0.1500 
 54 H        1.4500     9.0940    -0.1160 H     1 <1>   0.1500 
 55 H        2.3200     6.9890    -0.6670 H     1 <1>   0.0800 
 56 H        1.1490     5.8900    -1.3460 H     1 <1>   0.0800 
 57 H        1.6920     5.6830     0.3030 H     1 <1>   0.0800 
 58 H       -2.5400     9.5830     1.2620 H     1 <1>   0.1500 
 59 H       -0.3580    10.5460     0.6620 H     1 <1>   0.1500 
@<TRIPOS>BOND
  1   1   2  2   
  2   2   3  am  
  3   2   4  1   
  4   3   5  1   
  5   3   6  1   
  6   4   7  ar  
  7   4   8  ar  
  8   5   9  1   
  9   5  29  1   
 10   5  30  1   
 11   6  10  1   
 12   6  31  1   
 13   6  32  1   
 14   7  11  ar  
 15   7  33  1   
 16   8  12  ar  
 17   8  34  1   
 18   9  13  1   
 19   9  14  1   
 20   9  35  1   
 21  10  14  1   
 22  10  36  1   
 23  10  37  1   
 24  11  15  ar  
 25  11  38  1   
 26  12  15  ar  
 27  12  39  1   
 28  13  16  1   
 29  13  17  1   
 30  13  40  1   
 31  14  18  1   
 32  14  19  1   
 33  15  20  1   
 34  16  21  1   
 35  16  41  1   
 36  16  42  1   
 37  17  43  1   
 38  17  44  1   
 39  17  45  1   
 40  18  21  1   
 41  18  46  1   
 42  18  47  1   
 43  19  22  1   
 44  19  48  1   
 45  19  49  1   
 46  20  23  ar  
 47  20  24  ar  
 48  21  50  1   
 49  21  51  1   
 50  22  52  1   
 51  23  25  ar  
 52  23  26  1   
 53  24  27  ar  
 54  24  53  1   
 55  25  28  ar  
 56  25  54  1   
 57  26  55  1   
 58  26  56  1   
 59  26  57  1   
 60  27  28  ar  
 61  27  58  1   
 62  28  59  1   
@<TRIPOS>SUBSTRUCTURE
  1 ****   4 GROUP 4 **** **** 0

# MOE 2024.06 (io_trps.svl 2023.06)
