@<TRIPOS>MOLECULE
NONAME
45 47 1 0 0 
SMALL
USER_CHARGES


@<TRIPOS>ATOM
  1 S        0.4690     0.2950    -1.0990 S.3   1 <1>  -0.0800 
  2 C       -0.6250    -0.7390    -0.2080 C.2   1 <1>   0.1980 
  3 C        1.8090    -0.4300    -0.2550 C.2   1 <1>  -0.1400 
  4 N       -0.0450    -1.5210     0.6140 N.2   1 <1>  -0.5650 
  5 C       -2.1060    -0.5850    -0.5150 C.3   1 <1>   0.0200 
  6 C        1.3290    -1.3520     0.5960 C.2   1 <1>   0.0460 
  7 C        3.1980     0.0650    -0.5980 C.3   1 <1>   0.3890 
  8 C       -2.9950    -1.5150     0.3210 C.3   1 <1>  -0.2400 
  9 C        2.1180    -2.2290     1.5440 C.3   1 <1>  -0.0590 
 10 N        3.3460     1.4370    -0.0790 N.pl3 1 <1>  -0.8690 
 11 C        4.3030     2.2820    -0.5800 C.ar  1 <1>   0.4100 
 12 N        5.3240     1.7310    -1.2220 N.ar  1 <1>  -0.6200 
 13 C        4.1670     3.6500    -0.3930 C.ar  1 <1>  -0.1500 
 14 C        6.2240     2.5720    -1.6990 C.ar  1 <1>   0.1600 
 15 C        5.1140     4.5320    -0.8750 C.ar  1 <1>   0.0860 
 16 C        6.1690     3.9440    -1.5600 C.ar  1 <1>  -0.1500 
 17 C        4.9980     5.9640    -0.6830 C.2   1 <1>   0.5440 
 18 O        3.9410     6.5160    -0.9230 O.2   1 <1>  -0.5700 
 19 N        6.0520     6.7200    -0.2240 N.am  1 <1>  -0.6600 
 20 C        7.2290     6.1840     0.4960 C.3   1 <1>   0.1400 
 21 C        5.9430     8.1840    -0.0370 C.3   1 <1>   0.1400 
 22 C        7.6850     7.3260     1.3960 C.3   1 <1>  -0.1600 
 23 C        7.2310     8.5890     0.6710 C.3   1 <1>  -0.1600 
 24 H       -2.2610    -0.7900    -1.5590 H     1 <1>   0.0800 
 25 H       -2.3880     0.4360    -0.3290 H     1 <1>   0.0800 
 26 H        3.3340     0.0540    -1.6670 H     1 <1>   0.0800 
 27 H        3.9480    -0.5630    -0.1500 H     1 <1>   0.0800 
 28 H       -2.7320    -2.5420     0.1350 H     1 <1>   0.0800 
 29 H       -4.0300    -1.3690     0.0710 H     1 <1>   0.0800 
 30 H       -2.8570    -1.3130     1.3690 H     1 <1>   0.0800 
 31 H        3.1680    -2.0170     1.4840 H     1 <1>   0.0800 
 32 H        1.9520    -3.2620     1.3000 H     1 <1>   0.0800 
 33 H        1.7850    -2.0540     2.5510 H     1 <1>   0.0800 
 34 H        2.4370     1.8560     0.1240 H     1 <1>   0.4000 
 35 H        3.3140     4.0290     0.1370 H     1 <1>   0.1500 
 36 H        7.0540     2.1390    -2.2320 H     1 <1>   0.1500 
 37 H        6.9370     4.5620    -1.9870 H     1 <1>   0.1500 
 38 H        7.9990     5.9440    -0.2160 H     1 <1>   0.0800 
 39 H        6.9730     5.3090     1.0700 H     1 <1>   0.0800 
 40 H        5.0870     8.3970     0.5810 H     1 <1>   0.0800 
 41 H        5.8330     8.6820    -0.9860 H     1 <1>   0.0800 
 42 H        8.7470     7.3060     1.5630 H     1 <1>   0.0800 
 43 H        7.1790     7.2470     2.3430 H     1 <1>   0.0800 
 44 H        7.0740     9.4150     1.3420 H     1 <1>   0.0800 
 45 H        7.9610     8.8710    -0.0680 H     1 <1>   0.0800 
@<TRIPOS>BOND
  1   1   2  1   
  2   1   3  1   
  3   2   4  2   
  4   2   5  1   
  5   3   6  2   
  6   3   7  1   
  7   4   6  1   
  8   5   8  1   
  9   5  24  1   
 10   5  25  1   
 11   6   9  1   
 12   7  10  1   
 13   7  26  1   
 14   7  27  1   
 15   8  28  1   
 16   8  29  1   
 17   8  30  1   
 18   9  31  1   
 19   9  32  1   
 20   9  33  1   
 21  10  11  1   
 22  10  34  1   
 23  11  12  ar  
 24  11  13  ar  
 25  12  14  ar  
 26  13  15  ar  
 27  13  35  1   
 28  14  16  ar  
 29  14  36  1   
 30  15  16  ar  
 31  15  17  1   
 32  16  37  1   
 33  17  18  2   
 34  17  19  am  
 35  19  20  1   
 36  19  21  1   
 37  20  22  1   
 38  20  38  1   
 39  20  39  1   
 40  21  23  1   
 41  21  40  1   
 42  21  41  1   
 43  22  23  1   
 44  22  42  1   
 45  22  43  1   
 46  23  44  1   
 47  23  45  1   
@<TRIPOS>SUBSTRUCTURE
  1 ****  11 GROUP 4 **** **** 0

# MOE 2024.06 (io_trps.svl 2023.06)
