@<TRIPOS>MOLECULE
NONAME
53 55 1 0 0 
SMALL
USER_CHARGES


@<TRIPOS>ATOM
  1 O        1.6900    -1.2910     2.7480 O.2   1 <1>  -0.5700 
  2 C        2.2180    -1.7470     1.7520 C.2   1 <1>   0.5440 
  3 N        3.4790    -1.3070     1.4040 N.am  1 <1>  -0.6600 
  4 C        1.5290    -2.7630     0.9980 C.ar  1 <1>   0.0860 
  5 C        4.2500    -1.7910     0.2140 C.3   1 <1>   0.1400 
  6 C        4.1710    -0.2520     2.1910 C.3   1 <1>   0.1400 
  7 C        0.8990    -2.4800    -0.2190 C.ar  1 <1>   0.3920 
  8 C        1.4660    -4.0670     1.4680 C.ar  1 <1>  -0.1500 
  9 C        4.2600    -0.7810    -0.9480 C.3   1 <1>   0.1400 
 10 C        3.7270     1.1450     1.7420 C.3   1 <1>  -0.1600 
 11 O        0.9340    -1.2090    -0.6700 O.3   1 <1>  -0.3630 
 12 N        0.2670    -3.3820    -0.9720 N.ar  1 <1>  -0.6200 
 13 C        0.8060    -5.0020     0.7040 C.ar  1 <1>  -0.1500 
 14 N        4.6530     0.6000    -0.5190 N.am  1 <1>  -0.6600 
 15 C        3.5770     1.3170     0.2240 C.3   1 <1>   0.1400 
 16 C        0.2390    -0.8150    -1.8350 C.3   1 <1>   0.1200 
 17 C        0.2330    -4.6120    -0.4930 C.ar  1 <1>   0.1600 
 18 C        5.9030     1.0950    -0.8040 C.2   1 <1>   0.5690 
 19 C        0.4950     0.6710    -2.0680 C.3   1 <1>  -0.2400 
 20 O        6.7320     0.4060    -1.3530 O.2   1 <1>  -0.5700 
 21 C        6.2850     2.5380    -0.4420 C.3   1 <1>  -0.0190 
 22 C        5.9120     3.5140    -1.5690 C.3   1 <1>  -0.1600 
 23 C        7.7810     2.7080    -0.1160 C.3   1 <1>  -0.1600 
 24 C        6.3540     4.9400    -1.2220 C.3   1 <1>   0.1200 
 25 C        8.1130     4.1800     0.1510 C.3   1 <1>   0.1200 
 26 O        7.7200     4.9510    -0.9430 O.3   1 <1>  -0.5600 
 27 H        3.8450    -2.7210    -0.1400 H     1 <1>   0.0800 
 28 H        5.2670    -1.9830     0.5080 H     1 <1>   0.0800 
 29 H        5.2350    -0.3500     2.0580 H     1 <1>   0.0800 
 30 H        3.9610    -0.3810     3.2400 H     1 <1>   0.0800 
 31 H        1.9220    -4.3260     2.4090 H     1 <1>   0.1500 
 32 H        3.2880    -0.7490    -1.4010 H     1 <1>   0.0800 
 33 H        4.9380    -1.1390    -1.7040 H     1 <1>   0.0800 
 34 H        4.4260     1.8640     2.1240 H     1 <1>   0.0800 
 35 H        2.7780     1.3610     2.2000 H     1 <1>   0.0800 
 36 H        0.7320    -6.0240     1.0300 H     1 <1>   0.1500 
 37 H        3.5700     2.3610    -0.0330 H     1 <1>   0.0800 
 38 H        2.6230     0.9140    -0.0680 H     1 <1>   0.0800 
 39 H       -0.8100    -1.0060    -1.6820 H     1 <1>   0.0800 
 40 H        0.5980    -1.4010    -2.6640 H     1 <1>   0.0800 
 41 H       -0.2800    -5.3520    -1.0860 H     1 <1>   0.1500 
 42 H        0.1720     1.2400    -1.2140 H     1 <1>   0.0800 
 43 H       -0.0580     1.0010    -2.9290 H     1 <1>   0.0800 
 44 H        1.5400     0.8450    -2.2480 H     1 <1>   0.0800 
 45 H        5.7480     2.8240     0.4410 H     1 <1>   0.0800 
 46 H        4.8510     3.4970    -1.7390 H     1 <1>   0.0800 
 47 H        6.3960     3.2140    -2.4830 H     1 <1>   0.0800 
 48 H        8.3820     2.3670    -0.9410 H     1 <1>   0.0800 
 49 H        8.0380     2.1160     0.7440 H     1 <1>   0.0800 
 50 H        5.8260     5.3180    -0.3630 H     1 <1>   0.0800 
 51 H        6.1860     5.6000    -2.0550 H     1 <1>   0.0800 
 52 H        9.1740     4.3090     0.2780 H     1 <1>   0.0800 
 53 H        7.6070     4.5450     1.0280 H     1 <1>   0.0800 
@<TRIPOS>BOND
  1   1   2  2   
  2   2   3  am  
  3   2   4  1   
  4   3   5  1   
  5   3   6  1   
  6   4   7  ar  
  7   4   8  ar  
  8   5   9  1   
  9   5  27  1   
 10   5  28  1   
 11   6  10  1   
 12   6  29  1   
 13   6  30  1   
 14   7  11  1   
 15   7  12  ar  
 16   8  13  ar  
 17   8  31  1   
 18   9  14  1   
 19   9  32  1   
 20   9  33  1   
 21  10  15  1   
 22  10  34  1   
 23  10  35  1   
 24  11  16  1   
 25  12  17  ar  
 26  13  17  ar  
 27  13  36  1   
 28  14  15  1   
 29  14  18  am  
 30  15  37  1   
 31  15  38  1   
 32  16  19  1   
 33  16  39  1   
 34  16  40  1   
 35  17  41  1   
 36  18  20  2   
 37  18  21  1   
 38  19  42  1   
 39  19  43  1   
 40  19  44  1   
 41  21  22  1   
 42  21  23  1   
 43  21  45  1   
 44  22  24  1   
 45  22  46  1   
 46  22  47  1   
 47  23  25  1   
 48  23  48  1   
 49  23  49  1   
 50  24  26  1   
 51  24  50  1   
 52  24  51  1   
 53  25  26  1   
 54  25  52  1   
 55  25  53  1   
@<TRIPOS>SUBSTRUCTURE
  1 ****   9 GROUP 4 **** **** 0

# MOE 2024.06 (io_trps.svl 2023.06)
