@<TRIPOS>MOLECULE
NONAME
49 51 1 0 0 
SMALL
USER_CHARGES


@<TRIPOS>ATOM
  1 S       -1.2490    -0.7090    -2.3840 S.3   1 <1>  -0.0800 
  2 C       -0.8810    -1.7540    -1.0390 C.2   1 <1>  -0.1400 
  3 C        0.4530    -0.3430    -2.5300 C.2   1 <1>   0.2280 
  4 C        0.4470    -1.7300    -0.8300 C.2   1 <1>   0.0460 
  5 C       -2.0440    -2.4710    -0.3760 C.3   1 <1>   0.0200 
  6 N        1.1940    -0.9290    -1.6780 N.2   1 <1>  -0.5650 
  7 C        1.2270    -2.4790     0.2300 C.3   1 <1>  -0.0590 
  8 C       -2.8800    -1.4950     0.4580 C.3   1 <1>  -0.0990 
  9 C       -4.0470    -2.2050     1.1040 C.2   1 <1>   0.5690 
 10 O       -3.8470    -2.9240     2.0510 O.2   1 <1>  -0.5700 
 11 N       -5.2870    -2.0440     0.5840 N.am  1 <1>  -0.7300 
 12 C       -6.5340    -2.6270     1.1410 C.3   1 <1>   0.2200 
 13 C       -6.6650    -4.1300     0.7990 C.3   1 <1>   0.2000 
 14 C       -7.7180    -1.8180     0.6000 C.3   1 <1>  -0.1600 
 15 O       -5.6910    -4.8570     1.4730 O.3   1 <1>  -0.6800 
 16 C       -8.0360    -4.6950     1.1920 C.3   1 <1>   0.1400 
 17 C       -9.0480    -2.4060     1.0730 C.3   1 <1>   0.1400 
 18 N       -9.1290    -3.8290     0.6510 N.am  1 <1>  -0.6600 
 19 C       -9.9950    -4.2380    -0.3450 C.2   1 <1>   0.5440 
 20 O      -10.4950    -3.3920    -1.0620 O.2   1 <1>  -0.5700 
 21 C      -10.3070    -5.6380    -0.5710 C.ar  1 <1>   0.0860 
 22 C      -10.6460    -6.4930     0.4790 C.ar  1 <1>  -0.1500 
 23 C      -10.2880    -6.1760    -1.8570 C.ar  1 <1>  -0.1500 
 24 C      -10.9330    -7.8280     0.2580 C.ar  1 <1>  -0.1500 
 25 C      -10.5740    -7.5100    -2.0870 C.ar  1 <1>  -0.1500 
 26 C      -10.8950    -8.3400    -1.0270 C.ar  1 <1>  -0.1500 
 27 H        0.7450     0.3370    -3.3110 H     1 <1>   0.1500 
 28 H       -2.6550    -2.9300    -1.1330 H     1 <1>   0.0800 
 29 H       -1.6720    -3.2530     0.2630 H     1 <1>   0.0800 
 30 H        0.5750    -3.0560     0.8570 H     1 <1>   0.0800 
 31 H        1.7650    -1.7770     0.8410 H     1 <1>   0.0800 
 32 H        1.9330    -3.1370    -0.2420 H     1 <1>   0.0800 
 33 H       -3.2400    -0.6940    -0.1600 H     1 <1>   0.0800 
 34 H       -2.2670    -1.0700     1.2320 H     1 <1>   0.0800 
 35 H       -5.4120    -1.4770    -0.2560 H     1 <1>   0.3700 
 36 H       -6.5190    -2.5280     2.2150 H     1 <1>   0.0800 
 37 H       -6.5130    -4.2760    -0.2560 H     1 <1>   0.0800 
 38 H       -7.6480    -0.8010     0.9430 H     1 <1>   0.0800 
 39 H       -7.7130    -1.8200    -0.4760 H     1 <1>   0.0800 
 40 H       -4.9290    -4.2590     1.6920 H     1 <1>   0.4000 
 41 H       -8.1180    -4.7280     2.2640 H     1 <1>   0.0800 
 42 H       -8.1130    -5.6970     0.8090 H     1 <1>   0.0800 
 43 H       -9.8660    -1.8400     0.6590 H     1 <1>   0.0800 
 44 H       -9.1190    -2.3520     2.1460 H     1 <1>   0.0800 
 45 H      -10.6860    -6.1000     1.4790 H     1 <1>   0.1500 
 46 H      -10.0460    -5.5300    -2.6840 H     1 <1>   0.1500 
 47 H      -11.1880    -8.4700     1.0830 H     1 <1>   0.1500 
 48 H      -10.5500    -7.9020    -3.0890 H     1 <1>   0.1500 
 49 H      -11.1190    -9.3780    -1.2030 H     1 <1>   0.1500 
@<TRIPOS>BOND
  1   1   2  1   
  2   1   3  1   
  3   2   4  2   
  4   2   5  1   
  5   3   6  2   
  6   3  27  1   
  7   4   6  1   
  8   4   7  1   
  9   5   8  1   
 10   5  28  1   
 11   5  29  1   
 12   7  30  1   
 13   7  31  1   
 14   7  32  1   
 15   8   9  1   
 16   8  33  1   
 17   8  34  1   
 18   9  10  2   
 19   9  11  am  
 20  11  12  1   
 21  11  35  1   
 22  12  13  1   
 23  12  14  1   
 24  12  36  1   
 25  13  15  1   
 26  13  16  1   
 27  13  37  1   
 28  14  17  1   
 29  14  38  1   
 30  14  39  1   
 31  15  40  1   
 32  16  18  1   
 33  16  41  1   
 34  16  42  1   
 35  17  18  1   
 36  17  43  1   
 37  17  44  1   
 38  18  19  am  
 39  19  20  2   
 40  19  21  1   
 41  21  22  ar  
 42  21  23  ar  
 43  22  24  ar  
 44  22  45  1   
 45  23  25  ar  
 46  23  46  1   
 47  24  26  ar  
 48  24  47  1   
 49  25  26  ar  
 50  25  48  1   
 51  26  49  1   
@<TRIPOS>SUBSTRUCTURE
  1 ****  13 GROUP 4 **** **** 0

# MOE 2024.06 (io_trps.svl 2023.06)
