@<TRIPOS>MOLECULE
NONAME
48 51 1 0 0 
SMALL
USER_CHARGES


@<TRIPOS>ATOM
  1 S       -0.3120    -0.7240    -1.5900 S.3   1 <1>  -0.3320 
  2 C       -0.2780    -2.2770    -0.6770 C.ar  1 <1>   0.1020 
  3 C        1.3870    -0.0040    -1.5010 C.3   1 <1>  -0.0100 
  4 C       -1.4340    -3.0010    -0.6090 C.ar  1 <1>  -0.1500 
  5 C        0.8880    -2.7360    -0.0560 C.ar  1 <1>  -0.1500 
  6 C       -1.4900    -4.2210     0.0820 C.ar  1 <1>   0.3100 
  7 C        0.8620    -3.9230     0.6260 C.ar  1 <1>  -0.1500 
  8 N       -2.6710    -4.8810     0.1000 N.ar  1 <1>  -0.6200 
  9 C       -0.3160    -4.6970     0.7170 C.ar  1 <1>   0.0000 
 10 C       -2.7160    -6.0140     0.7410 C.ar  1 <1>   0.4100 
 11 C       -0.4020    -5.9250     1.4100 C.ar  1 <1>  -0.1430 
 12 N       -3.9070    -6.7100     0.7530 N.pl3 1 <1>  -0.8380 
 13 C       -1.6050    -6.5600     1.4100 C.ar  1 <1>  -0.1500 
 14 C        0.7950    -6.5220     2.1370 C.3   1 <1>  -0.0970 
 15 C       -3.9580    -8.0060     0.0280 C.3   1 <1>   0.2090 
 16 C       -5.1800    -5.9430     0.6930 C.3   1 <1>   0.2090 
 17 C       -5.0600    -8.9000     0.6230 C.3   1 <1>   0.0580 
 18 C       -6.3140    -6.7930     1.2770 C.3   1 <1>  -0.1600 
 19 C       -5.1770   -10.2570    -0.0740 C.2   1 <1>  -0.0380 
 20 C       -6.4160    -8.1680     0.5950 C.3   1 <1>  -0.1600 
 21 N       -5.8550   -11.2490     0.5870 N.pl3 1 <1>  -0.5500 
 22 C       -4.6780   -10.5870    -1.2900 C.2   1 <1>  -0.1360 
 23 C       -6.0120   -12.4930     0.0430 C.2   1 <1>   0.4400 
 24 C       -4.8650   -11.8930    -1.8130 C.2   1 <1>   0.7670 
 25 N       -5.5530   -12.8380    -1.1010 N.2   1 <1>  -0.6610 
 26 O       -4.4150   -12.1930    -2.9070 O.2   1 <1>  -0.5700 
 27 H        1.3740     0.9220    -2.0470 H     1 <1>   0.0800 
 28 H        2.0680    -0.7030    -1.9530 H     1 <1>   0.0800 
 29 H        1.6220     0.1660    -0.4660 H     1 <1>   0.0800 
 30 H       -2.3290    -2.6500    -1.0860 H     1 <1>   0.1500 
 31 H        1.7960    -2.1670    -0.1100 H     1 <1>   0.1500 
 32 H        1.7580    -4.2740     1.1030 H     1 <1>   0.1500 
 33 H       -1.7530    -7.4890     1.9240 H     1 <1>   0.1500 
 34 H        1.1360    -5.8460     2.9000 H     1 <1>   0.0800 
 35 H        1.5950    -6.7050     1.4430 H     1 <1>   0.0800 
 36 H        0.5320    -7.4540     2.6040 H     1 <1>   0.0800 
 37 H       -3.0070    -8.5050     0.0970 H     1 <1>   0.0800 
 38 H       -4.1620    -7.8070    -1.0100 H     1 <1>   0.0800 
 39 H       -5.3910    -5.6860    -0.3310 H     1 <1>   0.0800 
 40 H       -5.0790    -5.0300     1.2570 H     1 <1>   0.0800 
 41 H       -4.7860    -9.0800     1.6480 H     1 <1>   0.0800 
 42 H       -7.2430    -6.2620     1.1660 H     1 <1>   0.0800 
 43 H       -6.1330    -6.9210     2.3300 H     1 <1>   0.0800 
 44 H       -7.1660    -8.7570     1.0920 H     1 <1>   0.0800 
 45 H       -6.7230    -8.0340    -0.4280 H     1 <1>   0.0800 
 46 H       -6.2620   -11.0700     1.5100 H     1 <1>   0.4000 
 47 H       -4.1310    -9.9140    -1.9190 H     1 <1>   0.1500 
 48 H       -6.5590   -13.2100     0.6310 H     1 <1>   0.0600 
@<TRIPOS>BOND
  1   1   2  1   
  2   1   3  1   
  3   2   4  ar  
  4   2   5  ar  
  5   3  27  1   
  6   3  28  1   
  7   3  29  1   
  8   4   6  ar  
  9   4  30  1   
 10   5   7  ar  
 11   5  31  1   
 12   6   8  ar  
 13   6   9  ar  
 14   7   9  ar  
 15   7  32  1   
 16   8  10  ar  
 17   9  11  ar  
 18  10  12  1   
 19  10  13  ar  
 20  11  13  ar  
 21  11  14  1   
 22  12  15  1   
 23  12  16  1   
 24  13  33  1   
 25  14  34  1   
 26  14  35  1   
 27  14  36  1   
 28  15  17  1   
 29  15  37  1   
 30  15  38  1   
 31  16  18  1   
 32  16  39  1   
 33  16  40  1   
 34  17  19  1   
 35  17  20  1   
 36  17  41  1   
 37  18  20  1   
 38  18  42  1   
 39  18  43  1   
 40  19  21  1   
 41  19  22  2   
 42  20  44  1   
 43  20  45  1   
 44  21  23  1   
 45  21  46  1   
 46  22  24  1   
 47  22  47  1   
 48  23  25  2   
 49  23  48  1   
 50  24  25  1   
 51  24  26  2   
@<TRIPOS>SUBSTRUCTURE
  1 ****  10 GROUP 4 **** **** 0

# MOE 2024.06 (io_trps.svl 2023.06)
