@<TRIPOS>MOLECULE
NONAME
36 36 1 0 0 
SMALL
USER_CHARGES


@<TRIPOS>ATOM
  1 O       -2.3960    -3.5490    -1.5160 O.2   1 <1>  -0.5700 
  2 C       -2.2430    -2.3380    -1.5190 C.2   1 <1>   0.7160 
  3 N       -1.0700    -1.8790    -2.0140 N.am  1 <1>  -0.8000 
  4 C       -3.2530    -1.4240    -1.0300 C.2   1 <1>   0.1410 
  5 N       -3.1120    -0.0630    -1.0470 N.2   1 <1>  -0.5650 
  6 C       -4.4710    -1.7470    -0.4850 C.2   1 <1>  -0.0880 
  7 C       -4.2100     0.3820    -0.5440 C.2   1 <1>   0.0360 
  8 N       -5.0970    -0.5850    -0.1900 N.pl3 1 <1>   0.0480 
  9 N       -4.9580    -3.0550    -0.2850 N.am  1 <1>  -0.4940 
 10 C       -6.4760    -0.3830     0.3220 C.3   1 <1>   0.0960 
 11 C       -5.6960    -3.6210     0.7210 C.2   1 <1>   0.5690 
 12 C       -7.1370     0.8910    -0.2280 C.3   1 <1>  -0.1600 
 13 O       -6.2100    -2.9870     1.6110 O.2   1 <1>  -0.5700 
 14 C       -5.8510    -5.1420     0.7300 C.3   1 <1>   0.2010 
 15 C       -8.6020     0.9810     0.2130 C.3   1 <1>  -0.2400 
 16 N       -5.7060    -5.7760    -0.6220 N.am  1 <1>  -0.7300 
 17 C       -4.6670    -6.4770    -1.1280 C.2   1 <1>   0.5690 
 18 O       -4.7620    -6.9710    -2.2190 O.2   1 <1>  -0.5700 
 19 C       -3.3900    -6.6500    -0.3440 C.3   1 <1>  -0.1790 
 20 H       -0.3790    -2.5200    -2.3970 H     1 <1>   0.3700 
 21 H       -0.9010    -0.8740    -2.0670 H     1 <1>   0.3700 
 22 H       -4.4270     1.4270    -0.4110 H     1 <1>   0.1500 
 23 H       -4.5110    -3.7540    -0.8950 H     1 <1>   0.3700 
 24 H       -6.4400    -0.3510     1.3970 H     1 <1>   0.0800 
 25 H       -7.0680    -1.2310     0.0310 H     1 <1>   0.0800 
 26 H       -7.0960     0.8810    -1.3040 H     1 <1>   0.0800 
 27 H       -6.6160     1.7600     0.1340 H     1 <1>   0.0800 
 28 H       -6.8240    -5.3810     1.1220 H     1 <1>   0.0800 
 29 H       -5.1210    -5.5480     1.4060 H     1 <1>   0.0800 
 30 H       -9.1590     0.1350    -0.1510 H     1 <1>   0.0800 
 31 H       -9.0500     1.8770    -0.1800 H     1 <1>   0.0800 
 32 H       -8.6730     1.0060     1.2860 H     1 <1>   0.0800 
 33 H       -6.5200    -5.7130    -1.2390 H     1 <1>   0.3700 
 34 H       -3.0410    -5.7020     0.0170 H     1 <1>   0.0800 
 35 H       -2.6330    -7.0690    -0.9820 H     1 <1>   0.0800 
 36 H       -3.5560    -7.3160     0.4800 H     1 <1>   0.0800 
@<TRIPOS>BOND
  1   1   2  2   
  2   2   3  am  
  3   2   4  1   
  4   3  20  1   
  5   3  21  1   
  6   4   5  1   
  7   4   6  2   
  8   5   7  2   
  9   6   8  1   
 10   6   9  1   
 11   7   8  1   
 12   7  22  1   
 13   8  10  1   
 14   9  11  am  
 15   9  23  1   
 16  10  12  1   
 17  10  24  1   
 18  10  25  1   
 19  11  13  2   
 20  11  14  1   
 21  12  15  1   
 22  12  26  1   
 23  12  27  1   
 24  14  16  1   
 25  14  28  1   
 26  14  29  1   
 27  15  30  1   
 28  15  31  1   
 29  15  32  1   
 30  16  17  am  
 31  16  33  1   
 32  17  18  2   
 33  17  19  1   
 34  19  34  1   
 35  19  35  1   
 36  19  36  1   
@<TRIPOS>SUBSTRUCTURE
  1 ****   9 GROUP 4 **** **** 0

# MOE 2024.06 (io_trps.svl 2023.06)
