@<TRIPOS>MOLECULE
NONAME
40 42 1 0 0 
SMALL
USER_CHARGES


@<TRIPOS>ATOM
  1 S        0.7650    -0.6050    -1.8100 S.3   1 <1>  -0.0800 
  2 C        1.3460    -1.2990    -0.3180 C.2   1 <1>  -0.1400 
  3 C        1.2690     0.9690    -1.2420 C.2   1 <1>   0.2280 
  4 C        1.8550    -0.3160     0.4430 C.2   1 <1>   0.0460 
  5 C        1.2140    -2.7920    -0.1340 C.3   1 <1>   0.5230 
  6 N        1.8000     0.9590    -0.0850 N.2   1 <1>  -0.5650 
  7 C        2.4880    -0.4300     1.8150 C.3   1 <1>  -0.0590 
  8 N       -0.1110    -3.1050     0.4650 N.4   1 <1>  -0.9590 
  9 C       -1.2990    -2.7030    -0.3360 C.3   1 <1>   0.3430 
 10 C       -0.3150    -4.5380     0.8260 C.3   1 <1>   0.3430 
 11 C       -2.4430    -3.4900     0.3020 C.3   1 <1>   0.2000 
 12 C       -1.8050    -4.8490     0.5950 C.3   1 <1>  -0.0800 
 13 O       -2.7410    -2.8900     1.5200 O.3   1 <1>  -0.6800 
 14 C       -2.0050    -5.8340    -0.5740 C.3   1 <1>  -0.0160 
 15 C       -1.1390    -7.0720    -0.4000 C.ar  1 <1>  -0.1440 
 16 C       -1.3160    -7.9450     0.6560 C.ar  1 <1>  -0.1500 
 17 C       -0.1280    -7.3860    -1.2870 C.ar  1 <1>  -0.1500 
 18 C       -0.4810    -9.0420     0.7840 C.ar  1 <1>   0.1600 
 19 C        0.6510    -8.5100    -1.0690 C.ar  1 <1>   0.1600 
 20 N        0.5050    -9.3350    -0.0460 N.ar  1 <1>  -0.6200 
 21 H        1.0990     1.8110    -1.8910 H     1 <1>   0.1500 
 22 H        1.9950    -3.1330     0.5260 H     1 <1>   0.0800 
 23 H        1.3290    -3.2890    -1.0830 H     1 <1>   0.0800 
 24 H        2.5010    -1.4460     2.1600 H     1 <1>   0.0800 
 25 H        1.9390     0.1720     2.5170 H     1 <1>   0.0800 
 26 H        3.4990    -0.0650     1.7750 H     1 <1>   0.0800 
 27 H       -0.2080    -2.5590     1.3360 H     1 <1>   0.4500 
 28 H       -1.4790    -1.6410    -0.2870 H     1 <1>   0.0800 
 29 H       -1.1750    -3.0030    -1.3630 H     1 <1>   0.0800 
 30 H        0.2980    -5.1770     0.2110 H     1 <1>   0.0800 
 31 H       -0.0560    -4.7020     1.8600 H     1 <1>   0.0800 
 32 H       -3.3320    -3.5230    -0.3060 H     1 <1>   0.0800 
 33 H       -2.2270    -5.2890     1.4820 H     1 <1>   0.0800 
 34 H       -3.5920    -3.2180     1.8840 H     1 <1>   0.4000 
 35 H       -1.7640    -5.3620    -1.5110 H     1 <1>   0.0800 
 36 H       -3.0390    -6.1350    -0.6220 H     1 <1>   0.0800 
 37 H       -2.0950    -7.7940     1.3810 H     1 <1>   0.1500 
 38 H        0.0670    -6.7790    -2.1530 H     1 <1>   0.1500 
 39 H       -0.6300    -9.7150     1.6130 H     1 <1>   0.1500 
 40 H        1.4340    -8.7460    -1.7700 H     1 <1>   0.1500 
@<TRIPOS>BOND
  1   1   2  1   
  2   1   3  1   
  3   2   4  2   
  4   2   5  1   
  5   3   6  2   
  6   3  21  1   
  7   4   6  1   
  8   4   7  1   
  9   5   8  1   
 10   5  22  1   
 11   5  23  1   
 12   7  24  1   
 13   7  25  1   
 14   7  26  1   
 15   8   9  1   
 16   8  10  1   
 17   8  27  1   
 18   9  11  1   
 19   9  28  1   
 20   9  29  1   
 21  10  12  1   
 22  10  30  1   
 23  10  31  1   
 24  11  12  1   
 25  11  13  1   
 26  11  32  1   
 27  12  14  1   
 28  12  33  1   
 29  13  34  1   
 30  14  15  1   
 31  14  35  1   
 32  14  36  1   
 33  15  16  ar  
 34  15  17  ar  
 35  16  18  ar  
 36  16  37  1   
 37  17  19  ar  
 38  17  38  1   
 39  18  20  ar  
 40  18  39  1   
 41  19  20  ar  
 42  19  40  1   
@<TRIPOS>SUBSTRUCTURE
  1 ****  10 GROUP 4 **** **** 0

# MOE 2024.06 (io_trps.svl 2023.06)
