@<TRIPOS>MOLECULE
NONAME
43 45 1 0 0 
SMALL
USER_CHARGES


@<TRIPOS>ATOM
  1 S       -1.0870    -1.2000    -1.5870 S.3   1 <1>  -0.0800 
  2 C       -1.3200     0.2820    -0.6840 C.2   1 <1>   0.1980 
  3 C       -2.4010    -1.9130    -0.6990 C.2   1 <1>  -0.1100 
  4 N       -2.2650     0.2330     0.1670 N.2   1 <1>  -0.5650 
  5 C       -0.4040     1.4500    -1.0000 C.3   1 <1>   0.0200 
  6 C       -2.8860    -1.0080     0.1700 C.2   1 <1>   0.0460 
  7 C        1.0180     1.2180    -0.4760 C.3   1 <1>  -0.2400 
  8 C       -4.0370    -1.1990     1.1490 C.3   1 <1>   0.3210 
  9 N       -4.3930    -2.6330     1.2840 N.am  1 <1>  -0.7300 
 10 C       -5.6360    -3.1380     1.1100 C.2   1 <1>   0.5690 
 11 O       -6.5890    -2.4420     0.8700 O.2   1 <1>  -0.5700 
 12 C       -5.8270    -4.6310     1.1890 C.3   1 <1>  -0.0990 
 13 C       -5.9810    -5.1910    -0.2220 C.3   1 <1>   0.1400 
 14 N       -5.9910    -6.6650    -0.1740 N.am  1 <1>  -0.4770 
 15 C       -4.8890    -7.4730    -0.1700 C.2   1 <1>   0.7800 
 16 C       -7.0850    -7.5040    -0.1370 C.ar  1 <1>   0.1170 
 17 O       -3.7290    -7.1030    -0.1720 O.2   1 <1>  -0.5700 
 18 O       -5.2430    -8.7580    -0.1400 O.3   1 <1>  -0.2320 
 19 C       -6.5910    -8.7890    -0.1180 C.ar  1 <1>   0.0820 
 20 C       -8.4530    -7.2790    -0.1140 C.ar  1 <1>  -0.1500 
 21 C       -7.4240    -9.8910    -0.0790 C.ar  1 <1>  -0.1500 
 22 C       -9.3080    -8.3720    -0.0750 C.ar  1 <1>  -0.1440 
 23 C       -8.7920    -9.6680    -0.0580 C.ar  1 <1>  -0.1500 
 24 C      -10.8130    -8.1720    -0.0500 C.3   1 <1>  -0.0970 
 25 H       -2.6690    -2.9280    -0.9260 H     1 <1>   0.1500 
 26 H       -0.8110     2.3350    -0.5440 H     1 <1>   0.0800 
 27 H       -0.3840     1.6030    -2.0640 H     1 <1>   0.0800 
 28 H        0.9960     1.0610     0.5880 H     1 <1>   0.0800 
 29 H        1.6340     2.0740    -0.6870 H     1 <1>   0.0800 
 30 H        1.4560     0.3540    -0.9440 H     1 <1>   0.0800 
 31 H       -4.8860    -0.6290     0.8120 H     1 <1>   0.0800 
 32 H       -3.7420    -0.8220     2.1120 H     1 <1>   0.0800 
 33 H       -3.6050    -3.2500     1.4880 H     1 <1>   0.3700 
 34 H       -6.7110    -4.8380     1.7640 H     1 <1>   0.0800 
 35 H       -4.9800    -5.0770     1.6750 H     1 <1>   0.0800 
 36 H       -5.1560    -4.8700    -0.8350 H     1 <1>   0.0800 
 37 H       -6.8930    -4.8330    -0.6690 H     1 <1>   0.0800 
 38 H       -8.8310    -6.2730    -0.1270 H     1 <1>   0.1500 
 39 H       -7.0130   -10.8850    -0.0660 H     1 <1>   0.1500 
 40 H       -9.4640   -10.5090    -0.0280 H     1 <1>   0.1500 
 41 H      -11.0650    -7.1280    -0.1120 H     1 <1>   0.0800 
 42 H      -11.2190    -8.5680     0.8630 H     1 <1>   0.0800 
 43 H      -11.2650    -8.6810    -0.8820 H     1 <1>   0.0800 
@<TRIPOS>BOND
  1   1   2  1   
  2   1   3  1   
  3   2   4  2   
  4   2   5  1   
  5   3   6  2   
  6   3  25  1   
  7   4   6  1   
  8   5   7  1   
  9   5  26  1   
 10   5  27  1   
 11   6   8  1   
 12   7  28  1   
 13   7  29  1   
 14   7  30  1   
 15   8   9  1   
 16   8  31  1   
 17   8  32  1   
 18   9  10  am  
 19   9  33  1   
 20  10  11  2   
 21  10  12  1   
 22  12  13  1   
 23  12  34  1   
 24  12  35  1   
 25  13  14  1   
 26  13  36  1   
 27  13  37  1   
 28  14  15  am  
 29  14  16  1   
 30  15  17  2   
 31  15  18  1   
 32  16  19  ar  
 33  16  20  ar  
 34  18  19  1   
 35  19  21  ar  
 36  20  22  ar  
 37  20  38  1   
 38  21  23  ar  
 39  21  39  1   
 40  22  23  ar  
 41  22  24  1   
 42  23  40  1   
 43  24  41  1   
 44  24  42  1   
 45  24  43  1   
@<TRIPOS>SUBSTRUCTURE
  1 ****  13 GROUP 4 **** **** 0

# MOE 2024.06 (io_trps.svl 2023.06)
