@<TRIPOS>MOLECULE
NONAME
46 47 1 0 0 
SMALL
USER_CHARGES


@<TRIPOS>ATOM
  1 F       -1.1630     1.5380     0.8920 F     1 <1>  -0.3400 
  2 C       -0.9660     2.7440     0.3750 C.3   1 <1>   1.1640 
  3 F       -1.5290     2.7290    -0.8290 F     1 <1>  -0.3400 
  4 F       -1.6880     3.5860     1.1070 F     1 <1>  -0.3400 
  5 C        0.5240     3.1150     0.3280 C.ar  1 <1>  -0.1440 
  6 C        1.1180     3.8240     1.3680 C.ar  1 <1>  -0.1500 
  7 C        1.3150     2.7390    -0.7530 C.ar  1 <1>  -0.1500 
  8 C        2.4620     4.1520     1.3220 C.ar  1 <1>  -0.1500 
  9 C        2.6590     3.0670    -0.7970 C.ar  1 <1>  -0.1500 
 10 C        3.2410     3.7780     0.2400 C.ar  1 <1>  -0.1430 
 11 C        4.7160     4.1520     0.2070 C.3   1 <1>   0.2840 
 12 N        4.8560     5.6150    -0.0510 N.am  1 <1>  -0.6600 
 13 C        5.1950     6.4600     0.9830 C.2   1 <1>   0.5690 
 14 C        4.4800     6.0080    -1.4400 C.3   1 <1>   0.0600 
 15 O        5.4640     6.0220     2.0780 O.2   1 <1>  -0.5700 
 16 C        5.2380     7.9900     0.8490 C.3   1 <1>  -0.0190 
 17 C        3.8670     8.6180     0.5150 C.3   1 <1>  -0.1600 
 18 C        6.3870     8.4970    -0.0580 C.3   1 <1>  -0.1600 
 19 C        3.8970    10.1590     0.5760 C.3   1 <1>   0.2000 
 20 C        6.0910     9.8600    -0.7110 C.3   1 <1>  -0.1600 
 21 O        2.9470    10.6450    -0.3410 O.3   1 <1>  -0.5600 
 22 C        5.2900    10.7560     0.2370 C.3   1 <1>   0.2000 
 23 C        1.6290    10.6460     0.1150 C.3   1 <1>   0.0400 
 24 O        5.1230    11.9810    -0.3760 O.3   1 <1>  -0.6800 
 25 H        0.5400     4.1270     2.2250 H     1 <1>   0.1500 
 26 H        0.8880     2.1840    -1.5730 H     1 <1>   0.1500 
 27 H        2.9080     4.7050     2.1330 H     1 <1>   0.1500 
 28 H        3.2490     2.7650    -1.6450 H     1 <1>   0.1500 
 29 H        5.2240     3.6040    -0.5670 H     1 <1>   0.0800 
 30 H        5.1720     3.8790     1.1430 H     1 <1>   0.0800 
 31 H        4.9400     5.3380    -2.1460 H     1 <1>   0.0800 
 32 H        4.7970     7.0050    -1.6750 H     1 <1>   0.0800 
 33 H        3.4110     5.9490    -1.5530 H     1 <1>   0.0800 
 34 H        5.4730     8.3510     1.8370 H     1 <1>   0.0800 
 35 H        3.1350     8.2510     1.2130 H     1 <1>   0.0800 
 36 H        3.5620     8.3220    -0.4700 H     1 <1>   0.0800 
 37 H        7.2730     8.5850     0.5480 H     1 <1>   0.0800 
 38 H        6.6190     7.7850    -0.8290 H     1 <1>   0.0800 
 39 H        3.6310    10.4950     1.5640 H     1 <1>   0.0800 
 40 H        5.5180     9.7080    -1.6090 H     1 <1>   0.0800 
 41 H        7.0170    10.3410    -0.9750 H     1 <1>   0.0800 
 42 H        5.8570    10.9140     1.1380 H     1 <1>   0.0800 
 43 H        1.0070    11.0520    -0.6630 H     1 <1>   0.0800 
 44 H        1.5570    11.2640     0.9930 H     1 <1>   0.0800 
 45 H        1.3210     9.6380     0.3330 H     1 <1>   0.0800 
 46 H        4.2390    11.9390    -0.8100 H     1 <1>   0.4000 
@<TRIPOS>BOND
  1   1   2  1   
  2   2   3  1   
  3   2   4  1   
  4   2   5  1   
  5   5   6  ar  
  6   5   7  ar  
  7   6   8  ar  
  8   6  25  1   
  9   7   9  ar  
 10   7  26  1   
 11   8  10  ar  
 12   8  27  1   
 13   9  10  ar  
 14   9  28  1   
 15  10  11  1   
 16  11  12  1   
 17  11  29  1   
 18  11  30  1   
 19  12  13  am  
 20  12  14  1   
 21  13  15  2   
 22  13  16  1   
 23  14  31  1   
 24  14  32  1   
 25  14  33  1   
 26  16  17  1   
 27  16  18  1   
 28  16  34  1   
 29  17  19  1   
 30  17  35  1   
 31  17  36  1   
 32  18  20  1   
 33  18  37  1   
 34  18  38  1   
 35  19  21  1   
 36  19  22  1   
 37  19  39  1   
 38  20  22  1   
 39  20  40  1   
 40  20  41  1   
 41  21  23  1   
 42  22  24  1   
 43  22  42  1   
 44  23  43  1   
 45  23  44  1   
 46  23  45  1   
 47  24  46  1   
@<TRIPOS>SUBSTRUCTURE
  1 ****  12 GROUP 4 **** **** 0

# MOE 2024.06 (io_trps.svl 2023.06)
