@<TRIPOS>MOLECULE
NONAME
46 47 1 0 0 
SMALL
USER_CHARGES


@<TRIPOS>ATOM
  1 O        0.8700    -1.6700    -1.1730 O.2   1 <1>  -0.5700 
  2 C        1.4990    -1.6210    -0.1320 C.2   1 <1>   0.6900 
  3 N        1.4190    -0.5300     0.6970 N.am  1 <1>  -0.6600 
  4 N        2.2620    -2.6770     0.2330 N.am  1 <1>  -0.7300 
  5 C        0.4600     0.5770     0.4280 C.3   1 <1>   0.0600 
  6 C        2.3240    -0.3010     1.8560 C.3   1 <1>   0.0600 
  7 C        2.4250    -3.9390    -0.5530 C.3   1 <1>   0.2010 
  8 C        1.8010    -5.1660     0.1200 C.2   1 <1>   0.5690 
  9 O        2.5450    -5.8810     0.7540 O.2   1 <1>  -0.5700 
 10 N        0.4610    -5.4380     0.0050 N.am  1 <1>  -0.6600 
 11 C       -0.0610    -6.7600     0.4970 C.3   1 <1>   0.3640 
 12 C       -0.5180    -4.4030    -0.4550 C.3   1 <1>   0.1400 
 13 C        0.2720    -7.8470    -0.5290 C.ar  1 <1>  -0.1430 
 14 C       -1.5860    -6.8100     0.8240 C.3   1 <1>   0.2000 
 15 C       -1.9710    -4.8850    -0.4480 C.3   1 <1>   0.1200 
 16 C        0.0010    -7.6880    -1.8820 C.ar  1 <1>  -0.1500 
 17 C        0.8540    -9.0320    -0.0990 C.ar  1 <1>  -0.1500 
 18 O       -2.2300    -5.5660     0.7370 O.3   1 <1>  -0.5600 
 19 C       -1.8600    -7.3550     2.2330 C.3   1 <1>   0.1200 
 20 C        0.2980    -8.6940    -2.7850 C.ar  1 <1>  -0.1500 
 21 C        1.1530   -10.0390    -0.9990 C.ar  1 <1>  -0.1500 
 22 O       -1.3720    -8.6530     2.3680 O.3   1 <1>  -0.6800 
 23 C        0.8730    -9.8720    -2.3430 C.ar  1 <1>  -0.1500 
 24 H        2.5940    -2.7100     1.1940 H     1 <1>   0.3700 
 25 H       -0.0630     0.8350     1.3320 H     1 <1>   0.0800 
 26 H       -0.2640     0.2860    -0.3130 H     1 <1>   0.0800 
 27 H        0.9940     1.4380     0.0670 H     1 <1>   0.0800 
 28 H        2.5350     0.7500     1.9550 H     1 <1>   0.0800 
 29 H        3.2580    -0.8170     1.7180 H     1 <1>   0.0800 
 30 H        1.8520    -0.6500     2.7580 H     1 <1>   0.0800 
 31 H        2.0020    -3.8230    -1.5340 H     1 <1>   0.0800 
 32 H        3.4760    -4.1260    -0.6810 H     1 <1>   0.0800 
 33 H        0.4680    -6.9970     1.4040 H     1 <1>   0.0800 
 34 H       -0.4510    -3.5520     0.2010 H     1 <1>   0.0800 
 35 H       -0.2640    -4.0720    -1.4470 H     1 <1>   0.0800 
 36 H       -2.0770    -7.4550     0.1180 H     1 <1>   0.0800 
 37 H       -2.1750    -5.5340    -1.2820 H     1 <1>   0.0800 
 38 H       -2.6370    -4.0420    -0.4990 H     1 <1>   0.0800 
 39 H       -0.4380    -6.7760    -2.2430 H     1 <1>   0.1500 
 40 H        1.0800    -9.1730     0.9450 H     1 <1>   0.1500 
 41 H       -2.9180    -7.3730     2.4280 H     1 <1>   0.0800 
 42 H       -1.3700    -6.7410     2.9690 H     1 <1>   0.0800 
 43 H        0.0850    -8.5600    -3.8310 H     1 <1>   0.1500 
 44 H        1.6050   -10.9520    -0.6520 H     1 <1>   0.1500 
 45 H       -1.8490    -9.2710     1.7790 H     1 <1>   0.4000 
 46 H        1.1070   -10.6550    -3.0430 H     1 <1>   0.1500 
@<TRIPOS>BOND
  1   1   2  2   
  2   2   3  am  
  3   2   4  am  
  4   3   5  1   
  5   3   6  1   
  6   4   7  1   
  7   4  24  1   
  8   5  25  1   
  9   5  26  1   
 10   5  27  1   
 11   6  28  1   
 12   6  29  1   
 13   6  30  1   
 14   7   8  1   
 15   7  31  1   
 16   7  32  1   
 17   8   9  2   
 18   8  10  am  
 19  10  11  1   
 20  10  12  1   
 21  11  13  1   
 22  11  14  1   
 23  11  33  1   
 24  12  15  1   
 25  12  34  1   
 26  12  35  1   
 27  13  16  ar  
 28  13  17  ar  
 29  14  18  1   
 30  14  19  1   
 31  14  36  1   
 32  15  18  1   
 33  15  37  1   
 34  15  38  1   
 35  16  20  ar  
 36  16  39  1   
 37  17  21  ar  
 38  17  40  1   
 39  19  22  1   
 40  19  41  1   
 41  19  42  1   
 42  20  23  ar  
 43  20  43  1   
 44  21  23  ar  
 45  21  44  1   
 46  22  45  1   
 47  23  46  1   
@<TRIPOS>SUBSTRUCTURE
  1 ****  10 GROUP 4 **** **** 0

# MOE 2024.06 (io_trps.svl 2023.06)
