@<TRIPOS>MOLECULE
NONAME
45 47 1 0 0 
SMALL
USER_CHARGES


@<TRIPOS>ATOM
  1 O        1.6790     2.2080     0.6420 O.co2 1 <1>  -0.9000 
  2 C        2.2760     1.1340     0.6900 C.2   1 <1>   0.9060 
  3 O        2.5950     0.6290     1.7810 O.co2 1 <1>  -0.9000 
  4 C        2.5830     0.3660    -0.6140 C.3   1 <1>  -0.1060 
  5 C        3.6990    -0.6620    -0.3250 C.3   1 <1>   0.4230 
  6 C        3.0430     1.3390    -1.7530 C.3   1 <1>  -0.1600 
  7 C        1.3080    -0.3800    -1.0820 C.3   1 <1>  -0.1600 
  8 N        3.2310    -1.6770     0.6870 N.4   1 <1>  -0.9590 
  9 C        5.0140     0.0610     0.0790 C.3   1 <1>   0.2090 
 10 C        4.5490     1.3590    -2.0600 C.3   1 <1>   0.2090 
 11 C        0.8870    -1.4640    -0.0800 C.3   1 <1>  -0.1600 
 12 C        2.0300    -2.4280     0.2390 C.3   1 <1>   0.3430 
 13 C        4.2800    -2.5710     1.2480 C.3   1 <1>   0.2630 
 14 N        5.3600     1.2080    -0.8230 N.pl3 1 <1>  -0.8380 
 15 C        6.2930     2.1280    -0.4770 C.ar  1 <1>   0.1000 
 16 C        6.0500     3.1890     0.4170 C.ar  1 <1>  -0.1440 
 17 C        7.5720     2.0350    -1.0340 C.ar  1 <1>  -0.1500 
 18 C        7.0580     4.0690     0.7190 C.ar  1 <1>   0.2110 
 19 C        4.6760     3.3930     1.0460 C.3   1 <1>  -0.0970 
 20 C        8.5500     2.9340    -0.7080 C.ar  1 <1>   0.2110 
 21 N        8.2890     3.9380     0.1650 N.ar  1 <1>  -0.1790 
 22 H        3.9020    -1.1840    -1.2430 H     1 <1>   0.0800 
 23 H        2.7430     2.3450    -1.5220 H     1 <1>   0.0800 
 24 H        2.5400     1.1030    -2.6730 H     1 <1>   0.0800 
 25 H        0.5040     0.3300    -1.1950 H     1 <1>   0.0800 
 26 H        1.4790    -0.8400    -2.0400 H     1 <1>   0.0800 
 27 H        2.8990    -1.0300     1.4540 H     1 <1>   0.4500 
 28 H        5.8260    -0.6420     0.0440 H     1 <1>   0.0800 
 29 H        4.9340     0.4290     1.0870 H     1 <1>   0.0800 
 30 H        4.8010     2.2820    -2.5550 H     1 <1>   0.0800 
 31 H        4.7900     0.5510    -2.7300 H     1 <1>   0.0800 
 32 H        0.0580    -2.0190    -0.4810 H     1 <1>   0.0800 
 33 H        0.5480    -1.0060     0.8350 H     1 <1>   0.0800 
 34 H        2.2710    -3.0040    -0.6390 H     1 <1>   0.0800 
 35 H        1.7130    -3.1040     1.0150 H     1 <1>   0.0800 
 36 H        4.7040    -3.1850     0.4720 H     1 <1>   0.0800 
 37 H        3.8520    -3.2090     2.0050 H     1 <1>   0.0800 
 38 H        5.0610    -1.9860     1.7050 H     1 <1>   0.0800 
 39 H        7.7650     1.2340    -1.7250 H     1 <1>   0.1500 
 40 H        6.8880     4.8850     1.4030 H     1 <1>   0.1500 
 41 H        3.9250     3.4490     0.2790 H     1 <1>   0.0800 
 42 H        4.6230     4.3010     1.6170 H     1 <1>   0.0800 
 43 H        4.4330     2.5780     1.7020 H     1 <1>   0.0800 
 44 H        9.5370     2.8600    -1.1370 H     1 <1>   0.1500 
 45 H        9.0250     4.6090     0.4080 H     1 <1>   0.4570 
@<TRIPOS>BOND
  1   1   2  ar  
  2   2   3  ar  
  3   2   4  1   
  4   4   5  1   
  5   4   6  1   
  6   4   7  1   
  7   5   8  1   
  8   5   9  1   
  9   5  22  1   
 10   6  10  1   
 11   6  23  1   
 12   6  24  1   
 13   7  11  1   
 14   7  25  1   
 15   7  26  1   
 16   8  12  1   
 17   8  13  1   
 18   8  27  1   
 19   9  14  1   
 20   9  28  1   
 21   9  29  1   
 22  10  14  1   
 23  10  30  1   
 24  10  31  1   
 25  11  12  1   
 26  11  32  1   
 27  11  33  1   
 28  12  34  1   
 29  12  35  1   
 30  13  36  1   
 31  13  37  1   
 32  13  38  1   
 33  14  15  1   
 34  15  16  ar  
 35  15  17  ar  
 36  16  18  ar  
 37  16  19  1   
 38  17  20  ar  
 39  17  39  1   
 40  18  21  ar  
 41  18  40  1   
 42  19  41  1   
 43  19  42  1   
 44  19  43  1   
 45  20  21  ar  
 46  20  44  1   
 47  21  45  1   
@<TRIPOS>SUBSTRUCTURE
  1 ****   9 GROUP 4 **** **** 0

# MOE 2024.06 (io_trps.svl 2023.06)
