@<TRIPOS>MOLECULE
NONAME
54 57 1 0 0 
SMALL
USER_CHARGES


@<TRIPOS>ATOM
  1 S        0.7410    -0.4340     2.6310 S.o2  1 <1>   1.4470 
  2 O        0.1960     0.5000     3.5870 O.2   1 <1>  -0.6500 
  3 O        1.7630    -1.3660     3.0530 O.2   1 <1>  -0.6500 
  4 N       -0.5560    -1.3910     2.1720 N.am  1 <1>  -0.9140 
  5 C        1.2160     0.3810     1.0700 C.ar  1 <1>  -0.0090 
  6 C       -0.1930    -2.5610     1.3840 C.3   1 <1>   0.2760 
  7 C        0.4160     1.3150     0.3970 C.ar  1 <1>  -0.1430 
  8 C        2.4340     0.0320     0.4990 C.ar  1 <1>  -0.1500 
  9 C       -1.3690    -2.9800     0.5140 C.3   1 <1>  -0.0800 
 10 C       -0.0740    -3.7840     2.2900 C.3   1 <1>   0.1200 
 11 C        0.8400     1.8650    -0.8150 C.ar  1 <1>  -0.1430 
 12 C       -0.9210     1.7520     1.0110 C.3   1 <1>  -0.0160 
 13 C        2.8570     0.5650    -0.7000 C.ar  1 <1>  -0.1500 
 14 C       -2.2130    -3.8350     1.4660 C.3   1 <1>   0.1200 
 15 C       -2.1390    -1.8260    -0.1590 C.3   1 <1>  -0.0170 
 16 O       -1.3880    -4.1720     2.5460 O.3   1 <1>  -0.5600 
 17 C        2.0590     1.4800    -1.3700 C.ar  1 <1>   0.0830 
 18 C       -0.0040     2.8870    -1.5830 C.3   1 <1>  -0.0170 
 19 C       -1.8680     2.4280     0.0170 C.3   1 <1>  -0.1600 
 20 C       -3.2010    -2.3610    -1.1040 C.ar  1 <1>  -0.1430 
 21 O        2.4220     2.0210    -2.5640 O.3   1 <1>  -0.3630 
 22 C       -1.1230     3.5140    -0.7500 C.3   1 <1>  -0.1600 
 23 C       -4.5180    -2.5100    -0.7180 C.ar  1 <1>  -0.1500 
 24 C       -2.8990    -2.7250    -2.4010 C.ar  1 <1>  -0.1500 
 25 C        3.6820     1.7790    -3.1480 C.3   1 <1>   0.0400 
 26 C       -5.4420    -3.0080    -1.6200 C.ar  1 <1>   0.1600 
 27 C       -3.9000    -3.2120    -3.2240 C.ar  1 <1>   0.1600 
 28 N       -5.1640    -3.3650    -2.8630 N.ar  1 <1>  -0.6200 
 29 H       -0.9470    -1.7460     3.0450 H     1 <1>   0.4200 
 30 H        0.6940    -2.3890     0.7980 H     1 <1>   0.0800 
 31 H        3.0730    -0.6750     1.0010 H     1 <1>   0.1500 
 32 H       -0.9950    -3.6300    -0.2570 H     1 <1>   0.0800 
 33 H        0.4340    -3.5830     3.2170 H     1 <1>   0.0800 
 34 H        0.4160    -4.5930     1.7770 H     1 <1>   0.0800 
 35 H       -1.4490     0.9180     1.4310 H     1 <1>   0.0800 
 36 H       -0.7130     2.4400     1.8130 H     1 <1>   0.0800 
 37 H        3.8060     0.2550    -1.0940 H     1 <1>   0.1500 
 38 H       -2.5590    -4.7380     0.9930 H     1 <1>   0.0800 
 39 H       -3.0500    -3.2850     1.8590 H     1 <1>   0.0800 
 40 H       -1.4520    -1.2080    -0.7090 H     1 <1>   0.0800 
 41 H       -2.6090    -1.2040     0.5830 H     1 <1>   0.0800 
 42 H        0.6240     3.6790    -1.9520 H     1 <1>   0.0800 
 43 H       -0.4350     2.3900    -2.4350 H     1 <1>   0.0800 
 44 H       -2.2520     1.6950    -0.6720 H     1 <1>   0.0800 
 45 H       -2.7000     2.8570     0.5480 H     1 <1>   0.0800 
 46 H       -0.6990     4.2210    -0.0560 H     1 <1>   0.0800 
 47 H       -1.8000     4.0440    -1.3970 H     1 <1>   0.0800 
 48 H       -4.8340    -2.2430     0.2730 H     1 <1>   0.1500 
 49 H       -1.8980    -2.6330    -2.7790 H     1 <1>   0.1500 
 50 H        3.7430     2.3500    -4.0570 H     1 <1>   0.0800 
 51 H        3.7700     0.7300    -3.3700 H     1 <1>   0.0800 
 52 H        4.4500     2.0970    -2.4660 H     1 <1>   0.0800 
 53 H       -6.4660    -3.1190    -1.3040 H     1 <1>   0.1500 
 54 H       -3.6490    -3.4910    -4.2340 H     1 <1>   0.1500 
@<TRIPOS>BOND
  1   1   2  2   
  2   1   3  2   
  3   1   4  am  
  4   1   5  1   
  5   4   6  1   
  6   4  29  1   
  7   5   7  ar  
  8   5   8  ar  
  9   6   9  1   
 10   6  10  1   
 11   6  30  1   
 12   7  11  ar  
 13   7  12  1   
 14   8  13  ar  
 15   8  31  1   
 16   9  14  1   
 17   9  15  1   
 18   9  32  1   
 19  10  16  1   
 20  10  33  1   
 21  10  34  1   
 22  11  17  ar  
 23  11  18  1   
 24  12  19  1   
 25  12  35  1   
 26  12  36  1   
 27  13  17  ar  
 28  13  37  1   
 29  14  16  1   
 30  14  38  1   
 31  14  39  1   
 32  15  20  1   
 33  15  40  1   
 34  15  41  1   
 35  17  21  1   
 36  18  22  1   
 37  18  42  1   
 38  18  43  1   
 39  19  22  1   
 40  19  44  1   
 41  19  45  1   
 42  20  23  ar  
 43  20  24  ar  
 44  21  25  1   
 45  22  46  1   
 46  22  47  1   
 47  23  26  ar  
 48  23  48  1   
 49  24  27  ar  
 50  24  49  1   
 51  25  50  1   
 52  25  51  1   
 53  25  52  1   
 54  26  28  ar  
 55  26  53  1   
 56  27  28  ar  
 57  27  54  1   
@<TRIPOS>SUBSTRUCTURE
  1 ****  15 GROUP 4 **** **** 0

# MOE 2024.06 (io_trps.svl 2023.06)
