@<TRIPOS>MOLECULE
NONAME
47 49 1 0 0 
SMALL
USER_CHARGES


@<TRIPOS>ATOM
  1 O       -0.4320     0.1230    -0.7580 O.2   1 <1>  -0.5700 
  2 C       -1.4580     0.7730    -0.6720 C.2   1 <1>   0.5440 
  3 N       -2.6490     0.1090    -0.5020 N.am  1 <1>  -0.6600 
  4 C       -1.4210     2.2210    -0.7560 C.ar  1 <1>   0.0860 
  5 C       -3.9470     0.7490    -0.1990 C.3   1 <1>   0.1400 
  6 C       -2.7440    -1.3610    -0.4000 C.3   1 <1>   0.1400 
  7 C       -0.8180     3.0190     0.2270 C.ar  1 <1>  -0.1440 
  8 C       -2.0150     2.8570    -1.8450 C.ar  1 <1>  -0.1500 
  9 C       -4.7770    -0.3420     0.4910 C.3   1 <1>  -0.0800 
 10 C       -4.2060    -1.6650    -0.0580 C.3   1 <1>  -0.0800 
 11 C       -0.8210     4.4010     0.1100 C.ar  1 <1>  -0.1500 
 12 C       -0.1510     2.3770     1.4370 C.3   1 <1>  -0.0970 
 13 C       -2.0150     4.2350    -1.9510 C.ar  1 <1>   0.0830 
 14 C       -6.3270    -0.1990     0.3840 C.3   1 <1>   0.2800 
 15 C       -5.0060    -2.1470    -1.2780 C.3   1 <1>  -0.1600 
 16 C       -1.4190     5.0120    -0.9760 C.ar  1 <1>  -0.1500 
 17 O       -2.5930     4.8330    -3.0020 O.3   1 <1>  -0.5330 
 18 O       -6.6700     0.4820    -0.7700 O.3   1 <1>  -0.6800 
 19 C       -6.9820    -1.5890     0.2810 C.3   1 <1>  -0.1600 
 20 C       -6.9380     0.5850     1.5670 C.3   1 <1>  -0.1600 
 21 C       -6.4780    -2.4230    -0.9170 C.3   1 <1>  -0.1600 
 22 C       -6.4360     2.0300     1.7410 C.3   1 <1>  -0.2400 
 23 H       -3.8180     1.6080     0.4340 H     1 <1>   0.0800 
 24 H       -4.3890     1.0560    -1.1300 H     1 <1>   0.0800 
 25 H       -2.4400    -1.8190    -1.3260 H     1 <1>   0.0800 
 26 H       -2.0930    -1.6980     0.3890 H     1 <1>   0.0800 
 27 H       -2.4750     2.2530    -2.6050 H     1 <1>   0.1500 
 28 H       -4.5150    -0.3200     1.5330 H     1 <1>   0.0800 
 29 H       -4.2390    -2.4330     0.6950 H     1 <1>   0.0800 
 30 H       -0.3560     5.0120     0.8640 H     1 <1>   0.1500 
 31 H        0.1870     3.1210     2.1360 H     1 <1>   0.0800 
 32 H        0.6980     1.7970     1.1200 H     1 <1>   0.0800 
 33 H       -0.8430     1.7260     1.9410 H     1 <1>   0.0800 
 34 H       -4.9700    -1.3830    -2.0370 H     1 <1>   0.0800 
 35 H       -4.5630    -3.0360    -1.6910 H     1 <1>   0.0800 
 36 H       -1.4260     6.0830    -1.0730 H     1 <1>   0.1500 
 37 H       -2.9740     4.2050    -3.6400 H     1 <1>   0.4500 
 38 H       -7.6400     0.4960    -0.8570 H     1 <1>   0.4000 
 39 H       -6.7530    -2.1280     1.1840 H     1 <1>   0.0800 
 40 H       -8.0530    -1.5020     0.2360 H     1 <1>   0.0800 
 41 H       -8.0080     0.6070     1.4530 H     1 <1>   0.0800 
 42 H       -6.7360     0.0480     2.4770 H     1 <1>   0.0800 
 43 H       -6.6030    -3.4670    -0.6870 H     1 <1>   0.0800 
 44 H       -7.0830    -2.2090    -1.7820 H     1 <1>   0.0800 
 45 H       -6.5650     2.5920     0.8320 H     1 <1>   0.0800 
 46 H       -5.3980     2.0450     2.0160 H     1 <1>   0.0800 
 47 H       -6.9940     2.5170     2.5210 H     1 <1>   0.0800 
@<TRIPOS>BOND
  1   1   2  2   
  2   2   3  am  
  3   2   4  1   
  4   3   5  1   
  5   3   6  1   
  6   4   7  ar  
  7   4   8  ar  
  8   5   9  1   
  9   5  23  1   
 10   5  24  1   
 11   6  10  1   
 12   6  25  1   
 13   6  26  1   
 14   7  11  ar  
 15   7  12  1   
 16   8  13  ar  
 17   8  27  1   
 18   9  10  1   
 19   9  14  1   
 20   9  28  1   
 21  10  15  1   
 22  10  29  1   
 23  11  16  ar  
 24  11  30  1   
 25  12  31  1   
 26  12  32  1   
 27  12  33  1   
 28  13  16  ar  
 29  13  17  1   
 30  14  18  1   
 31  14  19  1   
 32  14  20  1   
 33  15  21  1   
 34  15  34  1   
 35  15  35  1   
 36  16  36  1   
 37  17  37  1   
 38  18  38  1   
 39  19  21  1   
 40  19  39  1   
 41  19  40  1   
 42  20  22  1   
 43  20  41  1   
 44  20  42  1   
 45  21  43  1   
 46  21  44  1   
 47  22  45  1   
 48  22  46  1   
 49  22  47  1   
@<TRIPOS>SUBSTRUCTURE
  1 ****   5 GROUP 4 **** **** 0

# MOE 2024.06 (io_trps.svl 2023.06)
