@<TRIPOS>MOLECULE
NONAME
54 56 1 0 0 
SMALL
USER_CHARGES


@<TRIPOS>ATOM
  1 S       -0.4780    -0.0160     2.0170 S.o2  1 <1>   1.4470 
  2 O       -0.3360    -1.4600     2.0180 O.2   1 <1>  -0.6500 
  3 O       -0.8010     0.6680     3.2480 O.2   1 <1>  -0.6500 
  4 N       -1.7580     0.2780     0.9390 N.am  1 <1>  -0.8490 
  5 C        0.9420     0.7690     1.2080 C.ar  1 <1>  -0.0090 
  6 C       -1.7170    -0.6160    -0.2420 C.3   1 <1>   0.1960 
  7 C       -3.0620     0.3090     1.6470 C.3   1 <1>   0.1960 
  8 C        0.8550     2.0610     0.7000 C.ar  1 <1>  -0.1500 
  9 C        2.1560     0.1010     1.0780 C.ar  1 <1>  -0.1500 
 10 C       -2.5800    -1.8640     0.0380 C.3   1 <1>   0.4230 
 11 C       -4.2400    -0.0890     0.7380 C.3   1 <1>  -0.1600 
 12 C        1.9320     2.6660     0.0740 C.ar  1 <1>  -0.1500 
 13 C        3.2360     0.6970     0.4520 C.ar  1 <1>  -0.1500 
 14 N       -2.2540    -3.1500    -0.6820 N.4   1 <1>  -0.9590 
 15 C       -4.0880    -1.5060     0.1010 C.3   1 <1>   0.0000 
 16 C        3.1350     1.9800    -0.0560 C.ar  1 <1>   0.0830 
 17 C       -3.3040    -4.2000    -0.4660 C.3   1 <1>   0.3430 
 18 C       -1.9560    -2.9730    -2.1390 C.3   1 <1>   0.2630 
 19 C       -4.7350    -2.5930     0.9980 C.3   1 <1>  -0.1600 
 20 C       -4.8310    -1.4920    -1.2640 C.3   1 <1>   0.1200 
 21 O        4.2380     2.4900    -0.6540 O.3   1 <1>  -0.3630 
 22 C       -4.0670    -3.9870     0.8550 C.3   1 <1>  -0.1600 
 23 O       -4.1210    -0.7820    -2.2210 O.3   1 <1>  -0.6800 
 24 C        4.2650     3.8080    -1.1530 C.3   1 <1>   0.1200 
 25 C        5.6540     4.0670    -1.7290 C.3   1 <1>  -0.2400 
 26 H       -2.0950    -0.0770    -1.0920 H     1 <1>   0.0800 
 27 H       -0.7010    -0.8990    -0.4570 H     1 <1>   0.0800 
 28 H       -3.0400    -0.3680     2.4870 H     1 <1>   0.0800 
 29 H       -3.2190     1.3000     2.0410 H     1 <1>   0.0800 
 30 H       -0.0710     2.6020     0.7980 H     1 <1>   0.1500 
 31 H        2.2610    -0.8960     1.4720 H     1 <1>   0.1500 
 32 H       -2.3350    -2.0850     1.0630 H     1 <1>   0.0800 
 33 H       -5.1570    -0.0300     1.2980 H     1 <1>   0.0800 
 34 H       -4.3040     0.6650    -0.0290 H     1 <1>   0.0800 
 35 H        1.8160     3.6650    -0.3040 H     1 <1>   0.1500 
 36 H        4.1710     0.1720     0.3560 H     1 <1>   0.1500 
 37 H       -1.3940    -3.4870    -0.2240 H     1 <1>   0.4500 
 38 H       -4.0130    -4.1720    -1.2770 H     1 <1>   0.0800 
 39 H       -2.8480    -5.1780    -0.4680 H     1 <1>   0.0800 
 40 H       -2.8360    -2.6520    -2.6690 H     1 <1>   0.0800 
 41 H       -1.6210    -3.9040    -2.5670 H     1 <1>   0.0800 
 42 H       -1.1840    -2.2350    -2.2810 H     1 <1>   0.0800 
 43 H       -4.6630    -2.3050     2.0340 H     1 <1>   0.0800 
 44 H       -5.7870    -2.6700     0.7770 H     1 <1>   0.0800 
 45 H       -5.7940    -1.0220    -1.1500 H     1 <1>   0.0800 
 46 H       -4.9910    -2.4820    -1.6480 H     1 <1>   0.0800 
 47 H       -4.8210    -4.7500     0.9510 H     1 <1>   0.0800 
 48 H       -3.3760    -4.1360     1.6680 H     1 <1>   0.0800 
 49 H       -4.7160    -0.4830    -2.9430 H     1 <1>   0.4000 
 50 H        3.5130     3.8980    -1.9180 H     1 <1>   0.0800 
 51 H        4.0570     4.4840    -0.3410 H     1 <1>   0.0800 
 52 H        5.8580     3.3760    -2.5270 H     1 <1>   0.0800 
 53 H        6.3980     3.9580    -0.9610 H     1 <1>   0.0800 
 54 H        5.7060     5.0670    -2.1190 H     1 <1>   0.0800 
@<TRIPOS>BOND
  1   1   2  2   
  2   1   3  2   
  3   1   4  am  
  4   1   5  1   
  5   4   6  1   
  6   4   7  1   
  7   5   8  ar  
  8   5   9  ar  
  9   6  10  1   
 10   6  26  1   
 11   6  27  1   
 12   7  11  1   
 13   7  28  1   
 14   7  29  1   
 15   8  12  ar  
 16   8  30  1   
 17   9  13  ar  
 18   9  31  1   
 19  10  14  1   
 20  10  15  1   
 21  10  32  1   
 22  11  15  1   
 23  11  33  1   
 24  11  34  1   
 25  12  16  ar  
 26  12  35  1   
 27  13  16  ar  
 28  13  36  1   
 29  14  17  1   
 30  14  18  1   
 31  14  37  1   
 32  15  19  1   
 33  15  20  1   
 34  16  21  1   
 35  17  22  1   
 36  17  38  1   
 37  17  39  1   
 38  18  40  1   
 39  18  41  1   
 40  18  42  1   
 41  19  22  1   
 42  19  43  1   
 43  19  44  1   
 44  20  23  1   
 45  20  45  1   
 46  20  46  1   
 47  21  24  1   
 48  22  47  1   
 49  22  48  1   
 50  23  49  1   
 51  24  25  1   
 52  24  50  1   
 53  24  51  1   
 54  25  52  1   
 55  25  53  1   
 56  25  54  1   
@<TRIPOS>SUBSTRUCTURE
  1 ****   6 GROUP 4 **** **** 0

# MOE 2024.06 (io_trps.svl 2023.06)
