@<TRIPOS>MOLECULE
NONAME
58 61 1 0 0 
SMALL
USER_CHARGES


@<TRIPOS>ATOM
  1 O       -1.7410     1.6930     2.4810 O.2   1 <1>  -0.5700 
  2 C       -1.8490     1.9420     1.3010 C.2   1 <1>   0.5690 
  3 N       -2.5690     1.1230     0.4650 N.am  1 <1>  -0.6600 
  4 C       -1.1760     3.2020     0.7980 C.3   1 <1>   0.1570 
  5 C       -3.2200    -0.1270     0.9690 C.3   1 <1>   0.1400 
  6 C       -2.7210     1.3310    -1.0060 C.3   1 <1>   0.1400 
  7 N        0.1290     2.8570     0.2310 N.pl3 1 <1>   0.3140 
  8 C       -4.7470     0.0120     1.0800 C.3   1 <1>   0.1400 
  9 C       -3.9490     2.1900    -1.3330 C.3   1 <1>  -0.1600 
 10 N        0.4180     3.0530    -1.0810 N.2   1 <1>  -0.7070 
 11 C        1.1900     2.3430     0.9080 C.2   1 <1>  -0.0680 
 12 N       -5.3710     0.4770    -0.2010 N.am  1 <1>  -0.6600 
 13 C       -5.1870     1.9310    -0.4630 C.3   1 <1>   0.1400 
 14 C        1.6480     2.6650    -1.2000 C.2   1 <1>   0.1080 
 15 N        1.2120     2.0240     2.2740 N.pl3 1 <1>  -0.8840 
 16 C        2.1840     2.2130     0.0010 C.2   1 <1>  -0.1500 
 17 C       -6.0260    -0.3110    -1.1140 C.2   1 <1>   0.5690 
 18 C        2.3860     2.7160    -2.5170 C.3   1 <1>  -0.0590 
 19 O       -6.4590     0.1450    -2.1460 O.2   1 <1>  -0.5700 
 20 C       -6.2310    -1.7950    -0.8750 C.3   1 <1>  -0.0990 
 21 C       -7.4600    -2.0630     0.0070 C.3   1 <1>   0.0630 
 22 C       -7.6880    -3.5350     0.2730 C.ar  1 <1>  -0.1430 
 23 C       -8.7820    -1.6170    -0.6530 C.3   1 <1>  -0.1600 
 24 C       -9.0120    -3.8640     0.1160 C.ar  1 <1>  -0.1430 
 25 C       -6.7660    -4.5010     0.6400 C.ar  1 <1>  -0.1500 
 26 C       -9.8390    -2.6650    -0.2720 C.3   1 <1>  -0.0170 
 27 C       -9.4510    -5.1600     0.3130 C.ar  1 <1>  -0.1500 
 28 C       -7.1960    -5.8040     0.8390 C.ar  1 <1>  -0.1500 
 29 C       -8.5330    -6.1330     0.6760 C.ar  1 <1>  -0.1500 
 30 H       -1.0200     3.8790     1.6150 H     1 <1>   0.0800 
 31 H       -1.7710     3.6860     0.0510 H     1 <1>   0.0800 
 32 H       -2.8270    -0.3830     1.9380 H     1 <1>   0.0800 
 33 H       -2.9840    -0.9430     0.3090 H     1 <1>   0.0800 
 34 H       -2.8340     0.3720    -1.4840 H     1 <1>   0.0800 
 35 H       -1.8370     1.7800    -1.4230 H     1 <1>   0.0800 
 36 H       -4.9730     0.7170     1.8610 H     1 <1>   0.0800 
 37 H       -5.1610    -0.9300     1.3840 H     1 <1>   0.0800 
 38 H       -4.2150     2.0150    -2.3610 H     1 <1>   0.0800 
 39 H       -3.6890     3.2290    -1.2590 H     1 <1>   0.0800 
 40 H       -6.0610     2.3250    -0.9550 H     1 <1>   0.0800 
 41 H       -5.0810     2.4520     0.4730 H     1 <1>   0.0800 
 42 H        1.9240     1.3380     2.5450 H     1 <1>   0.4000 
 43 H        0.2950     1.7630     2.6780 H     1 <1>   0.4000 
 44 H        3.1800     1.8450     0.1600 H     1 <1>   0.1500 
 45 H        2.4080     3.7280    -2.8750 H     1 <1>   0.0800 
 46 H        1.8780     2.1020    -3.2370 H     1 <1>   0.0800 
 47 H        3.3930     2.3610    -2.3970 H     1 <1>   0.0800 
 48 H       -5.3490    -2.2130    -0.4320 H     1 <1>   0.0800 
 49 H       -6.3660    -2.2820    -1.8240 H     1 <1>   0.0800 
 50 H       -7.3570    -1.5670     0.9560 H     1 <1>   0.0800 
 51 H       -8.6730    -1.6230    -1.7240 H     1 <1>   0.0800 
 52 H       -9.0680    -0.6270    -0.3440 H     1 <1>   0.0800 
 53 H       -5.7290    -4.2530     0.7720 H     1 <1>   0.1500 
 54 H      -10.4940    -2.8840    -1.0970 H     1 <1>   0.0800 
 55 H      -10.4140    -2.3360     0.5760 H     1 <1>   0.0800 
 56 H      -10.4900    -5.4090     0.1870 H     1 <1>   0.1500 
 57 H       -6.4890    -6.5640     1.1220 H     1 <1>   0.1500 
 58 H       -8.8600    -7.1460     0.8310 H     1 <1>   0.1500 
@<TRIPOS>BOND
  1   1   2  2   
  2   2   3  am  
  3   2   4  1   
  4   3   5  1   
  5   3   6  1   
  6   4   7  1   
  7   4  30  1   
  8   4  31  1   
  9   5   8  1   
 10   5  32  1   
 11   5  33  1   
 12   6   9  1   
 13   6  34  1   
 14   6  35  1   
 15   7  10  1   
 16   7  11  1   
 17   8  12  1   
 18   8  36  1   
 19   8  37  1   
 20   9  13  1   
 21   9  38  1   
 22   9  39  1   
 23  10  14  2   
 24  11  15  1   
 25  11  16  2   
 26  12  13  1   
 27  12  17  am  
 28  13  40  1   
 29  13  41  1   
 30  14  16  1   
 31  14  18  1   
 32  15  42  1   
 33  15  43  1   
 34  16  44  1   
 35  17  19  2   
 36  17  20  1   
 37  18  45  1   
 38  18  46  1   
 39  18  47  1   
 40  20  21  1   
 41  20  48  1   
 42  20  49  1   
 43  21  22  1   
 44  21  23  1   
 45  21  50  1   
 46  22  24  ar  
 47  22  25  ar  
 48  23  26  1   
 49  23  51  1   
 50  23  52  1   
 51  24  26  1   
 52  24  27  ar  
 53  25  28  ar  
 54  25  53  1   
 55  26  54  1   
 56  26  55  1   
 57  27  29  ar  
 58  27  56  1   
 59  28  29  ar  
 60  28  57  1   
 61  29  58  1   
@<TRIPOS>SUBSTRUCTURE
  1 ****   5 GROUP 4 **** **** 0

# MOE 2024.06 (io_trps.svl 2023.06)
