@<TRIPOS>MOLECULE
NONAME
32 33 1 0 0 
SMALL
USER_CHARGES


@<TRIPOS>ATOM
  1 F       -0.8280     0.0860    -0.7900 F     1 <1>  -0.1900 
  2 C       -1.8200     0.7220    -0.2280 C.ar  1 <1>   0.1900 
  3 C       -2.7580     0.0110     0.5150 C.ar  1 <1>   0.0860 
  4 C       -1.8900     2.0900    -0.4190 C.ar  1 <1>  -0.1500 
  5 C       -2.6690    -1.4180     0.7080 C.2   1 <1>   0.5440 
  6 C       -3.8030     0.7490     1.0720 C.ar  1 <1>  -0.1500 
  7 C       -2.9380     2.7940     0.1470 C.ar  1 <1>  -0.1500 
  8 O       -1.8190    -1.8670     1.4550 O.2   1 <1>  -0.5700 
  9 N       -3.5540    -2.2790     0.0990 N.am  1 <1>  -0.6600 
 10 C       -3.8940     2.1190     0.8910 C.ar  1 <1>  -0.1500 
 11 C       -3.6340    -3.7280     0.4980 C.3   1 <1>   0.1400 
 12 C       -4.5560    -1.8690    -0.9220 C.3   1 <1>   0.1400 
 13 C       -5.0540    -4.3220     0.3630 C.3   1 <1>   0.2000 
 14 C       -5.9810    -2.0480    -0.3740 C.3   1 <1>  -0.1600 
 15 O       -5.2310    -4.8480    -0.9080 O.3   1 <1>  -0.6800 
 16 C       -6.1320    -3.2530     0.5930 C.3   1 <1>  -0.1860 
 17 C       -7.5140    -3.8720     0.5410 C.2   1 <1>   0.9060 
 18 O       -8.2900    -3.6730     1.4780 O.co2 1 <1>  -0.9000 
 19 O       -7.8140    -4.5690    -0.4400 O.co2 1 <1>  -0.9000 
 20 H       -1.1360     2.5900    -1.0010 H     1 <1>   0.1500 
 21 H       -4.5480     0.2310     1.6520 H     1 <1>   0.1500 
 22 H       -3.0100     3.8600     0.0120 H     1 <1>   0.1500 
 23 H       -4.7120     2.6640     1.3330 H     1 <1>   0.1500 
 24 H       -2.9420    -4.3050    -0.0890 H     1 <1>   0.0800 
 25 H       -3.3410    -3.8100     1.5290 H     1 <1>   0.0800 
 26 H       -4.4050    -0.8550    -1.2430 H     1 <1>   0.0800 
 27 H       -4.4300    -2.5040    -1.7840 H     1 <1>   0.0800 
 28 H       -5.1810    -5.1340     1.0580 H     1 <1>   0.0800 
 29 H       -6.2940    -1.1530     0.1310 H     1 <1>   0.0800 
 30 H       -6.6400    -2.1830    -1.2140 H     1 <1>   0.0800 
 31 H       -6.2250    -4.9290    -1.0210 H     1 <1>   0.4000 
 32 H       -5.9980    -2.8880     1.5930 H     1 <1>   0.0800 
@<TRIPOS>BOND
  1   1   2  1   
  2   2   3  ar  
  3   2   4  ar  
  4   3   5  1   
  5   3   6  ar  
  6   4   7  ar  
  7   4  20  1   
  8   5   8  2   
  9   5   9  am  
 10   6  10  ar  
 11   6  21  1   
 12   7  10  ar  
 13   7  22  1   
 14   9  11  1   
 15   9  12  1   
 16  10  23  1   
 17  11  13  1   
 18  11  24  1   
 19  11  25  1   
 20  12  14  1   
 21  12  26  1   
 22  12  27  1   
 23  13  15  1   
 24  13  16  1   
 25  13  28  1   
 26  14  16  1   
 27  14  29  1   
 28  14  30  1   
 29  15  31  1   
 30  16  17  1   
 31  16  32  1   
 32  17  18  ar  
 33  17  19  ar  
@<TRIPOS>SUBSTRUCTURE
  1 ****   9 GROUP 4 **** **** 0

# MOE 2024.06 (io_trps.svl 2023.06)
