@<TRIPOS>MOLECULE
NONAME
46 47 1 0 0 
SMALL
USER_CHARGES


@<TRIPOS>ATOM
  1 O       -0.4160    -1.1970    -0.6100 O.2   1 <1>  -0.5700 
  2 C       -0.7230    -2.1510     0.0650 C.2   1 <1>   0.5690 
  3 N       -1.9320    -2.2170     0.6690 N.am  1 <1>  -0.7300 
  4 C        0.2570    -3.3130     0.2480 C.3   1 <1>  -0.0190 
  5 C       -3.0050    -1.1930     0.5240 C.3   1 <1>   0.2010 
  6 C        1.5720    -2.8480     0.8960 C.3   1 <1>  -0.2400 
  7 C        0.5480    -4.0180    -1.0870 C.3   1 <1>  -0.2400 
  8 C       -4.3830    -1.6920     0.9810 C.2   1 <1>   0.5690 
  9 O       -4.4380    -2.7650     1.5450 O.2   1 <1>  -0.5700 
 10 N       -5.5120    -0.9430     0.7500 N.am  1 <1>  -0.6600 
 11 C       -6.8700    -1.4560     1.1030 C.3   1 <1>   0.1400 
 12 C       -5.5460     0.3850     0.0760 C.3   1 <1>   0.1400 
 13 C       -7.7470    -1.6130    -0.1650 C.3   1 <1>   0.0000 
 14 C       -6.3850     0.2870    -1.2030 C.3   1 <1>  -0.1600 
 15 C       -9.1650    -2.1210     0.1660 C.3   1 <1>   0.2000 
 16 C       -7.7930    -0.2660    -0.9210 C.3   1 <1>  -0.1600 
 17 C       -7.2110    -2.7540    -1.0490 C.3   1 <1>  -0.1600 
 18 O       -9.6620    -1.6100     1.3530 O.3   1 <1>  -0.6800 
 19 C       -9.0860    -3.6480     0.2420 C.3   1 <1>  -0.1600 
 20 C       -7.7630    -4.0400    -0.4300 C.3   1 <1>  -0.1600 
 21 H       -2.2300    -3.0410     1.2020 H     1 <1>   0.3700 
 22 H       -0.1970    -4.0310     0.9070 H     1 <1>   0.0800 
 23 H       -2.7390    -0.3310     1.1080 H     1 <1>   0.0800 
 24 H       -3.0620    -0.9030    -0.5090 H     1 <1>   0.0800 
 25 H        2.0670    -2.1340     0.2610 H     1 <1>   0.0800 
 26 H        2.2290    -3.6830     1.0600 H     1 <1>   0.0800 
 27 H        1.3700    -2.3780     1.8430 H     1 <1>   0.0800 
 28 H        1.0130    -3.3330    -1.7750 H     1 <1>   0.0800 
 29 H       -0.3700    -4.3690    -1.5260 H     1 <1>   0.0800 
 30 H        1.2020    -4.8580    -0.9370 H     1 <1>   0.0800 
 31 H       -6.7970    -2.3970     1.6200 H     1 <1>   0.0800 
 32 H       -7.3270    -0.7510     1.7750 H     1 <1>   0.0800 
 33 H       -5.9930     1.1010     0.7450 H     1 <1>   0.0800 
 34 H       -4.5580     0.7330    -0.1650 H     1 <1>   0.0800 
 35 H       -6.4680     1.2630    -1.6470 H     1 <1>   0.0800 
 36 H       -5.8760    -0.3460    -1.9090 H     1 <1>   0.0800 
 37 H       -9.8440    -1.8380    -0.6220 H     1 <1>   0.0800 
 38 H       -8.3290    -0.3770    -1.8480 H     1 <1>   0.0800 
 39 H       -8.3330     0.4470    -0.3200 H     1 <1>   0.0800 
 40 H       -7.6050    -2.6560    -2.0460 H     1 <1>   0.0800 
 41 H       -6.1370    -2.7750    -1.1090 H     1 <1>   0.0800 
 42 H       -9.2360    -2.0520     2.1100 H     1 <1>   0.4000 
 43 H       -9.0970    -4.0020     1.2580 H     1 <1>   0.0800 
 44 H       -9.9150    -4.0780    -0.2910 H     1 <1>   0.0800 
 45 H       -7.0730    -4.4020     0.3140 H     1 <1>   0.0800 
 46 H       -7.9020    -4.8050    -1.1730 H     1 <1>   0.0800 
@<TRIPOS>BOND
  1   1   2  2   
  2   2   3  am  
  3   2   4  1   
  4   3   5  1   
  5   3  21  1   
  6   4   6  1   
  7   4   7  1   
  8   4  22  1   
  9   5   8  1   
 10   5  23  1   
 11   5  24  1   
 12   6  25  1   
 13   6  26  1   
 14   6  27  1   
 15   7  28  1   
 16   7  29  1   
 17   7  30  1   
 18   8   9  2   
 19   8  10  am  
 20  10  11  1   
 21  10  12  1   
 22  11  13  1   
 23  11  31  1   
 24  11  32  1   
 25  12  14  1   
 26  12  33  1   
 27  12  34  1   
 28  13  15  1   
 29  13  16  1   
 30  13  17  1   
 31  14  16  1   
 32  14  35  1   
 33  14  36  1   
 34  15  18  1   
 35  15  19  1   
 36  15  37  1   
 37  16  38  1   
 38  16  39  1   
 39  17  20  1   
 40  17  40  1   
 41  17  41  1   
 42  18  42  1   
 43  19  20  1   
 44  19  43  1   
 45  19  44  1   
 46  20  45  1   
 47  20  46  1   
@<TRIPOS>SUBSTRUCTURE
  1 ****   8 GROUP 4 **** **** 0

# MOE 2024.06 (io_trps.svl 2023.06)
