@<TRIPOS>MOLECULE
NONAME
33 34 1 0 0 
SMALL
USER_CHARGES


@<TRIPOS>ATOM
  1 CL      -0.3600    -0.0890    -1.2890 Cl    1 <1>  -0.1770 
  2 C       -1.4970     0.9930    -0.5020 C.ar  1 <1>   0.1770 
  3 C       -1.1450     2.3120    -0.1470 C.ar  1 <1>   0.4100 
  4 C       -2.7570     0.5000    -0.2580 C.ar  1 <1>  -0.1500 
  5 N       -2.0220     3.1430     0.4230 N.ar  1 <1>  -0.6200 
  6 N        0.1300     2.8310    -0.3740 N.pl3 1 <1>  -0.8380 
  7 C       -3.6360     1.3750     0.3400 C.ar  1 <1>   0.1770 
  8 C       -3.2350     2.6600     0.6550 C.ar  1 <1>   0.1600 
  9 C        0.3740     4.3020    -0.3340 C.3   1 <1>   0.2090 
 10 C        1.3160     2.1300     0.1820 C.3   1 <1>   0.2090 
 11 CL      -5.2650     0.8490     0.6960 Cl    1 <1>  -0.1770 
 12 C        1.8870     4.4320    -0.2610 C.3   1 <1>  -0.0190 
 13 C        2.2960     3.2270     0.5850 C.3   1 <1>  -0.1600 
 14 C        2.3330     5.7740     0.2950 C.2   1 <1>   0.5690 
 15 O        1.9180     6.1440     1.3660 O.2   1 <1>  -0.5700 
 16 N        3.1980     6.5240    -0.4380 N.am  1 <1>  -0.7300 
 17 C        3.7370     7.8350    -0.0290 C.3   1 <1>   0.1400 
 18 C        5.2450     7.8280    -0.2420 C.3   1 <1>  -0.2400 
 19 H       -3.0410    -0.5020    -0.5190 H     1 <1>   0.1500 
 20 H       -3.9480     3.3200     1.1180 H     1 <1>   0.1500 
 21 H       -0.0740     4.7260     0.5500 H     1 <1>   0.0800 
 22 H       -0.0280     4.7820    -1.2090 H     1 <1>   0.0800 
 23 H        1.7520     1.5150    -0.5870 H     1 <1>   0.0800 
 24 H        1.0470     1.5160     1.0250 H     1 <1>   0.0800 
 25 H        2.2730     4.3090    -1.2560 H     1 <1>   0.0800 
 26 H        3.3170     2.9350     0.4200 H     1 <1>   0.0800 
 27 H        2.1590     3.4470     1.6300 H     1 <1>   0.0800 
 28 H        3.5240     6.1830    -1.3420 H     1 <1>   0.3700 
 29 H        3.5120     8.0210     1.0090 H     1 <1>   0.0800 
 30 H        3.2790     8.6100    -0.6210 H     1 <1>   0.0800 
 31 H        5.6990     7.0540     0.3520 H     1 <1>   0.0800 
 32 H        5.6560     8.7730     0.0630 H     1 <1>   0.0800 
 33 H        5.4810     7.6730    -1.2790 H     1 <1>   0.0800 
@<TRIPOS>BOND
  1   1   2  1   
  2   2   3  ar  
  3   2   4  ar  
  4   3   5  ar  
  5   3   6  1   
  6   4   7  ar  
  7   4  19  1   
  8   5   8  ar  
  9   6   9  1   
 10   6  10  1   
 11   7   8  ar  
 12   7  11  1   
 13   8  20  1   
 14   9  12  1   
 15   9  21  1   
 16   9  22  1   
 17  10  13  1   
 18  10  23  1   
 19  10  24  1   
 20  12  13  1   
 21  12  14  1   
 22  12  25  1   
 23  13  26  1   
 24  13  27  1   
 25  14  15  2   
 26  14  16  am  
 27  16  17  1   
 28  16  28  1   
 29  17  18  1   
 30  17  29  1   
 31  17  30  1   
 32  18  31  1   
 33  18  32  1   
 34  18  33  1   
@<TRIPOS>SUBSTRUCTURE
  1 ****   6 GROUP 4 **** **** 0

# MOE 2024.06 (io_trps.svl 2023.06)
