@<TRIPOS>MOLECULE
NONAME
57 60 1 0 0 
SMALL
USER_CHARGES


@<TRIPOS>ATOM
  1 O        2.0150     1.9270     0.8230 O.3   1 <1>  -0.0190 
  2 N        2.5770     0.7690     0.6550 N.2   1 <1>  -0.4100 
  3 C        0.8320     1.9800     0.2720 C.2   1 <1>  -0.0400 
  4 C        1.7330     0.0540     0.0010 C.2   1 <1>   0.1080 
  5 C        0.5810     0.7830    -0.2790 C.2   1 <1>  -0.1500 
  6 C        0.0250     3.2630     0.3390 C.3   1 <1>   0.0200 
  7 C        1.9700    -1.3840    -0.4060 C.3   1 <1>  -0.0590 
  8 C        0.7000     4.3800    -0.4820 C.3   1 <1>  -0.0800 
  9 C       -0.0280     5.7240    -0.4830 C.3   1 <1>   0.2000 
 10 C        2.1160     4.7160     0.0030 C.3   1 <1>   0.3430 
 11 O       -0.4200     6.0390     0.8240 O.3   1 <1>  -0.5600 
 12 C        1.0860     6.6910    -0.8820 C.3   1 <1>   0.3430 
 13 N        2.3200     6.1830    -0.1990 N.4   1 <1>  -0.9590 
 14 C       -1.8000     6.1150     1.0300 C.3   1 <1>   0.0400 
 15 C        2.5190     6.8560     1.1150 C.3   1 <1>   0.4860 
 16 C        2.7940     8.3290     0.8780 C.ar  1 <1>  -0.1440 
 17 C        4.0120     8.7460     0.3600 C.ar  1 <1>  -0.1500 
 18 C        1.8210     9.2730     1.1770 C.ar  1 <1>  -0.1500 
 19 C        4.2450    10.0900     0.1330 C.ar  1 <1>  -0.1500 
 20 C        2.0550    10.6180     0.9520 C.ar  1 <1>  -0.1500 
 21 C        3.2740    11.0330     0.4240 C.ar  1 <1>   0.0820 
 22 O        3.5880    12.3260     0.1700 O.3   1 <1>  -0.3620 
 23 C        2.6960    13.3810     0.4920 C.3   1 <1>   0.2640 
 24 C        3.2680    14.7520     0.1410 C.ar  1 <1>   0.1670 
 25 N        2.4380    15.7690     0.3380 N.ar  1 <1>  -0.6200 
 26 C        4.5620    14.9020    -0.3440 C.ar  1 <1>  -0.1500 
 27 C        2.9110    16.9690     0.0420 C.ar  1 <1>   0.1600 
 28 C        5.0410    16.1580    -0.6480 C.ar  1 <1>  -0.1500 
 29 C        4.1820    17.2160    -0.4460 C.ar  1 <1>  -0.1500 
 30 H       -0.2820     0.4300    -0.8150 H     1 <1>   0.1500 
 31 H       -0.9610     3.0770    -0.0480 H     1 <1>   0.0800 
 32 H       -0.0730     3.5510     1.3720 H     1 <1>   0.0800 
 33 H        1.2170    -2.0150     0.0270 H     1 <1>   0.0800 
 34 H        2.9350    -1.7100    -0.0610 H     1 <1>   0.0800 
 35 H        1.9360    -1.4730    -1.4760 H     1 <1>   0.0800 
 36 H        0.7820     4.0410    -1.5000 H     1 <1>   0.0800 
 37 H       -0.8690     5.7630    -1.1570 H     1 <1>   0.0800 
 38 H        2.8460     4.1390    -0.5420 H     1 <1>   0.0800 
 39 H        2.2020     4.4720     1.0510 H     1 <1>   0.0800 
 40 H        0.8450     7.7030    -0.6040 H     1 <1>   0.0800 
 41 H        1.2240     6.6440    -1.9490 H     1 <1>   0.0800 
 42 H        3.1460     6.3760    -0.7780 H     1 <1>   0.4500 
 43 H       -1.9740     6.3320     2.0700 H     1 <1>   0.0800 
 44 H       -2.2550     5.1720     0.7800 H     1 <1>   0.0800 
 45 H       -2.2100     6.9050     0.4250 H     1 <1>   0.0800 
 46 H        1.6400     6.7410     1.7290 H     1 <1>   0.0800 
 47 H        3.3560     6.4170     1.6340 H     1 <1>   0.0800 
 48 H        4.7920     8.0390     0.1320 H     1 <1>   0.1500 
 49 H        0.8720     8.9700     1.5900 H     1 <1>   0.1500 
 50 H        5.1870    10.4210    -0.2680 H     1 <1>   0.1500 
 51 H        1.2820    11.3230     1.1950 H     1 <1>   0.1500 
 52 H        1.7850    13.2290    -0.0580 H     1 <1>   0.0800 
 53 H        2.4950    13.3420     1.5470 H     1 <1>   0.0800 
 54 H        5.1980    14.0470    -0.4860 H     1 <1>   0.1500 
 55 H        2.2480    17.8030     0.1960 H     1 <1>   0.1500 
 56 H        6.0380    16.3040    -1.0260 H     1 <1>   0.1500 
 57 H        4.4920    18.2220    -0.6630 H     1 <1>   0.1500 
@<TRIPOS>BOND
  1   1   2  1   
  2   1   3  1   
  3   2   4  2   
  4   3   5  2   
  5   3   6  1   
  6   4   5  1   
  7   4   7  1   
  8   5  30  1   
  9   6   8  1   
 10   6  31  1   
 11   6  32  1   
 12   7  33  1   
 13   7  34  1   
 14   7  35  1   
 15   8   9  1   
 16   8  10  1   
 17   8  36  1   
 18   9  11  1   
 19   9  12  1   
 20   9  37  1   
 21  10  13  1   
 22  10  38  1   
 23  10  39  1   
 24  11  14  1   
 25  12  13  1   
 26  12  40  1   
 27  12  41  1   
 28  13  15  1   
 29  13  42  1   
 30  14  43  1   
 31  14  44  1   
 32  14  45  1   
 33  15  16  1   
 34  15  46  1   
 35  15  47  1   
 36  16  17  ar  
 37  16  18  ar  
 38  17  19  ar  
 39  17  48  1   
 40  18  20  ar  
 41  18  49  1   
 42  19  21  ar  
 43  19  50  1   
 44  20  21  ar  
 45  20  51  1   
 46  21  22  1   
 47  22  23  1   
 48  23  24  1   
 49  23  52  1   
 50  23  53  1   
 51  24  25  ar  
 52  24  26  ar  
 53  25  27  ar  
 54  26  28  ar  
 55  26  54  1   
 56  27  29  ar  
 57  27  55  1   
 58  28  29  ar  
 59  28  56  1   
 60  29  57  1   
@<TRIPOS>SUBSTRUCTURE
  1 ****  16 GROUP 4 **** **** 0

# MOE 2024.06 (io_trps.svl 2023.06)
