@<TRIPOS>MOLECULE
NONAME
40 42 1 0 0 
SMALL
USER_CHARGES


@<TRIPOS>ATOM
  1 O        1.1770     1.3640    -1.1830 O.3   1 <1>  -0.0190 
  2 N        2.0650     0.4260    -1.3080 N.2   1 <1>  -0.4100 
  3 C        0.9480     1.6540     0.0700 C.2   1 <1>  -0.0400 
  4 C        2.3980     0.0850    -0.1150 C.2   1 <1>   0.1080 
  5 C        1.7110     0.8490     0.8250 C.2   1 <1>  -0.1500 
  6 C       -0.0260     2.7620     0.4210 C.3   1 <1>   0.0200 
  7 C        3.4000    -1.0010     0.2120 C.3   1 <1>  -0.0590 
  8 C        0.2410     4.0030    -0.4540 C.3   1 <1>  -0.0800 
  9 C       -0.5030     5.2830    -0.0810 C.3   1 <1>   0.2000 
 10 C        1.7170     4.4170    -0.4780 C.3   1 <1>   0.3430 
 11 O       -0.4030     5.5050     1.2910 O.3   1 <1>  -0.6800 
 12 C        0.3250     6.3480    -0.8040 C.3   1 <1>   0.3430 
 13 N        1.7530     5.8980    -0.6920 N.4   1 <1>  -0.9590 
 14 C        2.4400     6.5730     0.4480 C.3   1 <1>   0.4860 
 15 C        2.5460     8.0550     0.1640 C.ar  1 <1>  -0.1440 
 16 C        3.4830     8.5280    -0.7440 C.ar  1 <1>   0.1600 
 17 C        1.7170     8.9610     0.7990 C.ar  1 <1>  -0.1500 
 18 N        3.6350     9.7950    -1.0770 N.ar  1 <1>  -0.6200 
 19 C        1.8740    10.2900     0.4690 C.ar  1 <1>  -0.1500 
 20 C        2.8320    10.6500    -0.4630 C.ar  1 <1>   0.1600 
 21 H        1.8030     0.7750     1.8930 H     1 <1>   0.1500 
 22 H       -1.0300     2.4110     0.2560 H     1 <1>   0.0800 
 23 H        0.0830     2.9880     1.4670 H     1 <1>   0.0800 
 24 H        4.1790    -0.6080     0.8390 H     1 <1>   0.0800 
 25 H        3.8410    -1.3790    -0.6940 H     1 <1>   0.0800 
 26 H        2.9090    -1.8090     0.7200 H     1 <1>   0.0800 
 27 H       -0.0280     3.7500    -1.4660 H     1 <1>   0.0800 
 28 H       -1.5410     5.2940    -0.3710 H     1 <1>   0.0800 
 29 H        2.2430     3.8910    -1.2610 H     1 <1>   0.0800 
 30 H        2.1710     4.1690     0.4680 H     1 <1>   0.0800 
 31 H       -1.1420     5.0760     1.7740 H     1 <1>   0.4000 
 32 H        0.1620     7.3250    -0.3790 H     1 <1>   0.0800 
 33 H        0.0380     6.3670    -1.8420 H     1 <1>   0.0800 
 34 H        2.2530     6.1330    -1.5590 H     1 <1>   0.4500 
 35 H        1.8830     6.4160     1.3580 H     1 <1>   0.0800 
 36 H        3.4280     6.1640     0.5800 H     1 <1>   0.0800 
 37 H        4.1480     7.8340    -1.2300 H     1 <1>   0.1500 
 38 H        0.9790     8.6590     1.5250 H     1 <1>   0.1500 
 39 H        1.2630    11.0470     0.9280 H     1 <1>   0.1500 
 40 H        2.9460    11.6910    -0.7150 H     1 <1>   0.1500 
@<TRIPOS>BOND
  1   1   2  1   
  2   1   3  1   
  3   2   4  2   
  4   3   5  2   
  5   3   6  1   
  6   4   5  1   
  7   4   7  1   
  8   5  21  1   
  9   6   8  1   
 10   6  22  1   
 11   6  23  1   
 12   7  24  1   
 13   7  25  1   
 14   7  26  1   
 15   8   9  1   
 16   8  10  1   
 17   8  27  1   
 18   9  11  1   
 19   9  12  1   
 20   9  28  1   
 21  10  13  1   
 22  10  29  1   
 23  10  30  1   
 24  11  31  1   
 25  12  13  1   
 26  12  32  1   
 27  12  33  1   
 28  13  14  1   
 29  13  34  1   
 30  14  15  1   
 31  14  35  1   
 32  14  36  1   
 33  15  16  ar  
 34  15  17  ar  
 35  16  18  ar  
 36  16  37  1   
 37  17  19  ar  
 38  17  38  1   
 39  18  20  ar  
 40  19  20  ar  
 41  19  39  1   
 42  20  40  1   
@<TRIPOS>SUBSTRUCTURE
  1 ****  10 GROUP 4 **** **** 0

# MOE 2024.06 (io_trps.svl 2023.06)
