@<TRIPOS>MOLECULE
NONAME
54 57 1 0 0 
SMALL
USER_CHARGES


@<TRIPOS>ATOM
  1 O       -1.8240     5.3240    -0.6560 O.co2 1 <1>  -0.9000 
  2 C       -0.9920     4.5590    -1.1700 C.2   1 <1>   0.9060 
  3 O       -0.7840     4.5930    -2.3880 O.co2 1 <1>  -0.9000 
  4 C       -0.2380     3.5430    -0.2970 C.3   1 <1>  -0.1060 
  5 C       -0.1230     4.0340     1.1680 C.3   1 <1>   0.2000 
  6 C        1.1990     3.3650    -0.8380 C.3   1 <1>   0.1400 
  7 C       -1.0130     2.2030    -0.4010 C.3   1 <1>  -0.0650 
  8 O       -1.3750     4.2800     1.6880 O.3   1 <1>  -0.6800 
  9 C        0.6880     5.3270     1.3010 C.3   1 <1>  -0.1600 
 10 N        1.9980     4.6090    -0.6750 N.am  1 <1>  -0.6600 
 11 C       -0.4120     1.0190     0.3760 C.3   1 <1>  -0.1950 
 12 C        2.0810     5.1630     0.6990 C.3   1 <1>   0.1400 
 13 C        2.3210     5.3280    -1.7920 C.2   1 <1>   0.5690 
 14 C        0.6180     0.1180    -0.2300 C.3   1 <1>  -0.2000 
 15 C       -0.7810    -0.3780    -0.0100 C.3   1 <1>  -0.2000 
 16 O        3.0990     4.8980    -2.6150 O.2   1 <1>  -0.5700 
 17 C        1.6710     6.6840    -2.0160 C.3   1 <1>   0.0820 
 18 C        2.4270     7.8340    -1.3620 C.2   1 <1>  -0.1810 
 19 C        1.8610     9.0060    -0.7980 C.ar  1 <1>   0.0000 
 20 C        3.7600     7.9340    -1.2000 C.2   1 <1>  -0.0100 
 21 C        0.5820     9.5540    -0.6150 C.ar  1 <1>  -0.1430 
 22 C        2.9590     9.7150    -0.3320 C.ar  1 <1>   0.1400 
 23 O        4.0930     9.0580    -0.5810 O.3   1 <1>  -0.2800 
 24 C        0.4670    10.7760     0.0220 C.ar  1 <1>  -0.1500 
 25 C       -0.6730     8.8370    -1.0960 C.3   1 <1>  -0.0970 
 26 C        2.8440    10.9420     0.3040 C.ar  1 <1>  -0.1500 
 27 C        1.5840    11.4760     0.4830 C.ar  1 <1>  -0.1430 
 28 C        1.3930    12.8140     1.1740 C.3   1 <1>  -0.0970 
 29 H        0.3350     3.2780     1.7800 H     1 <1>   0.0800 
 30 H        1.1650     3.0920    -1.8810 H     1 <1>   0.0800 
 31 H        1.7020     2.5770    -0.3080 H     1 <1>   0.0800 
 32 H       -2.0190     2.3610    -0.0490 H     1 <1>   0.0800 
 33 H       -1.0920     1.9380    -1.4420 H     1 <1>   0.0800 
 34 H       -1.8470     4.8050     0.9750 H     1 <1>   0.4000 
 35 H        0.1880     6.1380     0.8030 H     1 <1>   0.0800 
 36 H        0.7830     5.5840     2.3400 H     1 <1>   0.0800 
 37 H       -0.3670     1.2030     1.4360 H     1 <1>   0.1000 
 38 H        2.6570     4.4850     1.3040 H     1 <1>   0.0800 
 39 H        2.5900     6.1110     0.6890 H     1 <1>   0.0800 
 40 H        0.9430     0.2990    -1.2400 H     1 <1>   0.1000 
 41 H        1.4090    -0.2540     0.3980 H     1 <1>   0.1000 
 42 H       -0.9630    -1.0950     0.7710 H     1 <1>   0.1000 
 43 H       -1.4150    -0.5310    -0.8660 H     1 <1>   0.1000 
 44 H        1.5810     6.8580    -3.0710 H     1 <1>   0.0800 
 45 H        0.6820     6.6260    -1.6180 H     1 <1>   0.0800 
 46 H        4.5450     7.2560    -1.4900 H     1 <1>   0.1500 
 47 H       -0.5080    11.2060     0.1720 H     1 <1>   0.1500 
 48 H       -1.5390     9.4660    -1.0020 H     1 <1>   0.0800 
 49 H       -0.8450     7.9490    -0.5130 H     1 <1>   0.0800 
 50 H       -0.5740     8.5590    -2.1290 H     1 <1>   0.0800 
 51 H        3.7320    11.4420     0.6410 H     1 <1>   0.1500 
 52 H        0.7900    12.6870     2.0550 H     1 <1>   0.0800 
 53 H        0.9000    13.5010     0.5100 H     1 <1>   0.0800 
 54 H        2.3390    13.2360     1.4630 H     1 <1>   0.0800 
@<TRIPOS>BOND
  1   1   2  ar  
  2   2   3  ar  
  3   2   4  1   
  4   4   5  1   
  5   4   6  1   
  6   4   7  1   
  7   5   8  1   
  8   5   9  1   
  9   5  29  1   
 10   6  10  1   
 11   6  30  1   
 12   6  31  1   
 13   7  11  1   
 14   7  32  1   
 15   7  33  1   
 16   8  34  1   
 17   9  12  1   
 18   9  35  1   
 19   9  36  1   
 20  10  12  1   
 21  10  13  am  
 22  11  14  1   
 23  11  15  1   
 24  11  37  1   
 25  12  38  1   
 26  12  39  1   
 27  13  16  2   
 28  13  17  1   
 29  14  15  1   
 30  14  40  1   
 31  14  41  1   
 32  15  42  1   
 33  15  43  1   
 34  17  18  1   
 35  17  44  1   
 36  17  45  1   
 37  18  19  1   
 38  18  20  2   
 39  19  21  ar  
 40  19  22  ar  
 41  20  23  1   
 42  20  46  1   
 43  21  24  ar  
 44  21  25  1   
 45  22  23  1   
 46  22  26  ar  
 47  24  27  ar  
 48  24  47  1   
 49  25  48  1   
 50  25  49  1   
 51  25  50  1   
 52  26  27  ar  
 53  26  51  1   
 54  27  28  1   
 55  28  52  1   
 56  28  53  1   
 57  28  54  1   
@<TRIPOS>SUBSTRUCTURE
  1 ****  17 GROUP 4 **** **** 0

# MOE 2024.06 (io_trps.svl 2023.06)
