@<TRIPOS>MOLECULE
NONAME
56 59 1 0 0 
SMALL
USER_CHARGES


@<TRIPOS>ATOM
  1 CL       0.1900    -5.3450     4.5220 Cl    1 <1>  -0.1770 
  2 C       -0.4100    -4.9760     2.9270 C.ar  1 <1>   0.1770 
  3 C       -1.5030    -5.6620     2.4380 C.ar  1 <1>  -0.1500 
  4 C        0.2210    -3.9990     2.1800 C.ar  1 <1>  -0.1500 
  5 C       -1.9960    -5.3890     1.1630 C.ar  1 <1>   0.0860 
  6 C       -0.2600    -3.7060     0.9160 C.ar  1 <1>  -0.1500 
  7 C       -3.1420    -6.1100     0.6400 C.2   1 <1>   0.5440 
  8 C       -1.3560    -4.3930     0.4210 C.ar  1 <1>  -0.1500 
  9 O       -4.1320    -6.2320     1.3360 O.2   1 <1>  -0.5700 
 10 N       -3.1400    -6.6740    -0.6200 N.am  1 <1>  -0.6600 
 11 C       -1.9040    -7.1080    -1.3240 C.3   1 <1>   0.1400 
 12 C       -4.4010    -7.1260    -1.2680 C.3   1 <1>   0.1400 
 13 C       -1.8780    -8.6380    -1.3950 C.3   1 <1>  -0.1600 
 14 C       -4.4150    -8.6540    -1.3270 C.3   1 <1>  -0.1600 
 15 C       -3.1620    -9.2030    -2.0380 C.3   1 <1>  -0.0190 
 16 C       -3.1720   -10.7270    -2.0620 C.2   1 <1>   0.5690 
 17 O       -3.3080   -11.3000    -3.1150 O.2   1 <1>  -0.5700 
 18 N       -3.0600   -11.4060    -0.8940 N.am  1 <1>  -0.7300 
 19 C       -3.1380   -12.8760    -0.7440 C.3   1 <1>   0.2200 
 20 C       -4.4540   -13.2870    -0.0950 C.3   1 <1>  -0.0800 
 21 C       -2.1510   -13.3100     0.3290 C.3   1 <1>   0.1200 
 22 C       -4.1680   -13.1140     1.4020 C.3   1 <1>   0.1200 
 23 C       -5.7100   -12.5460    -0.5910 C.3   1 <1>  -0.0170 
 24 O       -2.7790   -13.0140     1.5400 O.3   1 <1>  -0.5600 
 25 C       -6.9590   -13.0550     0.1110 C.ar  1 <1>  -0.1430 
 26 C       -7.5780   -14.2300    -0.2640 C.ar  1 <1>  -0.1500 
 27 C       -7.5370   -12.3680     1.1590 C.ar  1 <1>  -0.1500 
 28 C       -8.7100   -14.6520     0.4120 C.ar  1 <1>   0.1600 
 29 C       -8.6720   -12.8780     1.7680 C.ar  1 <1>   0.1600 
 30 N       -9.2710   -14.0050     1.4210 N.ar  1 <1>  -0.6200 
 31 H       -1.9800    -6.4110     3.0440 H     1 <1>   0.1500 
 32 H        1.0710    -3.4790     2.5850 H     1 <1>   0.1500 
 33 H        0.2160    -2.9420     0.3230 H     1 <1>   0.1500 
 34 H       -1.7330    -4.1540    -0.5590 H     1 <1>   0.1500 
 35 H       -1.8990    -6.6920    -2.3180 H     1 <1>   0.0800 
 36 H       -1.0240    -6.7630    -0.8100 H     1 <1>   0.0800 
 37 H       -5.2590    -6.7730    -0.7190 H     1 <1>   0.0800 
 38 H       -4.4530    -6.7160    -2.2620 H     1 <1>   0.0800 
 39 H       -1.0230    -8.9530    -1.9660 H     1 <1>   0.0800 
 40 H       -1.7630    -9.0200    -0.3960 H     1 <1>   0.0800 
 41 H       -4.4710    -9.0300    -0.3210 H     1 <1>   0.0800 
 42 H       -5.2970    -8.9790    -1.8490 H     1 <1>   0.0800 
 43 H       -3.1910    -8.8690    -3.0610 H     1 <1>   0.0800 
 44 H       -2.9590   -10.9040    -0.0090 H     1 <1>   0.3700 
 45 H       -2.9650   -13.3680    -1.6870 H     1 <1>   0.0800 
 46 H       -4.5940   -14.3390    -0.2730 H     1 <1>   0.0800 
 47 H       -1.2110   -12.7910     0.2680 H     1 <1>   0.0800 
 48 H       -1.9880   -14.3740     0.2930 H     1 <1>   0.0800 
 49 H       -4.5180   -13.9550     1.9750 H     1 <1>   0.0800 
 50 H       -4.5980   -12.2060     1.7880 H     1 <1>   0.0800 
 51 H       -5.8120   -12.6880    -1.6540 H     1 <1>   0.0800 
 52 H       -5.6190   -11.4890    -0.4160 H     1 <1>   0.0800 
 53 H       -7.1910   -14.8200    -1.0750 H     1 <1>   0.1500 
 54 H       -7.1200   -11.4420     1.5090 H     1 <1>   0.1500 
 55 H       -9.1800   -15.5710     0.1060 H     1 <1>   0.1500 
 56 H       -9.1090   -12.3290     2.5840 H     1 <1>   0.1500 
@<TRIPOS>BOND
  1   1   2  1   
  2   2   3  ar  
  3   2   4  ar  
  4   3   5  ar  
  5   3  31  1   
  6   4   6  ar  
  7   4  32  1   
  8   5   7  1   
  9   5   8  ar  
 10   6   8  ar  
 11   6  33  1   
 12   7   9  2   
 13   7  10  am  
 14   8  34  1   
 15  10  11  1   
 16  10  12  1   
 17  11  13  1   
 18  11  35  1   
 19  11  36  1   
 20  12  14  1   
 21  12  37  1   
 22  12  38  1   
 23  13  15  1   
 24  13  39  1   
 25  13  40  1   
 26  14  15  1   
 27  14  41  1   
 28  14  42  1   
 29  15  16  1   
 30  15  43  1   
 31  16  17  2   
 32  16  18  am  
 33  18  19  1   
 34  18  44  1   
 35  19  20  1   
 36  19  21  1   
 37  19  45  1   
 38  20  22  1   
 39  20  23  1   
 40  20  46  1   
 41  21  24  1   
 42  21  47  1   
 43  21  48  1   
 44  22  24  1   
 45  22  49  1   
 46  22  50  1   
 47  23  25  1   
 48  23  51  1   
 49  23  52  1   
 50  25  26  ar  
 51  25  27  ar  
 52  26  28  ar  
 53  26  53  1   
 54  27  29  ar  
 55  27  54  1   
 56  28  30  ar  
 57  28  55  1   
 58  29  30  ar  
 59  29  56  1   
@<TRIPOS>SUBSTRUCTURE
  1 ****  14 GROUP 4 **** **** 0

# MOE 2024.06 (io_trps.svl 2023.06)
