@<TRIPOS>MOLECULE
NONAME
51 53 1 0 0 
SMALL
USER_CHARGES


@<TRIPOS>ATOM
  1 O       -0.6900     1.0200     1.2340 O.2   1 <1>  -0.5740 
  2 C       -0.4350     2.0850     0.7250 C.2   1 <1>   0.5650 
  3 N       -1.1620     2.5910    -0.3200 N.am  1 <1>  -0.6640 
  4 C        0.7220     2.8770     1.3080 C.3   1 <1>  -0.1060 
  5 C       -0.8550     3.8720    -1.0100 C.3   1 <1>   0.1330 
  6 C       -2.3090     1.8260    -0.8910 C.3   1 <1>   0.1330 
  7 C        1.1930     4.0470     0.4240 C.3   1 <1>  -0.1670 
  8 C        0.0020     4.8390    -0.1610 C.3   1 <1>  -0.0080 
  9 C       -3.5820     2.1140    -0.0960 C.3   1 <1>   0.1130 
 10 C        0.5190     5.9490    -1.1110 C.3   1 <1>   0.1610 
 11 C       -0.8550     5.4500     0.9850 C.3   1 <1>  -0.1670 
 12 O       -4.6770     1.6730    -0.8360 O.3   1 <1>  -0.5640 
 13 N        0.8360     7.2060    -0.3660 N.pl3 1 <1>  -0.5960 
 14 C       -1.4540     6.8100     0.5970 C.3   1 <1>  -0.1670 
 15 C       -5.8890     1.8050    -0.1680 C.3   1 <1>   0.0320 
 16 C        2.1070     7.6330    -0.1550 C.cat 1 <1>   1.0690 
 17 C       -0.3530     7.8390     0.2880 C.3   1 <1>   0.1610 
 18 N        3.1680     6.8550    -0.2070 N.pl3 1 <1>  -0.7030 
 19 N        2.5530     8.8610     0.1410 N.pl3 1 <1>  -0.4620 
 20 C        4.2460     7.6330     0.0790 C.2   1 <1>   0.4800 
 21 N        3.9130     8.8470     0.2920 N.2   1 <1>  -0.2660 
 22 C        1.8250    10.1510     0.2340 C.3   1 <1>   0.2680 
 23 C        5.6500     7.0720     0.1280 C.3   1 <1>  -0.0790 
 24 H        1.5420     2.2040     1.4800 H     1 <1>   0.0730 
 25 H        0.4050     3.2460     2.2660 H     1 <1>   0.0730 
 26 H       -1.7790     4.3560    -1.2780 H     1 <1>   0.0730 
 27 H       -0.3350     3.6300    -1.9220 H     1 <1>   0.0730 
 28 H       -2.0980     0.7710    -0.8510 H     1 <1>   0.0730 
 29 H       -2.4530     2.1070    -1.9190 H     1 <1>   0.0730 
 30 H        1.7770     3.6360    -0.3820 H     1 <1>   0.0730 
 31 H        1.8280     4.6840     1.0120 H     1 <1>   0.0730 
 32 H       -3.6920     3.1710     0.0690 H     1 <1>   0.0730 
 33 H       -3.5550     1.5880     0.8430 H     1 <1>   0.0730 
 34 H       -0.2460     6.1840    -1.8330 H     1 <1>   0.0730 
 35 H        1.3720     5.6020    -1.6690 H     1 <1>   0.0730 
 36 H       -0.2470     5.6010     1.8610 H     1 <1>   0.0730 
 37 H       -1.6470     4.7760     1.2690 H     1 <1>   0.0730 
 38 H       -2.0690     7.1800     1.4000 H     1 <1>   0.0730 
 39 H       -2.0940     6.6940    -0.2600 H     1 <1>   0.0730 
 40 H       -6.6690     1.4480    -0.8170 H     1 <1>   0.0730 
 41 H       -6.0560     2.8420     0.0650 H     1 <1>   0.0730 
 42 H       -5.8640     1.2130     0.7300 H     1 <1>   0.0730 
 43 H       -0.7560     8.6080    -0.3500 H     1 <1>   0.0730 
 44 H       -0.0460     8.2900     1.2160 H     1 <1>   0.0730 
 45 H        3.1630     5.8570    -0.3820 H     1 <1>   0.4450 
 46 H        1.0330    10.1880    -0.4920 H     1 <1>   0.0730 
 47 H        2.5040    10.9640     0.0410 H     1 <1>   0.0730 
 48 H        1.4180    10.2690     1.2230 H     1 <1>   0.0730 
 49 H        5.9150     6.6560    -0.8270 H     1 <1>   0.0730 
 50 H        5.7170     6.3070     0.8790 H     1 <1>   0.0730 
 51 H        6.3500     7.8530     0.3690 H     1 <1>   0.0730 
@<TRIPOS>BOND
  1   1   2  2   
  2   2   3  am  
  3   2   4  1   
  4   3   5  1   
  5   3   6  1   
  6   4   7  1   
  7   4  24  1   
  8   4  25  1   
  9   5   8  1   
 10   5  26  1   
 11   5  27  1   
 12   6   9  1   
 13   6  28  1   
 14   6  29  1   
 15   7   8  1   
 16   7  30  1   
 17   7  31  1   
 18   8  10  1   
 19   8  11  1   
 20   9  12  1   
 21   9  32  1   
 22   9  33  1   
 23  10  13  1   
 24  10  34  1   
 25  10  35  1   
 26  11  14  1   
 27  11  36  1   
 28  11  37  1   
 29  12  15  1   
 30  13  16  ar  
 31  13  17  1   
 32  14  17  1   
 33  14  38  1   
 34  14  39  1   
 35  15  40  1   
 36  15  41  1   
 37  15  42  1   
 38  16  18  ar  
 39  16  19  ar  
 40  17  43  1   
 41  17  44  1   
 42  18  20  1   
 43  18  45  1   
 44  19  21  1   
 45  19  22  1   
 46  20  21  2   
 47  20  23  1   
 48  22  46  1   
 49  22  47  1   
 50  22  48  1   
 51  23  49  1   
 52  23  50  1   
 53  23  51  1   
@<TRIPOS>SUBSTRUCTURE
  1 ****   8 GROUP 4 **** **** 0

# MOE 2024.06 (io_trps.svl 2023.06)
