@<TRIPOS>MOLECULE
NONAME
57 61 1 0 0 
SMALL
USER_CHARGES


@<TRIPOS>ATOM
  1 O       -2.1430     2.1050     1.5540 O.2   1 <1>  -0.5700 
  2 C       -2.4210     1.6720     0.4570 C.2   1 <1>   0.5690 
  3 N       -3.5280     0.8900     0.2500 N.am  1 <1>  -0.6600 
  4 C       -1.4900     2.0730    -0.6890 C.3   1 <1>  -0.0190 
  5 C       -4.4270     0.5140     1.3840 C.3   1 <1>   0.1400 
  6 C       -4.0660     0.4560    -1.0750 C.3   1 <1>   0.1400 
  7 C       -0.0690     2.3040    -0.1410 C.3   1 <1>   0.3430 
  8 C       -2.0400     3.3200    -1.4280 C.3   1 <1>  -0.1600 
  9 C       -4.6210    -1.0030     1.4040 C.3   1 <1>  -0.1600 
 10 C       -4.2410    -1.0640    -1.0790 C.3   1 <1>  -0.1600 
 11 N       -0.0090     3.6270     0.5490 N.4   1 <1>  -0.9590 
 12 C       -0.9580     4.3880    -1.6600 C.3   1 <1>  -0.1600 
 13 C       -5.1540    -1.5210     0.0620 C.3   1 <1>   0.4600 
 14 C       -0.2380     4.7940    -0.3620 C.3   1 <1>   0.3430 
 15 C        1.2260     3.7820     1.3700 C.3   1 <1>   0.2630 
 16 O       -6.4140    -0.9380    -0.1900 O.3   1 <1>  -0.5600 
 17 C       -5.2890    -3.0390     0.0630 C.2   1 <1>  -0.3320 
 18 C       -7.5470    -1.5190     0.4100 C.3   1 <1>   0.1200 
 19 N       -4.2720    -3.9510     0.1440 N.pl3 1 <1>   0.0330 
 20 C       -6.4640    -3.6940    -0.0170 C.2   1 <1>  -0.1810 
 21 C       -7.7740    -2.9500    -0.1020 C.3   1 <1>   0.0210 
 22 C       -4.8240    -5.2080     0.1050 C.ar  1 <1>  -0.1520 
 23 C       -6.2060    -5.0800     0.0000 C.ar  1 <1>   0.0000 
 24 C       -4.2240    -6.4690     0.1520 C.ar  1 <1>  -0.1500 
 25 C       -7.0060    -6.2260    -0.0610 C.ar  1 <1>  -0.1500 
 26 C       -5.0220    -7.5880     0.0920 C.ar  1 <1>  -0.1500 
 27 C       -6.4130    -7.4670    -0.0150 C.ar  1 <1>  -0.1500 
 28 H       -1.4140     1.2500    -1.3730 H     1 <1>   0.0800 
 29 H       -5.3790     1.0020     1.2550 H     1 <1>   0.0800 
 30 H       -4.0160     0.8330     2.3260 H     1 <1>   0.0800 
 31 H       -3.4250     0.7450    -1.8850 H     1 <1>   0.0800 
 32 H       -5.0230     0.9280    -1.2340 H     1 <1>   0.0800 
 33 H        0.6420     2.2850    -0.9500 H     1 <1>   0.0800 
 34 H        0.1760     1.5130     0.5500 H     1 <1>   0.0800 
 35 H       -2.8330     3.7640    -0.8470 H     1 <1>   0.0800 
 36 H       -2.4680     3.0260    -2.3720 H     1 <1>   0.0800 
 37 H       -5.2910    -1.2790     2.1960 H     1 <1>   0.0800 
 38 H       -3.6760    -1.4660     1.6160 H     1 <1>   0.0800 
 39 H       -3.2780    -1.5280    -0.9860 H     1 <1>   0.0800 
 40 H       -4.6700    -1.3820    -2.0120 H     1 <1>   0.0800 
 41 H       -0.8180     3.5770     1.2050 H     1 <1>   0.4500 
 42 H       -1.4000     5.2640    -2.1010 H     1 <1>   0.0800 
 43 H       -0.2310     4.0190    -2.3630 H     1 <1>   0.0800 
 44 H        0.7040     5.2520    -0.6190 H     1 <1>   0.0800 
 45 H       -0.8310     5.5300     0.1570 H     1 <1>   0.0800 
 46 H        2.0990     3.7920     0.7380 H     1 <1>   0.0800 
 47 H        1.3130     2.9660     2.0690 H     1 <1>   0.0800 
 48 H        1.1900     4.7050     1.9270 H     1 <1>   0.0800 
 49 H       -8.3960    -0.9020     0.1750 H     1 <1>   0.0800 
 50 H       -7.4070    -1.5220     1.4760 H     1 <1>   0.0800 
 51 H       -3.2700    -3.7540     0.2200 H     1 <1>   0.2700 
 52 H       -8.1140    -2.9280    -1.1210 H     1 <1>   0.0800 
 53 H       -8.5170    -3.4380     0.5010 H     1 <1>   0.0800 
 54 H       -3.1550    -6.5550     0.2340 H     1 <1>   0.1500 
 55 H       -8.0710    -6.1170    -0.1440 H     1 <1>   0.1500 
 56 H       -4.5840    -8.5700     0.1270 H     1 <1>   0.1500 
 57 H       -7.0150    -8.3570    -0.0610 H     1 <1>   0.1500 
@<TRIPOS>BOND
  1   1   2  2   
  2   2   3  am  
  3   2   4  1   
  4   3   5  1   
  5   3   6  1   
  6   4   7  1   
  7   4   8  1   
  8   4  28  1   
  9   5   9  1   
 10   5  29  1   
 11   5  30  1   
 12   6  10  1   
 13   6  31  1   
 14   6  32  1   
 15   7  11  1   
 16   7  33  1   
 17   7  34  1   
 18   8  12  1   
 19   8  35  1   
 20   8  36  1   
 21   9  13  1   
 22   9  37  1   
 23   9  38  1   
 24  10  13  1   
 25  10  39  1   
 26  10  40  1   
 27  11  14  1   
 28  11  15  1   
 29  11  41  1   
 30  12  14  1   
 31  12  42  1   
 32  12  43  1   
 33  13  16  1   
 34  13  17  1   
 35  14  44  1   
 36  14  45  1   
 37  15  46  1   
 38  15  47  1   
 39  15  48  1   
 40  16  18  1   
 41  17  19  1   
 42  17  20  2   
 43  18  21  1   
 44  18  49  1   
 45  18  50  1   
 46  19  22  1   
 47  19  51  1   
 48  20  21  1   
 49  20  23  1   
 50  21  52  1   
 51  21  53  1   
 52  22  23  ar  
 53  22  24  ar  
 54  23  25  ar  
 55  24  26  ar  
 56  24  54  1   
 57  25  27  ar  
 58  25  55  1   
 59  26  27  ar  
 60  26  56  1   
 61  27  57  1   
@<TRIPOS>SUBSTRUCTURE
  1 ****  10 GROUP 4 **** **** 0

# MOE 2024.06 (io_trps.svl 2023.06)
