@<TRIPOS>MOLECULE
NONAME
51 55 1 0 0 
SMALL
USER_CHARGES


@<TRIPOS>ATOM
  1 S       -3.3300     1.0680    -2.3700 S.3   1 <1>  -0.0800 
  2 C       -2.6380     1.1550    -0.7460 C.2   1 <1>   0.0400 
  3 C       -1.7520     0.9000    -3.1110 C.2   1 <1>  -0.1100 
  4 C       -3.5200     1.3050     0.3770 C.2   1 <1>   0.4780 
  5 C       -1.2880     1.0550    -0.8440 C.2   1 <1>  -0.1500 
  6 C       -0.7890     0.9120    -2.1720 C.2   1 <1>  -0.1500 
  7 O       -3.0220     1.3350     1.6010 O.3   1 <1>  -0.2800 
  8 N       -4.8170     1.4140     0.3660 N.2   1 <1>  -0.5650 
  9 C       -4.0270     1.4700     2.4160 C.2   1 <1>  -0.0400 
 10 C       -5.1410     1.5230     1.6710 C.2   1 <1>   0.0460 
 11 C       -3.7470     1.5360     3.9050 C.3   1 <1>  -0.0600 
 12 C       -6.6010     1.6610     2.0750 C.3   1 <1>   0.5240 
 13 N       -7.3880     0.8040     1.1500 N.4   1 <1>  -0.9590 
 14 C       -8.7920     1.2870     0.9540 C.3   1 <1>   0.3430 
 15 C       -7.3170    -0.6370     1.5160 C.3   1 <1>   0.3430 
 16 C       -9.5140     0.4920    -0.1480 C.3   1 <1>   0.1430 
 17 C       -7.9870    -1.4780     0.4250 C.3   1 <1>  -0.1600 
 18 C      -10.9550     0.9400    -0.1890 C.ar  1 <1>   0.1670 
 19 C       -9.4310    -1.0230     0.1410 C.3   1 <1>  -0.1600 
 20 C       -9.0130     0.8420    -1.5760 C.3   1 <1>  -0.1600 
 21 N      -11.7190     1.0750     0.8660 N.ar  1 <1>  -0.6200 
 22 C      -11.3670     1.2120    -1.4590 C.ar  1 <1>  -0.1430 
 23 C      -10.2660     0.9800    -2.4640 C.3   1 <1>  -0.0170 
 24 C      -12.9430     1.5030     0.5840 C.ar  1 <1>   0.7200 
 25 C      -12.6610     1.6410    -1.6290 C.ar  1 <1>   0.1600 
 26 N      -13.4660     1.7880    -0.6000 N.ar  1 <1>  -0.6200 
 27 N      -13.7630     1.6520     1.6240 N.pl3 1 <1>  -0.9000 
 28 H       -1.7100     0.8090    -4.1830 H     1 <1>   0.1500 
 29 H       -0.6160     1.0790    -0.0030 H     1 <1>   0.1500 
 30 H        0.2670     0.8250    -2.3630 H     1 <1>   0.1500 
 31 H       -3.2540     0.6350     4.2230 H     1 <1>   0.0800 
 32 H       -4.6560     1.6530     4.4660 H     1 <1>   0.0800 
 33 H       -3.1010     2.3700     4.1150 H     1 <1>   0.0800 
 34 H       -6.8910     2.6920     1.9540 H     1 <1>   0.0800 
 35 H       -6.7490     1.3710     3.1020 H     1 <1>   0.0800 
 36 H       -6.8650     0.9050     0.2600 H     1 <1>   0.4500 
 37 H       -8.7970     2.3320     0.6900 H     1 <1>   0.0800 
 38 H       -9.3450     1.1740     1.8730 H     1 <1>   0.0800 
 39 H       -7.8210    -0.8010     2.4550 H     1 <1>   0.0800 
 40 H       -6.2870    -0.9420     1.6210 H     1 <1>   0.0800 
 41 H       -7.9980    -2.5070     0.7390 H     1 <1>   0.0800 
 42 H       -7.3940    -1.4300    -0.4710 H     1 <1>   0.0800 
 43 H       -9.8380    -1.5800    -0.6860 H     1 <1>   0.0800 
 44 H      -10.0400    -1.2450     1.0020 H     1 <1>   0.0800 
 45 H       -8.3350     0.1100    -1.9780 H     1 <1>   0.0800 
 46 H       -8.5110     1.7940    -1.5620 H     1 <1>   0.0800 
 47 H      -10.4560     0.0680    -3.0040 H     1 <1>   0.0800 
 48 H      -10.1760     1.8010    -3.1550 H     1 <1>   0.0800 
 49 H      -13.0400     1.8650    -2.6120 H     1 <1>   0.1500 
 50 H      -14.7470     1.7360     1.3810 H     1 <1>   0.4000 
 51 H      -13.5490     1.0970     2.4470 H     1 <1>   0.4000 
@<TRIPOS>BOND
  1   1   2  1   
  2   1   3  1   
  3   2   4  1   
  4   2   5  2   
  5   3   6  2   
  6   3  28  1   
  7   4   7  1   
  8   4   8  2   
  9   5   6  1   
 10   5  29  1   
 11   6  30  1   
 12   7   9  1   
 13   8  10  1   
 14   9  10  2   
 15   9  11  1   
 16  10  12  1   
 17  11  31  1   
 18  11  32  1   
 19  11  33  1   
 20  12  13  1   
 21  12  34  1   
 22  12  35  1   
 23  13  14  1   
 24  13  15  1   
 25  13  36  1   
 26  14  16  1   
 27  14  37  1   
 28  14  38  1   
 29  15  17  1   
 30  15  39  1   
 31  15  40  1   
 32  16  18  1   
 33  16  19  1   
 34  16  20  1   
 35  17  19  1   
 36  17  41  1   
 37  17  42  1   
 38  18  21  ar  
 39  18  22  ar  
 40  19  43  1   
 41  19  44  1   
 42  20  23  1   
 43  20  45  1   
 44  20  46  1   
 45  21  24  ar  
 46  22  23  1   
 47  22  25  ar  
 48  23  47  1   
 49  23  48  1   
 50  24  26  ar  
 51  24  27  1   
 52  25  26  ar  
 53  25  49  1   
 54  27  50  1   
 55  27  51  1   
@<TRIPOS>SUBSTRUCTURE
  1 ****  13 GROUP 4 **** **** 0

# MOE 2024.06 (io_trps.svl 2023.06)
