@<TRIPOS>MOLECULE
NONAME
40 41 1 0 0 
SMALL
USER_CHARGES


@<TRIPOS>ATOM
  1 S        0.3850     0.2300    -1.4160 S.o2  1 <1>   1.3330 
  2 O        0.7550    -1.0050    -2.0720 O.2   1 <1>  -0.6500 
  3 O       -0.5740     1.1130    -2.0400 O.2   1 <1>  -0.6500 
  4 N       -0.2220    -0.1630     0.1220 N.am  1 <1>  -0.8490 
  5 C        1.8910     1.1420    -1.0650 C.3   1 <1>  -0.0550 
  6 C       -0.9730     0.9330     0.7450 C.3   1 <1>   0.1160 
  7 C       -1.0470    -1.3750     0.0960 C.3   1 <1>   0.1160 
  8 C        3.0130     0.2900    -0.4340 C.3   1 <1>  -0.0800 
  9 C        4.3620     0.9860    -0.3230 C.3   1 <1>   0.2200 
 10 C        2.7530    -0.1770     1.0050 C.3   1 <1>   0.1200 
 11 N        4.2050     2.3790     0.1610 N.am  1 <1>  -0.7300 
 12 C        5.0040     0.1620     0.7830 C.3   1 <1>   0.1200 
 13 O        3.9710    -0.0770     1.6880 O.3   1 <1>  -0.5600 
 14 C        4.2910     3.5010    -0.6120 C.2   1 <1>   0.5440 
 15 O        4.3500     3.3550    -1.8160 O.2   1 <1>  -0.5700 
 16 C        4.2890     4.8250    -0.0210 C.ar  1 <1>   0.0860 
 17 C        3.9890     5.9430    -0.8000 C.ar  1 <1>   0.1600 
 18 C        4.5820     5.0570     1.3190 C.ar  1 <1>  -0.1500 
 19 N        3.9460     7.1980    -0.3770 N.ar  1 <1>  -0.6200 
 20 C        4.5460     6.3560     1.7790 C.ar  1 <1>  -0.1500 
 21 C        4.2260     7.3770     0.9030 C.ar  1 <1>   0.1600 
 22 H        2.2610     1.5420    -1.9890 H     1 <1>   0.0800 
 23 H        1.6630     1.9740    -0.4290 H     1 <1>   0.0800 
 24 H       -1.2560     0.6630     1.7490 H     1 <1>   0.0800 
 25 H       -1.8630     1.1510     0.1770 H     1 <1>   0.0800 
 26 H       -0.3680     1.8210     0.7900 H     1 <1>   0.0800 
 27 H       -1.4080    -1.6030     1.0840 H     1 <1>   0.0800 
 28 H       -0.4630    -2.2120    -0.2490 H     1 <1>   0.0800 
 29 H       -1.8860    -1.2420    -0.5670 H     1 <1>   0.0800 
 30 H        3.1500    -0.5890    -1.0390 H     1 <1>   0.0800 
 31 H        4.9260     0.9570    -1.2410 H     1 <1>   0.0800 
 32 H        2.4140    -1.1980     1.0370 H     1 <1>   0.0800 
 33 H        2.0450     0.4560     1.5120 H     1 <1>   0.0800 
 34 H        4.0420     2.4420     1.1680 H     1 <1>   0.3700 
 35 H        5.8110     0.6760     1.2750 H     1 <1>   0.0800 
 36 H        5.3450    -0.7870     0.4070 H     1 <1>   0.0800 
 37 H        3.7690     5.7830    -1.8430 H     1 <1>   0.1500 
 38 H        4.8380     4.2520     1.9850 H     1 <1>   0.1500 
 39 H        4.7660     6.5820     2.8070 H     1 <1>   0.1500 
 40 H        4.1990     8.3900     1.2700 H     1 <1>   0.1500 
@<TRIPOS>BOND
  1   1   2  2   
  2   1   3  2   
  3   1   4  am  
  4   1   5  1   
  5   4   6  1   
  6   4   7  1   
  7   5   8  1   
  8   5  22  1   
  9   5  23  1   
 10   6  24  1   
 11   6  25  1   
 12   6  26  1   
 13   7  27  1   
 14   7  28  1   
 15   7  29  1   
 16   8   9  1   
 17   8  10  1   
 18   8  30  1   
 19   9  11  1   
 20   9  12  1   
 21   9  31  1   
 22  10  13  1   
 23  10  32  1   
 24  10  33  1   
 25  11  14  am  
 26  11  34  1   
 27  12  13  1   
 28  12  35  1   
 29  12  36  1   
 30  14  15  2   
 31  14  16  1   
 32  16  17  ar  
 33  16  18  ar  
 34  17  19  ar  
 35  17  37  1   
 36  18  20  ar  
 37  18  38  1   
 38  19  21  ar  
 39  20  21  ar  
 40  20  39  1   
 41  21  40  1   
@<TRIPOS>SUBSTRUCTURE
  1 ****  11 GROUP 4 **** **** 0

# MOE 2024.06 (io_trps.svl 2023.06)
