@<TRIPOS>MOLECULE
NONAME
51 53 1 0 0 
SMALL
USER_CHARGES


@<TRIPOS>ATOM
  1 O       -6.1710    -3.7650    -0.2130 O.co2 1 <1>  -0.9000 
  2 C       -5.8670    -2.9490    -1.0990 C.2   1 <1>   0.9060 
  3 O       -6.3240    -3.1170    -2.2340 O.co2 1 <1>  -0.9000 
  4 C       -5.0430    -1.6960    -0.7640 C.3   1 <1>   0.0140 
  5 O       -5.8050    -0.5310    -0.3810 O.3   1 <1>  -0.3630 
  6 C       -6.6850    -0.7230     0.6340 C.ar  1 <1>   0.0830 
  7 C       -6.4400    -0.3780     1.9700 C.ar  1 <1>   0.0820 
  8 C       -7.8320    -1.4170     0.3070 C.ar  1 <1>  -0.1500 
  9 O       -5.4080     0.3900     2.4220 O.3   1 <1>  -0.3630 
 10 C       -7.2990    -0.8650     2.9460 C.ar  1 <1>  -0.1500 
 11 C       -8.6170    -1.9910     1.2870 C.ar  1 <1>  -0.1440 
 12 C       -4.6830     1.2240     1.5460 C.3   1 <1>   0.0400 
 13 C       -8.3640    -1.6890     2.6160 C.ar  1 <1>  -0.1500 
 14 C       -9.6360    -3.0230     0.8580 C.3   1 <1>   0.4860 
 15 N       -8.9010    -4.0650     0.0960 N.4   1 <1>  -0.9590 
 16 C       -9.1890    -4.0730    -1.3700 C.3   1 <1>   0.3430 
 17 C       -9.0610    -5.4500     0.5990 C.3   1 <1>   0.3430 
 18 C       -9.6210    -5.4980    -1.7240 C.3   1 <1>   0.2000 
 19 C       -8.9970    -6.3560    -0.6310 C.3   1 <1>  -0.0800 
 20 O      -11.0050    -5.5880    -1.6020 O.3   1 <1>  -0.6800 
 21 C       -7.5450    -6.7580    -0.9630 C.3   1 <1>  -0.0170 
 22 C       -6.8730    -7.4270     0.2270 C.ar  1 <1>   0.1670 
 23 N       -7.4900    -8.4880     0.7300 N.ar  1 <1>  -0.6200 
 24 C       -5.6900    -6.9090     0.7300 C.ar  1 <1>  -0.1500 
 25 C       -6.8920    -9.0610     1.7640 C.ar  1 <1>   0.1600 
 26 C       -5.0840    -7.5110     1.8110 C.ar  1 <1>  -0.1500 
 27 C       -5.7110    -8.6200     2.3350 C.ar  1 <1>  -0.1500 
 28 H       -4.4620    -1.4320    -1.6250 H     1 <1>   0.0800 
 29 H       -4.3820    -1.9330     0.0480 H     1 <1>   0.0800 
 30 H       -8.0410    -1.5810    -0.7360 H     1 <1>   0.1500 
 31 H       -7.1090    -0.6110     3.9730 H     1 <1>   0.1500 
 32 H       -4.1040     1.9090     2.1370 H     1 <1>   0.0800 
 33 H       -5.3740     1.7660     0.9240 H     1 <1>   0.0800 
 34 H       -4.0290     0.6150     0.9490 H     1 <1>   0.0800 
 35 H       -8.9720    -2.1010     3.4020 H     1 <1>   0.1500 
 36 H      -10.3930    -2.5670     0.2410 H     1 <1>   0.0800 
 37 H      -10.1040    -3.4550     1.7260 H     1 <1>   0.0800 
 38 H       -7.8670    -3.8440     0.1530 H     1 <1>   0.4500 
 39 H       -9.9530    -3.3650    -1.6400 H     1 <1>   0.0800 
 40 H       -8.2890    -3.8400    -1.9080 H     1 <1>   0.0800 
 41 H       -8.2960    -5.6960     1.3180 H     1 <1>   0.0800 
 42 H      -10.0300    -5.5580     1.0560 H     1 <1>   0.0800 
 43 H       -9.3370    -5.7760    -2.7250 H     1 <1>   0.0800 
 44 H       -9.5660    -7.2530    -0.4620 H     1 <1>   0.0800 
 45 H      -11.3190    -6.4640    -1.9060 H     1 <1>   0.4000 
 46 H       -6.9730    -5.9000    -1.2690 H     1 <1>   0.0800 
 47 H       -7.5440    -7.4520    -1.7840 H     1 <1>   0.0800 
 48 H       -5.2440    -6.0360     0.2830 H     1 <1>   0.1500 
 49 H       -7.3710    -9.9300     2.1810 H     1 <1>   0.1500 
 50 H       -4.1660    -7.1280     2.2220 H     1 <1>   0.1500 
 51 H       -5.2890    -9.1400     3.1760 H     1 <1>   0.1500 
@<TRIPOS>BOND
  1   1   2  ar  
  2   2   3  ar  
  3   2   4  1   
  4   4   5  1   
  5   4  28  1   
  6   4  29  1   
  7   5   6  1   
  8   6   7  ar  
  9   6   8  ar  
 10   7   9  1   
 11   7  10  ar  
 12   8  11  ar  
 13   8  30  1   
 14   9  12  1   
 15  10  13  ar  
 16  10  31  1   
 17  11  13  ar  
 18  11  14  1   
 19  12  32  1   
 20  12  33  1   
 21  12  34  1   
 22  13  35  1   
 23  14  15  1   
 24  14  36  1   
 25  14  37  1   
 26  15  16  1   
 27  15  17  1   
 28  15  38  1   
 29  16  18  1   
 30  16  39  1   
 31  16  40  1   
 32  17  19  1   
 33  17  41  1   
 34  17  42  1   
 35  18  19  1   
 36  18  20  1   
 37  18  43  1   
 38  19  21  1   
 39  19  44  1   
 40  20  45  1   
 41  21  22  1   
 42  21  46  1   
 43  21  47  1   
 44  22  23  ar  
 45  22  24  ar  
 46  23  25  ar  
 47  24  26  ar  
 48  24  48  1   
 49  25  27  ar  
 50  25  49  1   
 51  26  27  ar  
 52  26  50  1   
 53  27  51  1   
@<TRIPOS>SUBSTRUCTURE
  1 ****   1 GROUP 4 **** **** 0

# MOE 2024.06 (io_trps.svl 2023.06)
