@<TRIPOS>MOLECULE
NONAME
51 54 1 0 0 
SMALL
USER_CHARGES


@<TRIPOS>ATOM
  1 CL      -0.7130    -0.6730    -0.0540 Cl    1 <1>  -0.1770 
  2 C        0.8600    -1.4320     0.0620 C.ar  1 <1>   0.1770 
  3 C        1.1410    -2.3480     1.0730 C.ar  1 <1>  -0.1440 
  4 C        1.8010    -1.0920    -0.8930 C.ar  1 <1>  -0.1500 
  5 C        2.4050    -2.9230     1.1100 C.ar  1 <1>  -0.1500 
  6 C        0.1250    -2.7470     2.1440 C.3   1 <1>   0.0450 
  7 C        3.0530    -1.6760    -0.8490 C.ar  1 <1>   0.0830 
  8 C        3.3590    -2.5890     0.1630 C.ar  1 <1>   0.0830 
  9 C       -0.1930    -4.2350     2.1140 C.2   1 <1>   0.5690 
 10 O        3.9620    -1.3490    -1.8020 O.3   1 <1>  -0.3630 
 11 O        4.5880    -3.1590     0.2420 O.3   1 <1>  -0.3630 
 12 O        0.2700    -4.9300     2.9880 O.2   1 <1>  -0.5700 
 13 N       -0.9800    -4.7610     1.1270 N.am  1 <1>  -0.6600 
 14 C        5.1070    -2.1750    -1.9080 C.3   1 <1>   0.1200 
 15 C        5.6220    -2.5570    -0.5140 C.3   1 <1>   0.1200 
 16 C       -1.5260    -4.0490    -0.0560 C.3   1 <1>   0.1400 
 17 C       -1.3110    -6.2000     1.0460 C.3   1 <1>   0.1400 
 18 C       -2.3080    -5.1030    -0.8530 C.3   1 <1>   0.2000 
 19 C       -1.6750    -6.4300    -0.4220 C.3   1 <1>  -0.0800 
 20 O       -3.6530    -5.0970    -0.4640 O.3   1 <1>  -0.5600 
 21 C       -2.5580    -7.6690    -0.6500 C.3   1 <1>   0.0200 
 22 C       -4.4570    -4.1670    -1.1190 C.3   1 <1>   0.0400 
 23 C       -1.8300    -8.9770    -0.3810 C.2   1 <1>  -0.0400 
 24 O       -2.5000   -10.0960    -0.4590 O.3   1 <1>  -0.0190 
 25 C       -0.5620    -9.2820    -0.0620 C.2   1 <1>  -0.1500 
 26 N       -1.7510   -11.1310    -0.2070 N.2   1 <1>  -0.4100 
 27 C       -0.5780   -10.6700     0.0370 C.2   1 <1>   0.1080 
 28 C        0.6190   -11.5270     0.3850 C.3   1 <1>  -0.0590 
 29 H        1.5640    -0.3840    -1.6650 H     1 <1>   0.1500 
 30 H        2.6630    -3.6350     1.8760 H     1 <1>   0.1500 
 31 H       -0.7930    -2.2020     2.0580 H     1 <1>   0.0800 
 32 H        0.5370    -2.5110     3.1090 H     1 <1>   0.0800 
 33 H        4.8330    -3.0570    -2.4590 H     1 <1>   0.0800 
 34 H        5.8560    -1.6340    -2.4570 H     1 <1>   0.0800 
 35 H        5.9570    -1.6820     0.0150 H     1 <1>   0.0800 
 36 H        6.4330    -3.2600    -0.5840 H     1 <1>   0.0800 
 37 H       -2.1530    -3.2280     0.2410 H     1 <1>   0.0800 
 38 H       -0.7060    -3.6870    -0.6520 H     1 <1>   0.0800 
 39 H       -0.4790    -6.8060     1.3610 H     1 <1>   0.0800 
 40 H       -2.1590    -6.3950     1.6820 H     1 <1>   0.0800 
 41 H       -2.2440    -4.9530    -1.9180 H     1 <1>   0.0800 
 42 H       -0.7590    -6.5490    -0.9740 H     1 <1>   0.0800 
 43 H       -2.9030    -7.6780    -1.6690 H     1 <1>   0.0800 
 44 H       -3.4250    -7.6220    -0.0140 H     1 <1>   0.0800 
 45 H       -5.4540    -4.2530    -0.7250 H     1 <1>   0.0800 
 46 H       -4.4670    -4.3850    -2.1730 H     1 <1>   0.0800 
 47 H       -4.0830    -3.1740    -0.9400 H     1 <1>   0.0800 
 48 H        0.2920    -8.6490     0.0900 H     1 <1>   0.1500 
 49 H        0.9930   -11.2520     1.3540 H     1 <1>   0.0800 
 50 H        1.3920   -11.3880    -0.3470 H     1 <1>   0.0800 
 51 H        0.3350   -12.5640     0.4020 H     1 <1>   0.0800 
@<TRIPOS>BOND
  1   1   2  1   
  2   2   3  ar  
  3   2   4  ar  
  4   3   5  ar  
  5   3   6  1   
  6   4   7  ar  
  7   4  29  1   
  8   5   8  ar  
  9   5  30  1   
 10   6   9  1   
 11   6  31  1   
 12   6  32  1   
 13   7   8  ar  
 14   7  10  1   
 15   8  11  1   
 16   9  12  2   
 17   9  13  am  
 18  10  14  1   
 19  11  15  1   
 20  13  16  1   
 21  13  17  1   
 22  14  15  1   
 23  14  33  1   
 24  14  34  1   
 25  15  35  1   
 26  15  36  1   
 27  16  18  1   
 28  16  37  1   
 29  16  38  1   
 30  17  19  1   
 31  17  39  1   
 32  17  40  1   
 33  18  19  1   
 34  18  20  1   
 35  18  41  1   
 36  19  21  1   
 37  19  42  1   
 38  20  22  1   
 39  21  23  1   
 40  21  43  1   
 41  21  44  1   
 42  22  45  1   
 43  22  46  1   
 44  22  47  1   
 45  23  24  1   
 46  23  25  2   
 47  24  26  1   
 48  25  27  1   
 49  25  48  1   
 50  26  27  2   
 51  27  28  1   
 52  28  49  1   
 53  28  50  1   
 54  28  51  1   
@<TRIPOS>SUBSTRUCTURE
  1 ****  13 GROUP 4 **** **** 0

# MOE 2024.06 (io_trps.svl 2023.06)
