@<TRIPOS>MOLECULE
NONAME
37 39 1 0 0 
SMALL
USER_CHARGES


@<TRIPOS>ATOM
  1 CL      -0.6850    -0.5930     0.0320 Cl    1 <1>  -0.1230 
  2 C       -2.2140     0.2310     0.2360 C.2   1 <1>   0.1230 
  3 C       -2.2760     1.6630     0.1230 C.ar  1 <1>   0.0000 
  4 C       -3.3710    -0.4010     0.4840 C.2   1 <1>  -0.1400 
  5 C       -3.5700     2.1320     0.3020 C.ar  1 <1>   0.0400 
  6 C       -1.2720     2.5940    -0.1290 C.ar  1 <1>  -0.1500 
  7 S       -4.6800     0.7820     0.6070 S.3   1 <1>  -0.0800 
  8 C       -3.6910    -1.8670     0.6670 C.3   1 <1>   0.5230 
  9 C       -3.9050     3.4710     0.2420 C.ar  1 <1>  -0.1500 
 10 C       -1.5840     3.9420    -0.1960 C.ar  1 <1>  -0.1500 
 11 N       -4.2860    -2.3880    -0.6060 N.4   1 <1>  -0.9590 
 12 C       -2.8930     4.3810    -0.0120 C.ar  1 <1>  -0.1500 
 13 C       -3.9080    -3.8390    -0.7720 C.3   1 <1>   0.3430 
 14 C       -5.7690    -2.1400    -0.5850 C.3   1 <1>   0.3430 
 15 C       -4.9390    -4.7750    -0.1520 C.3   1 <1>  -0.1860 
 16 C       -6.4970    -3.1750    -1.4360 C.3   1 <1>  -0.1600 
 17 C       -4.8490    -4.4890     1.3240 C.2   1 <1>   0.9060 
 18 C       -6.3020    -4.5810    -0.8530 C.3   1 <1>   0.2000 
 19 O       -3.7340    -4.5770     1.8370 O.co2 1 <1>  -0.9000 
 20 O       -5.7900    -3.9380     1.9040 O.co2 1 <1>  -0.9000 
 21 O       -7.3210    -4.8120     0.0370 O.3   1 <1>  -0.6800 
 22 H       -0.2580     2.2640    -0.2710 H     1 <1>   0.1500 
 23 H       -4.3650    -2.0150     1.4980 H     1 <1>   0.0800 
 24 H       -2.7820    -2.4020     0.8890 H     1 <1>   0.0800 
 25 H       -4.9210     3.7910     0.3880 H     1 <1>   0.1500 
 26 H       -0.8080     4.6620    -0.3910 H     1 <1>   0.1500 
 27 H       -3.8590    -1.8470    -1.3630 H     1 <1>   0.4500 
 28 H       -3.1150     5.4330    -0.0660 H     1 <1>   0.1500 
 29 H       -3.8300    -4.0680    -1.8210 H     1 <1>   0.0800 
 30 H       -2.9440    -4.0240    -0.3210 H     1 <1>   0.0800 
 31 H       -6.1380    -2.2180     0.4270 H     1 <1>   0.0800 
 32 H       -5.9830    -1.1460    -0.9420 H     1 <1>   0.0800 
 33 H       -4.6180    -5.7880    -0.2950 H     1 <1>   0.0800 
 34 H       -6.1120    -3.1370    -2.4380 H     1 <1>   0.0800 
 35 H       -7.5460    -2.9410    -1.4850 H     1 <1>   0.0800 
 36 H       -6.4180    -5.3030    -1.6440 H     1 <1>   0.0800 
 37 H       -7.0140    -4.4890     0.9390 H     1 <1>   0.4000 
@<TRIPOS>BOND
  1   1   2  1   
  2   2   3  1   
  3   2   4  2   
  4   3   5  ar  
  5   3   6  ar  
  6   4   7  1   
  7   4   8  1   
  8   5   7  1   
  9   5   9  ar  
 10   6  10  ar  
 11   6  22  1   
 12   8  11  1   
 13   8  23  1   
 14   8  24  1   
 15   9  12  ar  
 16   9  25  1   
 17  10  12  ar  
 18  10  26  1   
 19  11  13  1   
 20  11  14  1   
 21  11  27  1   
 22  12  28  1   
 23  13  15  1   
 24  13  29  1   
 25  13  30  1   
 26  14  16  1   
 27  14  31  1   
 28  14  32  1   
 29  15  17  1   
 30  15  18  1   
 31  15  33  1   
 32  16  18  1   
 33  16  34  1   
 34  16  35  1   
 35  17  19  ar  
 36  17  20  ar  
 37  18  21  1   
 38  18  36  1   
 39  21  37  1   
@<TRIPOS>SUBSTRUCTURE
  1 ****   4 GROUP 4 **** **** 0

# MOE 2024.06 (io_trps.svl 2023.06)
