@<TRIPOS>MOLECULE
NONAME
46 48 1 0 0 
SMALL
USER_CHARGES


@<TRIPOS>ATOM
  1 O       -1.9400     0.6690    -1.7860 O.2   1 <1>  -0.5700 
  2 C       -1.9170     0.7960    -0.5770 C.2   1 <1>   0.5440 
  3 N       -1.9940    -0.3360     0.1830 N.am  1 <1>  -0.7300 
  4 C       -1.8150     2.1110     0.0380 C.ar  1 <1>   0.0860 
  5 C       -2.0700    -1.7210    -0.3400 C.3   1 <1>   0.2200 
  6 C       -1.3510     3.2030    -0.6940 C.ar  1 <1>  -0.1500 
  7 C       -2.1720     2.3390     1.3680 C.ar  1 <1>  -0.1500 
  8 C       -3.4840    -2.2740    -0.2370 C.3   1 <1>  -0.0800 
  9 C       -1.3400    -2.6460     0.6230 C.3   1 <1>   0.1200 
 10 C       -1.2370     4.4690    -0.1300 C.ar  1 <1>   0.0820 
 11 C       -2.0620     3.5930     1.9410 C.ar  1 <1>  -0.1500 
 12 C       -3.5510    -2.7860     1.2070 C.3   1 <1>   0.1200 
 13 C       -4.6170    -1.3040    -0.6210 C.3   1 <1>  -0.0160 
 14 O       -2.2340    -2.8490     1.6750 O.3   1 <1>  -0.5600 
 15 O       -0.7880     5.5480    -0.8250 O.3   1 <1>  -0.3630 
 16 C       -1.5940     4.6640     1.2000 C.ar  1 <1>  -0.1440 
 17 C       -5.9680    -2.0000    -0.5660 C.ar  1 <1>  -0.1440 
 18 C       -0.4420     5.4600    -2.1900 C.3   1 <1>   0.0400 
 19 C       -1.4770     6.0390     1.8420 C.3   1 <1>  -0.0970 
 20 C       -6.8170    -1.8720     0.5150 C.ar  1 <1>  -0.1500 
 21 C       -6.4140    -2.7980    -1.5990 C.ar  1 <1>  -0.1500 
 22 C       -8.0330    -2.5360     0.5130 C.ar  1 <1>   0.1600 
 23 C       -7.6490    -3.4180    -1.5020 C.ar  1 <1>   0.1600 
 24 N       -8.4680    -3.3080    -0.4690 N.ar  1 <1>  -0.6200 
 25 H       -1.9480    -0.2850     1.2020 H     1 <1>   0.3700 
 26 H       -1.6720    -1.7750    -1.3400 H     1 <1>   0.0800 
 27 H       -1.0800     3.0330    -1.7180 H     1 <1>   0.1500 
 28 H       -2.5480     1.5330     1.9700 H     1 <1>   0.1500 
 29 H       -3.5470    -3.1320    -0.8840 H     1 <1>   0.0800 
 30 H       -0.4240    -2.2240     0.9970 H     1 <1>   0.0800 
 31 H       -1.1460    -3.6000     0.1640 H     1 <1>   0.0800 
 32 H       -2.3450     3.7320     2.9700 H     1 <1>   0.1500 
 33 H       -3.9910    -3.7670     1.2620 H     1 <1>   0.0800 
 34 H       -4.0900    -2.1080     1.8450 H     1 <1>   0.0800 
 35 H       -4.4460    -0.9330    -1.6170 H     1 <1>   0.0800 
 36 H       -4.6270    -0.4550     0.0390 H     1 <1>   0.0800 
 37 H       -0.1360     6.4360    -2.5200 H     1 <1>   0.0800 
 38 H       -1.3040     5.1400    -2.7490 H     1 <1>   0.0800 
 39 H        0.3710     4.7650    -2.3010 H     1 <1>   0.0800 
 40 H       -1.7860     6.0180     2.8720 H     1 <1>   0.0800 
 41 H       -2.0960     6.7410     1.3120 H     1 <1>   0.0800 
 42 H       -0.4570     6.3770     1.7960 H     1 <1>   0.0800 
 43 H       -6.5470    -1.2640     1.3580 H     1 <1>   0.1500 
 44 H       -5.8140    -2.9430    -2.4790 H     1 <1>   0.1500 
 45 H       -8.6820    -2.4250     1.3650 H     1 <1>   0.1500 
 46 H       -7.9810    -4.0370    -2.3180 H     1 <1>   0.1500 
@<TRIPOS>BOND
  1   1   2  2   
  2   2   3  am  
  3   2   4  1   
  4   3   5  1   
  5   3  25  1   
  6   4   6  ar  
  7   4   7  ar  
  8   5   8  1   
  9   5   9  1   
 10   5  26  1   
 11   6  10  ar  
 12   6  27  1   
 13   7  11  ar  
 14   7  28  1   
 15   8  12  1   
 16   8  13  1   
 17   8  29  1   
 18   9  14  1   
 19   9  30  1   
 20   9  31  1   
 21  10  15  1   
 22  10  16  ar  
 23  11  16  ar  
 24  11  32  1   
 25  12  14  1   
 26  12  33  1   
 27  12  34  1   
 28  13  17  1   
 29  13  35  1   
 30  13  36  1   
 31  15  18  1   
 32  16  19  1   
 33  17  20  ar  
 34  17  21  ar  
 35  18  37  1   
 36  18  38  1   
 37  18  39  1   
 38  19  40  1   
 39  19  41  1   
 40  19  42  1   
 41  20  22  ar  
 42  20  43  1   
 43  21  23  ar  
 44  21  44  1   
 45  22  24  ar  
 46  22  45  1   
 47  23  24  ar  
 48  23  46  1   
@<TRIPOS>SUBSTRUCTURE
  1 ****   3 GROUP 4 **** **** 0

# MOE 2024.06 (io_trps.svl 2023.06)
