@<TRIPOS>MOLECULE
NONAME
43 45 1 0 0 
SMALL
USER_CHARGES


@<TRIPOS>ATOM
  1 F       -0.0440    -0.4780     0.8570 F     1 <1>  -0.1900 
  2 C       -0.0260    -1.7800     0.8070 C.ar  1 <1>   0.1900 
  3 C        0.5860    -2.4000    -0.2640 C.ar  1 <1>  -0.1500 
  4 C       -0.6210    -2.4950     1.8260 C.ar  1 <1>  -0.1500 
  5 C        0.6050    -3.7850    -0.3250 C.ar  1 <1>  -0.1440 
  6 C       -0.5970    -3.8760     1.7590 C.ar  1 <1>  -0.1500 
  7 C        0.0070    -4.5470     0.6920 C.ar  1 <1>   0.0860 
  8 C        1.2850    -4.4670    -1.5050 C.3   1 <1>  -0.0960 
  9 C       -0.0130    -5.9980     0.6650 C.2   1 <1>   0.5440 
 10 O        1.0160    -6.6320     0.7980 O.2   1 <1>  -0.5700 
 11 N       -1.1920    -6.6810     0.4870 N.am  1 <1>  -0.6600 
 12 C       -2.4690    -6.0740     0.0370 C.3   1 <1>   0.1400 
 13 C       -1.2640    -8.1620     0.4370 C.3   1 <1>   0.1400 
 14 C       -3.2600    -7.2390    -0.5550 C.3   1 <1>   0.2000 
 15 C       -2.7330    -8.4840     0.1550 C.3   1 <1>  -0.0800 
 16 O       -4.6200    -7.0980    -0.3350 O.3   1 <1>  -0.6800 
 17 C       -2.9360    -9.7740    -0.6510 C.3   1 <1>   0.0210 
 18 C       -2.3270   -10.9630     0.0660 C.2   1 <1>   0.1080 
 19 N       -2.7650   -11.3930     1.2090 N.2   1 <1>  -0.7070 
 20 C       -1.2470   -11.7060    -0.3970 C.2   1 <1>  -0.1500 
 21 N       -1.9680   -12.4360     1.5070 N.pl3 1 <1>   0.3000 
 22 C       -1.0390   -12.6450     0.5500 C.2   1 <1>  -0.3320 
 23 C        0.0060   -13.7430     0.6010 C.3   1 <1>  -0.0600 
 24 H        1.0390    -1.7970    -1.0310 H     1 <1>   0.1500 
 25 H       -1.0850    -1.9800     2.6470 H     1 <1>   0.1500 
 26 H       -1.0490    -4.4570     2.5460 H     1 <1>   0.1500 
 27 H        1.6380    -3.7470    -2.2210 H     1 <1>   0.0800 
 28 H        0.5960    -5.1290    -1.9990 H     1 <1>   0.0800 
 29 H        2.1260    -5.0430    -1.1600 H     1 <1>   0.0800 
 30 H       -2.9800    -5.6580     0.8870 H     1 <1>   0.0800 
 31 H       -2.2920    -5.3140    -0.7040 H     1 <1>   0.0800 
 32 H       -0.6270    -8.5170    -0.3560 H     1 <1>   0.0800 
 33 H       -0.9390    -8.5920     1.3700 H     1 <1>   0.0800 
 34 H       -3.0900    -7.2890    -1.6170 H     1 <1>   0.0800 
 35 H       -3.2190    -8.5880     1.1100 H     1 <1>   0.0800 
 36 H       -4.8270    -7.2430     0.6090 H     1 <1>   0.4000 
 37 H       -2.4910    -9.6790    -1.6250 H     1 <1>   0.0800 
 38 H       -3.9880    -9.9540    -0.7810 H     1 <1>   0.0800 
 39 H       -0.7110   -11.5460    -1.3150 H     1 <1>   0.1500 
 40 H       -2.0830   -12.9830     2.3690 H     1 <1>   0.2700 
 41 H        0.6280   -13.7030    -0.2760 H     1 <1>   0.0800 
 42 H       -0.4690   -14.7080     0.6390 H     1 <1>   0.0800 
 43 H        0.6300   -13.6230     1.4690 H     1 <1>   0.0800 
@<TRIPOS>BOND
  1   1   2  1   
  2   2   3  ar  
  3   2   4  ar  
  4   3   5  ar  
  5   3  24  1   
  6   4   6  ar  
  7   4  25  1   
  8   5   7  ar  
  9   5   8  1   
 10   6   7  ar  
 11   6  26  1   
 12   7   9  1   
 13   8  27  1   
 14   8  28  1   
 15   8  29  1   
 16   9  10  2   
 17   9  11  am  
 18  11  12  1   
 19  11  13  1   
 20  12  14  1   
 21  12  30  1   
 22  12  31  1   
 23  13  15  1   
 24  13  32  1   
 25  13  33  1   
 26  14  15  1   
 27  14  16  1   
 28  14  34  1   
 29  15  17  1   
 30  15  35  1   
 31  16  36  1   
 32  17  18  1   
 33  17  37  1   
 34  17  38  1   
 35  18  19  2   
 36  18  20  1   
 37  19  21  1   
 38  20  22  2   
 39  20  39  1   
 40  21  22  1   
 41  21  40  1   
 42  22  23  1   
 43  23  41  1   
 44  23  42  1   
 45  23  43  1   
@<TRIPOS>SUBSTRUCTURE
  1 ****  11 GROUP 4 **** **** 0

# MOE 2024.06 (io_trps.svl 2023.06)
