@<TRIPOS>MOLECULE
NONAME
16 17 1 0 0 
SMALL
USER_CHARGES


@<TRIPOS>ATOM
  1 O       -0.5660     1.8040    -0.2730 O.co2 1 <1>  -0.9000 
  2 C       -1.1270     0.9360    -0.9610 C.2   1 <1>   0.8710 
  3 O       -1.2950     1.0980    -2.1810 O.co2 1 <1>  -0.9000 
  4 C       -1.6990    -0.3260    -0.2760 C.3   1 <1>   0.1870 
  5 O       -0.9070    -1.4980    -0.1450 O.3   1 <1>  -0.5380 
  6 C       -3.1020    -0.8270    -0.7300 C.3   1 <1>   0.0000 
  7 C       -2.4020    -0.1480     1.1040 C.3   1 <1>   0.0000 
  8 C       -1.7430    -2.3890     0.5050 C.3   1 <1>   0.1200 
  9 C       -2.9760    -1.5150     0.6530 C.3   1 <1>   0.0000 
 10 H       -3.0770    -1.4930    -1.5760 H     1 <1>   0.0000 
 11 H       -3.8680    -0.0700    -0.8090 H     1 <1>   0.0000 
 12 H       -3.1130     0.6610     1.1670 H     1 <1>   0.0000 
 13 H       -1.7310    -0.1900     1.9450 H     1 <1>   0.0000 
 14 H       -1.3060    -2.6620     1.4490 H     1 <1>   0.0800 
 15 H       -1.9080    -3.2450    -0.1260 H     1 <1>   0.0800 
 16 H       -3.8640    -1.8900     1.1310 H     1 <1>   0.0000 
@<TRIPOS>BOND
  1   1   2  ar  
  2   2   3  ar  
  3   2   4  1   
  4   4   5  1   
  5   4   6  1   
  6   4   7  1   
  7   5   8  1   
  8   6   9  1   
  9   6  10  1   
 10   6  11  1   
 11   7   9  1   
 12   7  12  1   
 13   7  13  1   
 14   8   9  1   
 15   8  14  1   
 16   8  15  1   
 17   9  16  1   
@<TRIPOS>SUBSTRUCTURE
  1 ****   4 GROUP 4 **** **** 0

# MOE 2024.06 (io_trps.svl 2023.06)
