@<TRIPOS>MOLECULE
NONAME
53 55 1 0 0 
SMALL
USER_CHARGES


@<TRIPOS>ATOM
  1 O       -1.0300    -0.1120    -0.3050 O.2   1 <1>  -0.5700 
  2 C       -1.7950     0.8000    -0.5660 C.2   1 <1>   0.5440 
  3 N       -3.0590     0.4600    -1.0010 N.am  1 <1>  -0.6600 
  4 C       -1.4050     2.1890    -0.3960 C.ar  1 <1>   0.0860 
  5 C       -3.3510    -0.9430    -1.3880 C.3   1 <1>   0.1400 
  6 C       -4.2570     1.2140    -0.5440 C.3   1 <1>   0.1400 
  7 C       -0.8710     2.7000     0.7970 C.ar  1 <1>  -0.1440 
  8 C       -1.5830     3.0760    -1.4590 C.ar  1 <1>  -0.1500 
  9 C       -3.8730    -1.6880    -0.1420 C.3   1 <1>   0.4230 
 10 C       -4.8180     0.5020     0.6950 C.3   1 <1>  -0.1600 
 11 C       -0.5440     4.0430     0.9020 C.ar  1 <1>  -0.1500 
 12 C       -0.6390     1.7990     2.0040 C.3   1 <1>  -0.0960 
 13 C       -1.2590     4.4130    -1.3500 C.ar  1 <1>  -0.1500 
 14 N       -4.0050    -3.1930    -0.3300 N.4   1 <1>  -0.9590 
 15 C       -5.1410    -1.0050     0.4590 C.3   1 <1>   0.0000 
 16 C       -0.7380     4.9100    -0.1690 C.ar  1 <1>   0.0830 
 17 C       -4.8760    -3.8630     0.6900 C.3   1 <1>   0.3430 
 18 C       -4.3880    -3.6410    -1.7090 C.3   1 <1>   0.2630 
 19 C       -5.4770    -1.6650     1.8290 C.3   1 <1>  -0.1600 
 20 C       -6.3410    -1.1500    -0.5210 C.3   1 <1>   0.1200 
 21 O       -0.4470     6.2290    -0.1370 O.3   1 <1>  -0.3630 
 22 C       -4.8880    -3.0790     2.0010 C.3   1 <1>  -0.1600 
 23 O       -7.4250    -0.3870    -0.1220 O.3   1 <1>  -0.6800 
 24 C        0.1240     6.8370     1.0000 C.3   1 <1>   0.0400 
 25 H       -4.0700    -0.9400    -2.1860 H     1 <1>   0.0800 
 26 H       -2.4500    -1.4110    -1.7460 H     1 <1>   0.0800 
 27 H       -3.9980     2.2290    -0.2920 H     1 <1>   0.0800 
 28 H       -4.9910     1.2490    -1.3310 H     1 <1>   0.0800 
 29 H       -1.9830     2.7060    -2.3870 H     1 <1>   0.1500 
 30 H       -3.1020    -1.5480     0.5990 H     1 <1>   0.0800 
 31 H       -4.0820     0.5990     1.4750 H     1 <1>   0.0800 
 32 H       -5.6910     1.0320     1.0330 H     1 <1>   0.0800 
 33 H       -0.1360     4.4090     1.8240 H     1 <1>   0.1500 
 34 H       -0.3700     2.3710     2.8740 H     1 <1>   0.0800 
 35 H        0.1590     1.1080     1.7940 H     1 <1>   0.0800 
 36 H       -1.5290     1.2400     2.2310 H     1 <1>   0.0800 
 37 H       -1.4040     5.0820    -2.1790 H     1 <1>   0.1500 
 38 H       -3.0500    -3.5450    -0.1600 H     1 <1>   0.4500 
 39 H       -5.8870    -3.9250     0.3210 H     1 <1>   0.0800 
 40 H       -4.5260    -4.8670     0.8670 H     1 <1>   0.0800 
 41 H       -5.3620    -3.2640    -1.9730 H     1 <1>   0.0800 
 42 H       -4.4120    -4.7180    -1.7570 H     1 <1>   0.0800 
 43 H       -3.6720    -3.2890    -2.4340 H     1 <1>   0.0800 
 44 H       -5.1040    -1.0630     2.6420 H     1 <1>   0.0800 
 45 H       -6.5440    -1.7140     1.9640 H     1 <1>   0.0800 
 46 H       -6.6740    -2.1690    -0.5910 H     1 <1>   0.0800 
 47 H       -6.0850    -0.8090    -1.5080 H     1 <1>   0.0800 
 48 H       -5.4710    -3.6160     2.7300 H     1 <1>   0.0800 
 49 H       -3.8840    -3.0190     2.3840 H     1 <1>   0.0800 
 50 H       -7.7740    -0.6650     0.7480 H     1 <1>   0.4000 
 51 H        0.2760     7.8790     0.7800 H     1 <1>   0.0800 
 52 H        1.0680     6.3660     1.2100 H     1 <1>   0.0800 
 53 H       -0.5530     6.7340     1.8290 H     1 <1>   0.0800 
@<TRIPOS>BOND
  1   1   2  2   
  2   2   3  am  
  3   2   4  1   
  4   3   5  1   
  5   3   6  1   
  6   4   7  ar  
  7   4   8  ar  
  8   5   9  1   
  9   5  25  1   
 10   5  26  1   
 11   6  10  1   
 12   6  27  1   
 13   6  28  1   
 14   7  11  ar  
 15   7  12  1   
 16   8  13  ar  
 17   8  29  1   
 18   9  14  1   
 19   9  15  1   
 20   9  30  1   
 21  10  15  1   
 22  10  31  1   
 23  10  32  1   
 24  11  16  ar  
 25  11  33  1   
 26  12  34  1   
 27  12  35  1   
 28  12  36  1   
 29  13  16  ar  
 30  13  37  1   
 31  14  17  1   
 32  14  18  1   
 33  14  38  1   
 34  15  19  1   
 35  15  20  1   
 36  16  21  1   
 37  17  22  1   
 38  17  39  1   
 39  17  40  1   
 40  18  41  1   
 41  18  42  1   
 42  18  43  1   
 43  19  22  1   
 44  19  44  1   
 45  19  45  1   
 46  20  23  1   
 47  20  46  1   
 48  20  47  1   
 49  21  24  1   
 50  22  48  1   
 51  22  49  1   
 52  23  50  1   
 53  24  51  1   
 54  24  52  1   
 55  24  53  1   
@<TRIPOS>SUBSTRUCTURE
  1 ****   3 GROUP 4 **** **** 0

# MOE 2024.06 (io_trps.svl 2023.06)
