@<TRIPOS>MOLECULE
NONAME
51 53 1 0 0 
SMALL
USER_CHARGES


@<TRIPOS>ATOM
  1 O       -1.2300     0.8270    -1.9490 O.2   1 <1>  -0.5700 
  2 C       -1.7790     1.1600    -0.9130 C.2   1 <1>   0.5440 
  3 N       -2.9430     0.5280    -0.5380 N.am  1 <1>  -0.6600 
  4 C       -1.1990     2.2150    -0.0990 C.ar  1 <1>   0.0860 
  5 C       -3.4740    -0.6410    -1.3210 C.3   1 <1>   0.1400 
  6 C       -3.7340     0.9370     0.6690 C.3   1 <1>   0.1400 
  7 C       -1.4670     3.5620    -0.3730 C.ar  1 <1>  -0.1440 
  8 C       -0.3710     1.9090     0.9890 C.ar  1 <1>  -0.1440 
  9 C       -4.3930    -1.4980    -0.4430 C.3   1 <1>   0.2000 
 10 C       -5.2240     0.7650     0.3770 C.3   1 <1>  -0.1600 
 11 C       -0.9280     4.5620     0.4190 C.ar  1 <1>  -0.1500 
 12 C       -2.3590     3.9440    -1.5480 C.3   1 <1>  -0.0960 
 13 C        0.1590     2.9190     1.7730 C.ar  1 <1>  -0.1500 
 14 C       -0.0440     0.4590     1.3240 C.3   1 <1>  -0.0970 
 15 O       -4.8080    -2.6370    -1.1160 O.3   1 <1>  -0.6800 
 16 C       -5.6170    -0.7220     0.1050 C.3   1 <1>  -0.1060 
 17 C       -0.1170     4.2430     1.4910 C.ar  1 <1>  -0.1500 
 18 C       -5.9610    -1.4960     1.3810 C.2   1 <1>   0.9060 
 19 C       -6.8240    -0.7410    -0.8810 C.3   1 <1>  -0.0160 
 20 O       -5.7340    -1.0060     2.4930 O.co2 1 <1>  -0.9000 
 21 O       -6.3810    -2.6560     1.2560 O.co2 1 <1>  -0.9000 
 22 C       -7.9660     0.2030    -0.5090 C.ar  1 <1>  -0.1440 
 23 C       -8.2180     1.3370    -1.2670 C.ar  1 <1>  -0.1500 
 24 C       -8.7680    -0.0660     0.5900 C.ar  1 <1>  -0.1500 
 25 C       -9.2550     2.1920    -0.9310 C.ar  1 <1>  -0.1500 
 26 C       -9.8030     0.7880     0.9290 C.ar  1 <1>  -0.1500 
 27 C      -10.0480     1.9180     0.1690 C.ar  1 <1>  -0.1500 
 28 H       -4.0200    -0.2740    -2.1700 H     1 <1>   0.0800 
 29 H       -2.6520    -1.2430    -1.6660 H     1 <1>   0.0800 
 30 H       -3.4580     0.3250     1.5130 H     1 <1>   0.0800 
 31 H       -3.5400     1.9650     0.9190 H     1 <1>   0.0800 
 32 H       -3.7950    -1.8460     0.3850 H     1 <1>   0.0800 
 33 H       -5.8000     1.1480     1.2010 H     1 <1>   0.0800 
 34 H       -5.4520     1.3770    -0.4760 H     1 <1>   0.0800 
 35 H       -1.1340     5.5960     0.2060 H     1 <1>   0.1500 
 36 H       -2.4560     5.0100    -1.6350 H     1 <1>   0.0800 
 37 H       -3.3390     3.5200    -1.4190 H     1 <1>   0.0800 
 38 H       -1.9390     3.5650    -2.4640 H     1 <1>   0.0800 
 39 H        0.7930     2.6820     2.6100 H     1 <1>   0.1500 
 40 H        0.6660     0.3950     2.1280 H     1 <1>   0.0800 
 41 H        0.3760    -0.0320     0.4630 H     1 <1>   0.0800 
 42 H       -0.9370    -0.0640     1.6170 H     1 <1>   0.0800 
 43 H       -5.4270    -3.0990    -0.4920 H     1 <1>   0.4000 
 44 H        0.2990     5.0230     2.1040 H     1 <1>   0.1500 
 45 H       -6.4700    -0.4870    -1.8630 H     1 <1>   0.0800 
 46 H       -7.2290    -1.7360    -0.9510 H     1 <1>   0.0800 
 47 H       -7.6060     1.5580    -2.1220 H     1 <1>   0.1500 
 48 H       -8.5830    -0.9440     1.1890 H     1 <1>   0.1500 
 49 H       -9.4420     3.0680    -1.5250 H     1 <1>   0.1500 
 50 H      -10.4110     0.5670     1.7880 H     1 <1>   0.1500 
 51 H      -10.8520     2.5800     0.4350 H     1 <1>   0.1500 
@<TRIPOS>BOND
  1   1   2  2   
  2   2   3  am  
  3   2   4  1   
  4   3   5  1   
  5   3   6  1   
  6   4   7  ar  
  7   4   8  ar  
  8   5   9  1   
  9   5  28  1   
 10   5  29  1   
 11   6  10  1   
 12   6  30  1   
 13   6  31  1   
 14   7  11  ar  
 15   7  12  1   
 16   8  13  ar  
 17   8  14  1   
 18   9  15  1   
 19   9  16  1   
 20   9  32  1   
 21  10  16  1   
 22  10  33  1   
 23  10  34  1   
 24  11  17  ar  
 25  11  35  1   
 26  12  36  1   
 27  12  37  1   
 28  12  38  1   
 29  13  17  ar  
 30  13  39  1   
 31  14  40  1   
 32  14  41  1   
 33  14  42  1   
 34  15  43  1   
 35  16  18  1   
 36  16  19  1   
 37  17  44  1   
 38  18  20  ar  
 39  18  21  ar  
 40  19  22  1   
 41  19  45  1   
 42  19  46  1   
 43  22  23  ar  
 44  22  24  ar  
 45  23  25  ar  
 46  23  47  1   
 47  24  26  ar  
 48  24  48  1   
 49  25  27  ar  
 50  25  49  1   
 51  26  27  ar  
 52  26  50  1   
 53  27  51  1   
@<TRIPOS>SUBSTRUCTURE
  1 ****   6 GROUP 4 **** **** 0

# MOE 2024.06 (io_trps.svl 2023.06)
