@<TRIPOS>MOLECULE
NONAME
54 57 1 0 0 
SMALL
USER_CHARGES


@<TRIPOS>ATOM
  1 O       -0.1560     0.7380    -0.0740 O.2   1 <1>  -0.5700 
  2 C       -0.1760     1.9360     0.0860 C.2   1 <1>   0.5690 
  3 N       -1.2230     2.5770     0.6910 N.am  1 <1>  -0.6600 
  4 C        1.0060     2.7500    -0.4450 C.3   1 <1>   0.1810 
  5 C       -1.2360     4.0680     0.8510 C.3   1 <1>   0.3640 
  6 C       -2.3370     1.8390     1.3540 C.3   1 <1>   0.0600 
  7 O        1.1270     4.0160     0.1580 O.3   1 <1>  -0.5600 
  8 C       -2.5720     4.6700     0.3810 C.ar  1 <1>  -0.1430 
  9 C       -0.0580     4.7910     0.1440 C.3   1 <1>   0.2610 
 10 C       -3.1890     4.3970    -0.8460 C.ar  1 <1>  -0.1430 
 11 C       -3.1860     5.5620     1.2520 C.ar  1 <1>  -0.1500 
 12 C        0.2110     6.1860     0.7380 C.2   1 <1>   0.5690 
 13 C       -4.3920     5.0160    -1.1560 C.ar  1 <1>  -0.1500 
 14 C       -2.6290     3.4300    -1.8860 C.3   1 <1>  -0.0960 
 15 C       -4.3820     6.1740     0.9310 C.ar  1 <1>  -0.1500 
 16 O       -0.1890     6.4220     1.8590 O.2   1 <1>  -0.5700 
 17 N        0.8880     7.1400     0.0100 N.am  1 <1>  -0.5090 
 18 C       -4.9880     5.9000    -0.2780 C.ar  1 <1>  -0.1500 
 19 C        1.0530     8.5230     0.5180 C.3   1 <1>   0.0490 
 20 C        1.7310     6.8340    -1.1780 C.3   1 <1>   0.3210 
 21 C       -0.1600     9.3240     0.8770 C.3   1 <1>  -0.2000 
 22 C        0.6220     9.6650    -0.3500 C.3   1 <1>  -0.2000 
 23 C        3.2000     6.8670    -0.8060 C.2   1 <1>  -0.1810 
 24 C        3.8260     6.0590     0.1370 C.2   1 <1>   0.1390 
 25 C        4.1870     7.6530    -1.2870 C.2   1 <1>  -0.3020 
 26 N        5.0950     6.3110     0.2320 N.2   1 <1>  -0.7070 
 27 N        5.3180     7.3010    -0.6460 N.pl3 1 <1>   0.3140 
 28 C        6.6550     7.8770    -0.8230 C.3   1 <1>   0.0160 
 29 H        0.9010     2.8840    -1.5050 H     1 <1>   0.0800 
 30 H        1.9170     2.2120    -0.2540 H     1 <1>   0.0800 
 31 H       -1.1390     4.2440     1.9080 H     1 <1>   0.0800 
 32 H       -3.2740     2.0860     0.8870 H     1 <1>   0.0800 
 33 H       -2.3830     2.1070     2.3950 H     1 <1>   0.0800 
 34 H       -2.1880     0.7750     1.2800 H     1 <1>   0.0800 
 35 H       -0.3300     4.9360    -0.8830 H     1 <1>   0.0800 
 36 H       -2.7310     5.7980     2.2000 H     1 <1>   0.1500 
 37 H       -4.8830     4.8110    -2.0910 H     1 <1>   0.1500 
 38 H       -3.1110     3.5690    -2.8370 H     1 <1>   0.0800 
 39 H       -2.8010     2.4160    -1.5730 H     1 <1>   0.0800 
 40 H       -1.5780     3.5740    -2.0330 H     1 <1>   0.0800 
 41 H       -4.8380     6.8630     1.6210 H     1 <1>   0.1500 
 42 H       -5.9200     6.3720    -0.5340 H     1 <1>   0.1500 
 43 H        1.9360     8.6360     1.1270 H     1 <1>   0.1000 
 44 H        1.5000     5.8700    -1.5880 H     1 <1>   0.0800 
 45 H        1.5400     7.5650    -1.9430 H     1 <1>   0.0800 
 46 H       -1.1250     8.8580     0.7790 H     1 <1>   0.1000 
 47 H       -0.1020     9.9800     1.7270 H     1 <1>   0.1000 
 48 H        1.2040    10.5700    -0.3420 H     1 <1>   0.1000 
 49 H        0.1630     9.4740    -1.3030 H     1 <1>   0.1000 
 50 H        3.3250     5.3080     0.7270 H     1 <1>   0.1500 
 51 H        4.1510     8.4270    -2.0310 H     1 <1>   0.1500 
 52 H        6.6190     8.6570    -1.5590 H     1 <1>   0.0800 
 53 H        7.3270     7.1020    -1.1430 H     1 <1>   0.0800 
 54 H        6.9880     8.2740     0.1170 H     1 <1>   0.0800 
@<TRIPOS>BOND
  1   1   2  2   
  2   2   3  am  
  3   2   4  1   
  4   3   5  1   
  5   3   6  1   
  6   4   7  1   
  7   4  29  1   
  8   4  30  1   
  9   5   8  1   
 10   5   9  1   
 11   5  31  1   
 12   6  32  1   
 13   6  33  1   
 14   6  34  1   
 15   7   9  1   
 16   8  10  ar  
 17   8  11  ar  
 18   9  12  1   
 19   9  35  1   
 20  10  13  ar  
 21  10  14  1   
 22  11  15  ar  
 23  11  36  1   
 24  12  16  2   
 25  12  17  am  
 26  13  18  ar  
 27  13  37  1   
 28  14  38  1   
 29  14  39  1   
 30  14  40  1   
 31  15  18  ar  
 32  15  41  1   
 33  17  19  1   
 34  17  20  1   
 35  18  42  1   
 36  19  21  1   
 37  19  22  1   
 38  19  43  1   
 39  20  23  1   
 40  20  44  1   
 41  20  45  1   
 42  21  22  1   
 43  21  46  1   
 44  21  47  1   
 45  22  48  1   
 46  22  49  1   
 47  23  24  1   
 48  23  25  2   
 49  24  26  2   
 50  24  50  1   
 51  25  27  1   
 52  25  51  1   
 53  26  27  1   
 54  27  28  1   
 55  28  52  1   
 56  28  53  1   
 57  28  54  1   
@<TRIPOS>SUBSTRUCTURE
  1 ****   9 GROUP 4 **** **** 0

# MOE 2024.06 (io_trps.svl 2023.06)
