@<TRIPOS>MOLECULE
NONAME
41 43 1 0 0 
SMALL
USER_CHARGES


@<TRIPOS>ATOM
  1 S       -0.0580    -0.1660     0.1790 S.3   1 <1>  -0.3320 
  2 C       -0.3290    -1.8900    -0.1860 C.ar  1 <1>   0.7220 
  3 C       -0.7040     0.0740     1.8940 C.3   1 <1>  -0.0100 
  4 N       -0.8960    -2.6090     0.7710 N.ar  1 <1>  -0.6200 
  5 N        0.0660    -2.2780    -1.3850 N.ar  1 <1>  -0.6200 
  6 C       -1.0780    -3.8760     0.4680 C.ar  1 <1>   0.1600 
  7 C       -0.1350    -3.5520    -1.6450 C.ar  1 <1>   0.1600 
  8 C       -0.7090    -4.4350    -0.7450 C.ar  1 <1>   0.0860 
  9 C       -0.9000    -5.8300    -1.0710 C.2   1 <1>   0.5440 
 10 O       -0.8320    -6.2010    -2.2240 O.2   1 <1>  -0.5700 
 11 N       -1.1530    -6.7650    -0.1080 N.am  1 <1>  -0.7300 
 12 C       -1.3160    -8.2170    -0.3530 C.3   1 <1>   0.2200 
 13 C       -2.7800    -8.5900    -0.1820 C.3   1 <1>  -0.0800 
 14 C       -0.6720    -8.9870     0.7920 C.3   1 <1>   0.1200 
 15 C       -2.8950    -8.8230     1.3320 C.3   1 <1>   0.1200 
 16 C       -3.1390    -9.8470    -0.9980 C.3   1 <1>  -0.0160 
 17 O       -1.5930    -8.9200     1.8350 O.3   1 <1>  -0.5600 
 18 C       -4.6060   -10.2170    -0.8390 C.ar  1 <1>  -0.1430 
 19 C       -5.0160   -11.2820    -0.0620 C.ar  1 <1>  -0.1500 
 20 C       -5.6050    -9.5050    -1.4710 C.ar  1 <1>  -0.1500 
 21 C       -6.3660   -11.5700     0.0480 C.ar  1 <1>   0.1600 
 22 C       -6.9280    -9.8770    -1.2950 C.ar  1 <1>   0.1600 
 23 N       -7.3320   -10.8910    -0.5490 N.ar  1 <1>  -0.6200 
 24 H       -0.5610     1.1060     2.1580 H     1 <1>   0.0800 
 25 H       -0.1490    -0.5730     2.5500 H     1 <1>   0.0800 
 26 H       -1.7480    -0.1830     1.8920 H     1 <1>   0.0800 
 27 H       -1.5450    -4.4930     1.2150 H     1 <1>   0.1500 
 28 H        0.1680    -3.9180    -2.6130 H     1 <1>   0.1500 
 29 H       -1.1740    -6.5310     0.8870 H     1 <1>   0.3700 
 30 H       -0.9100    -8.4930    -1.3130 H     1 <1>   0.0800 
 31 H       -3.4220    -7.7850    -0.4960 H     1 <1>   0.0800 
 32 H        0.2660    -8.5640     1.1050 H     1 <1>   0.0800 
 33 H       -0.5380   -10.0230     0.5340 H     1 <1>   0.0800 
 34 H       -3.4250    -9.7260     1.5770 H     1 <1>   0.0800 
 35 H       -3.3720    -7.9880     1.8160 H     1 <1>   0.0800 
 36 H       -2.5230   -10.6760    -0.6960 H     1 <1>   0.0800 
 37 H       -2.9430    -9.6620    -2.0400 H     1 <1>   0.0800 
 38 H       -4.3010   -11.8920     0.4590 H     1 <1>   0.1500 
 39 H       -5.3690    -8.6650    -2.0990 H     1 <1>   0.1500 
 40 H       -6.6670   -12.4040     0.6590 H     1 <1>   0.1500 
 41 H       -7.6940    -9.3100    -1.7960 H     1 <1>   0.1500 
@<TRIPOS>BOND
  1   1   2  1   
  2   1   3  1   
  3   2   4  ar  
  4   2   5  ar  
  5   3  24  1   
  6   3  25  1   
  7   3  26  1   
  8   4   6  ar  
  9   5   7  ar  
 10   6   8  ar  
 11   6  27  1   
 12   7   8  ar  
 13   7  28  1   
 14   8   9  1   
 15   9  10  2   
 16   9  11  am  
 17  11  12  1   
 18  11  29  1   
 19  12  13  1   
 20  12  14  1   
 21  12  30  1   
 22  13  15  1   
 23  13  16  1   
 24  13  31  1   
 25  14  17  1   
 26  14  32  1   
 27  14  33  1   
 28  15  17  1   
 29  15  34  1   
 30  15  35  1   
 31  16  18  1   
 32  16  36  1   
 33  16  37  1   
 34  18  19  ar  
 35  18  20  ar  
 36  19  21  ar  
 37  19  38  1   
 38  20  22  ar  
 39  20  39  1   
 40  21  23  ar  
 41  21  40  1   
 42  22  23  ar  
 43  22  41  1   
@<TRIPOS>SUBSTRUCTURE
  1 ****  11 GROUP 4 **** **** 0

# MOE 2024.06 (io_trps.svl 2023.06)
