@<TRIPOS>MOLECULE
NONAME
58 60 1 0 0 
SMALL
USER_CHARGES


@<TRIPOS>ATOM
  1 F       -1.3770    -5.0600     2.3930 F     1 <1>  -0.1900 
  2 C       -2.3660    -4.5010     1.7500 C.ar  1 <1>   0.1900 
  3 C       -2.1220    -3.3570     1.0140 C.ar  1 <1>  -0.1500 
  4 C       -3.6210    -5.0750     1.8280 C.ar  1 <1>  -0.1500 
  5 C       -3.1750    -2.7690     0.3340 C.ar  1 <1>  -0.1500 
  6 C       -4.6650    -4.4770     1.1440 C.ar  1 <1>  -0.1500 
  7 C       -4.4490    -3.3230     0.3980 C.ar  1 <1>  -0.1430 
  8 C       -5.6060    -2.6810    -0.3470 C.3   1 <1>   0.3530 
  9 N       -5.8970    -3.5090    -1.5340 N.pl3 1 <1>  -0.8690 
 10 C       -7.1160    -4.1640    -1.6010 C.ar  1 <1>   0.1000 
 11 C       -7.1560    -5.5470    -1.6930 C.ar  1 <1>  -0.1500 
 12 C       -8.3110    -3.4570    -1.5880 C.ar  1 <1>  -0.1500 
 13 C       -8.3580    -6.2450    -1.7470 C.ar  1 <1>   0.0860 
 14 C       -9.5200    -4.1230    -1.6540 C.ar  1 <1>  -0.1500 
 15 C       -8.3750    -7.6940    -1.8160 C.2   1 <1>   0.5440 
 16 C       -9.5410    -5.5040    -1.7350 C.ar  1 <1>  -0.1500 
 17 O       -7.7440    -8.2550    -2.6910 O.2   1 <1>  -0.5700 
 18 N       -9.0780    -8.4600    -0.9080 N.am  1 <1>  -0.6600 
 19 C       -9.3520    -9.9080    -1.1770 C.3   1 <1>   0.1400 
 20 C       -9.4770    -7.9710     0.4400 C.3   1 <1>   0.1400 
 21 C      -10.8200   -10.2520    -0.8660 C.3   1 <1>   0.2000 
 22 C      -10.9550    -8.2970     0.6920 C.3   1 <1>  -0.1600 
 23 O      -11.0170   -11.6180    -1.0540 O.3   1 <1>  -0.6800 
 24 C      -11.2730    -9.8100     0.5570 C.3   1 <1>   0.0000 
 25 C      -10.4940   -10.6280     1.6270 C.3   1 <1>   0.1200 
 26 C      -12.7960   -10.0590     0.7740 C.3   1 <1>  -0.1600 
 27 O      -10.7880   -10.2050     2.9160 O.3   1 <1>  -0.6800 
 28 C      -13.7580    -9.4370    -0.2570 C.3   1 <1>  -0.1600 
 29 C      -15.2130    -9.7370     0.1140 C.3   1 <1>  -0.2400 
 30 H       -1.1310    -2.9420     0.9770 H     1 <1>   0.1500 
 31 H       -3.7700    -5.9670     2.4090 H     1 <1>   0.1500 
 32 H       -2.9980    -1.8800    -0.2470 H     1 <1>   0.1500 
 33 H       -5.6500    -4.9110     1.1870 H     1 <1>   0.1500 
 34 H       -5.3490    -1.6850    -0.6640 H     1 <1>   0.0800 
 35 H       -6.4690    -2.6240     0.2940 H     1 <1>   0.0800 
 36 H       -5.0890    -4.1140    -1.7180 H     1 <1>   0.4000 
 37 H       -6.2350    -6.1010    -1.7230 H     1 <1>   0.1500 
 38 H       -8.2850    -2.3840    -1.5390 H     1 <1>   0.1500 
 39 H      -10.4410    -3.5660    -1.6510 H     1 <1>   0.1500 
 40 H      -10.4820    -6.0220    -1.7960 H     1 <1>   0.1500 
 41 H       -9.1650   -10.1310    -2.2130 H     1 <1>   0.0800 
 42 H       -8.6850   -10.5020    -0.5790 H     1 <1>   0.0800 
 43 H       -8.8540    -8.4410     1.1810 H     1 <1>   0.0800 
 44 H       -9.3260    -6.9090     0.5230 H     1 <1>   0.0800 
 45 H      -11.4190    -9.7530    -1.6060 H     1 <1>   0.0800 
 46 H      -11.2370    -7.9380     1.6650 H     1 <1>   0.0800 
 47 H      -11.5280    -7.7350    -0.0220 H     1 <1>   0.0800 
 48 H      -10.4980   -12.1420    -0.4170 H     1 <1>   0.4000 
 49 H       -9.4300   -10.5470     1.4970 H     1 <1>   0.0800 
 50 H      -10.7620   -11.6690     1.5720 H     1 <1>   0.0800 
 51 H      -12.9680   -11.1220     0.7820 H     1 <1>   0.0800 
 52 H      -13.0710    -9.6960     1.7490 H     1 <1>   0.0800 
 53 H      -10.6310    -9.2480     3.0140 H     1 <1>   0.4000 
 54 H      -13.6320    -8.3710    -0.3020 H     1 <1>   0.0800 
 55 H      -13.5690    -9.8440    -1.2350 H     1 <1>   0.0800 
 56 H      -15.4500    -9.3250     1.0790 H     1 <1>   0.0800 
 57 H      -15.3820   -10.8000     0.1390 H     1 <1>   0.0800 
 58 H      -15.8750    -9.3050    -0.6160 H     1 <1>   0.0800 
@<TRIPOS>BOND
  1   1   2  1   
  2   2   3  ar  
  3   2   4  ar  
  4   3   5  ar  
  5   3  30  1   
  6   4   6  ar  
  7   4  31  1   
  8   5   7  ar  
  9   5  32  1   
 10   6   7  ar  
 11   6  33  1   
 12   7   8  1   
 13   8   9  1   
 14   8  34  1   
 15   8  35  1   
 16   9  10  1   
 17   9  36  1   
 18  10  11  ar  
 19  10  12  ar  
 20  11  13  ar  
 21  11  37  1   
 22  12  14  ar  
 23  12  38  1   
 24  13  15  1   
 25  13  16  ar  
 26  14  16  ar  
 27  14  39  1   
 28  15  17  2   
 29  15  18  am  
 30  16  40  1   
 31  18  19  1   
 32  18  20  1   
 33  19  21  1   
 34  19  41  1   
 35  19  42  1   
 36  20  22  1   
 37  20  43  1   
 38  20  44  1   
 39  21  23  1   
 40  21  24  1   
 41  21  45  1   
 42  22  24  1   
 43  22  46  1   
 44  22  47  1   
 45  23  48  1   
 46  24  25  1   
 47  24  26  1   
 48  25  27  1   
 49  25  49  1   
 50  25  50  1   
 51  26  28  1   
 52  26  51  1   
 53  26  52  1   
 54  27  53  1   
 55  28  29  1   
 56  28  54  1   
 57  28  55  1   
 58  29  56  1   
 59  29  57  1   
 60  29  58  1   
@<TRIPOS>SUBSTRUCTURE
  1 ****  13 GROUP 4 **** **** 0

# MOE 2024.06 (io_trps.svl 2023.06)
