@<TRIPOS>MOLECULE
NONAME
58 60 1 0 0 
SMALL
USER_CHARGES


@<TRIPOS>ATOM
  1 O       -1.8230     0.2230     2.0070 O.2   1 <1>  -0.5700 
  2 C       -2.3020     0.6590     0.9710 C.2   1 <1>   0.7160 
  3 N       -3.1440    -0.1710     0.2630 N.am  1 <1>  -0.6600 
  4 C       -1.9910     2.0180     0.5310 C.2   1 <1>   0.2030 
  5 C       -2.8560    -1.6420     0.2160 C.3   1 <1>   0.3640 
  6 C       -4.5210     0.2790    -0.0720 C.3   1 <1>   0.1400 
  7 N       -2.3890     2.6140    -0.5840 N.2   1 <1>  -0.7070 
  8 C       -1.1810     2.8920     1.2680 C.2   1 <1>  -0.1500 
  9 C       -1.4130    -1.8280    -0.2700 C.ar  1 <1>  -0.1430 
 10 C       -3.8110    -2.4560    -0.7150 C.3   1 <1>   0.2000 
 11 C       -5.1240    -0.5680    -1.1910 C.3   1 <1>   0.1200 
 12 N       -1.8370     3.8350    -0.5540 N.pl3 1 <1>   0.3000 
 13 C       -1.0990     4.0310     0.5550 C.2   1 <1>  -0.3320 
 14 C       -0.5190    -2.5890     0.4710 C.ar  1 <1>  -0.1500 
 15 C       -0.9780    -1.2410    -1.4520 C.ar  1 <1>  -0.1500 
 16 O       -5.1000    -1.9060    -0.8100 O.3   1 <1>  -0.5600 
 17 C       -4.0090    -3.9120    -0.2590 C.3   1 <1>   0.1200 
 18 C       -0.3530     5.3170     0.8760 C.3   1 <1>   0.0200 
 19 C        0.7820    -2.7790     0.0360 C.ar  1 <1>   0.0830 
 20 C        0.3250    -1.4120    -1.8870 C.ar  1 <1>  -0.1500 
 21 O       -2.8010    -4.5840    -0.1000 O.3   1 <1>  -0.6800 
 22 C        1.0350     5.3810     0.2110 C.3   1 <1>  -0.0800 
 23 O        1.5870    -3.5690     0.7870 O.3   1 <1>  -0.3630 
 24 C        1.2150    -2.1680    -1.1450 C.ar  1 <1>   0.0830 
 25 C        1.7850     6.6350     0.6790 C.3   1 <1>  -0.2400 
 26 C        0.9610     5.3730    -1.3230 C.3   1 <1>  -0.2400 
 27 C        1.9330    -4.8120     0.2220 C.3   1 <1>   0.0400 
 28 O        2.4850    -2.2750    -1.6070 O.3   1 <1>  -0.3630 
 29 C        3.4860    -1.6800    -0.8120 C.3   1 <1>   0.0400 
 30 H       -2.9460    -2.0290     1.2170 H     1 <1>   0.0800 
 31 H       -5.1410     0.1950     0.8030 H     1 <1>   0.0800 
 32 H       -4.5180     1.3100    -0.3760 H     1 <1>   0.0800 
 33 H       -0.7280     2.6510     2.2150 H     1 <1>   0.1500 
 34 H       -3.4090    -2.4660    -1.7120 H     1 <1>   0.0800 
 35 H       -4.5770    -0.4440    -2.1100 H     1 <1>   0.0800 
 36 H       -6.1500    -0.2900    -1.3550 H     1 <1>   0.0800 
 37 H       -1.9690     4.5210    -1.3070 H     1 <1>   0.2700 
 38 H       -0.8270    -3.0480     1.3930 H     1 <1>   0.1500 
 39 H       -1.6520    -0.6340    -2.0330 H     1 <1>   0.1500 
 40 H       -4.5910    -4.4480    -0.9880 H     1 <1>   0.0800 
 41 H       -4.5180    -3.9360     0.6880 H     1 <1>   0.0800 
 42 H       -0.9460     6.1660     0.5830 H     1 <1>   0.0800 
 43 H       -0.2250     5.3690     1.9440 H     1 <1>   0.0800 
 44 H        0.6590    -0.9510    -2.7990 H     1 <1>   0.1500 
 45 H       -2.2340    -4.4920    -0.8920 H     1 <1>   0.4000 
 46 H        1.5970     4.5170     0.5260 H     1 <1>   0.0800 
 47 H        1.2610     7.5260     0.3810 H     1 <1>   0.0800 
 48 H        2.7730     6.6610     0.2540 H     1 <1>   0.0800 
 49 H        1.8820     6.6360     1.7510 H     1 <1>   0.0800 
 50 H        0.3410     6.1770    -1.6800 H     1 <1>   0.0800 
 51 H        0.5690     4.4380    -1.6790 H     1 <1>   0.0800 
 52 H        1.9450     5.4910    -1.7410 H     1 <1>   0.0800 
 53 H        2.5190    -5.3570     0.9400 H     1 <1>   0.0800 
 54 H        2.5070    -4.6480    -0.6730 H     1 <1>   0.0800 
 55 H        1.0310    -5.3520    -0.0060 H     1 <1>   0.0800 
 56 H        4.4140    -1.7190    -1.3530 H     1 <1>   0.0800 
 57 H        3.5770    -2.2220     0.1120 H     1 <1>   0.0800 
 58 H        3.2140    -0.6570    -0.6180 H     1 <1>   0.0800 
@<TRIPOS>BOND
  1   1   2  2   
  2   2   3  am  
  3   2   4  1   
  4   3   5  1   
  5   3   6  1   
  6   4   7  2   
  7   4   8  1   
  8   5   9  1   
  9   5  10  1   
 10   5  30  1   
 11   6  11  1   
 12   6  31  1   
 13   6  32  1   
 14   7  12  1   
 15   8  13  2   
 16   8  33  1   
 17   9  14  ar  
 18   9  15  ar  
 19  10  16  1   
 20  10  17  1   
 21  10  34  1   
 22  11  16  1   
 23  11  35  1   
 24  11  36  1   
 25  12  13  1   
 26  12  37  1   
 27  13  18  1   
 28  14  19  ar  
 29  14  38  1   
 30  15  20  ar  
 31  15  39  1   
 32  17  21  1   
 33  17  40  1   
 34  17  41  1   
 35  18  22  1   
 36  18  42  1   
 37  18  43  1   
 38  19  23  1   
 39  19  24  ar  
 40  20  24  ar  
 41  20  44  1   
 42  21  45  1   
 43  22  25  1   
 44  22  26  1   
 45  22  46  1   
 46  23  27  1   
 47  24  28  1   
 48  25  47  1   
 49  25  48  1   
 50  25  49  1   
 51  26  50  1   
 52  26  51  1   
 53  26  52  1   
 54  27  53  1   
 55  27  54  1   
 56  27  55  1   
 57  28  29  1   
 58  29  56  1   
 59  29  57  1   
 60  29  58  1   
@<TRIPOS>SUBSTRUCTURE
  1 ****   2 GROUP 4 **** **** 0

# MOE 2024.06 (io_trps.svl 2023.06)
