@<TRIPOS>MOLECULE
NONAME
46 48 1 0 0 
SMALL
USER_CHARGES


@<TRIPOS>ATOM
  1 CL      -0.1560     0.9860    -2.8050 Cl    1 <1>  -0.1240 
  2 C        0.8730     2.1820    -2.0560 C.2   1 <1>   0.3100 
  3 N        2.0100     1.9390    -1.5080 N.2   1 <1>  -0.3380 
  4 N        0.5310     3.4610    -2.0050 N.pl3 1 <1>   0.0330 
  5 N        2.4570     3.1210    -1.0640 N.2   1 <1>  -0.3380 
  6 C        1.5680     4.0110    -1.3670 C.2   1 <1>   0.0060 
  7 C        1.6470     5.4990    -1.0600 C.3   1 <1>   0.0200 
  8 C        2.9440     5.8860    -0.3270 C.3   1 <1>  -0.0990 
  9 C        3.0360     7.3700    -0.0030 C.2   1 <1>   0.5690 
 10 O        2.1490     8.0940    -0.3940 O.2   1 <1>  -0.5700 
 11 N        4.1020     7.8620     0.7080 N.am  1 <1>  -0.6600 
 12 C        5.2770     7.0550     1.1690 C.3   1 <1>   0.1400 
 13 C        4.1860     9.3030     1.0730 C.3   1 <1>   0.1400 
 14 C        6.5780     7.6380     0.6050 C.3   1 <1>   0.2000 
 15 C        5.4440     9.9100     0.4490 C.3   1 <1>  -0.1600 
 16 O        7.6410     6.9600     1.1850 O.3   1 <1>  -0.6800 
 17 C        6.7000     9.1520     0.8910 C.3   1 <1>   0.2200 
 18 N        7.8700     9.7500     0.1980 N.am  1 <1>  -0.7300 
 19 C        9.1660     9.6850     0.6210 C.2   1 <1>   0.5440 
 20 O        9.4110     8.9860     1.5850 O.2   1 <1>  -0.5700 
 21 C       10.2210    10.3960    -0.0810 C.ar  1 <1>   0.0860 
 22 C        9.9720    11.5710    -0.7950 C.ar  1 <1>  -0.1500 
 23 C       11.5340     9.9230    -0.0690 C.ar  1 <1>  -0.1500 
 24 C       10.9800    12.2320    -1.4730 C.ar  1 <1>  -0.1500 
 25 C       12.5470    10.5790    -0.7440 C.ar  1 <1>  -0.1500 
 26 C       12.2700    11.7350    -1.4500 C.ar  1 <1>  -0.1500 
 27 H       -0.3190     3.8920    -2.3690 H     1 <1>   0.2700 
 28 H        1.5870     6.0500    -1.9820 H     1 <1>   0.0800 
 29 H        0.8040     5.7760    -0.4500 H     1 <1>   0.0800 
 30 H        3.7830     5.6170    -0.9410 H     1 <1>   0.0800 
 31 H        2.9990     5.3320     0.5920 H     1 <1>   0.0800 
 32 H        5.3130     7.0830     2.2440 H     1 <1>   0.0800 
 33 H        5.1970     6.0290     0.8610 H     1 <1>   0.0800 
 34 H        3.3180     9.8390     0.7260 H     1 <1>   0.0800 
 35 H        4.2210     9.3940     2.1460 H     1 <1>   0.0800 
 36 H        6.6160     7.4620    -0.4560 H     1 <1>   0.0800 
 37 H        5.5200    10.9390     0.7540 H     1 <1>   0.0800 
 38 H        5.3430     9.8750    -0.6210 H     1 <1>   0.0800 
 39 H        8.3950     7.5950     1.3200 H     1 <1>   0.4000 
 40 H        6.8170     9.2840     1.9540 H     1 <1>   0.0800 
 41 H        7.6720    10.1690    -0.7110 H     1 <1>   0.3700 
 42 H        8.9780    11.9820    -0.8140 H     1 <1>   0.1500 
 43 H       11.7590     9.0250     0.4810 H     1 <1>   0.1500 
 44 H       10.7650    13.1360    -2.0170 H     1 <1>   0.1500 
 45 H       13.5510    10.1910    -0.7190 H     1 <1>   0.1500 
 46 H       13.0580    12.2480    -1.9760 H     1 <1>   0.1500 
@<TRIPOS>BOND
  1   1   2  1   
  2   2   3  2   
  3   2   4  1   
  4   3   5  1   
  5   4   6  1   
  6   4  27  1   
  7   5   6  2   
  8   6   7  1   
  9   7   8  1   
 10   7  28  1   
 11   7  29  1   
 12   8   9  1   
 13   8  30  1   
 14   8  31  1   
 15   9  10  2   
 16   9  11  am  
 17  11  12  1   
 18  11  13  1   
 19  12  14  1   
 20  12  32  1   
 21  12  33  1   
 22  13  15  1   
 23  13  34  1   
 24  13  35  1   
 25  14  16  1   
 26  14  17  1   
 27  14  36  1   
 28  15  17  1   
 29  15  37  1   
 30  15  38  1   
 31  16  39  1   
 32  17  18  1   
 33  17  40  1   
 34  18  19  am  
 35  18  41  1   
 36  19  20  2   
 37  19  21  1   
 38  21  22  ar  
 39  21  23  ar  
 40  22  24  ar  
 41  22  42  1   
 42  23  25  ar  
 43  23  43  1   
 44  24  26  ar  
 45  24  44  1   
 46  25  26  ar  
 47  25  45  1   
 48  26  46  1   
@<TRIPOS>SUBSTRUCTURE
  1 ****  14 GROUP 4 **** **** 0

# MOE 2024.06 (io_trps.svl 2023.06)
