@<TRIPOS>MOLECULE
NONAME
45 47 1 0 0 
SMALL
USER_CHARGES


@<TRIPOS>ATOM
  1 F       -0.4000    -0.5680     1.5410 F     1 <1>  -0.1900 
  2 C       -0.8410    -1.7360     1.1480 C.ar  1 <1>   0.1900 
  3 C        0.0100    -2.7100     0.6130 C.ar  1 <1>   0.0820 
  4 C       -2.1960    -1.9630     1.2960 C.ar  1 <1>  -0.1500 
  5 O        1.3570    -2.6050     0.4180 O.3   1 <1>  -0.3630 
  6 C       -0.5540    -3.9180     0.2350 C.ar  1 <1>  -0.1500 
  7 C       -2.7230    -3.1810     0.9090 C.ar  1 <1>  -0.1500 
  8 C        2.0750    -1.4120     0.6460 C.3   1 <1>   0.0400 
  9 C       -1.9190    -4.1850     0.3680 C.ar  1 <1>   0.0530 
 10 C       -2.4550    -5.4680    -0.0240 C.2   1 <1>   0.0870 
 11 O       -1.7130    -6.5400     0.1410 O.3   1 <1>  -0.0190 
 12 C       -3.6400    -5.8870    -0.5470 C.2   1 <1>  -0.2330 
 13 N       -2.3160    -7.6400    -0.2230 N.2   1 <1>  -0.4100 
 14 C       -3.4730    -7.2670    -0.6430 C.2   1 <1>   0.3720 
 15 C       -4.8280    -5.1890    -0.9420 C.2   1 <1>   1.0330 
 16 N       -4.4410    -8.1350    -1.1240 N.pl3 1 <1>  -0.8520 
 17 O       -4.8320    -3.9580    -1.0930 O.co2 1 <1>  -0.9000 
 18 O       -5.8960    -5.8070    -1.1250 O.co2 1 <1>  -0.9000 
 19 C       -4.8730    -9.1820    -0.1900 C.3   1 <1>   0.2890 
 20 C       -4.4380   -10.5350    -0.7650 C.3   1 <1>  -0.1600 
 21 C       -6.3840    -9.0220     0.0070 C.3   1 <1>  -0.1600 
 22 C       -4.5470   -11.6760     0.2590 C.3   1 <1>  -0.1600 
 23 C       -7.0470   -10.0920     0.8900 C.3   1 <1>  -0.1600 
 24 C       -5.9220   -12.3590     0.3300 C.3   1 <1>  -0.1600 
 25 C       -7.1540   -11.4510     0.1820 C.3   1 <1>  -0.1600 
 26 H       -2.8320    -1.1990     1.7030 H     1 <1>   0.1500 
 27 H        0.0870    -4.6740    -0.1810 H     1 <1>   0.1500 
 28 H       -3.7790    -3.3580     1.0210 H     1 <1>   0.1500 
 29 H        3.0980    -1.5780     0.3610 H     1 <1>   0.0800 
 30 H        2.0240    -1.1670     1.6920 H     1 <1>   0.0800 
 31 H        1.6510    -0.6280     0.0450 H     1 <1>   0.0800 
 32 H       -5.2640    -7.5320    -1.3360 H     1 <1>   0.4000 
 33 H       -4.3850    -9.0340     0.7600 H     1 <1>   0.0800 
 34 H       -3.4010   -10.4420    -1.0400 H     1 <1>   0.0800 
 35 H       -4.9940   -10.7610    -1.6570 H     1 <1>   0.0800 
 36 H       -6.8660    -9.0050    -0.9550 H     1 <1>   0.0800 
 37 H       -6.5510    -8.0600     0.4620 H     1 <1>   0.0800 
 38 H       -4.2820   -11.3010     1.2330 H     1 <1>   0.0800 
 39 H       -3.8180   -12.4290     0.0110 H     1 <1>   0.0800 
 40 H       -8.0450    -9.7530     1.1070 H     1 <1>   0.0800 
 41 H       -6.5300   -10.1870     1.8290 H     1 <1>   0.0800 
 42 H       -5.9850   -12.8770     1.2720 H     1 <1>   0.0800 
 43 H       -5.9730   -13.1080    -0.4420 H     1 <1>   0.0800 
 44 H       -7.3560   -11.2920    -0.8630 H     1 <1>   0.0800 
 45 H       -8.0010   -11.9810     0.5820 H     1 <1>   0.0800 
@<TRIPOS>BOND
  1   1   2  1   
  2   2   3  ar  
  3   2   4  ar  
  4   3   5  1   
  5   3   6  ar  
  6   4   7  ar  
  7   4  26  1   
  8   5   8  1   
  9   6   9  ar  
 10   6  27  1   
 11   7   9  ar  
 12   7  28  1   
 13   8  29  1   
 14   8  30  1   
 15   8  31  1   
 16   9  10  1   
 17  10  11  1   
 18  10  12  2   
 19  11  13  1   
 20  12  14  1   
 21  12  15  1   
 22  13  14  2   
 23  14  16  1   
 24  15  17  ar  
 25  15  18  ar  
 26  16  19  1   
 27  16  32  1   
 28  19  20  1   
 29  19  21  1   
 30  19  33  1   
 31  20  22  1   
 32  20  34  1   
 33  20  35  1   
 34  21  23  1   
 35  21  36  1   
 36  21  37  1   
 37  22  24  1   
 38  22  38  1   
 39  22  39  1   
 40  23  25  1   
 41  23  40  1   
 42  23  41  1   
 43  24  25  1   
 44  24  42  1   
 45  24  43  1   
 46  25  44  1   
 47  25  45  1   
@<TRIPOS>SUBSTRUCTURE
  1 ****  12 GROUP 4 **** **** 0

# MOE 2024.06 (io_trps.svl 2023.06)
