@<TRIPOS>MOLECULE
NONAME
45 46 1 0 0 
SMALL
USER_CHARGES


@<TRIPOS>ATOM
  1 O       -0.7720    -0.6710    -0.0530 O.3   1 <1>  -0.3630 
  2 C       -1.9050    -1.3940     0.0670 C.ar  1 <1>   0.0830 
  3 C       -0.6330     0.5920     0.5600 C.3   1 <1>   0.0400 
  4 C       -1.9650    -2.6100    -0.5780 C.ar  1 <1>  -0.1500 
  5 C       -3.0200    -1.0090     0.7900 C.ar  1 <1>  -0.1500 
  6 C       -3.1080    -3.3820    -0.4770 C.ar  1 <1>   0.1670 
  7 C       -4.1140    -1.8520     0.8310 C.ar  1 <1>   0.1600 
  8 N       -4.1870    -3.0290     0.2220 N.ar  1 <1>  -0.6200 
  9 C       -3.1610    -4.7340    -1.1900 C.3   1 <1>   0.4870 
 10 N       -4.0530    -5.6620    -0.4260 N.4   1 <1>  -0.9590 
 11 C       -3.3090    -6.6470     0.4350 C.3   1 <1>   0.4230 
 12 C       -5.0430    -6.2770    -1.3640 C.3   1 <1>   0.2630 
 13 C       -4.2390    -7.5930     1.2250 C.3   1 <1>  -0.0170 
 14 C       -2.4190    -5.8860     1.4250 C.3   1 <1>  -0.2400 
 15 C       -4.8550    -8.6860     0.3700 C.ar  1 <1>   0.1670 
 16 N       -4.0950    -9.1710    -0.6010 N.ar  1 <1>  -0.6200 
 17 C       -6.1490    -9.1130     0.6320 C.ar  1 <1>  -0.1500 
 18 C       -4.6440   -10.1340    -1.3270 C.ar  1 <1>   0.1600 
 19 C       -6.7150   -10.1030    -0.1420 C.ar  1 <1>  -0.1430 
 20 C       -5.9250   -10.6230    -1.1450 C.ar  1 <1>  -0.1500 
 21 C       -8.1250   -10.6100     0.1050 C.3   1 <1>  -0.0970 
 22 H        0.3430     0.9740     0.3200 H     1 <1>   0.0800 
 23 H       -0.7270     0.4780     1.6250 H     1 <1>   0.0800 
 24 H       -1.3880     1.2540     0.1740 H     1 <1>   0.0800 
 25 H       -1.1130    -2.9300    -1.1500 H     1 <1>   0.1500 
 26 H       -3.0550    -0.0750     1.3180 H     1 <1>   0.1500 
 27 H       -4.9770    -1.5400     1.3970 H     1 <1>   0.1500 
 28 H       -2.1720    -5.1480    -1.2840 H     1 <1>   0.0800 
 29 H       -3.5590    -4.5730    -2.1780 H     1 <1>   0.0800 
 30 H       -4.5540    -5.0010     0.1980 H     1 <1>   0.4500 
 31 H       -2.6760    -7.2570    -0.1910 H     1 <1>   0.0800 
 32 H       -4.5610    -7.0130    -1.9870 H     1 <1>   0.0800 
 33 H       -5.4880    -5.5210    -1.9910 H     1 <1>   0.0800 
 34 H       -5.8320    -6.7620    -0.8130 H     1 <1>   0.0800 
 35 H       -4.9970    -7.0250     1.7330 H     1 <1>   0.0800 
 36 H       -3.6590    -8.0990     1.9760 H     1 <1>   0.0800 
 37 H       -3.0010    -5.2040     2.0200 H     1 <1>   0.0800 
 38 H       -1.6370    -5.3480     0.9230 H     1 <1>   0.0800 
 39 H       -1.9340    -6.5780     2.0900 H     1 <1>   0.0800 
 40 H       -6.7120    -8.6810     1.4400 H     1 <1>   0.1500 
 41 H       -4.0410   -10.5610    -2.1120 H     1 <1>   0.1500 
 42 H       -6.2940   -11.4070    -1.7820 H     1 <1>   0.1500 
 43 H       -8.7310    -9.8430     0.5530 H     1 <1>   0.0800 
 44 H       -8.0970   -11.4580     0.7650 H     1 <1>   0.0800 
 45 H       -8.5850   -10.9070    -0.8200 H     1 <1>   0.0800 
@<TRIPOS>BOND
  1   1   2  1   
  2   1   3  1   
  3   2   4  ar  
  4   2   5  ar  
  5   3  22  1   
  6   3  23  1   
  7   3  24  1   
  8   4   6  ar  
  9   4  25  1   
 10   5   7  ar  
 11   5  26  1   
 12   6   8  ar  
 13   6   9  1   
 14   7   8  ar  
 15   7  27  1   
 16   9  10  1   
 17   9  28  1   
 18   9  29  1   
 19  10  11  1   
 20  10  12  1   
 21  10  30  1   
 22  11  13  1   
 23  11  14  1   
 24  11  31  1   
 25  12  32  1   
 26  12  33  1   
 27  12  34  1   
 28  13  15  1   
 29  13  35  1   
 30  13  36  1   
 31  14  37  1   
 32  14  38  1   
 33  14  39  1   
 34  15  16  ar  
 35  15  17  ar  
 36  16  18  ar  
 37  17  19  ar  
 38  17  40  1   
 39  18  20  ar  
 40  18  41  1   
 41  19  20  ar  
 42  19  21  1   
 43  20  42  1   
 44  21  43  1   
 45  21  44  1   
 46  21  45  1   
@<TRIPOS>SUBSTRUCTURE
  1 ****  10 GROUP 4 **** **** 0

# MOE 2024.06 (io_trps.svl 2023.06)
