@<TRIPOS>MOLECULE
NONAME
48 51 1 0 0 
SMALL
USER_CHARGES


@<TRIPOS>ATOM
  1 CL       0.1040    -0.0960     0.7460 Cl    1 <1>  -0.1770 
  2 C       -0.8090    -1.5810     0.6980 C.ar  1 <1>   0.1770 
  3 C       -2.1200    -1.5630     0.2670 C.ar  1 <1>  -0.1500 
  4 C       -0.2100    -2.7610     1.0940 C.ar  1 <1>  -0.1500 
  5 C       -2.8380    -2.7450     0.2290 C.ar  1 <1>  -0.1500 
  6 C       -0.9390    -3.9360     1.0530 C.ar  1 <1>  -0.1500 
  7 C       -2.2700    -3.9620     0.6200 C.ar  1 <1>   0.0530 
  8 C       -3.0060    -5.2070     0.5800 C.2   1 <1>   0.0870 
  9 O       -2.3600    -6.3480     0.6330 O.3   1 <1>  -0.0190 
 10 C       -4.3260    -5.5140     0.4860 C.2   1 <1>  -0.2330 
 11 N       -3.1500    -7.3860     0.5830 N.2   1 <1>  -0.4100 
 12 C       -4.3460    -6.9120     0.4900 C.2   1 <1>   0.3720 
 13 C       -5.4490    -4.6360     0.4250 C.2   1 <1>   1.0330 
 14 N       -5.4830    -7.7340     0.4300 N.pl3 1 <1>  -0.8210 
 15 O       -6.1370    -4.5470    -0.6100 O.co2 1 <1>  -0.9000 
 16 O       -5.7090    -3.8760     1.3720 O.co2 1 <1>  -0.9000 
 17 C       -5.2940    -9.1960     0.5010 C.3   1 <1>   0.2090 
 18 C       -6.4590    -7.4260    -0.6440 C.3   1 <1>   0.2090 
 19 C       -6.6190    -9.7720    -0.0110 C.3   1 <1>   0.0000 
 20 C       -6.9800    -8.7780    -1.1260 C.3   1 <1>  -0.1600 
 21 C       -7.6720    -9.7490     1.1190 C.3   1 <1>  -0.1600 
 22 C       -6.4720   -11.2100    -0.5360 C.3   1 <1>  -0.1600 
 23 C       -8.9980   -10.3730     0.6910 C.3   1 <1>   0.3430 
 24 C       -7.8210   -11.7950    -0.9550 C.3   1 <1>   0.3430 
 25 N       -8.7660   -11.7650     0.2010 N.4   1 <1>  -0.9590 
 26 C      -10.0590   -12.4290    -0.1470 C.3   1 <1>   0.2630 
 27 H       -2.5780    -0.6390    -0.0340 H     1 <1>   0.1500 
 28 H        0.8110    -2.7560     1.4280 H     1 <1>   0.1500 
 29 H       -3.8590    -2.7160    -0.1080 H     1 <1>   0.1500 
 30 H       -0.4720    -4.8530     1.3660 H     1 <1>   0.1500 
 31 H       -5.0720    -9.4970     1.5110 H     1 <1>   0.0800 
 32 H       -4.4810    -9.4830    -0.1450 H     1 <1>   0.0800 
 33 H       -5.9920    -6.8820    -1.4500 H     1 <1>   0.0800 
 34 H       -7.2550    -6.8270    -0.2340 H     1 <1>   0.0800 
 35 H       -6.4500    -9.0180    -2.0310 H     1 <1>   0.0800 
 36 H       -8.0280    -8.7220    -1.3520 H     1 <1>   0.0800 
 37 H       -7.8510    -8.7340     1.4340 H     1 <1>   0.0800 
 38 H       -7.2990   -10.2760     1.9790 H     1 <1>   0.0800 
 39 H       -6.0340   -11.8360     0.2220 H     1 <1>   0.0800 
 40 H       -5.8050   -11.2230    -1.3810 H     1 <1>   0.0800 
 41 H       -9.4390    -9.7770    -0.0920 H     1 <1>   0.0800 
 42 H       -9.6750   -10.3820     1.5300 H     1 <1>   0.0800 
 43 H       -7.6820   -12.8100    -1.2930 H     1 <1>   0.0800 
 44 H       -8.2240   -11.2180    -1.7720 H     1 <1>   0.0800 
 45 H       -8.3240   -12.2850     0.9720 H     1 <1>   0.4500 
 46 H      -10.5460   -11.9020    -0.9510 H     1 <1>   0.0800 
 47 H      -10.7160   -12.4380     0.7080 H     1 <1>   0.0800 
 48 H       -9.8860   -13.4470    -0.4560 H     1 <1>   0.0800 
@<TRIPOS>BOND
  1   1   2  1   
  2   2   3  ar  
  3   2   4  ar  
  4   3   5  ar  
  5   3  27  1   
  6   4   6  ar  
  7   4  28  1   
  8   5   7  ar  
  9   5  29  1   
 10   6   7  ar  
 11   6  30  1   
 12   7   8  1   
 13   8   9  1   
 14   8  10  2   
 15   9  11  1   
 16  10  12  1   
 17  10  13  1   
 18  11  12  2   
 19  12  14  1   
 20  13  15  ar  
 21  13  16  ar  
 22  14  17  1   
 23  14  18  1   
 24  17  19  1   
 25  17  31  1   
 26  17  32  1   
 27  18  20  1   
 28  18  33  1   
 29  18  34  1   
 30  19  20  1   
 31  19  21  1   
 32  19  22  1   
 33  20  35  1   
 34  20  36  1   
 35  21  23  1   
 36  21  37  1   
 37  21  38  1   
 38  22  24  1   
 39  22  39  1   
 40  22  40  1   
 41  23  25  1   
 42  23  41  1   
 43  23  42  1   
 44  24  25  1   
 45  24  43  1   
 46  24  44  1   
 47  25  26  1   
 48  25  45  1   
 49  26  46  1   
 50  26  47  1   
 51  26  48  1   
@<TRIPOS>SUBSTRUCTURE
  1 ****  12 GROUP 4 **** **** 0

# MOE 2024.06 (io_trps.svl 2023.06)
