@<TRIPOS>MOLECULE
F6660-5571
26 26 1 0 0 
SMALL
USER_CHARGES


@<TRIPOS>ATOM
  1 O        0.2650    -0.4500     1.1130 O.2   1 <1>  -0.5700 
  2 C        0.6060    -1.5200     0.6440 C.2   1 <1>   0.8060 
  3 O        1.8180    -1.6090     0.0800 O.3   1 <1>  -0.4300 
  4 C       -0.2010    -2.7210     0.6450 C.2   1 <1>   0.1410 
  5 C        2.6900    -0.5020     0.0220 C.3   1 <1>   0.1200 
  6 N       -1.4430    -2.7990     1.1730 N.2   1 <1>  -0.2270 
  7 C        0.0990    -3.9460     0.1480 C.2   1 <1>  -0.3020 
  8 C        3.9710    -0.9450    -0.6780 C.3   1 <1>  -0.2400 
  9 N       -1.8890    -3.9930     1.0160 N.2   1 <1>  -0.4180 
 10 N       -0.9580    -4.7150     0.3880 N.pl3 1 <1>   0.3140 
 11 C       -1.1570    -6.1500     0.0500 C.3   1 <1>   0.1760 
 12 C       -0.1160    -7.0250     0.7620 C.3   1 <1>  -0.2400 
 13 C       -1.1060    -6.3620    -1.4690 C.3   1 <1>  -0.2400 
 14 H        2.8930    -0.1730     1.0280 H     1 <1>   0.0800 
 15 H        2.2040     0.2890    -0.5260 H     1 <1>   0.0800 
 16 H        0.9900    -4.2830    -0.3480 H     1 <1>   0.1500 
 17 H        4.4400    -1.7400    -0.1260 H     1 <1>   0.0800 
 18 H        4.6560    -0.1190    -0.7360 H     1 <1>   0.0800 
 19 H        3.7520    -1.2790    -1.6760 H     1 <1>   0.0800 
 20 H       -2.1360    -6.4280     0.4020 H     1 <1>   0.0800 
 21 H        0.8780    -6.7910     0.4240 H     1 <1>   0.0800 
 22 H       -0.3080    -8.0640     0.5590 H     1 <1>   0.0800 
 23 H       -0.1730    -6.8740     1.8250 H     1 <1>   0.0800 
 24 H       -0.1350    -6.1120    -1.8600 H     1 <1>   0.0800 
 25 H       -1.8490    -5.7520    -1.9510 H     1 <1>   0.0800 
 26 H       -1.3120    -7.3910    -1.7040 H     1 <1>   0.0800 
@<TRIPOS>BOND
  1   1   2  2   
  2   2   3  1   
  3   2   4  1   
  4   3   5  1   
  5   4   6  1   
  6   4   7  2   
  7   5   8  1   
  8   5  14  1   
  9   5  15  1   
 10   6   9  2   
 11   7  10  1   
 12   7  16  1   
 13   8  17  1   
 14   8  18  1   
 15   8  19  1   
 16   9  10  1   
 17  10  11  1   
 18  11  12  1   
 19  11  13  1   
 20  11  20  1   
 21  12  21  1   
 22  12  22  1   
 23  12  23  1   
 24  13  24  1   
 25  13  25  1   
 26  13  26  1   
@<TRIPOS>SUBSTRUCTURE
  1 ****   7 GROUP 4 **** **** 0

# MOE 2024.06 (io_trps.svl 2023.06)
