@<TRIPOS>MOLECULE
NONAME
49 52 1 0 0 
SMALL
USER_CHARGES


@<TRIPOS>ATOM
  1 O       -1.4110    -1.0060    -2.4840 O.2   1 <1>  -0.5700 
  2 C       -1.9670    -1.3110    -1.4550 C.2   1 <1>   0.5690 
  3 N       -1.9110    -0.5280    -0.3400 N.am  1 <1>  -0.6600 
  4 C       -2.7390    -2.6110    -1.4350 C.3   1 <1>  -0.0190 
  5 C       -2.6700    -0.8660     0.8990 C.3   1 <1>   0.2200 
  6 C       -1.1360     0.7460    -0.3070 C.3   1 <1>   0.0600 
  7 C       -2.1240    -3.5860    -0.4120 C.3   1 <1>   0.1200 
  8 C       -4.2570    -2.3480    -1.3640 C.3   1 <1>   0.1400 
  9 C       -2.1530    -2.1820     1.5390 C.3   1 <1>   0.1200 
 10 C       -4.1950    -0.7910     0.6450 C.3   1 <1>   0.1400 
 11 O       -2.5460    -3.3700     0.9000 O.3   1 <1>  -0.5600 
 12 N       -4.7790    -2.0130     0.0000 N.am  1 <1>  -0.6600 
 13 C       -5.5810    -2.8440     0.7450 C.2   1 <1>   0.5690 
 14 O       -6.0810    -2.4790     1.7850 O.2   1 <1>  -0.5700 
 15 C       -5.8550    -4.2680     0.2870 C.3   1 <1>  -0.0990 
 16 C       -6.3890    -5.1720     1.4080 C.3   1 <1>   0.0200 
 17 C       -6.5550    -6.5950     0.9150 C.2   1 <1>   0.2980 
 18 O       -5.4840    -7.3090     0.6850 O.3   1 <1>  -0.0190 
 19 N       -7.6570    -7.1770     0.6870 N.2   1 <1>  -0.5650 
 20 N       -5.9460    -8.4460     0.2710 N.2   1 <1>  -0.4100 
 21 C       -7.2310    -8.3760     0.2740 C.2   1 <1>   0.4620 
 22 C       -8.1400    -9.4410    -0.1170 C.ar  1 <1>   0.0540 
 23 C       -9.5270    -9.2720    -0.0860 C.ar  1 <1>  -0.1500 
 24 C       -7.6610   -10.6810    -0.5440 C.ar  1 <1>  -0.1500 
 25 C      -10.3900   -10.2860    -0.4610 C.ar  1 <1>  -0.1500 
 26 C       -8.5180   -11.7000    -0.9200 C.ar  1 <1>  -0.1500 
 27 C       -9.8860   -11.5040    -0.8790 C.ar  1 <1>  -0.1500 
 28 H       -2.5640    -3.0550    -2.3980 H     1 <1>   0.0800 
 29 H       -2.4550    -0.0900     1.6120 H     1 <1>   0.0800 
 30 H       -0.4130     0.7130     0.4890 H     1 <1>   0.0800 
 31 H       -1.8030     1.5750    -0.1510 H     1 <1>   0.0800 
 32 H       -0.6120     0.9000    -1.2360 H     1 <1>   0.0800 
 33 H       -1.0480    -3.5370    -0.4370 H     1 <1>   0.0800 
 34 H       -2.4170    -4.5900    -0.6630 H     1 <1>   0.0800 
 35 H       -4.7700    -3.2080    -1.7530 H     1 <1>   0.0800 
 36 H       -4.4950    -1.5310    -2.0240 H     1 <1>   0.0800 
 37 H       -2.5400    -2.2440     2.5410 H     1 <1>   0.0800 
 38 H       -1.0790    -2.1680     1.5980 H     1 <1>   0.0800 
 39 H       -4.4130     0.0680     0.0350 H     1 <1>   0.0800 
 40 H       -4.6720    -0.6240     1.5940 H     1 <1>   0.0800 
 41 H       -6.5660    -4.2410    -0.5170 H     1 <1>   0.0800 
 42 H       -4.9380    -4.6930    -0.0730 H     1 <1>   0.0800 
 43 H       -7.3400    -4.8040     1.7500 H     1 <1>   0.0800 
 44 H       -5.7080    -5.1660     2.2410 H     1 <1>   0.0800 
 45 H       -9.9360    -8.3310     0.2370 H     1 <1>   0.1500 
 46 H       -6.5990   -10.8510    -0.5810 H     1 <1>   0.1500 
 47 H      -11.4540   -10.1280    -0.4260 H     1 <1>   0.1500 
 48 H       -8.1200   -12.6460    -1.2440 H     1 <1>   0.1500 
 49 H      -10.5550   -12.2950    -1.1710 H     1 <1>   0.1500 
@<TRIPOS>BOND
  1   1   2  2   
  2   2   3  am  
  3   2   4  1   
  4   3   5  1   
  5   3   6  1   
  6   4   7  1   
  7   4   8  1   
  8   4  28  1   
  9   5   9  1   
 10   5  10  1   
 11   5  29  1   
 12   6  30  1   
 13   6  31  1   
 14   6  32  1   
 15   7  11  1   
 16   7  33  1   
 17   7  34  1   
 18   8  12  1   
 19   8  35  1   
 20   8  36  1   
 21   9  11  1   
 22   9  37  1   
 23   9  38  1   
 24  10  12  1   
 25  10  39  1   
 26  10  40  1   
 27  12  13  am  
 28  13  14  2   
 29  13  15  1   
 30  15  16  1   
 31  15  41  1   
 32  15  42  1   
 33  16  17  1   
 34  16  43  1   
 35  16  44  1   
 36  17  18  1   
 37  17  19  2   
 38  18  20  1   
 39  19  21  1   
 40  20  21  2   
 41  21  22  1   
 42  22  23  ar  
 43  22  24  ar  
 44  23  25  ar  
 45  23  45  1   
 46  24  26  ar  
 47  24  46  1   
 48  25  27  ar  
 49  25  47  1   
 50  26  27  ar  
 51  26  48  1   
 52  27  49  1   
@<TRIPOS>SUBSTRUCTURE
  1 ****  15 GROUP 4 **** **** 0

# MOE 2024.06 (io_trps.svl 2023.06)
