@<TRIPOS>MOLECULE
NONAME
53 55 1 0 0 
SMALL
USER_CHARGES


@<TRIPOS>ATOM
  1 CL       6.2430     2.0560     3.3990 Cl    1 <1>  -0.1770 
  2 C        5.2700     2.3810     1.9880 C.ar  1 <1>   0.1770 
  3 C        5.1410     3.6810     1.5400 C.ar  1 <1>  -0.1500 
  4 C        4.6450     1.3320     1.3400 C.ar  1 <1>  -0.1500 
  5 C        4.3730     3.9420     0.4170 C.ar  1 <1>   0.0830 
  6 C        3.8720     1.5920     0.2210 C.ar  1 <1>  -0.1500 
  7 O        4.2990     5.2350     0.0230 O.3   1 <1>  -0.3630 
  8 C        3.7340     2.8920    -0.2410 C.ar  1 <1>  -0.1500 
  9 C        3.6290     5.6120    -1.1730 C.3   1 <1>   0.1810 
 10 C        3.8230     7.0950    -1.4880 C.2   1 <1>   0.5690 
 11 O        2.8170     7.7550    -1.6170 O.2   1 <1>  -0.5700 
 12 N        5.0740     7.6490    -1.6600 N.am  1 <1>  -0.6600 
 13 C        6.3460     6.8670    -1.5690 C.3   1 <1>   0.1400 
 14 C        5.2030     9.1030    -1.9740 C.3   1 <1>   0.1400 
 15 C        6.9670     6.9570    -0.1650 C.3   1 <1>   0.1100 
 16 C        6.4670     9.7650    -1.4100 C.3   1 <1>  -0.1600 
 17 N        7.6750     8.2260     0.0950 N.3   1 <1>  -0.8100 
 18 C        6.7770     9.3940     0.0430 C.3   1 <1>   0.1100 
 19 C        8.3540     8.1500     1.4260 C.3   1 <1>   0.1710 
 20 C        9.2600     9.3360     1.8050 C.2   1 <1>   0.5690 
 21 O        9.0020     9.9160     2.8360 O.2   1 <1>  -0.5700 
 22 N       10.3220     9.7210     1.0210 N.am  1 <1>  -0.6600 
 23 C       11.1680    10.9010     1.3680 C.3   1 <1>   0.1400 
 24 C       10.6840     9.0980    -0.2880 C.3   1 <1>   0.1400 
 25 C       12.6580    10.5860     1.1640 C.3   1 <1>   0.1200 
 26 C       12.2050     8.9000    -0.4010 C.3   1 <1>   0.1200 
 27 O       12.8880    10.0900    -0.1240 O.3   1 <1>  -0.5600 
 28 H        5.6300     4.4820     2.0600 H     1 <1>   0.1500 
 29 H        4.7620     0.3290     1.7110 H     1 <1>   0.1500 
 30 H        3.3770     0.7830    -0.2890 H     1 <1>   0.1500 
 31 H        3.1230     3.0620    -1.1070 H     1 <1>   0.1500 
 32 H        2.5820     5.4090    -1.0440 H     1 <1>   0.0800 
 33 H        4.0150     5.0250    -1.9850 H     1 <1>   0.0800 
 34 H        7.0520     7.2150    -2.3020 H     1 <1>   0.0800 
 35 H        6.1500     5.8340    -1.7880 H     1 <1>   0.0800 
 36 H        4.3500     9.6220    -1.5690 H     1 <1>   0.0800 
 37 H        5.1800     9.2300    -3.0420 H     1 <1>   0.0800 
 38 H        7.6760     6.1520    -0.0770 H     1 <1>   0.0800 
 39 H        6.2030     6.8030     0.5770 H     1 <1>   0.0800 
 40 H        6.3110    10.8270    -1.4560 H     1 <1>   0.0800 
 41 H        7.3170     9.5520    -2.0330 H     1 <1>   0.0800 
 42 H        5.8710     9.2080     0.5970 H     1 <1>   0.0800 
 43 H        7.2670    10.2420     0.4910 H     1 <1>   0.0800 
 44 H        8.9660     7.2680     1.4570 H     1 <1>   0.0800 
 45 H        7.6060     8.0490     2.1930 H     1 <1>   0.0800 
 46 H       11.0060    11.1940     2.3910 H     1 <1>   0.0800 
 47 H       10.8920    11.7290     0.7390 H     1 <1>   0.0800 
 48 H       10.3490     9.7390    -1.0850 H     1 <1>   0.0800 
 49 H       10.2030     8.1460    -0.4080 H     1 <1>   0.0800 
 50 H       12.9910     9.8560     1.8820 H     1 <1>   0.0800 
 51 H       13.2450    11.4790     1.2830 H     1 <1>   0.0800 
 52 H       12.4660     8.5980    -1.4000 H     1 <1>   0.0800 
 53 H       12.5390     8.1440     0.2870 H     1 <1>   0.0800 
@<TRIPOS>BOND
  1   1   2  1   
  2   2   3  ar  
  3   2   4  ar  
  4   3   5  ar  
  5   3  28  1   
  6   4   6  ar  
  7   4  29  1   
  8   5   7  1   
  9   5   8  ar  
 10   6   8  ar  
 11   6  30  1   
 12   7   9  1   
 13   8  31  1   
 14   9  10  1   
 15   9  32  1   
 16   9  33  1   
 17  10  11  2   
 18  10  12  am  
 19  12  13  1   
 20  12  14  1   
 21  13  15  1   
 22  13  34  1   
 23  13  35  1   
 24  14  16  1   
 25  14  36  1   
 26  14  37  1   
 27  15  17  1   
 28  15  38  1   
 29  15  39  1   
 30  16  18  1   
 31  16  40  1   
 32  16  41  1   
 33  17  18  1   
 34  17  19  1   
 35  18  42  1   
 36  18  43  1   
 37  19  20  1   
 38  19  44  1   
 39  19  45  1   
 40  20  21  2   
 41  20  22  am  
 42  22  23  1   
 43  22  24  1   
 44  23  25  1   
 45  23  46  1   
 46  23  47  1   
 47  24  26  1   
 48  24  48  1   
 49  24  49  1   
 50  25  27  1   
 51  25  50  1   
 52  25  51  1   
 53  26  27  1   
 54  26  52  1   
 55  26  53  1   
@<TRIPOS>SUBSTRUCTURE
  1 ****  15 GROUP 4 **** **** 0

# MOE 2024.06 (io_trps.svl 2023.06)
