@<TRIPOS>MOLECULE
NONAME
46 48 1 0 0 
SMALL
USER_CHARGES


@<TRIPOS>ATOM
  1 O       -1.7390     0.3300    -2.1880 O.2   1 <1>  -0.5700 
  2 C       -1.7560     0.6400    -1.0150 C.2   1 <1>   0.5440 
  3 N       -1.8040    -0.3580    -0.0840 N.am  1 <1>  -0.7300 
  4 C       -1.7390     2.0300    -0.6270 C.ar  1 <1>   0.0860 
  5 C       -1.8680    -1.8090    -0.3850 C.3   1 <1>   0.2200 
  6 C       -2.1730     2.4770     0.6070 C.ar  1 <1>   0.1600 
  7 C       -1.2920     3.0210    -1.4800 C.ar  1 <1>   0.1600 
  8 C       -3.2670    -2.3580    -0.1330 C.3   1 <1>  -0.0800 
  9 C       -1.0830    -2.5560     0.6840 C.3   1 <1>   0.1200 
 10 N       -2.1580     3.7410     0.9660 N.ar  1 <1>  -0.6200 
 11 N       -1.2610     4.2960    -1.1550 N.ar  1 <1>  -0.6200 
 12 C       -3.2620    -2.6410     1.3750 C.3   1 <1>   0.1200 
 13 C       -4.4340    -1.4730    -0.6110 C.3   1 <1>  -0.0170 
 14 O       -1.9290    -2.5730     1.7930 O.3   1 <1>  -0.5600 
 15 C       -1.6980     4.5950     0.0600 C.ar  1 <1>   0.4770 
 16 C       -5.7710    -2.1510    -0.3570 C.ar  1 <1>  -0.1430 
 17 C       -1.6650     6.0800     0.4460 C.3   1 <1>   0.0630 
 18 C       -6.2570    -3.1340    -1.1940 C.ar  1 <1>  -0.1500 
 19 C       -6.5670    -1.8200     0.7220 C.ar  1 <1>  -0.1500 
 20 C       -0.7340     6.3400     1.6420 C.3   1 <1>  -0.2400 
 21 C       -3.0720     6.6250     0.7410 C.3   1 <1>  -0.2400 
 22 C       -7.4780    -3.7270    -0.9180 C.ar  1 <1>   0.1600 
 23 C       -7.7730    -2.4750     0.9080 C.ar  1 <1>   0.1600 
 24 N       -8.2460    -3.4220     0.1150 N.ar  1 <1>  -0.6200 
 25 H       -1.7440    -0.1670     0.9190 H     1 <1>   0.3700 
 26 H       -1.5080    -2.0160    -1.3790 H     1 <1>   0.0800 
 27 H       -2.5520     1.7710     1.3250 H     1 <1>   0.1500 
 28 H       -0.9480     2.7450    -2.4640 H     1 <1>   0.1500 
 29 H       -3.3410    -3.3070    -0.6350 H     1 <1>   0.0800 
 30 H       -0.1550    -2.0750     0.9380 H     1 <1>   0.0800 
 31 H       -0.9020    -3.5750     0.3870 H     1 <1>   0.0800 
 32 H       -3.6500    -3.6210     1.5970 H     1 <1>   0.0800 
 33 H       -3.8140    -1.8990     1.9250 H     1 <1>   0.0800 
 34 H       -4.3260    -1.2790    -1.6640 H     1 <1>   0.0800 
 35 H       -4.4200    -0.5240    -0.1060 H     1 <1>   0.0800 
 36 H       -1.2750     6.6290    -0.3940 H     1 <1>   0.0800 
 37 H       -5.6990    -3.4440    -2.0590 H     1 <1>   0.1500 
 38 H       -6.2640    -1.0610     1.4190 H     1 <1>   0.1500 
 39 H       -1.0980     5.8320     2.5180 H     1 <1>   0.0800 
 40 H       -0.6740     7.3930     1.8500 H     1 <1>   0.0800 
 41 H        0.2540     5.9760     1.4210 H     1 <1>   0.0800 
 42 H       -3.4980     6.1250     1.5940 H     1 <1>   0.0800 
 43 H       -3.7130     6.4610    -0.1070 H     1 <1>   0.0800 
 44 H       -3.0320     7.6810     0.9430 H     1 <1>   0.0800 
 45 H       -7.8410    -4.4920    -1.5820 H     1 <1>   0.1500 
 46 H       -8.3810    -2.2050     1.7540 H     1 <1>   0.1500 
@<TRIPOS>BOND
  1   1   2  2   
  2   2   3  am  
  3   2   4  1   
  4   3   5  1   
  5   3  25  1   
  6   4   6  ar  
  7   4   7  ar  
  8   5   8  1   
  9   5   9  1   
 10   5  26  1   
 11   6  10  ar  
 12   6  27  1   
 13   7  11  ar  
 14   7  28  1   
 15   8  12  1   
 16   8  13  1   
 17   8  29  1   
 18   9  14  1   
 19   9  30  1   
 20   9  31  1   
 21  10  15  ar  
 22  11  15  ar  
 23  12  14  1   
 24  12  32  1   
 25  12  33  1   
 26  13  16  1   
 27  13  34  1   
 28  13  35  1   
 29  15  17  1   
 30  16  18  ar  
 31  16  19  ar  
 32  17  20  1   
 33  17  21  1   
 34  17  36  1   
 35  18  22  ar  
 36  18  37  1   
 37  19  23  ar  
 38  19  38  1   
 39  20  39  1   
 40  20  40  1   
 41  20  41  1   
 42  21  42  1   
 43  21  43  1   
 44  21  44  1   
 45  22  24  ar  
 46  22  45  1   
 47  23  24  ar  
 48  23  46  1   
@<TRIPOS>SUBSTRUCTURE
  1 ****   3 GROUP 4 **** **** 0

# MOE 2024.06 (io_trps.svl 2023.06)
