@<TRIPOS>MOLECULE
NONAME
49 51 1 0 0 
SMALL
USER_CHARGES


@<TRIPOS>ATOM
  1 O       -1.8810     0.2640    -2.2810 O.2   1 <1>  -0.5700 
  2 C       -1.7740     0.4600    -1.0850 C.2   1 <1>   0.5440 
  3 N       -1.8030    -0.6270    -0.2590 N.am  1 <1>  -0.7300 
  4 C       -1.6280     1.8060    -0.5560 C.ar  1 <1>   0.0860 
  5 C       -1.9280    -2.0380    -0.6960 C.3   1 <1>   0.2200 
  6 C       -1.8790     2.1130     0.7850 C.ar  1 <1>  -0.1500 
  7 C       -1.2300     2.8590    -1.3830 C.ar  1 <1>  -0.1500 
  8 C       -3.3350    -2.5680    -0.4560 C.3   1 <1>  -0.0800 
  9 C       -1.1350    -2.9170     0.2600 C.3   1 <1>   0.1200 
 10 C       -1.7300     3.3990     1.2700 C.ar  1 <1>  -0.1500 
 11 C       -1.0790     4.1480    -0.9050 C.ar  1 <1>  -0.1500 
 12 C       -3.2960    -2.9990     1.0150 C.3   1 <1>   0.1200 
 13 C       -4.4860    -1.6060    -0.8060 C.3   1 <1>  -0.0160 
 14 O       -1.9480    -3.0500     1.3860 O.3   1 <1>  -0.5600 
 15 C       -1.3290     4.4270     0.4340 C.ar  1 <1>   0.0830 
 16 C       -5.8350    -2.2780    -0.6060 C.ar  1 <1>  -0.1430 
 17 O       -1.2080     5.6540     0.9860 O.3   1 <1>  -0.3630 
 18 C       -6.3670    -3.1320    -1.5510 C.ar  1 <1>  -0.1500 
 19 C       -6.5970    -2.0740     0.5270 C.ar  1 <1>  -0.1500 
 20 C       -0.8130     6.7740     0.2270 C.3   1 <1>   0.1200 
 21 C       -7.5960    -3.7280    -1.3230 C.ar  1 <1>   0.1600 
 22 C       -7.8150    -2.7200     0.6580 C.ar  1 <1>   0.1600 
 23 C       -0.7800     7.9920     1.1510 C.3   1 <1>  -0.1600 
 24 N       -8.3320    -3.5440    -0.2390 N.ar  1 <1>  -0.6200 
 25 C       -0.3560     9.2550     0.3940 C.3   1 <1>  -0.2400 
 26 H       -1.6860    -0.5200     0.7500 H     1 <1>   0.3700 
 27 H       -1.6080    -2.1520    -1.7180 H     1 <1>   0.0800 
 28 H       -2.2000     1.3430     1.4610 H     1 <1>   0.1500 
 29 H       -1.0350     2.6560    -2.4220 H     1 <1>   0.1500 
 30 H       -3.4540    -3.4590    -1.0470 H     1 <1>   0.0800 
 31 H       -0.1900    -2.4850     0.5400 H     1 <1>   0.0800 
 32 H       -0.9830    -3.8970    -0.1570 H     1 <1>   0.0800 
 33 H       -1.9250     3.6190     2.3050 H     1 <1>   0.1500 
 34 H       -0.7690     4.9180    -1.5870 H     1 <1>   0.1500 
 35 H       -3.7370    -3.9710     1.1570 H     1 <1>   0.0800 
 36 H       -3.7820    -2.2820     1.6540 H     1 <1>   0.0800 
 37 H       -4.3900    -1.2950    -1.8320 H     1 <1>   0.0800 
 38 H       -4.4370    -0.7210    -0.1970 H     1 <1>   0.0800 
 39 H       -5.8370    -3.3380    -2.4630 H     1 <1>   0.1500 
 40 H       -6.2570    -1.4190     1.3080 H     1 <1>   0.1500 
 41 H        0.1640     6.5790    -0.1810 H     1 <1>   0.0800 
 42 H       -1.5280     6.9160    -0.5650 H     1 <1>   0.0800 
 43 H       -7.9940    -4.3900    -2.0720 H     1 <1>   0.1500 
 44 H       -8.3960    -2.5490     1.5480 H     1 <1>   0.1500 
 45 H       -1.7590     8.1420     1.5720 H     1 <1>   0.0800 
 46 H       -0.0850     7.8080     1.9520 H     1 <1>   0.0800 
 47 H       -1.0470     9.4680    -0.4020 H     1 <1>   0.0800 
 48 H        0.6290     9.1340    -0.0220 H     1 <1>   0.0800 
 49 H       -0.3410    10.0960     1.0660 H     1 <1>   0.0800 
@<TRIPOS>BOND
  1   1   2  2   
  2   2   3  am  
  3   2   4  1   
  4   3   5  1   
  5   3  26  1   
  6   4   6  ar  
  7   4   7  ar  
  8   5   8  1   
  9   5   9  1   
 10   5  27  1   
 11   6  10  ar  
 12   6  28  1   
 13   7  11  ar  
 14   7  29  1   
 15   8  12  1   
 16   8  13  1   
 17   8  30  1   
 18   9  14  1   
 19   9  31  1   
 20   9  32  1   
 21  10  15  ar  
 22  10  33  1   
 23  11  15  ar  
 24  11  34  1   
 25  12  14  1   
 26  12  35  1   
 27  12  36  1   
 28  13  16  1   
 29  13  37  1   
 30  13  38  1   
 31  15  17  1   
 32  16  18  ar  
 33  16  19  ar  
 34  17  20  1   
 35  18  21  ar  
 36  18  39  1   
 37  19  22  ar  
 38  19  40  1   
 39  20  23  1   
 40  20  41  1   
 41  20  42  1   
 42  21  24  ar  
 43  21  43  1   
 44  22  24  ar  
 45  22  44  1   
 46  23  25  1   
 47  23  45  1   
 48  23  46  1   
 49  25  47  1   
 50  25  48  1   
 51  25  49  1   
@<TRIPOS>SUBSTRUCTURE
  1 ****   2 GROUP 4 **** **** 0

# MOE 2024.06 (io_trps.svl 2023.06)
