@<TRIPOS>MOLECULE
NONAME
43 45 1 0 0 
SMALL
USER_CHARGES


@<TRIPOS>ATOM
  1 CL       1.7390     0.1270    -0.0280 Cl    1 <1>  -0.1770 
  2 C        1.5070    -1.4210    -0.8210 C.ar  1 <1>   0.1770 
  3 C        0.4240    -2.2380    -0.5140 C.ar  1 <1>   0.4100 
  4 C        2.4000    -1.8600    -1.7580 C.ar  1 <1>   0.1600 
  5 N        0.2830    -3.4220    -1.0930 N.ar  1 <1>  -0.6200 
  6 N       -0.5460    -1.8970     0.4100 N.pl3 1 <1>  -0.8380 
  7 N        2.2520    -3.0280    -2.3630 N.ar  1 <1>  -0.6200 
  8 C        1.1950    -3.7330    -2.0010 C.ar  1 <1>   0.4770 
  9 C       -0.2640    -2.2060     1.8490 C.3   1 <1>   0.2090 
 10 C       -1.9910    -2.0740     0.0240 C.3   1 <1>   0.2090 
 11 C        1.0160    -5.0550    -2.7090 C.3   1 <1>  -0.0960 
 12 C       -0.8220    -3.5950     2.2610 C.3   1 <1>   0.3430 
 13 C       -2.5660    -3.4300     0.5070 C.3   1 <1>   0.3430 
 14 N       -1.4880    -4.2880     1.1090 N.4   1 <1>  -0.9590 
 15 C       -1.9110    -5.6990     1.3630 C.3   1 <1>   0.4860 
 16 C       -2.2150    -6.4330     0.0590 C.ar  1 <1>   0.1670 
 17 N       -3.4370    -6.2450    -0.4260 N.ar  1 <1>  -0.6200 
 18 C       -1.2440    -7.2300    -0.5470 C.ar  1 <1>  -0.1440 
 19 C       -3.7170    -6.8810    -1.5520 C.ar  1 <1>   0.1600 
 20 C       -1.5620    -7.8790    -1.7240 C.ar  1 <1>  -0.1500 
 21 C        0.1520    -7.4170     0.0370 C.3   1 <1>  -0.0970 
 22 C       -2.8290    -7.6950    -2.2300 C.ar  1 <1>  -0.1500 
 23 H        3.2480    -1.2520    -2.0220 H     1 <1>   0.1500 
 24 H       -0.7030    -1.4420     2.4680 H     1 <1>   0.0800 
 25 H        0.7990    -2.1840     2.0230 H     1 <1>   0.0800 
 26 H       -2.0850    -2.0180    -1.0480 H     1 <1>   0.0800 
 27 H       -2.5740    -1.2670     0.4340 H     1 <1>   0.0800 
 28 H        0.0010    -5.3960    -2.6250 H     1 <1>   0.0800 
 29 H        1.6750    -5.7850    -2.2800 H     1 <1>   0.0800 
 30 H        1.2540    -4.9420    -3.7510 H     1 <1>   0.0800 
 31 H       -1.5240    -3.4670     3.0680 H     1 <1>   0.0800 
 32 H       -0.0070    -4.1970     2.6280 H     1 <1>   0.0800 
 33 H       -3.0090    -3.9280    -0.3400 H     1 <1>   0.0800 
 34 H       -3.3470    -3.2560     1.2270 H     1 <1>   0.0800 
 35 H       -0.7770    -4.2890     0.3470 H     1 <1>   0.4500 
 36 H       -2.7940    -5.7130     1.9810 H     1 <1>   0.0800 
 37 H       -1.1300    -6.2240     1.8840 H     1 <1>   0.0800 
 38 H       -4.7060    -6.7500    -1.9580 H     1 <1>   0.1500 
 39 H       -0.8570    -8.5120    -2.2360 H     1 <1>   0.1500 
 40 H        0.6290    -6.4660     0.1930 H     1 <1>   0.0800 
 41 H        0.7710    -7.9900    -0.6310 H     1 <1>   0.0800 
 42 H        0.0970    -7.9470     0.9710 H     1 <1>   0.0800 
 43 H       -3.1300    -8.1800    -3.1410 H     1 <1>   0.1500 
@<TRIPOS>BOND
  1   1   2  1   
  2   2   3  ar  
  3   2   4  ar  
  4   3   5  ar  
  5   3   6  1   
  6   4   7  ar  
  7   4  23  1   
  8   5   8  ar  
  9   6   9  1   
 10   6  10  1   
 11   7   8  ar  
 12   8  11  1   
 13   9  12  1   
 14   9  24  1   
 15   9  25  1   
 16  10  13  1   
 17  10  26  1   
 18  10  27  1   
 19  11  28  1   
 20  11  29  1   
 21  11  30  1   
 22  12  14  1   
 23  12  31  1   
 24  12  32  1   
 25  13  14  1   
 26  13  33  1   
 27  13  34  1   
 28  14  15  1   
 29  14  35  1   
 30  15  16  1   
 31  15  36  1   
 32  15  37  1   
 33  16  17  ar  
 34  16  18  ar  
 35  17  19  ar  
 36  18  20  ar  
 37  18  21  1   
 38  19  22  ar  
 39  19  38  1   
 40  20  22  ar  
 41  20  39  1   
 42  21  40  1   
 43  21  41  1   
 44  21  42  1   
 45  22  43  1   
@<TRIPOS>SUBSTRUCTURE
  1 ****   5 GROUP 4 **** **** 0

# MOE 2024.06 (io_trps.svl 2023.06)
