@<TRIPOS>MOLECULE
NONAME
48 49 1 0 0 
SMALL
USER_CHARGES


@<TRIPOS>ATOM
  1 CL      -0.7830    -2.1370    -2.3100 Cl    1 <1>  -0.1770 
  2 C        0.6750    -2.2660    -1.3470 C.ar  1 <1>   0.1770 
  3 C        0.6590    -2.8870    -0.1030 C.ar  1 <1>  -0.1440 
  4 C        1.8330    -1.7180    -1.8690 C.ar  1 <1>  -0.1500 
  5 C        1.8480    -2.9420     0.6150 C.ar  1 <1>  -0.1500 
  6 C       -0.6360    -3.4690     0.4620 C.3   1 <1>   0.4040 
  7 C        3.0070    -1.7830    -1.1420 C.ar  1 <1>  -0.1500 
  8 C        3.0120    -2.3950     0.0990 C.ar  1 <1>  -0.1500 
  9 O       -1.0690    -2.5930     1.4600 O.3   1 <1>  -0.6800 
 10 C       -0.6180    -4.9490     0.9370 C.2   1 <1>   0.5690 
 11 O        0.4400    -5.5290     1.0220 O.2   1 <1>  -0.5700 
 12 N       -1.7970    -5.6060     1.2200 N.am  1 <1>  -0.6600 
 13 C       -1.8060    -7.0930     1.4030 C.3   1 <1>   0.3210 
 14 C       -3.1370    -4.9550     1.3560 C.3   1 <1>   0.1400 
 15 C       -2.4330    -7.7730     0.1890 C.2   1 <1>   0.0460 
 16 C       -3.8000    -4.7420    -0.0200 C.3   1 <1>   0.3430 
 17 N       -3.7750    -7.8370     0.0290 N.2   1 <1>  -0.5650 
 18 C       -1.7980    -8.3870    -0.8370 C.2   1 <1>  -0.3320 
 19 N       -4.6990    -3.5380    -0.0680 N.4   1 <1>  -0.9590 
 20 C       -3.9230    -8.5090    -1.0670 C.2   1 <1>   0.0360 
 21 N       -2.7590    -8.8710    -1.6440 N.pl3 1 <1>   0.0330 
 22 C       -0.3150    -8.5660    -1.1240 C.3   1 <1>  -0.0600 
 23 C       -5.4810    -3.5520    -1.3420 C.3   1 <1>   0.2630 
 24 C       -3.9480    -2.2450     0.0620 C.3   1 <1>   0.2630 
 25 H        1.8140    -1.2450    -2.8350 H     1 <1>   0.1500 
 26 H        1.8840    -3.4220     1.5790 H     1 <1>   0.1500 
 27 H       -1.3850    -3.4360    -0.2990 H     1 <1>   0.0800 
 28 H        3.9150    -1.3600    -1.5390 H     1 <1>   0.1500 
 29 H        3.9260    -2.4500     0.6660 H     1 <1>   0.1500 
 30 H       -0.3030    -2.3940     2.0380 H     1 <1>   0.4000 
 31 H       -2.3660    -7.3510     2.2840 H     1 <1>   0.0800 
 32 H       -0.8080    -7.4670     1.5420 H     1 <1>   0.0800 
 33 H       -3.0220    -4.0250     1.8790 H     1 <1>   0.0800 
 34 H       -3.7770    -5.5800     1.9540 H     1 <1>   0.0800 
 35 H       -4.3730    -5.6220    -0.2580 H     1 <1>   0.0800 
 36 H       -3.0310    -4.6430    -0.7670 H     1 <1>   0.0800 
 37 H       -5.3670    -3.6120     0.7150 H     1 <1>   0.4500 
 38 H       -4.8750    -8.7730    -1.4950 H     1 <1>   0.1500 
 39 H       -2.6360    -9.4130    -2.5050 H     1 <1>   0.2700 
 40 H        0.2830    -8.0510    -0.3930 H     1 <1>   0.0800 
 41 H       -0.0730    -8.1680    -2.0930 H     1 <1>   0.0800 
 42 H       -0.0550    -9.6100    -1.1020 H     1 <1>   0.0800 
 43 H       -4.8180    -3.4800    -2.1890 H     1 <1>   0.0800 
 44 H       -6.1670    -2.7210    -1.3700 H     1 <1>   0.0800 
 45 H       -6.0470    -4.4660    -1.4230 H     1 <1>   0.0800 
 46 H       -3.2260    -2.1460    -0.7330 H     1 <1>   0.0800 
 47 H       -3.4270    -2.1990     1.0050 H     1 <1>   0.0800 
 48 H       -4.6280    -1.4100     0.0120 H     1 <1>   0.0800 
@<TRIPOS>BOND
  1   1   2  1   
  2   2   3  ar  
  3   2   4  ar  
  4   3   5  ar  
  5   3   6  1   
  6   4   7  ar  
  7   4  25  1   
  8   5   8  ar  
  9   5  26  1   
 10   6   9  1   
 11   6  10  1   
 12   6  27  1   
 13   7   8  ar  
 14   7  28  1   
 15   8  29  1   
 16   9  30  1   
 17  10  11  2   
 18  10  12  am  
 19  12  13  1   
 20  12  14  1   
 21  13  15  1   
 22  13  31  1   
 23  13  32  1   
 24  14  16  1   
 25  14  33  1   
 26  14  34  1   
 27  15  17  1   
 28  15  18  2   
 29  16  19  1   
 30  16  35  1   
 31  16  36  1   
 32  17  20  2   
 33  18  21  1   
 34  18  22  1   
 35  19  23  1   
 36  19  24  1   
 37  19  37  1   
 38  20  21  1   
 39  20  38  1   
 40  21  39  1   
 41  22  40  1   
 42  22  41  1   
 43  22  42  1   
 44  23  43  1   
 45  23  44  1   
 46  23  45  1   
 47  24  46  1   
 48  24  47  1   
 49  24  48  1   
@<TRIPOS>SUBSTRUCTURE
  1 ****  10 GROUP 4 **** **** 0

# MOE 2024.06 (io_trps.svl 2023.06)
