@<TRIPOS>MOLECULE
NONAME
47 49 1 0 0 
SMALL
USER_CHARGES


@<TRIPOS>ATOM
  1 O       -1.3480     0.2170     2.2550 O.2   1 <1>  -0.5700 
  2 C       -1.7090     0.6980     1.2080 C.2   1 <1>   0.5690 
  3 N       -2.1280    -0.0750     0.1580 N.am  1 <1>  -0.6600 
  4 C       -1.6670     2.2120     1.0960 C.3   1 <1>  -0.0990 
  5 C       -2.0940    -1.5750     0.2690 C.3   1 <1>   0.3640 
  6 C       -2.6900     0.4830    -1.1140 C.3   1 <1>   0.1400 
  7 C       -0.3590     2.6860     0.4440 C.3   1 <1>  -0.0650 
  8 C       -0.8030    -2.1710    -0.3190 C.ar  1 <1>  -0.1440 
  9 C       -3.3540    -2.2460    -0.3680 C.3   1 <1>   0.2000 
 10 C       -3.1590    -0.6150    -2.0800 C.3   1 <1>   0.1200 
 11 C       -0.3810     4.1880     0.1170 C.3   1 <1>  -0.1900 
 12 C       -0.5000    -3.4910    -0.0070 C.ar  1 <1>  -0.1500 
 13 C        0.0800    -1.4670    -1.1320 C.ar  1 <1>  -0.1500 
 14 O       -3.9800    -1.5030    -1.3930 O.3   1 <1>  -0.5600 
 15 C       -4.4290    -2.5250     0.6890 C.3   1 <1>   0.1200 
 16 C        0.4310     4.6610    -1.0440 C.3   1 <1>  -0.2000 
 17 C       -1.0740     4.6440    -1.1240 C.3   1 <1>  -0.2000 
 18 C       -0.4330     5.0870     1.3590 C.3   1 <1>  -0.1450 
 19 C        0.6370    -4.1000    -0.5080 C.ar  1 <1>  -0.1500 
 20 C        1.2180    -2.0730    -1.6340 C.ar  1 <1>  -0.1500 
 21 O       -4.0340    -3.5800     1.5070 O.3   1 <1>  -0.6800 
 22 C        1.4970    -3.3910    -1.3260 C.ar  1 <1>  -0.1500 
 23 H       -2.5130     2.5690     0.5420 H     1 <1>   0.0800 
 24 H       -1.7390     2.6200     2.0870 H     1 <1>   0.0800 
 25 H       -2.0860    -1.8420     1.3120 H     1 <1>   0.0800 
 26 H       -3.5360     1.1050    -0.8810 H     1 <1>   0.0800 
 27 H       -1.9510     1.0910    -1.6030 H     1 <1>   0.0800 
 28 H       -0.1940     2.1280    -0.4610 H     1 <1>   0.0800 
 29 H        0.4650     2.4700     1.1030 H     1 <1>   0.0800 
 30 H       -3.0710    -3.1840    -0.8120 H     1 <1>   0.0800 
 31 H       -2.3300    -1.1560    -2.5020 H     1 <1>   0.0800 
 32 H       -3.7340    -0.1850    -2.8810 H     1 <1>   0.0800 
 33 H       -1.1530    -4.0560     0.6380 H     1 <1>   0.1500 
 34 H       -0.0990    -0.4390    -1.3790 H     1 <1>   0.1500 
 35 H       -5.3600    -2.7940     0.2230 H     1 <1>   0.0800 
 36 H       -4.5730    -1.6570     1.3090 H     1 <1>   0.0800 
 37 H        0.9310     5.6120    -0.9840 H     1 <1>   0.1000 
 38 H        0.9860     3.9460    -1.6270 H     1 <1>   0.1000 
 39 H       -1.5430     3.9200    -1.7660 H     1 <1>   0.1000 
 40 H       -1.5970     5.5850    -1.1170 H     1 <1>   0.1000 
 41 H       -0.3610     6.1240     1.0810 H     1 <1>   0.0800 
 42 H        0.3860     4.8560     2.0170 H     1 <1>   0.0800 
 43 H       -1.3560     4.9480     1.8900 H     1 <1>   0.0800 
 44 H        0.8540    -5.1240    -0.2580 H     1 <1>   0.1500 
 45 H        1.8910    -1.5160    -2.2630 H     1 <1>   0.1500 
 46 H       -4.1970    -4.4380     1.0670 H     1 <1>   0.4000 
 47 H        2.3820    -3.8620    -1.7160 H     1 <1>   0.1500 
@<TRIPOS>BOND
  1   1   2  2   
  2   2   3  am  
  3   2   4  1   
  4   3   5  1   
  5   3   6  1   
  6   4   7  1   
  7   4  23  1   
  8   4  24  1   
  9   5   8  1   
 10   5   9  1   
 11   5  25  1   
 12   6  10  1   
 13   6  26  1   
 14   6  27  1   
 15   7  11  1   
 16   7  28  1   
 17   7  29  1   
 18   8  12  ar  
 19   8  13  ar  
 20   9  14  1   
 21   9  15  1   
 22   9  30  1   
 23  10  14  1   
 24  10  31  1   
 25  10  32  1   
 26  11  16  1   
 27  11  17  1   
 28  11  18  1   
 29  12  19  ar  
 30  12  33  1   
 31  13  20  ar  
 32  13  34  1   
 33  15  21  1   
 34  15  35  1   
 35  15  36  1   
 36  16  17  1   
 37  16  37  1   
 38  16  38  1   
 39  17  39  1   
 40  17  40  1   
 41  18  41  1   
 42  18  42  1   
 43  18  43  1   
 44  19  22  ar  
 45  19  44  1   
 46  20  22  ar  
 47  20  45  1   
 48  21  46  1   
 49  22  47  1   
@<TRIPOS>SUBSTRUCTURE
  1 ****   3 GROUP 4 **** **** 0

# MOE 2024.06 (io_trps.svl 2023.06)
