@<TRIPOS>MOLECULE
NONAME
50 52 1 0 0 
SMALL
USER_CHARGES


@<TRIPOS>ATOM
  1 F        1.1360     0.0480     2.8050 F     1 <1>  -0.1900 
  2 C        1.9610     0.6480     1.9890 C.ar  1 <1>   0.1900 
  3 C        2.5290    -0.0750     0.9450 C.ar  1 <1>   0.0860 
  4 C        2.2050     1.9900     2.2030 C.ar  1 <1>  -0.1500 
  5 C        3.3700     0.6240     0.0720 C.ar  1 <1>   0.0830 
  6 C        2.2470    -1.4790     0.7800 C.2   1 <1>   0.5440 
  7 C        3.0490     2.6600     1.3370 C.ar  1 <1>  -0.1500 
  8 O        3.9100    -0.0670    -0.9610 O.3   1 <1>  -0.3630 
  9 C        3.6250     1.9810     0.2760 C.ar  1 <1>  -0.1500 
 10 O        2.7050    -2.2910     1.5660 O.2   1 <1>  -0.5700 
 11 N        1.4100    -1.9490    -0.2120 N.am  1 <1>  -0.6600 
 12 C        4.8440     0.5010    -1.8530 C.3   1 <1>   0.0400 
 13 C        1.2230    -3.4090    -0.3860 C.3   1 <1>   0.1400 
 14 C        0.2800    -1.1400    -0.7350 C.3   1 <1>   0.1400 
 15 C        0.0010    -3.8270     0.4570 C.3   1 <1>   0.4230 
 16 C       -0.9760    -1.5270     0.0600 C.3   1 <1>  -0.1600 
 17 N       -0.1810    -5.3330     0.5800 N.4   1 <1>  -0.9590 
 18 C       -1.2890    -3.0560     0.0360 C.3   1 <1>   0.0000 
 19 C       -1.5500    -5.7470     1.0280 C.3   1 <1>   0.3430 
 20 C        0.2400    -6.1330    -0.6160 C.3   1 <1>   0.2630 
 21 C       -2.4180    -3.3520     1.0680 C.3   1 <1>  -0.1600 
 22 C       -1.7280    -3.4900    -1.3910 C.3   1 <1>   0.1200 
 23 C       -2.2070    -4.6530     1.8670 C.3   1 <1>  -0.1600 
 24 O       -2.7600    -2.7020    -1.8750 O.3   1 <1>  -0.6800 
 25 H        1.7420     2.4980     3.0310 H     1 <1>   0.1500 
 26 H        3.2550     3.7070     1.4870 H     1 <1>   0.1500 
 27 H        4.2730     2.5290    -0.3830 H     1 <1>   0.1500 
 28 H        5.1440    -0.2610    -2.5500 H     1 <1>   0.0800 
 29 H        5.6990     0.8410    -1.2960 H     1 <1>   0.0800 
 30 H        4.3770     1.3130    -2.3800 H     1 <1>   0.0800 
 31 H        1.0860    -3.6200    -1.4300 H     1 <1>   0.0800 
 32 H        2.1030    -3.9290    -0.0490 H     1 <1>   0.0800 
 33 H        0.4780    -0.0870    -0.6230 H     1 <1>   0.0800 
 34 H        0.1450    -1.3380    -1.7850 H     1 <1>   0.0800 
 35 H        0.2270    -3.4740     1.4510 H     1 <1>   0.0800 
 36 H       -0.8190    -1.2040     1.0750 H     1 <1>   0.0800 
 37 H       -1.8110    -0.9600    -0.3130 H     1 <1>   0.0800 
 38 H        0.4590    -5.5900     1.3480 H     1 <1>   0.4500 
 39 H       -2.1720    -5.9370     0.1680 H     1 <1>   0.0800 
 40 H       -1.4870    -6.6590     1.6000 H     1 <1>   0.0800 
 41 H       -0.3570    -5.8730    -1.4740 H     1 <1>   0.0800 
 42 H        0.1200    -7.1870    -0.4210 H     1 <1>   0.0800 
 43 H        1.2770    -5.9500    -0.8470 H     1 <1>   0.0800 
 44 H       -2.4990    -2.5490     1.7820 H     1 <1>   0.0800 
 45 H       -3.3710    -3.4010     0.5700 H     1 <1>   0.0800 
 46 H       -2.0720    -4.5090    -1.4050 H     1 <1>   0.0800 
 47 H       -0.9230    -3.3950    -2.0970 H     1 <1>   0.0800 
 48 H       -3.1590    -5.0040     2.2260 H     1 <1>   0.0800 
 49 H       -1.5970    -4.4600     2.7340 H     1 <1>   0.0800 
 50 H       -3.5550    -2.7440    -1.3080 H     1 <1>   0.4000 
@<TRIPOS>BOND
  1   1   2  1   
  2   2   3  ar  
  3   2   4  ar  
  4   3   5  ar  
  5   3   6  1   
  6   4   7  ar  
  7   4  25  1   
  8   5   8  1   
  9   5   9  ar  
 10   6  10  2   
 11   6  11  am  
 12   7   9  ar  
 13   7  26  1   
 14   8  12  1   
 15   9  27  1   
 16  11  13  1   
 17  11  14  1   
 18  12  28  1   
 19  12  29  1   
 20  12  30  1   
 21  13  15  1   
 22  13  31  1   
 23  13  32  1   
 24  14  16  1   
 25  14  33  1   
 26  14  34  1   
 27  15  17  1   
 28  15  18  1   
 29  15  35  1   
 30  16  18  1   
 31  16  36  1   
 32  16  37  1   
 33  17  19  1   
 34  17  20  1   
 35  17  38  1   
 36  18  21  1   
 37  18  22  1   
 38  19  23  1   
 39  19  39  1   
 40  19  40  1   
 41  20  41  1   
 42  20  42  1   
 43  20  43  1   
 44  21  23  1   
 45  21  44  1   
 46  21  45  1   
 47  22  24  1   
 48  22  46  1   
 49  22  47  1   
 50  23  48  1   
 51  23  49  1   
 52  24  50  1   
@<TRIPOS>SUBSTRUCTURE
  1 ****  11 GROUP 4 **** **** 0

# MOE 2024.06 (io_trps.svl 2023.06)
