@<TRIPOS>MOLECULE
NONAME
51 53 1 0 0 
SMALL
USER_CHARGES


@<TRIPOS>ATOM
  1 O       -1.3260     0.3400    -1.4330 O.2   1 <1>  -0.5700 
  2 C       -1.8120     0.9830    -0.5230 C.2   1 <1>   0.7150 
  3 N       -2.4230     0.3110     0.4860 N.am  1 <1>  -0.7300 
  4 C       -1.7790     2.4160    -0.4790 C.2   1 <1>  -0.2370 
  5 C       -2.5770    -1.1560     0.5830 C.3   1 <1>   0.2200 
  6 N       -1.0340     3.2240    -1.2840 N.pl3 1 <1>   0.3140 
  7 C       -2.4550     3.2650     0.3460 C.2   1 <1>  -0.1500 
  8 C       -3.9960    -1.5320     0.1940 C.3   1 <1>  -0.0800 
  9 C       -2.5380    -1.5740     2.0480 C.3   1 <1>   0.1200 
 10 N       -1.2180     4.5240    -0.9990 N.2   1 <1>  -0.7070 
 11 C       -0.0830     2.8470    -2.3580 C.3   1 <1>   0.0960 
 12 C       -2.0710     4.5410    -0.0220 C.2   1 <1>   0.1080 
 13 C       -4.7630    -1.3230     1.5060 C.3   1 <1>   0.1200 
 14 C       -4.0780    -2.9870    -0.3070 C.3   1 <1>  -0.0160 
 15 O       -3.8240    -1.3490     2.5430 O.3   1 <1>  -0.5600 
 16 C        1.2690     2.4090    -1.7790 C.3   1 <1>  -0.2400 
 17 C       -2.5640     5.8350     0.6150 C.3   1 <1>   0.1010 
 18 C       -5.4950    -3.3520    -0.7220 C.ar  1 <1>  -0.1430 
 19 C       -2.1770     5.8970     2.0970 C.3   1 <1>  -0.2400 
 20 C       -4.0800     5.9870     0.4450 C.3   1 <1>  -0.2400 
 21 C       -6.0500    -2.8810    -1.8950 C.ar  1 <1>  -0.1500 
 22 C       -6.2980    -4.1710     0.0460 C.ar  1 <1>  -0.1500 
 23 C       -7.3460    -3.2360    -2.2300 C.ar  1 <1>   0.1600 
 24 C       -7.5830    -4.4660    -0.3800 C.ar  1 <1>   0.1600 
 25 N       -8.1270    -4.0160    -1.5000 N.ar  1 <1>  -0.6200 
 26 H       -2.8460     0.8400     1.2480 H     1 <1>   0.3700 
 27 H       -1.8240    -1.6550    -0.0050 H     1 <1>   0.0800 
 28 H       -3.1520     3.0280     1.1270 H     1 <1>   0.1500 
 29 H       -4.3710    -0.8820    -0.5780 H     1 <1>   0.0800 
 30 H       -1.8240    -1.0110     2.6230 H     1 <1>   0.0800 
 31 H       -2.3310    -2.6260     2.1400 H     1 <1>   0.0800 
 32 H       -0.5140     2.0660    -2.9550 H     1 <1>   0.0800 
 33 H        0.0590     3.7060    -2.9890 H     1 <1>   0.0800 
 34 H       -5.5030    -2.0810     1.6880 H     1 <1>   0.0800 
 35 H       -5.2340    -0.3560     1.5200 H     1 <1>   0.0800 
 36 H       -3.7390    -3.6650     0.4560 H     1 <1>   0.0800 
 37 H       -3.4300    -3.1070    -1.1590 H     1 <1>   0.0800 
 38 H        1.1500     1.5340    -1.1660 H     1 <1>   0.0800 
 39 H        1.6930     3.2040    -1.1910 H     1 <1>   0.0800 
 40 H        1.9470     2.1740    -2.5800 H     1 <1>   0.0800 
 41 H       -2.0830     6.6540     0.1060 H     1 <1>   0.0800 
 42 H       -2.6530     5.1070     2.6490 H     1 <1>   0.0800 
 43 H       -2.4690     6.8410     2.5200 H     1 <1>   0.0800 
 44 H       -1.1110     5.7920     2.1960 H     1 <1>   0.0800 
 45 H       -4.6010     5.1980     0.9560 H     1 <1>   0.0800 
 46 H       -4.3310     5.9450    -0.6010 H     1 <1>   0.0800 
 47 H       -4.4070     6.9330     0.8380 H     1 <1>   0.0800 
 48 H       -5.4880    -2.2410    -2.5510 H     1 <1>   0.1500 
 49 H       -5.9400    -4.5820     0.9720 H     1 <1>   0.1500 
 50 H       -7.7630    -2.8590    -3.1480 H     1 <1>   0.1500 
 51 H       -8.1950    -5.1050     0.2320 H     1 <1>   0.1500 
@<TRIPOS>BOND
  1   1   2  2   
  2   2   3  am  
  3   2   4  1   
  4   3   5  1   
  5   3  26  1   
  6   4   6  1   
  7   4   7  2   
  8   5   8  1   
  9   5   9  1   
 10   5  27  1   
 11   6  10  1   
 12   6  11  1   
 13   7  12  1   
 14   7  28  1   
 15   8  13  1   
 16   8  14  1   
 17   8  29  1   
 18   9  15  1   
 19   9  30  1   
 20   9  31  1   
 21  10  12  2   
 22  11  16  1   
 23  11  32  1   
 24  11  33  1   
 25  12  17  1   
 26  13  15  1   
 27  13  34  1   
 28  13  35  1   
 29  14  18  1   
 30  14  36  1   
 31  14  37  1   
 32  16  38  1   
 33  16  39  1   
 34  16  40  1   
 35  17  19  1   
 36  17  20  1   
 37  17  41  1   
 38  18  21  ar  
 39  18  22  ar  
 40  19  42  1   
 41  19  43  1   
 42  19  44  1   
 43  20  45  1   
 44  20  46  1   
 45  20  47  1   
 46  21  23  ar  
 47  21  48  1   
 48  22  24  ar  
 49  22  49  1   
 50  23  25  ar  
 51  23  50  1   
 52  24  25  ar  
 53  24  51  1   
@<TRIPOS>SUBSTRUCTURE
  1 ****   3 GROUP 4 **** **** 0

# MOE 2024.06 (io_trps.svl 2023.06)
