@<TRIPOS>MOLECULE
NONAME
58 62 1 0 0 
SMALL
USER_CHARGES


@<TRIPOS>ATOM
  1 N        0.9180     0.0540     0.5400 N.ar  1 <1>  -0.6200 
  2 C       -0.0340     0.9600     0.2970 C.ar  1 <1>   0.7200 
  3 C        1.7200    -0.1790    -0.4660 C.ar  1 <1>   0.1660 
  4 N       -0.2170     1.6240    -0.8480 N.ar  1 <1>  -0.6200 
  5 N       -0.9010     1.2390     1.3320 N.pl3 1 <1>  -0.8380 
  6 C        1.6200     0.4400    -1.6730 C.ar  1 <1>  -0.1440 
  7 C        2.8770    -1.1450    -0.4220 C.3   1 <1>   0.1430 
  8 C        0.6120     1.3570    -1.8300 C.ar  1 <1>   0.1600 
  9 C       -1.7570     2.4590     1.3210 C.3   1 <1>   0.1290 
 10 C       -1.2350     0.2410     2.3840 C.3   1 <1>   0.1290 
 11 C        2.6930    -0.0240    -2.6260 C.3   1 <1>  -0.0160 
 12 C        3.6600    -0.8930     0.8780 C.3   1 <1>   0.3430 
 13 C        2.3580    -2.5980    -0.4730 C.3   1 <1>  -0.1600 
 14 C        3.6760    -0.7630    -1.6970 C.3   1 <1>  -0.1600 
 15 N        4.7380    -1.9190     1.0970 N.4   1 <1>  -0.9590 
 16 C        3.4650    -3.6180    -0.1540 C.3   1 <1>  -0.1600 
 17 C        4.1750    -3.2950     1.1640 C.3   1 <1>   0.3430 
 18 C        5.5460    -1.5960     2.2960 C.3   1 <1>   0.5230 
 19 C        6.3170    -0.3270     2.0250 C.2   1 <1>  -0.3320 
 20 N        7.2540    -0.2270     1.0460 N.pl3 1 <1>   0.5930 
 21 C        6.2410     0.8720     2.6430 C.2   1 <1>  -0.1500 
 22 N        7.7460     1.0280     1.0110 N.2   1 <1>  -0.7070 
 23 C        7.5170    -1.2070     0.0500 C.ar  1 <1>  -0.0230 
 24 C        7.1560     1.6700     1.9680 C.2   1 <1>   0.1390 
 25 C        7.2270    -0.9400    -1.2830 C.ar  1 <1>  -0.1500 
 26 C        8.0150    -2.4620     0.3910 C.ar  1 <1>  -0.1500 
 27 C        7.3790    -1.9190    -2.2480 C.ar  1 <1>  -0.1500 
 28 C        8.1680    -3.4420    -0.5740 C.ar  1 <1>  -0.1500 
 29 C        7.8420    -3.1730    -1.8910 C.ar  1 <1>  -0.1500 
 30 H        0.4830     1.8770    -2.7630 H     1 <1>   0.1500 
 31 H       -1.2570     3.2640     0.8110 H     1 <1>   0.0800 
 32 H       -1.9650     2.7730     2.3290 H     1 <1>   0.0800 
 33 H       -2.6820     2.2460     0.8150 H     1 <1>   0.0800 
 34 H       -0.8870    -0.7390     2.1080 H     1 <1>   0.0800 
 35 H       -2.3010     0.1940     2.5200 H     1 <1>   0.0800 
 36 H       -0.7730     0.5290     3.3120 H     1 <1>   0.0800 
 37 H        3.1630     0.8010    -3.1320 H     1 <1>   0.0800 
 38 H        2.2650    -0.6990    -3.3480 H     1 <1>   0.0800 
 39 H        2.9640    -0.9200     1.7010 H     1 <1>   0.0800 
 40 H        4.0850     0.0970     0.8420 H     1 <1>   0.0800 
 41 H        1.9290    -2.8050    -1.4390 H     1 <1>   0.0800 
 42 H        1.5690    -2.7080     0.2520 H     1 <1>   0.0800 
 43 H        4.1200    -1.6090    -2.1900 H     1 <1>   0.0800 
 44 H        4.4550    -0.0700    -1.4350 H     1 <1>   0.0800 
 45 H        5.3710    -1.8890     0.2840 H     1 <1>   0.4500 
 46 H        4.1880    -3.6530    -0.9500 H     1 <1>   0.0800 
 47 H        3.0270    -4.5990    -0.0810 H     1 <1>   0.0800 
 48 H        3.4710    -3.3650     1.9780 H     1 <1>   0.0800 
 49 H        4.9640    -4.0120     1.3290 H     1 <1>   0.0800 
 50 H        6.2350    -2.3970     2.5070 H     1 <1>   0.0800 
 51 H        4.9040    -1.4620     3.1520 H     1 <1>   0.0800 
 52 H        5.6300     1.1950     3.4690 H     1 <1>   0.1500 
 53 H        7.3540     2.7050     2.2000 H     1 <1>   0.1500 
 54 H        6.8890     0.0430    -1.5680 H     1 <1>   0.1500 
 55 H        8.2970    -2.6780     1.4080 H     1 <1>   0.1500 
 56 H        7.1530    -1.7040    -3.2790 H     1 <1>   0.1500 
 57 H        8.5540    -4.4120    -0.3070 H     1 <1>   0.1500 
 58 H        7.9660    -3.9350    -2.6440 H     1 <1>   0.1500 
@<TRIPOS>BOND
  1   1   2  ar  
  2   1   3  ar  
  3   2   4  ar  
  4   2   5  1   
  5   3   6  ar  
  6   3   7  1   
  7   4   8  ar  
  8   5   9  1   
  9   5  10  1   
 10   6   8  ar  
 11   6  11  1   
 12   7  12  1   
 13   7  13  1   
 14   7  14  1   
 15   8  30  1   
 16   9  31  1   
 17   9  32  1   
 18   9  33  1   
 19  10  34  1   
 20  10  35  1   
 21  10  36  1   
 22  11  14  1   
 23  11  37  1   
 24  11  38  1   
 25  12  15  1   
 26  12  39  1   
 27  12  40  1   
 28  13  16  1   
 29  13  41  1   
 30  13  42  1   
 31  14  43  1   
 32  14  44  1   
 33  15  17  1   
 34  15  18  1   
 35  15  45  1   
 36  16  17  1   
 37  16  46  1   
 38  16  47  1   
 39  17  48  1   
 40  17  49  1   
 41  18  19  1   
 42  18  50  1   
 43  18  51  1   
 44  19  20  1   
 45  19  21  2   
 46  20  22  1   
 47  20  23  1   
 48  21  24  1   
 49  21  52  1   
 50  22  24  2   
 51  23  25  ar  
 52  23  26  ar  
 53  24  53  1   
 54  25  27  ar  
 55  25  54  1   
 56  26  28  ar  
 57  26  55  1   
 58  27  29  ar  
 59  27  56  1   
 60  28  29  ar  
 61  28  57  1   
 62  29  58  1   
@<TRIPOS>SUBSTRUCTURE
  1 ****  12 GROUP 4 **** **** 0

# MOE 2024.06 (io_trps.svl 2023.06)
