@<TRIPOS>MOLECULE
NONAME
52 54 1 0 0 
SMALL
USER_CHARGES


@<TRIPOS>ATOM
  1 O        0.3830     0.7230     1.3810 O.co2 1 <1>  -0.9000 
  2 C        0.6150     1.3510     0.3330 C.2   1 <1>   0.9790 
  3 O       -0.1600     1.2060    -0.6280 O.co2 1 <1>  -0.9000 
  4 C        1.7930     2.1940     0.2490 C.ar  1 <1>  -0.1790 
  5 C        1.8540     3.3850    -0.4810 C.ar  1 <1>   0.1660 
  6 C        2.9430     1.8180     0.9330 C.ar  1 <1>  -0.1500 
  7 N        2.9260     4.1520    -0.5790 N.ar  1 <1>  -0.6200 
  8 C        0.6430     3.9070    -1.2340 C.3   1 <1>  -0.0960 
  9 C        4.0720     2.6020     0.8500 C.ar  1 <1>   0.0730 
 10 C        4.0180     3.7630     0.0700 C.ar  1 <1>   0.4100 
 11 C        5.2680     2.2420     1.5450 C.1   1 <1>   0.4840 
 12 N        5.1190     4.5850    -0.0800 N.pl3 1 <1>  -0.8380 
 13 N        6.2220     1.9260     2.0910 N.1   1 <1>  -0.5570 
 14 C        4.9310     6.0500     0.0200 C.3   1 <1>   0.2090 
 15 C        6.1660     4.1760    -1.0450 C.3   1 <1>   0.2090 
 16 C        6.2460     6.6940     0.4680 C.3   1 <1>  -0.1600 
 17 C        7.5030     4.7880    -0.6200 C.3   1 <1>  -0.1600 
 18 C        7.4130     6.3230    -0.4770 C.3   1 <1>  -0.0800 
 19 C        8.7770     6.9310    -0.0710 C.3   1 <1>   0.2000 
 20 O        9.1690     6.4260     1.1530 O.3   1 <1>  -0.6800 
 21 C        8.7750     8.4640     0.0170 C.3   1 <1>  -0.1600 
 22 C       10.1730     9.0440     0.2700 C.3   1 <1>  -0.0170 
 23 C       10.1140    10.5620     0.2840 C.ar  1 <1>  -0.1440 
 24 C        9.8920    11.2430     1.4710 C.ar  1 <1>  -0.1500 
 25 C       10.2740    11.2800    -0.8910 C.ar  1 <1>  -0.1500 
 26 C        9.8310    12.6250     1.4840 C.ar  1 <1>  -0.1500 
 27 C       10.2130    12.6630    -0.8800 C.ar  1 <1>  -0.1500 
 28 C        9.9910    13.3370     0.3080 C.ar  1 <1>  -0.1500 
 29 H        2.9310     0.9160     1.5230 H     1 <1>   0.1500 
 30 H       -0.2330     3.8480    -0.6140 H     1 <1>   0.0800 
 31 H        0.4850     3.3100    -2.1130 H     1 <1>   0.0800 
 32 H        0.7860     4.9300    -1.5280 H     1 <1>   0.0800 
 33 H        4.1510     6.2660     0.7320 H     1 <1>   0.0800 
 34 H        4.6290     6.4360    -0.9390 H     1 <1>   0.0800 
 35 H        5.8930     4.5200    -2.0280 H     1 <1>   0.0800 
 36 H        6.2450     3.1030    -1.0720 H     1 <1>   0.0800 
 37 H        6.4530     6.3630     1.4700 H     1 <1>   0.0800 
 38 H        6.1030     7.7580     0.4910 H     1 <1>   0.0800 
 39 H        8.2520     4.5330    -1.3470 H     1 <1>   0.0800 
 40 H        7.7920     4.3410     0.3160 H     1 <1>   0.0800 
 41 H        7.1740     6.7180    -1.4490 H     1 <1>   0.0800 
 42 H        9.5220     6.6260    -0.7870 H     1 <1>   0.0800 
 43 H        8.3990     6.3900     1.7520 H     1 <1>   0.4000 
 44 H        8.1140     8.7930     0.7980 H     1 <1>   0.0800 
 45 H        8.4050     8.8620    -0.9120 H     1 <1>   0.0800 
 46 H       10.8520     8.7150    -0.4970 H     1 <1>   0.0800 
 47 H       10.5540     8.6900     1.2130 H     1 <1>   0.0800 
 48 H        9.7660    10.6970     2.3890 H     1 <1>   0.1500 
 49 H       10.4460    10.7650    -1.8200 H     1 <1>   0.1500 
 50 H        9.6600    13.1470     2.4090 H     1 <1>   0.1500 
 51 H       10.3380    13.2150    -1.7950 H     1 <1>   0.1500 
 52 H        9.9440    14.4120     0.3180 H     1 <1>   0.1500 
@<TRIPOS>BOND
  1   1   2  ar  
  2   2   3  ar  
  3   2   4  1   
  4   4   5  ar  
  5   4   6  ar  
  6   5   7  ar  
  7   5   8  1   
  8   6   9  ar  
  9   6  29  1   
 10   7  10  ar  
 11   8  30  1   
 12   8  31  1   
 13   8  32  1   
 14   9  10  ar  
 15   9  11  1   
 16  10  12  1   
 17  11  13  3   
 18  12  14  1   
 19  12  15  1   
 20  14  16  1   
 21  14  33  1   
 22  14  34  1   
 23  15  17  1   
 24  15  35  1   
 25  15  36  1   
 26  16  18  1   
 27  16  37  1   
 28  16  38  1   
 29  17  18  1   
 30  17  39  1   
 31  17  40  1   
 32  18  19  1   
 33  18  41  1   
 34  19  20  1   
 35  19  21  1   
 36  19  42  1   
 37  20  43  1   
 38  21  22  1   
 39  21  44  1   
 40  21  45  1   
 41  22  23  1   
 42  22  46  1   
 43  22  47  1   
 44  23  24  ar  
 45  23  25  ar  
 46  24  26  ar  
 47  24  48  1   
 48  25  27  ar  
 49  25  49  1   
 50  26  28  ar  
 51  26  50  1   
 52  27  28  ar  
 53  27  51  1   
 54  28  52  1   
@<TRIPOS>SUBSTRUCTURE
  1 ****  16 GROUP 4 **** **** 0

# MOE 2024.06 (io_trps.svl 2023.06)
