@<TRIPOS>MOLECULE
NONAME
50 52 1 0 0 
SMALL
USER_CHARGES


@<TRIPOS>ATOM
  1 O       -1.2340     0.0110     0.4190 O.2   1 <1>  -0.5700 
  2 C       -2.0290     0.9300     0.5690 C.2   1 <1>   0.7160 
  3 N       -3.3260     0.5630     0.8930 N.am  1 <1>  -0.6600 
  4 C       -1.6110     2.3230     0.3800 C.2   1 <1>   0.2030 
  5 C       -3.6390    -0.8070     1.3870 C.3   1 <1>   0.1400 
  6 C       -4.5230     1.2850     0.3790 C.3   1 <1>   0.1400 
  7 N       -2.2020     3.3740     0.9240 N.2   1 <1>  -0.7070 
  8 C       -0.5150     2.7520    -0.3980 C.2   1 <1>  -0.1810 
  9 C       -4.1600    -1.6330     0.1920 C.3   1 <1>   0.4230 
 10 C       -5.1410     0.4660    -0.7690 C.3   1 <1>  -0.1600 
 11 N       -1.5070     4.4370     0.5120 N.pl3 1 <1>   0.3000 
 12 C       -0.4830     4.0970    -0.2920 C.2   1 <1>  -0.3320 
 13 C        0.4300     1.8590    -1.1870 C.3   1 <1>  -0.0590 
 14 N       -4.3770    -3.0920     0.4760 N.4   1 <1>  -0.9590 
 15 C       -5.4610    -1.0050    -0.3640 C.3   1 <1>  -0.1060 
 16 C        0.4550     5.1310    -0.8940 C.3   1 <1>   0.0200 
 17 C       -4.8290    -3.8850    -0.7060 C.3   1 <1>   0.3430 
 18 C       -3.2970    -3.7640     1.2450 C.3   1 <1>   0.2630 
 19 C       -6.5270    -1.0530     0.7480 C.2   1 <1>   0.9060 
 20 C       -5.9740    -1.7890    -1.6070 C.3   1 <1>  -0.1600 
 21 C        1.3620     5.7200     0.1870 C.3   1 <1>  -0.2400 
 22 C       -5.1050    -3.0140    -1.9390 C.3   1 <1>  -0.1600 
 23 O       -6.5730    -2.0570     1.4780 O.co2 1 <1>  -0.9000 
 24 O       -7.3080    -0.1160     0.8940 O.co2 1 <1>  -0.9000 
 25 H       -2.7500    -1.2460     1.7980 H     1 <1>   0.0800 
 26 H       -4.3770    -0.7430     2.1680 H     1 <1>   0.0800 
 27 H       -5.2370     1.4110     1.1780 H     1 <1>   0.0800 
 28 H       -4.2630     2.2640     0.0170 H     1 <1>   0.0800 
 29 H       -3.4040    -1.5600    -0.5710 H     1 <1>   0.0800 
 30 H       -6.0470     0.9570    -1.0840 H     1 <1>   0.0800 
 31 H       -4.4600     0.4830    -1.6010 H     1 <1>   0.0800 
 32 H       -1.7480     5.3930     0.7970 H     1 <1>   0.2700 
 33 H       -0.1290     1.2480    -1.8720 H     1 <1>   0.0800 
 34 H        0.9690     1.2170    -0.5130 H     1 <1>   0.0800 
 35 H        1.1420     2.4360    -1.7450 H     1 <1>   0.0800 
 36 H       -5.2360    -3.0250     1.0880 H     1 <1>   0.4500 
 37 H        1.0640     4.6820    -1.6570 H     1 <1>   0.0800 
 38 H       -0.1190     5.9150    -1.3580 H     1 <1>   0.0800 
 39 H       -4.0850    -4.6220    -0.9590 H     1 <1>   0.0800 
 40 H       -5.7360    -4.4050    -0.4390 H     1 <1>   0.0800 
 41 H       -2.3740    -3.7400     0.6880 H     1 <1>   0.0800 
 42 H       -3.5640    -4.7900     1.4390 H     1 <1>   0.0800 
 43 H       -3.1480    -3.2680     2.1900 H     1 <1>   0.0800 
 44 H       -6.9820    -2.1240    -1.4190 H     1 <1>   0.0800 
 45 H       -6.0250    -1.1490    -2.4710 H     1 <1>   0.0800 
 46 H        1.9300     4.9350     0.6550 H     1 <1>   0.0800 
 47 H        0.7810     6.2200     0.9400 H     1 <1>   0.0800 
 48 H        2.0440     6.4270    -0.2490 H     1 <1>   0.0800 
 49 H       -4.1690    -2.6930    -2.3620 H     1 <1>   0.0800 
 50 H       -5.6000    -3.6100    -2.6850 H     1 <1>   0.0800 
@<TRIPOS>BOND
  1   1   2  2   
  2   2   3  am  
  3   2   4  1   
  4   3   5  1   
  5   3   6  1   
  6   4   7  2   
  7   4   8  1   
  8   5   9  1   
  9   5  25  1   
 10   5  26  1   
 11   6  10  1   
 12   6  27  1   
 13   6  28  1   
 14   7  11  1   
 15   8  12  2   
 16   8  13  1   
 17   9  14  1   
 18   9  15  1   
 19   9  29  1   
 20  10  15  1   
 21  10  30  1   
 22  10  31  1   
 23  11  12  1   
 24  11  32  1   
 25  12  16  1   
 26  13  33  1   
 27  13  34  1   
 28  13  35  1   
 29  14  17  1   
 30  14  18  1   
 31  14  36  1   
 32  15  19  1   
 33  15  20  1   
 34  16  21  1   
 35  16  37  1   
 36  16  38  1   
 37  17  22  1   
 38  17  39  1   
 39  17  40  1   
 40  18  41  1   
 41  18  42  1   
 42  18  43  1   
 43  19  23  ar  
 44  19  24  ar  
 45  20  22  1   
 46  20  44  1   
 47  20  45  1   
 48  21  46  1   
 49  21  47  1   
 50  21  48  1   
 51  22  49  1   
 52  22  50  1   
@<TRIPOS>SUBSTRUCTURE
  1 ****   3 GROUP 4 **** **** 0

# MOE 2024.06 (io_trps.svl 2023.06)
