@<TRIPOS>MOLECULE
NONAME
51 54 1 0 0 
SMALL
USER_CHARGES


@<TRIPOS>ATOM
  1 S       -2.0680    -0.0190    -1.8300 S.3   1 <1>  -0.0800 
  2 C       -1.5190    -0.8990    -0.4070 C.2   1 <1>  -0.1400 
  3 C       -1.7530     1.5230    -1.0570 C.2   1 <1>  -0.1100 
  4 C       -1.1340    -0.0360     0.5540 C.2   1 <1>  -0.1500 
  5 C       -1.5480    -2.4180    -0.4360 C.3   1 <1>   0.3800 
  6 C       -1.2680     1.3410     0.1840 C.2   1 <1>  -0.1500 
  7 O       -0.6980    -2.8280    -1.4390 O.3   1 <1>  -0.6800 
  8 C       -2.9520    -3.0050    -0.7070 C.3   1 <1>  -0.0800 
  9 C       -3.9910    -2.5180     0.3220 C.3   1 <1>  -0.1600 
 10 C       -2.9430    -4.5470    -0.7300 C.3   1 <1>  -0.1600 
 11 C       -5.3730    -3.1130     0.0530 C.3   1 <1>   0.3430 
 12 C       -4.3350    -5.1200    -0.9840 C.3   1 <1>   0.3430 
 13 N       -5.2870    -4.5990     0.0410 N.4   1 <1>  -0.9590 
 14 C       -6.6390    -5.2700    -0.0630 C.3   1 <1>   0.4040 
 15 C       -6.6330    -6.7270     0.4410 C.2   1 <1>   0.5690 
 16 O       -5.6830    -7.0230     1.1310 O.2   1 <1>  -0.5700 
 17 N       -7.6590    -7.6010     0.1170 N.am  1 <1>  -0.4770 
 18 C       -7.6960    -8.9780     0.5020 C.ar  1 <1>   0.1170 
 19 C       -8.9480    -7.0360    -0.4170 C.3   1 <1>   0.1400 
 20 C       -8.9280    -9.6170     0.7060 C.ar  1 <1>   0.0830 
 21 C       -6.5470    -9.7450     0.6920 C.ar  1 <1>  -0.1500 
 22 C      -10.0290    -8.0970    -0.6630 C.3   1 <1>   0.1200 
 23 O      -10.0890    -8.9760     0.4330 O.3   1 <1>  -0.3630 
 24 C       -9.0040   -10.9230     1.1540 C.ar  1 <1>  -0.1500 
 25 C       -6.6190   -11.0590     1.1250 C.ar  1 <1>  -0.1500 
 26 C       -7.8460   -11.6480     1.3680 C.ar  1 <1>  -0.1500 
 27 H       -1.9650     2.4140    -1.6220 H     1 <1>   0.1500 
 28 H       -0.7530    -0.3020     1.5250 H     1 <1>   0.1500 
 29 H       -1.1570    -2.7980     0.4920 H     1 <1>   0.0800 
 30 H       -0.9930     2.1260     0.8670 H     1 <1>   0.1500 
 31 H       -0.0100    -2.1430    -1.5590 H     1 <1>   0.4000 
 32 H       -3.2620    -2.6560    -1.6790 H     1 <1>   0.0800 
 33 H       -4.0740    -1.4460     0.2750 H     1 <1>   0.0800 
 34 H       -3.6780    -2.7740     1.3190 H     1 <1>   0.0800 
 35 H       -2.5600    -4.9340     0.1980 H     1 <1>   0.0800 
 36 H       -2.2890    -4.8920    -1.5130 H     1 <1>   0.0800 
 37 H       -5.7340    -2.7590    -0.9000 H     1 <1>   0.0800 
 38 H       -6.0570    -2.7860     0.8200 H     1 <1>   0.0800 
 39 H       -4.2900    -6.1970    -0.9330 H     1 <1>   0.0800 
 40 H       -4.6640    -4.8370    -1.9710 H     1 <1>   0.0800 
 41 H       -4.9070    -4.9200     0.9490 H     1 <1>   0.4500 
 42 H       -6.9750    -5.2510    -1.0840 H     1 <1>   0.0800 
 43 H       -7.3500    -4.7280     0.5370 H     1 <1>   0.0800 
 44 H       -8.7660    -6.5240    -1.3450 H     1 <1>   0.0800 
 45 H       -9.3400    -6.3290     0.2940 H     1 <1>   0.0800 
 46 H       -5.5740    -9.3300     0.5090 H     1 <1>   0.1500 
 47 H       -9.8050    -8.6760    -1.5420 H     1 <1>   0.0800 
 48 H      -10.9970    -7.6430    -0.7800 H     1 <1>   0.0800 
 49 H       -9.9670   -11.3700     1.3240 H     1 <1>   0.1500 
 50 H       -5.7150   -11.6240     1.2760 H     1 <1>   0.1500 
 51 H       -7.9010   -12.6650     1.7140 H     1 <1>   0.1500 
@<TRIPOS>BOND
  1   1   2  1   
  2   1   3  1   
  3   2   4  2   
  4   2   5  1   
  5   3   6  2   
  6   3  27  1   
  7   4   6  1   
  8   4  28  1   
  9   5   7  1   
 10   5   8  1   
 11   5  29  1   
 12   6  30  1   
 13   7  31  1   
 14   8   9  1   
 15   8  10  1   
 16   8  32  1   
 17   9  11  1   
 18   9  33  1   
 19   9  34  1   
 20  10  12  1   
 21  10  35  1   
 22  10  36  1   
 23  11  13  1   
 24  11  37  1   
 25  11  38  1   
 26  12  13  1   
 27  12  39  1   
 28  12  40  1   
 29  13  14  1   
 30  13  41  1   
 31  14  15  1   
 32  14  42  1   
 33  14  43  1   
 34  15  16  2   
 35  15  17  am  
 36  17  18  1   
 37  17  19  1   
 38  18  20  ar  
 39  18  21  ar  
 40  19  22  1   
 41  19  44  1   
 42  19  45  1   
 43  20  23  1   
 44  20  24  ar  
 45  21  25  ar  
 46  21  46  1   
 47  22  23  1   
 48  22  47  1   
 49  22  48  1   
 50  24  26  ar  
 51  24  49  1   
 52  25  26  ar  
 53  25  50  1   
 54  26  51  1   
@<TRIPOS>SUBSTRUCTURE
  1 ****  13 GROUP 4 **** **** 0

# MOE 2024.06 (io_trps.svl 2023.06)
