@<TRIPOS>MOLECULE
NONAME
37 38 1 0 0 
SMALL
USER_CHARGES


@<TRIPOS>ATOM
  1 S       -1.5910    -0.6720    -0.7710 S.3   1 <1>  -0.0800 
  2 C       -1.7410    -1.4840     0.7500 C.2   1 <1>   0.4420 
  3 C       -0.6510     0.5320     0.0460 C.2   1 <1>   0.1980 
  4 N       -1.1340    -0.8630     1.6950 N.2   1 <1>  -0.3380 
  5 N       -2.4680    -2.6520     0.7470 N.am  1 <1>  -0.4940 
  6 N       -0.5150     0.2860     1.2870 N.2   1 <1>  -0.3380 
  7 C       -0.1110     1.7150    -0.7540 C.3   1 <1>   0.3800 
  8 C       -2.7120    -3.5410     1.7550 C.2   1 <1>   0.5690 
  9 O       -1.1410     2.3610    -1.4450 O.3   1 <1>  -0.5600 
 10 C        0.9220     1.2850    -1.7950 C.3   1 <1>  -0.2400 
 11 O       -2.3280    -3.3920     2.8860 O.2   1 <1>  -0.5700 
 12 C       -3.5170    -4.7920     1.4350 C.3   1 <1>   0.0440 
 13 C       -2.0260     3.0810    -0.6430 C.3   1 <1>   0.0400 
 14 C       -4.0430    -4.8180    -0.0080 C.ar  1 <1>  -0.1430 
 15 C       -3.3780    -5.4440    -1.0730 C.ar  1 <1>  -0.1430 
 16 C       -5.2400    -4.1540    -0.2390 C.ar  1 <1>  -0.1500 
 17 C       -3.9510    -5.3730    -2.3420 C.ar  1 <1>  -0.1500 
 18 C       -2.0430    -6.2020    -0.8950 C.3   1 <1>   1.1630 
 19 C       -5.7880    -4.0950    -1.5040 C.ar  1 <1>  -0.1500 
 20 C       -5.1410    -4.7050    -2.5580 C.ar  1 <1>  -0.1500 
 21 F       -2.1730    -7.2770    -0.1290 F     1 <1>  -0.3400 
 22 F       -1.1170    -5.4430    -0.3250 F     1 <1>  -0.3400 
 23 F       -1.5120    -6.6260    -2.0360 F     1 <1>  -0.3400 
 24 H       -2.8860    -2.8960    -0.1500 H     1 <1>   0.3700 
 25 H        0.3420     2.4230    -0.0810 H     1 <1>   0.0800 
 26 H        0.4770     0.6220    -2.5140 H     1 <1>   0.0800 
 27 H        1.7350     0.7750    -1.3100 H     1 <1>   0.0800 
 28 H        1.3110     2.1490    -2.3000 H     1 <1>   0.0800 
 29 H       -4.3470    -4.8260     2.1170 H     1 <1>   0.0800 
 30 H       -2.9130    -5.6500     1.6570 H     1 <1>   0.0800 
 31 H       -2.7560     3.5440    -1.2830 H     1 <1>   0.0800 
 32 H       -1.4840     3.8410    -0.1050 H     1 <1>   0.0800 
 33 H       -2.5210     2.4150     0.0430 H     1 <1>   0.0800 
 34 H       -5.7620    -3.6720     0.5710 H     1 <1>   0.1500 
 35 H       -3.4790    -5.8410    -3.1910 H     1 <1>   0.1500 
 36 H       -6.7180    -3.5760    -1.6690 H     1 <1>   0.1500 
 37 H       -5.5660    -4.6620    -3.5470 H     1 <1>   0.1500 
@<TRIPOS>BOND
  1   1   2  1   
  2   1   3  1   
  3   2   4  2   
  4   2   5  1   
  5   3   6  2   
  6   3   7  1   
  7   4   6  1   
  8   5   8  am  
  9   5  24  1   
 10   7   9  1   
 11   7  10  1   
 12   7  25  1   
 13   8  11  2   
 14   8  12  1   
 15   9  13  1   
 16  10  26  1   
 17  10  27  1   
 18  10  28  1   
 19  12  14  1   
 20  12  29  1   
 21  12  30  1   
 22  13  31  1   
 23  13  32  1   
 24  13  33  1   
 25  14  15  ar  
 26  14  16  ar  
 27  15  17  ar  
 28  15  18  1   
 29  16  19  ar  
 30  16  34  1   
 31  17  20  ar  
 32  17  35  1   
 33  18  21  1   
 34  18  22  1   
 35  18  23  1   
 36  19  20  ar  
 37  19  36  1   
 38  20  37  1   
@<TRIPOS>SUBSTRUCTURE
  1 ****   5 GROUP 4 **** **** 0

# MOE 2024.06 (io_trps.svl 2023.06)
