@<TRIPOS>MOLECULE
NONAME
60 63 1 0 0 
SMALL
USER_CHARGES


@<TRIPOS>ATOM
  1 O       -0.7050    -1.7980    -1.0130 O.2   1 <1>  -0.5700 
  2 C       -0.7000    -2.9200    -0.5640 C.2   1 <1>   0.5690 
  3 N       -1.7400    -3.7850    -0.8140 N.am  1 <1>  -0.6600 
  4 C        0.4780    -3.3580     0.3030 C.3   1 <1>  -0.0990 
  5 C       -1.9290    -5.1090    -0.1770 C.3   1 <1>   0.1400 
  6 C       -2.8320    -3.4110    -1.7460 C.3   1 <1>   0.1400 
  7 C        1.6360    -2.3450     0.3710 C.3   1 <1>  -0.1600 
  8 C       -3.2240    -5.0750     0.6360 C.3   1 <1>  -0.1600 
  9 C       -4.1330    -3.3180    -0.9530 C.3   1 <1>  -0.1600 
 10 C        2.7850    -2.8610     1.2430 C.3   1 <1>  -0.2400 
 11 C       -4.4300    -4.6330    -0.2150 C.3   1 <1>   0.4230 
 12 N       -5.6290    -4.4600     0.6670 N.4   1 <1>  -0.9590 
 13 C       -6.8530    -3.9610    -0.0510 C.3   1 <1>   0.3430 
 14 C       -6.0320    -5.7350     1.3490 C.3   1 <1>   0.3430 
 15 C       -8.0420    -4.7460     0.5110 C.3   1 <1>   0.2000 
 16 C       -7.4380    -6.1010     0.8540 C.3   1 <1>  -0.0800 
 17 O       -8.5050    -4.1420     1.6740 O.3   1 <1>  -0.6800 
 18 C       -7.4240    -7.0190    -0.3930 C.3   1 <1>  -0.0170 
 19 C       -6.2950    -8.0350    -0.3600 C.ar  1 <1>   0.1670 
 20 N       -5.2020    -7.7130    -0.9840 N.ar  1 <1>  -0.6200 
 21 C       -6.4680    -9.2320     0.3510 C.ar  1 <1>  -0.1500 
 22 C       -4.1890    -8.6200    -0.9820 C.ar  1 <1>   0.3100 
 23 C       -5.4480   -10.1310     0.4130 C.ar  1 <1>  -0.1500 
 24 C       -4.2540    -9.8330    -0.2630 C.ar  1 <1>   0.0000 
 25 C       -3.0270    -8.3420    -1.7200 C.ar  1 <1>  -0.1500 
 26 C       -3.1370   -10.6910    -0.2650 C.ar  1 <1>  -0.1500 
 27 C       -1.9540    -9.1930    -1.7150 C.ar  1 <1>  -0.1500 
 28 C       -2.0080   -10.3770    -0.9730 C.ar  1 <1>  -0.1500 
 29 H        0.1140    -3.5320     1.2990 H     1 <1>   0.0800 
 30 H        0.8580    -4.2820    -0.0900 H     1 <1>   0.0800 
 31 H       -1.9840    -5.8630    -0.9430 H     1 <1>   0.0800 
 32 H       -1.1050    -5.3590     0.4690 H     1 <1>   0.0800 
 33 H       -2.6260    -2.4670    -2.2230 H     1 <1>   0.0800 
 34 H       -2.9100    -4.1570    -2.5190 H     1 <1>   0.0800 
 35 H        2.0000    -2.1520    -0.6240 H     1 <1>   0.0800 
 36 H        1.2740    -1.4120     0.7720 H     1 <1>   0.0800 
 37 H       -3.0830    -4.3970     1.4590 H     1 <1>   0.0800 
 38 H       -3.3770    -6.0630     1.0260 H     1 <1>   0.0800 
 39 H       -4.9160    -3.0840    -1.6500 H     1 <1>   0.0800 
 40 H       -4.0380    -2.5050    -0.2540 H     1 <1>   0.0800 
 41 H        3.1800    -3.7780     0.8440 H     1 <1>   0.0800 
 42 H        2.4470    -3.0350     2.2490 H     1 <1>   0.0800 
 43 H        3.5770    -2.1330     1.2710 H     1 <1>   0.0800 
 44 H       -4.6300    -5.3960    -0.9500 H     1 <1>   0.0800 
 45 H       -5.3720    -3.7690     1.3830 H     1 <1>   0.4500 
 46 H       -6.9940    -2.8990     0.0730 H     1 <1>   0.0800 
 47 H       -6.7660    -4.1840    -1.1010 H     1 <1>   0.0800 
 48 H       -5.3310    -6.5300     1.1630 H     1 <1>   0.0800 
 49 H       -6.0700    -5.5690     2.4130 H     1 <1>   0.0800 
 50 H       -8.8650    -4.8000    -0.1830 H     1 <1>   0.0800 
 51 H       -7.9890    -6.5990     1.6330 H     1 <1>   0.0800 
 52 H       -7.8680    -4.1740     2.4120 H     1 <1>   0.4000 
 53 H       -7.3130    -6.4400    -1.2940 H     1 <1>   0.0800 
 54 H       -8.3660    -7.5340    -0.4720 H     1 <1>   0.0800 
 55 H       -7.4050    -9.4300     0.8420 H     1 <1>   0.1500 
 56 H       -5.5370   -11.0580     0.9540 H     1 <1>   0.1500 
 57 H       -3.0060    -7.4410    -2.3020 H     1 <1>   0.1500 
 58 H       -3.1870   -11.6070     0.2980 H     1 <1>   0.1500 
 59 H       -1.0650    -8.9720    -2.2830 H     1 <1>   0.1500 
 60 H       -1.1570   -11.0370    -0.9750 H     1 <1>   0.1500 
@<TRIPOS>BOND
  1   1   2  2   
  2   2   3  am  
  3   2   4  1   
  4   3   5  1   
  5   3   6  1   
  6   4   7  1   
  7   4  29  1   
  8   4  30  1   
  9   5   8  1   
 10   5  31  1   
 11   5  32  1   
 12   6   9  1   
 13   6  33  1   
 14   6  34  1   
 15   7  10  1   
 16   7  35  1   
 17   7  36  1   
 18   8  11  1   
 19   8  37  1   
 20   8  38  1   
 21   9  11  1   
 22   9  39  1   
 23   9  40  1   
 24  10  41  1   
 25  10  42  1   
 26  10  43  1   
 27  11  12  1   
 28  11  44  1   
 29  12  13  1   
 30  12  14  1   
 31  12  45  1   
 32  13  15  1   
 33  13  46  1   
 34  13  47  1   
 35  14  16  1   
 36  14  48  1   
 37  14  49  1   
 38  15  16  1   
 39  15  17  1   
 40  15  50  1   
 41  16  18  1   
 42  16  51  1   
 43  17  52  1   
 44  18  19  1   
 45  18  53  1   
 46  18  54  1   
 47  19  20  ar  
 48  19  21  ar  
 49  20  22  ar  
 50  21  23  ar  
 51  21  55  1   
 52  22  24  ar  
 53  22  25  ar  
 54  23  24  ar  
 55  23  56  1   
 56  24  26  ar  
 57  25  27  ar  
 58  25  57  1   
 59  26  28  ar  
 60  26  58  1   
 61  27  28  ar  
 62  27  59  1   
 63  28  60  1   
@<TRIPOS>SUBSTRUCTURE
  1 ****   8 GROUP 4 **** **** 0

# MOE 2024.06 (io_trps.svl 2023.06)
