@<TRIPOS>MOLECULE
NONAME
39 41 1 0 0 
SMALL
USER_CHARGES


@<TRIPOS>ATOM
  1 O       -1.6240     0.7450    -1.3670 O.2   1 <1>  -0.5700 
  2 C       -1.5890     0.5780    -0.1590 C.2   1 <1>   0.7160 
  3 N       -1.6590    -0.7010     0.3090 N.am  1 <1>  -0.7300 
  4 C       -1.5040     1.6770     0.7970 C.2   1 <1>   0.1410 
  5 C       -1.8010    -1.9340    -0.4950 C.3   1 <1>   0.2200 
  6 N       -1.5540     1.4480     2.1480 N.2   1 <1>  -0.5650 
  7 C       -1.3740     3.0270     0.5940 C.2   1 <1>  -0.3320 
  8 C       -3.2260    -2.4670    -0.4410 C.3   1 <1>  -0.0800 
  9 C       -1.0480    -3.0690     0.1880 C.3   1 <1>   0.1200 
 10 C       -1.4570     2.6120     2.6910 C.2   1 <1>   0.0360 
 11 N       -1.3450     3.6130     1.7980 N.pl3 1 <1>   0.0330 
 12 C       -1.2690     3.8370    -0.6900 C.3   1 <1>  -0.0600 
 13 C       -3.2390    -3.2700     0.8620 C.3   1 <1>   0.1200 
 14 C       -4.3450    -1.4140    -0.5460 C.3   1 <1>  -0.0170 
 15 O       -1.9060    -3.5560     1.1760 O.3   1 <1>  -0.5600 
 16 C       -5.7140    -2.0760    -0.5540 C.ar  1 <1>  -0.1430 
 17 C       -6.4940    -2.1560     0.5820 C.ar  1 <1>  -0.1500 
 18 C       -6.2450    -2.6330    -1.6990 C.ar  1 <1>  -0.1500 
 19 C       -7.7310    -2.7770     0.5190 C.ar  1 <1>   0.1600 
 20 C       -7.4940    -3.2310    -1.6540 C.ar  1 <1>   0.1600 
 21 N       -8.2490    -3.3190    -0.5710 N.ar  1 <1>  -0.6200 
 22 H       -1.6570    -0.8130     1.3280 H     1 <1>   0.3700 
 23 H       -1.4570    -1.7690    -1.5020 H     1 <1>   0.0800 
 24 H       -3.3450    -3.1670    -1.2500 H     1 <1>   0.0800 
 25 H       -0.1250    -2.7460     0.6360 H     1 <1>   0.0800 
 26 H       -0.8600    -3.8700    -0.5050 H     1 <1>   0.0800 
 27 H       -1.4620     2.7920     3.7520 H     1 <1>   0.1500 
 28 H       -1.2560     4.6120     2.0070 H     1 <1>   0.2700 
 29 H       -1.2750     3.2020    -1.5560 H     1 <1>   0.0800 
 30 H       -0.3530     4.4020    -0.6990 H     1 <1>   0.0800 
 31 H       -2.0980     4.5170    -0.7680 H     1 <1>   0.0800 
 32 H       -3.7850    -4.1920     0.7620 H     1 <1>   0.0800 
 33 H       -3.6440    -2.6920     1.6750 H     1 <1>   0.0800 
 34 H       -4.2170    -0.8460    -1.4510 H     1 <1>   0.0800 
 35 H       -4.2910    -0.7230     0.2780 H     1 <1>   0.0800 
 36 H       -6.1540    -1.7430     1.5130 H     1 <1>   0.1500 
 37 H       -5.7000    -2.6060    -2.6250 H     1 <1>   0.1500 
 38 H       -8.3260    -2.8300     1.4150 H     1 <1>   0.1500 
 39 H       -7.8920    -3.6600    -2.5580 H     1 <1>   0.1500 
@<TRIPOS>BOND
  1   1   2  2   
  2   2   3  am  
  3   2   4  1   
  4   3   5  1   
  5   3  22  1   
  6   4   6  1   
  7   4   7  2   
  8   5   8  1   
  9   5   9  1   
 10   5  23  1   
 11   6  10  2   
 12   7  11  1   
 13   7  12  1   
 14   8  13  1   
 15   8  14  1   
 16   8  24  1   
 17   9  15  1   
 18   9  25  1   
 19   9  26  1   
 20  10  11  1   
 21  10  27  1   
 22  11  28  1   
 23  12  29  1   
 24  12  30  1   
 25  12  31  1   
 26  13  15  1   
 27  13  32  1   
 28  13  33  1   
 29  14  16  1   
 30  14  34  1   
 31  14  35  1   
 32  16  17  ar  
 33  16  18  ar  
 34  17  19  ar  
 35  17  36  1   
 36  18  20  ar  
 37  18  37  1   
 38  19  21  ar  
 39  19  38  1   
 40  20  21  ar  
 41  20  39  1   
@<TRIPOS>SUBSTRUCTURE
  1 ****  14 GROUP 4 **** **** 0

# MOE 2024.06 (io_trps.svl 2023.06)
