@<TRIPOS>MOLECULE
NONAME
42 44 1 0 0 
SMALL
USER_CHARGES


@<TRIPOS>ATOM
  1 F       -0.6220     2.2620     2.1200 F     1 <1>  -0.3400 
  2 C       -0.2010     2.0110     0.8870 C.3   1 <1>   1.1640 
  3 F       -1.2140     2.3010     0.0790 F     1 <1>  -0.3400 
  4 F       -0.0260     0.6990     0.8130 F     1 <1>  -0.3400 
  5 C        1.0760     2.7770     0.5520 C.ar  1 <1>  -0.1440 
  6 C        2.1920     2.5810     1.3490 C.ar  1 <1>   0.1600 
  7 C        1.1800     3.6590    -0.5140 C.ar  1 <1>  -0.1500 
  8 N        3.3640     3.1710     1.1790 N.ar  1 <1>  -0.6200 
  9 C        2.3930     4.2780    -0.7010 C.ar  1 <1>  -0.1500 
 10 C        3.4560     4.0110     0.1580 C.ar  1 <1>   0.4100 
 11 N        4.6830     4.6160    -0.0440 N.pl3 1 <1>  -0.8380 
 12 C        5.4530     4.9800     1.2170 C.3   1 <1>   0.2090 
 13 C        5.4590     4.0570    -1.2020 C.3   1 <1>   0.2090 
 14 C        6.4580     6.1440     1.0210 C.3   1 <1>   0.4230 
 15 C        6.8810     4.6290    -1.4040 C.3   1 <1>  -0.0800 
 16 N        6.1710     6.7700    -0.3250 N.4   1 <1>  -0.9590 
 17 C        7.9280     5.6930     1.2890 C.3   1 <1>   0.1200 
 18 C        7.8870     4.0030    -0.4200 C.3   1 <1>   0.1200 
 19 C        6.9530     6.1720    -1.4360 C.3   1 <1>   0.3430 
 20 C        6.2890     8.2900    -0.2850 C.3   1 <1>   0.2370 
 21 O        8.5820     4.9980     0.2520 O.3   1 <1>  -0.5600 
 22 C        7.5280     8.8630     0.4100 C.2   1 <1>   0.9060 
 23 O        8.4600     9.2650    -0.2870 O.co2 1 <1>  -0.9000 
 24 O        7.5590     8.8230     1.6460 O.co2 1 <1>  -0.9000 
 25 H        2.1230     1.8970     2.1810 H     1 <1>   0.1500 
 26 H        0.3500     3.8580    -1.1730 H     1 <1>   0.1500 
 27 H        2.5340     4.9730    -1.5050 H     1 <1>   0.1500 
 28 H        4.7490     5.2920     1.9690 H     1 <1>   0.0800 
 29 H        5.9430     4.1080     1.6120 H     1 <1>   0.0800 
 30 H        5.5210     2.9860    -1.0890 H     1 <1>   0.0800 
 31 H        4.8930     4.2420    -2.1000 H     1 <1>   0.0800 
 32 H        6.2290     6.8680     1.7870 H     1 <1>   0.0800 
 33 H        7.1970     4.2960    -2.3750 H     1 <1>   0.0800 
 34 H        5.1930     6.4790    -0.4850 H     1 <1>   0.4500 
 35 H        7.9630     5.0750     2.1680 H     1 <1>   0.0800 
 36 H        8.5300     6.5600     1.4980 H     1 <1>   0.0800 
 37 H        8.6190     3.4330    -0.9680 H     1 <1>   0.0800 
 38 H        7.4300     3.3420     0.2960 H     1 <1>   0.0800 
 39 H        6.5580     6.5280    -2.3720 H     1 <1>   0.0800 
 40 H        7.9820     6.4920    -1.3710 H     1 <1>   0.0800 
 41 H        6.2760     8.6830    -1.2840 H     1 <1>   0.0800 
 42 H        5.4440     8.6930     0.2420 H     1 <1>   0.0800 
@<TRIPOS>BOND
  1   1   2  1   
  2   2   3  1   
  3   2   4  1   
  4   2   5  1   
  5   5   6  ar  
  6   5   7  ar  
  7   6   8  ar  
  8   6  25  1   
  9   7   9  ar  
 10   7  26  1   
 11   8  10  ar  
 12   9  10  ar  
 13   9  27  1   
 14  10  11  1   
 15  11  12  1   
 16  11  13  1   
 17  12  14  1   
 18  12  28  1   
 19  12  29  1   
 20  13  15  1   
 21  13  30  1   
 22  13  31  1   
 23  14  16  1   
 24  14  17  1   
 25  14  32  1   
 26  15  18  1   
 27  15  19  1   
 28  15  33  1   
 29  16  19  1   
 30  16  20  1   
 31  16  34  1   
 32  17  21  1   
 33  17  35  1   
 34  17  36  1   
 35  18  21  1   
 36  18  37  1   
 37  18  38  1   
 38  19  39  1   
 39  19  40  1   
 40  20  22  1   
 41  20  41  1   
 42  20  42  1   
 43  22  23  ar  
 44  22  24  ar  
@<TRIPOS>SUBSTRUCTURE
  1 ****  11 GROUP 4 **** **** 0

# MOE 2024.06 (io_trps.svl 2023.06)
