@<TRIPOS>MOLECULE
NONAME
59 61 1 0 0 
SMALL
USER_CHARGES


@<TRIPOS>ATOM
  1 O       -0.2310     0.0970     0.7260 O.2   1 <1>  -0.5700 
  2 C       -1.1040     0.5820     0.0490 C.2   1 <1>   0.5690 
  3 N       -2.1320    -0.1570    -0.4410 N.am  1 <1>  -0.7300 
  4 C       -1.0510     2.0770    -0.2600 C.3   1 <1>  -0.0190 
  5 C       -2.3220    -1.6180    -0.2290 C.3   1 <1>   0.1400 
  6 C       -2.2840     2.8230     0.2840 C.3   1 <1>  -0.1600 
  7 C       -0.8460     2.3510    -1.7710 C.3   1 <1>  -0.1600 
  8 C       -3.7520    -2.0280     0.2050 C.3   1 <1>   0.1430 
  9 C       -2.1660     4.3520     0.1140 C.3   1 <1>   0.2000 
 10 C       -1.3110     3.7510    -2.2170 C.3   1 <1>  -0.1600 
 11 C       -3.7370    -3.5660     0.3040 C.ar  1 <1>  -0.1440 
 12 C       -4.8340    -1.5100    -0.7650 C.3   1 <1>  -0.1600 
 13 C       -4.1690    -1.3660     1.5320 C.3   1 <1>  -0.1600 
 14 O       -3.4580     4.8610    -0.1080 O.3   1 <1>  -0.5600 
 15 C       -1.2450     4.7590    -1.0680 C.3   1 <1>   0.2000 
 16 C       -4.0880    -4.3640    -0.7800 C.ar  1 <1>  -0.1500 
 17 C       -3.3290    -4.1960     1.4740 C.ar  1 <1>  -0.1500 
 18 C       -5.2960    -0.1360    -0.2660 C.3   1 <1>  -0.1600 
 19 C       -4.8520    -0.0370     1.1950 C.3   1 <1>  -0.1600 
 20 C       -4.2220     5.0570     1.0420 C.3   1 <1>   0.0400 
 21 O       -1.6470     5.9870    -1.5530 O.3   1 <1>  -0.6800 
 22 C       -4.0600    -5.7460    -0.6940 C.ar  1 <1>  -0.1440 
 23 C       -3.2950    -5.5760     1.5750 C.ar  1 <1>  -0.1440 
 24 C       -3.6630    -6.3480     0.4870 C.ar  1 <1>  -0.1500 
 25 C       -4.4540    -6.5940    -1.8900 C.3   1 <1>  -0.0970 
 26 C       -2.8490    -6.2340     2.8680 C.3   1 <1>  -0.0970 
 27 H       -2.8760     0.3010    -0.9650 H     1 <1>   0.3700 
 28 H       -0.1910     2.4650     0.2600 H     1 <1>   0.0800 
 29 H       -2.0810    -2.1250    -1.1470 H     1 <1>   0.0800 
 30 H       -1.6230    -1.9620     0.5150 H     1 <1>   0.0800 
 31 H       -2.4050     2.5940     1.3280 H     1 <1>   0.0800 
 32 H       -3.1540     2.4770    -0.2440 H     1 <1>   0.0800 
 33 H        0.2020     2.2360    -1.9920 H     1 <1>   0.0800 
 34 H       -1.3720     1.6200    -2.3600 H     1 <1>   0.0800 
 35 H       -1.7640     4.7960     1.0090 H     1 <1>   0.0800 
 36 H       -2.3310     3.6900    -2.5570 H     1 <1>   0.0800 
 37 H       -0.7020     4.0900    -3.0370 H     1 <1>   0.0800 
 38 H       -4.4860    -1.4710    -1.7830 H     1 <1>   0.0800 
 39 H       -5.6840    -2.1690    -0.7200 H     1 <1>   0.0800 
 40 H       -4.8920    -1.9930     2.0240 H     1 <1>   0.0800 
 41 H       -3.3320    -1.2220     2.1930 H     1 <1>   0.0800 
 42 H       -0.2260     4.8540    -0.7340 H     1 <1>   0.0800 
 43 H       -4.3840    -3.9190    -1.7110 H     1 <1>   0.1500 
 44 H       -3.0250    -3.6140     2.3250 H     1 <1>   0.1500 
 45 H       -4.8450     0.6510    -0.8440 H     1 <1>   0.0800 
 46 H       -6.3660    -0.0470    -0.3480 H     1 <1>   0.0800 
 47 H       -5.6910     0.1360     1.8470 H     1 <1>   0.0800 
 48 H       -4.1530     0.7710     1.3140 H     1 <1>   0.0800 
 49 H       -5.1780     5.4500     0.7440 H     1 <1>   0.0800 
 50 H       -3.7240     5.7640     1.6820 H     1 <1>   0.0800 
 51 H       -4.3600     4.1170     1.5480 H     1 <1>   0.0800 
 52 H       -2.6170     6.0330    -1.3940 H     1 <1>   0.4000 
 53 H       -3.6360    -7.4200     0.5580 H     1 <1>   0.1500 
 54 H       -4.8140    -7.5550    -1.5690 H     1 <1>   0.0800 
 55 H       -3.6020    -6.7380    -2.5290 H     1 <1>   0.0800 
 56 H       -5.2340    -6.1110    -2.4500 H     1 <1>   0.0800 
 57 H       -3.2410    -7.2320     2.9400 H     1 <1>   0.0800 
 58 H       -3.2000    -5.6700     3.7130 H     1 <1>   0.0800 
 59 H       -1.7760    -6.2780     2.9000 H     1 <1>   0.0800 
@<TRIPOS>BOND
  1   1   2  2   
  2   2   3  am  
  3   2   4  1   
  4   3   5  1   
  5   3  27  1   
  6   4   6  1   
  7   4   7  1   
  8   4  28  1   
  9   5   8  1   
 10   5  29  1   
 11   5  30  1   
 12   6   9  1   
 13   6  31  1   
 14   6  32  1   
 15   7  10  1   
 16   7  33  1   
 17   7  34  1   
 18   8  11  1   
 19   8  12  1   
 20   8  13  1   
 21   9  14  1   
 22   9  15  1   
 23   9  35  1   
 24  10  15  1   
 25  10  36  1   
 26  10  37  1   
 27  11  16  ar  
 28  11  17  ar  
 29  12  18  1   
 30  12  38  1   
 31  12  39  1   
 32  13  19  1   
 33  13  40  1   
 34  13  41  1   
 35  14  20  1   
 36  15  21  1   
 37  15  42  1   
 38  16  22  ar  
 39  16  43  1   
 40  17  23  ar  
 41  17  44  1   
 42  18  19  1   
 43  18  45  1   
 44  18  46  1   
 45  19  47  1   
 46  19  48  1   
 47  20  49  1   
 48  20  50  1   
 49  20  51  1   
 50  21  52  1   
 51  22  24  ar  
 52  22  25  1   
 53  23  24  ar  
 54  23  26  1   
 55  24  53  1   
 56  25  54  1   
 57  25  55  1   
 58  25  56  1   
 59  26  57  1   
 60  26  58  1   
 61  26  59  1   
@<TRIPOS>SUBSTRUCTURE
  1 ****   3 GROUP 4 **** **** 0

# MOE 2024.06 (io_trps.svl 2023.06)
