@<TRIPOS>MOLECULE
NONAME
24 24 1 0 0 
SMALL
USER_CHARGES


@<TRIPOS>ATOM
  1 S       -0.1020    -0.3220     0.3230 S.o2  1 <1>   1.4590 
  2 O       -1.2160    -0.6450     1.2550 O.co2 1 <1>  -0.8170 
  3 O       -0.3580    -0.8230    -1.0500 O.co2 1 <1>  -0.8170 
  4 O        1.1920    -0.8030     0.8670 O.co2 1 <1>  -0.8170 
  5 C       -0.0560     1.5400     0.1570 C.ar  1 <1>  -0.0090 
  6 C       -1.2460     2.2750     0.0320 C.ar  1 <1>  -0.1440 
  7 C        1.1400     2.2780     0.1090 C.ar  1 <1>  -0.1440 
  8 C       -1.2390     3.6580    -0.0690 C.ar  1 <1>  -0.1500 
  9 C       -2.6100     1.5940    -0.0100 C.3   1 <1>  -0.0960 
 10 C        1.1300     3.6610     0.0080 C.ar  1 <1>  -0.1500 
 11 C        2.5110     1.6140     0.1520 C.3   1 <1>  -0.0960 
 12 C       -0.0540     4.3620    -0.0740 C.ar  1 <1>  -0.1440 
 13 C       -0.0530     5.8760    -0.1810 C.3   1 <1>  -0.0970 
 14 H       -2.1680     4.1920    -0.1480 H     1 <1>   0.1500 
 15 H       -2.5830     0.7370    -0.6610 H     1 <1>   0.0800 
 16 H       -3.3700     2.2590    -0.3760 H     1 <1>   0.0800 
 17 H       -2.8870     1.2690     0.9770 H     1 <1>   0.0800 
 18 H        2.0590     4.2020    -0.0120 H     1 <1>   0.1500 
 19 H        2.5540     0.8100    -0.5620 H     1 <1>   0.0800 
 20 H        2.6950     1.2180     1.1350 H     1 <1>   0.0800 
 21 H        3.2950     2.3080    -0.0870 H     1 <1>   0.0800 
 22 H       -0.9430     6.2840     0.2620 H     1 <1>   0.0800 
 23 H       -0.0130     6.1650    -1.2150 H     1 <1>   0.0800 
 24 H        0.7990     6.2870     0.3300 H     1 <1>   0.0800 
@<TRIPOS>BOND
  1   1   2  ar  
  2   1   3  ar  
  3   1   4  ar  
  4   1   5  1   
  5   5   6  ar  
  6   5   7  ar  
  7   6   8  ar  
  8   6   9  1   
  9   7  10  ar  
 10   7  11  1   
 11   8  12  ar  
 12   8  14  1   
 13   9  15  1   
 14   9  16  1   
 15   9  17  1   
 16  10  12  ar  
 17  10  18  1   
 18  11  19  1   
 19  11  20  1   
 20  11  21  1   
 21  12  13  1   
 22  13  22  1   
 23  13  23  1   
 24  13  24  1   
@<TRIPOS>SUBSTRUCTURE
  1 ****   5 GROUP 4 **** **** 0

# MOE 2024.06 (io_trps.svl 2023.06)
