@<TRIPOS>MOLECULE
NONAME
52 54 1 0 0 
SMALL
USER_CHARGES


@<TRIPOS>ATOM
  1 O       -0.8040    -1.8780    -0.4970 O.2   1 <1>  -0.5700 
  2 C        0.1800    -2.5700    -0.4790 C.2   1 <1>   0.5690 
  3 N        0.2990    -3.6530    -1.2750 N.am  1 <1>  -0.7300 
  4 C        1.3320    -2.2560     0.4500 C.3   1 <1>  -0.0990 
  5 C        1.4840    -4.5350    -1.2690 C.3   1 <1>   0.1400 
  6 C        2.6730    -2.4150    -0.2890 C.3   1 <1>  -0.0800 
  7 C        2.7680    -3.6860    -1.1720 C.3   1 <1>  -0.0800 
  8 C        3.8790    -2.4510     0.6590 C.3   1 <1>  -0.1600 
  9 C        3.9710    -4.4760    -0.6380 C.3   1 <1>  -0.1600 
 10 C        4.8600    -3.4040    -0.0110 C.3   1 <1>   0.2200 
 11 N        5.8930    -3.9020     0.9460 N.am  1 <1>  -0.6600 
 12 C        7.1310    -3.2910     1.0390 C.2   1 <1>   0.5440 
 13 C        5.5350    -5.0350     1.8540 C.3   1 <1>   0.0600 
 14 O        7.9870    -3.7830     1.7520 O.2   1 <1>  -0.5700 
 15 C        7.4280    -2.0680     0.3320 C.ar  1 <1>   0.0860 
 16 C        7.7950    -2.0200    -1.0240 C.ar  1 <1>   0.0820 
 17 C        7.2950    -0.8570     1.0110 C.ar  1 <1>  -0.1500 
 18 O        7.9570    -3.1230    -1.7960 O.3   1 <1>  -0.3630 
 19 C        7.9870    -0.8040    -1.6590 C.ar  1 <1>  -0.1500 
 20 C        7.4770     0.3560     0.3780 C.ar  1 <1>   0.0820 
 21 C        8.7310    -4.2090    -1.3280 C.3   1 <1>   0.0400 
 22 C        7.8470     0.3860    -0.9710 C.ar  1 <1>   0.0820 
 23 O        7.2740     1.4810     1.1070 O.3   1 <1>  -0.3630 
 24 O        8.0780     1.5330    -1.6490 O.3   1 <1>  -0.3620 
 25 C        6.1450     2.2510     0.7530 C.3   1 <1>   0.0400 
 26 C        9.1590     2.3290    -1.2150 C.3   1 <1>   0.0400 
 27 H       -0.4920    -3.8850    -1.8810 H     1 <1>   0.3700 
 28 H        1.2300    -1.2530     0.8230 H     1 <1>   0.0800 
 29 H        1.2740    -2.9350     1.2800 H     1 <1>   0.0800 
 30 H        1.4060    -5.1950    -0.4210 H     1 <1>   0.0800 
 31 H        1.5020    -5.1320    -2.1650 H     1 <1>   0.0800 
 32 H        2.7840    -1.5670    -0.9450 H     1 <1>   0.0800 
 33 H        3.0110    -3.3610    -2.1710 H     1 <1>   0.0800 
 34 H        3.5910    -2.8440     1.6170 H     1 <1>   0.0800 
 35 H        4.3080    -1.4730     0.7870 H     1 <1>   0.0800 
 36 H        4.4860    -4.9990    -1.4240 H     1 <1>   0.0800 
 37 H        3.6300    -5.1740     0.1030 H     1 <1>   0.0800 
 38 H        5.3330    -2.8810    -0.8230 H     1 <1>   0.0800 
 39 H        4.5490    -4.8910     2.2580 H     1 <1>   0.0800 
 40 H        6.2250    -5.1010     2.6770 H     1 <1>   0.0800 
 41 H        5.5670    -5.9600     1.3080 H     1 <1>   0.0800 
 42 H        7.0280    -0.8690     2.0530 H     1 <1>   0.1500 
 43 H        8.2560    -0.7860    -2.6990 H     1 <1>   0.1500 
 44 H        9.1520    -4.7110    -2.1800 H     1 <1>   0.0800 
 45 H        8.0960    -4.8880    -0.7880 H     1 <1>   0.0800 
 46 H        9.5180    -3.8410    -0.6930 H     1 <1>   0.0800 
 47 H        6.0720     3.0750     1.4390 H     1 <1>   0.0800 
 48 H        5.2680     1.6330     0.8240 H     1 <1>   0.0800 
 49 H        6.2640     2.6180    -0.2500 H     1 <1>   0.0800 
 50 H        9.3050     3.1160    -1.9320 H     1 <1>   0.0800 
 51 H       10.0400     1.7160    -1.1540 H     1 <1>   0.0800 
 52 H        8.9300     2.7490    -0.2520 H     1 <1>   0.0800 
@<TRIPOS>BOND
  1   1   2  2   
  2   2   3  am  
  3   2   4  1   
  4   3   5  1   
  5   3  27  1   
  6   4   6  1   
  7   4  28  1   
  8   4  29  1   
  9   5   7  1   
 10   5  30  1   
 11   5  31  1   
 12   6   7  1   
 13   6   8  1   
 14   6  32  1   
 15   7   9  1   
 16   7  33  1   
 17   8  10  1   
 18   8  34  1   
 19   8  35  1   
 20   9  10  1   
 21   9  36  1   
 22   9  37  1   
 23  10  11  1   
 24  10  38  1   
 25  11  12  am  
 26  11  13  1   
 27  12  14  2   
 28  12  15  1   
 29  13  39  1   
 30  13  40  1   
 31  13  41  1   
 32  15  16  ar  
 33  15  17  ar  
 34  16  18  1   
 35  16  19  ar  
 36  17  20  ar  
 37  17  42  1   
 38  18  21  1   
 39  19  22  ar  
 40  19  43  1   
 41  20  22  ar  
 42  20  23  1   
 43  21  44  1   
 44  21  45  1   
 45  21  46  1   
 46  22  24  1   
 47  23  25  1   
 48  24  26  1   
 49  25  47  1   
 50  25  48  1   
 51  25  49  1   
 52  26  50  1   
 53  26  51  1   
 54  26  52  1   
@<TRIPOS>SUBSTRUCTURE
  1 ****  10 GROUP 4 **** **** 0

# MOE 2024.06 (io_trps.svl 2023.06)
