@<TRIPOS>MOLECULE
NONAME
40 42 1 0 0 
SMALL
USER_CHARGES


@<TRIPOS>ATOM
  1 S       -0.1980     0.3830     0.7830 S.3   1 <1>  -0.0800 
  2 C        1.2670    -0.3740     0.2050 C.2   1 <1>   0.1980 
  3 C        0.6770     1.8700     1.0070 C.2   1 <1>  -0.1400 
  4 N        2.2800     0.3960     0.1780 N.2   1 <1>  -0.5650 
  5 C        1.1820    -1.8300    -0.1930 C.3   1 <1>  -0.0600 
  6 C        1.9550     1.6730     0.6400 C.2   1 <1>   0.0460 
  7 C       -0.1130     3.0480     1.5480 C.3   1 <1>  -0.0600 
  8 C        3.0770     2.7130     0.6650 C.3   1 <1>   0.6040 
  9 N        3.8010     2.6360    -0.6360 N.4   1 <1>  -0.9590 
 10 C        4.0200     2.3910     1.8270 C.3   1 <1>  -0.2400 
 11 C        5.0200     3.5160    -0.7010 C.3   1 <1>   0.5240 
 12 C        2.8830     2.9230    -1.7860 C.3   1 <1>   0.2630 
 13 C        4.6790     5.0040    -0.5270 C.2   1 <1>   0.3350 
 14 N        4.7170     5.6090     0.6220 N.2   1 <1>  -0.7070 
 15 N        4.2920     5.7230    -1.5790 N.2   1 <1>  -0.5650 
 16 N        4.3620     6.8500     0.2930 N.pl3 1 <1>   0.6010 
 17 C        4.0970     6.8880    -1.0450 C.2   1 <1>   0.3120 
 18 C        4.2240     7.9870     1.0590 C.2   1 <1>  -0.1810 
 19 N        3.6750     8.0170    -1.6980 N.2   1 <1>  -0.5760 
 20 C        3.8150     9.1180     0.4240 C.2   1 <1>  -0.1360 
 21 C        3.5490     9.0830    -0.9750 C.2   1 <1>   0.3760 
 22 H        0.4740    -1.9490    -0.9920 H     1 <1>   0.0800 
 23 H        0.8660    -2.4190     0.6480 H     1 <1>   0.0800 
 24 H        2.1440    -2.1780    -0.5220 H     1 <1>   0.0800 
 25 H       -0.5270     2.7970     2.5090 H     1 <1>   0.0800 
 26 H       -0.9210     3.2860     0.8790 H     1 <1>   0.0800 
 27 H        0.5110     3.9150     1.6600 H     1 <1>   0.0800 
 28 H        2.6570     3.6960     0.8040 H     1 <1>   0.0800 
 29 H        4.0600     1.6400    -0.6950 H     1 <1>   0.4500 
 30 H        4.5160     1.4500     1.6700 H     1 <1>   0.0800 
 31 H        3.4420     2.3090     2.7310 H     1 <1>   0.0800 
 32 H        4.7420     3.1700     1.9830 H     1 <1>   0.0800 
 33 H        5.5070     3.3920    -1.6530 H     1 <1>   0.0800 
 34 H        5.7200     3.2350     0.0670 H     1 <1>   0.0800 
 35 H        2.4870     3.9240    -1.7150 H     1 <1>   0.0800 
 36 H        2.0590     2.2260    -1.7940 H     1 <1>   0.0800 
 37 H        3.4120     2.8330    -2.7210 H     1 <1>   0.0800 
 38 H        4.4520     7.9040     2.1060 H     1 <1>   0.1500 
 39 H        3.6830    10.0530     0.9400 H     1 <1>   0.1500 
 40 H        3.2250     9.9960    -1.4430 H     1 <1>   0.0600 
@<TRIPOS>BOND
  1   1   2  1   
  2   1   3  1   
  3   2   4  2   
  4   2   5  1   
  5   3   6  2   
  6   3   7  1   
  7   4   6  1   
  8   5  22  1   
  9   5  23  1   
 10   5  24  1   
 11   6   8  1   
 12   7  25  1   
 13   7  26  1   
 14   7  27  1   
 15   8   9  1   
 16   8  10  1   
 17   8  28  1   
 18   9  11  1   
 19   9  12  1   
 20   9  29  1   
 21  10  30  1   
 22  10  31  1   
 23  10  32  1   
 24  11  13  1   
 25  11  33  1   
 26  11  34  1   
 27  12  35  1   
 28  12  36  1   
 29  12  37  1   
 30  13  14  2   
 31  13  15  1   
 32  14  16  1   
 33  15  17  2   
 34  16  17  1   
 35  16  18  1   
 36  17  19  1   
 37  18  20  2   
 38  18  38  1   
 39  19  21  2   
 40  20  21  1   
 41  20  39  1   
 42  21  40  1   
@<TRIPOS>SUBSTRUCTURE
  1 ****   8 GROUP 4 **** **** 0

# MOE 2024.06 (io_trps.svl 2023.06)
