@<TRIPOS>MOLECULE
NONAME
37 38 1 0 0 
SMALL
USER_CHARGES


@<TRIPOS>ATOM
  1 S        0.4810    -0.0980    -0.5480 S.o2  1 <1>   1.3330 
  2 O       -0.1030    -0.1710    -1.8690 O.2   1 <1>  -0.6500 
  3 O        1.9170    -0.0170    -0.4060 O.2   1 <1>  -0.6500 
  4 N       -0.0550    -1.4390     0.3440 N.am  1 <1>  -0.8490 
  5 C       -0.2720     1.2880     0.3000 C.3   1 <1>  -0.0550 
  6 C        0.7180    -1.6670     1.5700 C.3   1 <1>   0.1160 
  7 C       -0.0810    -2.6630    -0.4620 C.3   1 <1>   0.1160 
  8 C       -0.0050     2.6410    -0.3910 C.3   1 <1>  -0.0800 
  9 C       -0.7510     3.8230     0.2340 C.3   1 <1>   0.2000 
 10 C        1.4690     3.0740    -0.3840 C.3   1 <1>   0.2090 
 11 O       -0.6200     3.7560     1.6140 O.3   1 <1>  -0.6800 
 12 C        0.0290     5.0410    -0.2580 C.3   1 <1>   0.2090 
 13 N        1.4310     4.5580    -0.3240 N.pl3 1 <1>  -0.8380 
 14 C        2.5330     5.3440    -0.1010 C.ar  1 <1>   0.7200 
 15 N        2.3280     6.6630    -0.0310 N.ar  1 <1>  -0.6200 
 16 N        3.7040     4.7140     0.0250 N.ar  1 <1>  -0.6200 
 17 C        3.3950     7.4070     0.1730 C.ar  1 <1>   0.1600 
 18 C        4.7570     5.4770     0.2280 C.ar  1 <1>   0.1600 
 19 C        4.6380     6.8420     0.3070 C.ar  1 <1>   0.1900 
 20 F        5.6940     7.5930     0.5100 F     1 <1>  -0.1900 
 21 H       -1.3320     1.1300     0.3400 H     1 <1>   0.0800 
 22 H        0.0880     1.3240     1.3090 H     1 <1>   0.0800 
 23 H        0.2860    -2.4770     2.1330 H     1 <1>   0.0800 
 24 H        0.7080    -0.7840     2.1860 H     1 <1>   0.0800 
 25 H        1.7400    -1.9110     1.3320 H     1 <1>   0.0800 
 26 H       -0.4420    -3.4890     0.1260 H     1 <1>   0.0800 
 27 H        0.9060    -2.8910    -0.8290 H     1 <1>   0.0800 
 28 H       -0.7420    -2.5360    -1.3030 H     1 <1>   0.0800 
 29 H       -0.3120     2.5670    -1.4200 H     1 <1>   0.0800 
 30 H       -1.7980     3.8560    -0.0150 H     1 <1>   0.0800 
 31 H        1.9850     2.7410    -1.2700 H     1 <1>   0.0800 
 32 H        1.9800     2.6950     0.4860 H     1 <1>   0.0800 
 33 H        0.3020     4.0080     1.8370 H     1 <1>   0.4000 
 34 H       -0.0870     5.8820     0.4050 H     1 <1>   0.0800 
 35 H       -0.2910     5.3160    -1.2480 H     1 <1>   0.0800 
 36 H        3.2800     8.4750     0.2330 H     1 <1>   0.1500 
 37 H        5.7220     5.0120     0.3320 H     1 <1>   0.1500 
@<TRIPOS>BOND
  1   1   2  2   
  2   1   3  2   
  3   1   4  am  
  4   1   5  1   
  5   4   6  1   
  6   4   7  1   
  7   5   8  1   
  8   5  21  1   
  9   5  22  1   
 10   6  23  1   
 11   6  24  1   
 12   6  25  1   
 13   7  26  1   
 14   7  27  1   
 15   7  28  1   
 16   8   9  1   
 17   8  10  1   
 18   8  29  1   
 19   9  11  1   
 20   9  12  1   
 21   9  30  1   
 22  10  13  1   
 23  10  31  1   
 24  10  32  1   
 25  11  33  1   
 26  12  13  1   
 27  12  34  1   
 28  12  35  1   
 29  13  14  1   
 30  14  15  ar  
 31  14  16  ar  
 32  15  17  ar  
 33  16  18  ar  
 34  17  19  ar  
 35  17  36  1   
 36  18  19  ar  
 37  18  37  1   
 38  19  20  1   
@<TRIPOS>SUBSTRUCTURE
  1 ****  10 GROUP 4 **** **** 0

# MOE 2024.06 (io_trps.svl 2023.06)
