@<TRIPOS>MOLECULE
NONAME
39 41 1 0 0 
SMALL
USER_CHARGES


@<TRIPOS>ATOM
  1 CL      -0.3730     2.9900     1.5340 Cl    1 <1>  -0.1770 
  2 C        1.1030     2.4510     0.7770 C.ar  1 <1>   0.1770 
  3 C        1.2750     1.1140     0.4620 C.ar  1 <1>   0.1600 
  4 C        2.0930     3.3640     0.4990 C.ar  1 <1>  -0.1500 
  5 N        2.3680     0.6310    -0.1120 N.ar  1 <1>  -0.6200 
  6 C        3.2560     2.8910    -0.1010 C.ar  1 <1>   0.0860 
  7 C        3.3130     1.5220    -0.3780 C.ar  1 <1>   0.1600 
  8 C        4.3700     3.7590    -0.4300 C.2   1 <1>   0.5440 
  9 O        5.3410     3.3530    -1.0400 O.2   1 <1>  -0.5700 
 10 N        4.4070     5.0720    -0.0430 N.am  1 <1>  -0.6600 
 11 C        5.0610     5.3860     1.2790 C.3   1 <1>   0.2200 
 12 C        4.4010     6.1120    -1.1180 C.3   1 <1>   0.1400 
 13 C        4.6150     6.7390     1.8580 C.3   1 <1>   0.1200 
 14 C        6.6090     5.3130     1.1870 C.3   1 <1>   0.3430 
 15 C        5.4700     7.2120    -0.9770 C.3   1 <1>  -0.0800 
 16 O        5.4220     7.7690     1.3750 O.3   1 <1>  -0.5600 
 17 N        7.1180     5.3900    -0.2260 N.4   1 <1>  -0.9590 
 18 C        5.1090     8.2400     0.1080 C.3   1 <1>   0.1200 
 19 C        6.9320     6.7280    -0.8690 C.3   1 <1>   0.3430 
 20 C        8.5280     4.9210    -0.3260 C.3   1 <1>   0.2630 
 21 H        0.4840     0.4220     0.6920 H     1 <1>   0.1500 
 22 H        1.9550     4.4020     0.7410 H     1 <1>   0.1500 
 23 H        4.2040     1.1400    -0.8520 H     1 <1>   0.1500 
 24 H        4.7410     4.6380     1.9840 H     1 <1>   0.0800 
 25 H        4.5350     5.6260    -2.0710 H     1 <1>   0.0800 
 26 H        3.4260     6.5690    -1.1390 H     1 <1>   0.0800 
 27 H        4.7480     6.7260     2.9260 H     1 <1>   0.0800 
 28 H        3.5790     6.9460     1.6510 H     1 <1>   0.0800 
 29 H        6.9170     4.3750     1.6160 H     1 <1>   0.0800 
 30 H        7.0440     6.0990     1.7820 H     1 <1>   0.0800 
 31 H        5.4200     7.7730    -1.8930 H     1 <1>   0.0800 
 32 H        6.5140     4.7130    -0.7460 H     1 <1>   0.4500 
 33 H        4.0650     8.5060     0.0780 H     1 <1>   0.0800 
 34 H        5.6840     9.1400    -0.0380 H     1 <1>   0.0800 
 35 H        7.5030     7.4680    -0.3310 H     1 <1>   0.0800 
 36 H        7.3330     6.6760    -1.8680 H     1 <1>   0.0800 
 37 H        9.1820     5.5760     0.2270 H     1 <1>   0.0800 
 38 H        8.8430     4.9050    -1.3570 H     1 <1>   0.0800 
 39 H        8.6180     3.9230     0.0720 H     1 <1>   0.0800 
@<TRIPOS>BOND
  1   1   2  1   
  2   2   3  ar  
  3   2   4  ar  
  4   3   5  ar  
  5   3  21  1   
  6   4   6  ar  
  7   4  22  1   
  8   5   7  ar  
  9   6   7  ar  
 10   6   8  1   
 11   7  23  1   
 12   8   9  2   
 13   8  10  am  
 14  10  11  1   
 15  10  12  1   
 16  11  13  1   
 17  11  14  1   
 18  11  24  1   
 19  12  15  1   
 20  12  25  1   
 21  12  26  1   
 22  13  16  1   
 23  13  27  1   
 24  13  28  1   
 25  14  17  1   
 26  14  29  1   
 27  14  30  1   
 28  15  18  1   
 29  15  19  1   
 30  15  31  1   
 31  16  18  1   
 32  17  19  1   
 33  17  20  1   
 34  17  32  1   
 35  18  33  1   
 36  18  34  1   
 37  19  35  1   
 38  19  36  1   
 39  20  37  1   
 40  20  38  1   
 41  20  39  1   
@<TRIPOS>SUBSTRUCTURE
  1 ****  10 GROUP 4 **** **** 0

# MOE 2024.06 (io_trps.svl 2023.06)
