@<TRIPOS>MOLECULE
NONAME
23 23 1 0 0 
SMALL
USER_CHARGES


@<TRIPOS>ATOM
  1 F        0.4270    -0.1550    -0.9740 F     1 <1>  -0.1900 
  2 C        1.3550     0.7130    -0.6620 C.ar  1 <1>   0.1900 
  3 C        1.0040     2.0370    -0.4490 C.ar  1 <1>  -0.1440 
  4 C        2.6530     0.2520    -0.5620 C.ar  1 <1>  -0.1500 
  5 C        2.0230     2.9310    -0.1280 C.ar  1 <1>   0.0830 
  6 C       -0.4450     2.4880    -0.5760 C.3   1 <1>   0.2640 
  7 C        3.6590     1.1450    -0.2350 C.ar  1 <1>  -0.1440 
  8 O        1.6850     4.2330     0.0660 O.3   1 <1>  -0.3630 
  9 C        3.3390     2.4770    -0.0220 C.ar  1 <1>  -0.1500 
 10 O       -1.2050     1.8330     0.3780 O.3   1 <1>  -0.6800 
 11 C        5.0970     0.6730    -0.1160 C.3   1 <1>  -0.0970 
 12 C        2.6150     5.1870     0.5290 C.3   1 <1>   0.0400 
 13 H        2.8630    -0.7870    -0.7380 H     1 <1>   0.1500 
 14 H       -0.8330     2.2320    -1.5470 H     1 <1>   0.0800 
 15 H       -0.5650     3.5450    -0.4210 H     1 <1>   0.0800 
 16 H        4.1340     3.1550     0.2230 H     1 <1>   0.1500 
 17 H       -0.9860     0.8810     0.3490 H     1 <1>   0.4000 
 18 H        5.1360    -0.3850     0.0770 H     1 <1>   0.0800 
 19 H        5.5920     1.1820     0.6920 H     1 <1>   0.0800 
 20 H        5.6240     0.8760    -1.0310 H     1 <1>   0.0800 
 21 H        2.0980     6.1200     0.6610 H     1 <1>   0.0800 
 22 H        3.3930     5.3010    -0.2040 H     1 <1>   0.0800 
 23 H        3.0150     4.8550     1.4710 H     1 <1>   0.0800 
@<TRIPOS>BOND
  1   1   2  1   
  2   2   3  ar  
  3   2   4  ar  
  4   3   5  ar  
  5   3   6  1   
  6   4   7  ar  
  7   4  13  1   
  8   5   8  1   
  9   5   9  ar  
 10   6  10  1   
 11   6  14  1   
 12   6  15  1   
 13   7   9  ar  
 14   7  11  1   
 15   8  12  1   
 16   9  16  1   
 17  10  17  1   
 18  11  18  1   
 19  11  19  1   
 20  11  20  1   
 21  12  21  1   
 22  12  22  1   
 23  12  23  1   
@<TRIPOS>SUBSTRUCTURE
  1 ****   3 GROUP 4 **** **** 0

# MOE 2024.06 (io_trps.svl 2023.06)
