@<TRIPOS>MOLECULE
NONAME
54 58 1 0 0 
SMALL
USER_CHARGES


@<TRIPOS>ATOM
  1 O       -3.4090     3.6080     1.5240 O.2   1 <1>  -0.5700 
  2 C       -3.3940     3.1040     0.4230 C.2   1 <1>   0.5690 
  3 N       -4.2960     2.1300     0.0650 N.am  1 <1>  -0.6600 
  4 C       -2.3380     3.6100    -0.5450 C.3   1 <1>   0.0820 
  5 C       -4.3360     1.4390    -1.2560 C.3   1 <1>   0.1400 
  6 C       -5.2310     1.5320     1.0550 C.3   1 <1>   0.1400 
  7 C       -1.2550     2.5770    -0.7860 C.2   1 <1>   0.1080 
  8 C       -3.9210    -0.0210    -1.0680 C.3   1 <1>  -0.1600 
  9 C       -4.8320     0.0730     1.2940 C.3   1 <1>  -0.1600 
 10 N       -1.0250     2.0470    -1.9430 N.2   1 <1>  -0.7070 
 11 C       -0.3800     2.1070     0.2120 C.ar  1 <1>   0.0000 
 12 C       -4.7900    -0.7390    -0.0190 C.3   1 <1>   0.4240 
 13 N        0.0100     1.2020    -1.7380 N.pl3 1 <1>   0.3000 
 14 C        0.4420     1.2180    -0.4460 C.ar  1 <1>  -0.1520 
 15 C       -0.1880     2.3410     1.5820 C.ar  1 <1>  -0.1500 
 16 O       -6.0900    -0.6860    -0.5690 O.3   1 <1>  -0.5600 
 17 C       -4.3200    -2.2070     0.1970 C.ar  1 <1>  -0.1430 
 18 C        1.4800     0.5550     0.2190 C.ar  1 <1>  -0.1500 
 19 C        0.8300     1.6940     2.2410 C.ar  1 <1>  -0.1500 
 20 C       -7.0260    -1.6080    -0.1150 C.3   1 <1>   0.1200 
 21 C       -3.0410    -2.5150     0.6780 C.ar  1 <1>   0.0820 
 22 C       -5.1840    -3.2650    -0.0860 C.ar  1 <1>  -0.1430 
 23 C        1.6690     0.8020     1.5580 C.ar  1 <1>  -0.1500 
 24 C       -6.5900    -2.9890    -0.5780 C.3   1 <1>  -0.0170 
 25 O       -2.1950    -1.4990     0.9870 O.3   1 <1>  -0.3620 
 26 C       -2.6490    -3.8420     0.8400 C.ar  1 <1>  -0.1500 
 27 C       -4.7860    -4.5810     0.0800 C.ar  1 <1>  -0.1500 
 28 C       -1.0030    -1.6850     1.7120 C.3   1 <1>   0.0400 
 29 C       -3.5180    -4.8710     0.5410 C.ar  1 <1>  -0.1500 
 30 H       -1.8840     4.4920    -0.1360 H     1 <1>   0.0800 
 31 H       -2.8020     3.8850    -1.4720 H     1 <1>   0.0800 
 32 H       -3.6860     1.9070    -1.9710 H     1 <1>   0.0800 
 33 H       -5.3390     1.4860    -1.6470 H     1 <1>   0.0800 
 34 H       -6.2350     1.5860     0.6720 H     1 <1>   0.0800 
 35 H       -5.1990     2.0730     1.9850 H     1 <1>   0.0800 
 36 H       -2.8880    -0.0270    -0.7840 H     1 <1>   0.0800 
 37 H       -3.9960    -0.5460    -2.0020 H     1 <1>   0.0800 
 38 H       -5.5050    -0.3850     1.9910 H     1 <1>   0.0800 
 39 H       -3.8650     0.0810     1.7570 H     1 <1>   0.0800 
 40 H        0.4130     0.6290    -2.4870 H     1 <1>   0.2700 
 41 H       -0.8430     3.0240     2.0950 H     1 <1>   0.1500 
 42 H        2.1140    -0.1300    -0.3170 H     1 <1>   0.1500 
 43 H        0.9920     1.8680     3.2910 H     1 <1>   0.1500 
 44 H       -7.9790    -1.3490    -0.5400 H     1 <1>   0.0800 
 45 H       -7.0880    -1.5570     0.9580 H     1 <1>   0.0800 
 46 H        2.4620     0.3130     2.0980 H     1 <1>   0.1500 
 47 H       -6.6150    -3.0330    -1.6520 H     1 <1>   0.0800 
 48 H       -7.2730    -3.7230    -0.1910 H     1 <1>   0.0800 
 49 H       -1.6690    -4.0950     1.1950 H     1 <1>   0.1500 
 50 H       -5.4610    -5.3860    -0.1500 H     1 <1>   0.1500 
 51 H       -0.6090    -0.7150     1.9490 H     1 <1>   0.0800 
 52 H       -0.3030    -2.2250     1.1010 H     1 <1>   0.0800 
 53 H       -1.2230    -2.2200     2.6190 H     1 <1>   0.0800 
 54 H       -3.2100    -5.8940     0.6660 H     1 <1>   0.1500 
@<TRIPOS>BOND
  1   1   2  2   
  2   2   3  am  
  3   2   4  1   
  4   3   5  1   
  5   3   6  1   
  6   4   7  1   
  7   4  30  1   
  8   4  31  1   
  9   5   8  1   
 10   5  32  1   
 11   5  33  1   
 12   6   9  1   
 13   6  34  1   
 14   6  35  1   
 15   7  10  2   
 16   7  11  1   
 17   8  12  1   
 18   8  36  1   
 19   8  37  1   
 20   9  12  1   
 21   9  38  1   
 22   9  39  1   
 23  10  13  1   
 24  11  14  ar  
 25  11  15  ar  
 26  12  16  1   
 27  12  17  1   
 28  13  14  1   
 29  13  40  1   
 30  14  18  ar  
 31  15  19  ar  
 32  15  41  1   
 33  16  20  1   
 34  17  21  ar  
 35  17  22  ar  
 36  18  23  ar  
 37  18  42  1   
 38  19  23  ar  
 39  19  43  1   
 40  20  24  1   
 41  20  44  1   
 42  20  45  1   
 43  21  25  1   
 44  21  26  ar  
 45  22  24  1   
 46  22  27  ar  
 47  23  46  1   
 48  24  47  1   
 49  24  48  1   
 50  25  28  1   
 51  26  29  ar  
 52  26  49  1   
 53  27  29  ar  
 54  27  50  1   
 55  28  51  1   
 56  28  52  1   
 57  28  53  1   
 58  29  54  1   
@<TRIPOS>SUBSTRUCTURE
  1 ****   8 GROUP 4 **** **** 0

# MOE 2024.06 (io_trps.svl 2023.06)
