@<TRIPOS>MOLECULE
NONAME
44 44 1 0 0 
SMALL
USER_CHARGES


@<TRIPOS>ATOM
  1 O        1.4310     0.0470    -1.8670 O.2   1 <1>  -0.5700 
  2 C        1.4190    -0.7520    -0.9540 C.2   1 <1>   0.5690 
  3 N        1.6170    -0.3320     0.3490 N.am  1 <1>  -0.6600 
  4 C        1.1960    -2.2400    -1.3570 C.3   1 <1>   0.2510 
  5 C        1.8970     1.0970     0.6510 C.3   1 <1>   0.1400 
  6 C        1.5480    -1.2100     1.5530 C.3   1 <1>   0.0600 
  7 N        0.0080    -2.9230    -0.7460 N.3   1 <1>  -0.8100 
  8 C        2.4740    -3.0560    -1.0960 C.3   1 <1>  -0.2400 
  9 C        3.4000     1.2970     0.8240 C.3   1 <1>  -0.2400 
 10 C       -0.3150    -4.2080    -1.4280 C.3   1 <1>   0.2530 
 11 C       -1.1780    -2.0430    -0.7900 C.3   1 <1>   0.0300 
 12 C       -1.3980    -5.0260    -0.7230 C.ar  1 <1>   0.1670 
 13 N       -2.3130    -5.5950    -1.4970 N.ar  1 <1>  -0.6200 
 14 C       -1.3770    -5.1460     0.6590 C.ar  1 <1>  -0.1500 
 15 C       -3.2380    -6.3010    -0.8660 C.ar  1 <1>   0.1600 
 16 C       -2.3460    -5.8870     1.3000 C.ar  1 <1>  -0.1500 
 17 C       -3.3060    -6.4830     0.5080 C.ar  1 <1>  -0.1430 
 18 C       -4.4130    -7.3160     1.1320 C.3   1 <1>  -0.0170 
 19 C       -5.6100    -6.4350     1.4940 C.3   1 <1>  -0.2400 
 20 H        1.0440    -2.2210    -2.4230 H     1 <1>   0.0800 
 21 H        1.3750     1.3900     1.5460 H     1 <1>   0.0800 
 22 H        1.5420     1.7220    -0.1520 H     1 <1>   0.0800 
 23 H        1.1080    -2.1610     1.3270 H     1 <1>   0.0800 
 24 H        0.9460    -0.7410     2.3120 H     1 <1>   0.0800 
 25 H        2.5380    -1.3710     1.9400 H     1 <1>   0.0800 
 26 H        2.5640    -3.3030    -0.0550 H     1 <1>   0.0800 
 27 H        3.3320    -2.4740    -1.3830 H     1 <1>   0.0800 
 28 H        2.4890    -3.9550    -1.6810 H     1 <1>   0.0800 
 29 H        3.7690     0.7190     1.6510 H     1 <1>   0.0800 
 30 H        3.6060     2.3350     1.0130 H     1 <1>   0.0800 
 31 H        3.9130     1.0070    -0.0750 H     1 <1>   0.0800 
 32 H        0.5550    -4.8340    -1.4760 H     1 <1>   0.0800 
 33 H       -0.6300    -4.0080    -2.4380 H     1 <1>   0.0800 
 34 H       -1.0130    -1.1570    -0.2000 H     1 <1>   0.0800 
 35 H       -2.0390    -2.5440    -0.3820 H     1 <1>   0.0800 
 36 H       -1.3960    -1.7520    -1.8040 H     1 <1>   0.0800 
 37 H       -0.6040    -4.6560     1.2240 H     1 <1>   0.1500 
 38 H       -3.9890    -6.7630    -1.4820 H     1 <1>   0.1500 
 39 H       -2.3500    -5.9910     2.3700 H     1 <1>   0.1500 
 40 H       -4.0430    -7.8050     2.0170 H     1 <1>   0.0800 
 41 H       -4.7240    -8.0830     0.4430 H     1 <1>   0.0800 
 42 H       -5.3140    -5.6760     2.1960 H     1 <1>   0.0800 
 43 H       -6.3880    -7.0310     1.9370 H     1 <1>   0.0800 
 44 H       -6.0000    -5.9560     0.6140 H     1 <1>   0.0800 
@<TRIPOS>BOND
  1   1   2  2   
  2   2   3  am  
  3   2   4  1   
  4   3   5  1   
  5   3   6  1   
  6   4   7  1   
  7   4   8  1   
  8   4  20  1   
  9   5   9  1   
 10   5  21  1   
 11   5  22  1   
 12   6  23  1   
 13   6  24  1   
 14   6  25  1   
 15   7  10  1   
 16   7  11  1   
 17   8  26  1   
 18   8  27  1   
 19   8  28  1   
 20   9  29  1   
 21   9  30  1   
 22   9  31  1   
 23  10  12  1   
 24  10  32  1   
 25  10  33  1   
 26  11  34  1   
 27  11  35  1   
 28  11  36  1   
 29  12  13  ar  
 30  12  14  ar  
 31  13  15  ar  
 32  14  16  ar  
 33  14  37  1   
 34  15  17  ar  
 35  15  38  1   
 36  16  17  ar  
 37  16  39  1   
 38  17  18  1   
 39  18  19  1   
 40  18  40  1   
 41  18  41  1   
 42  19  42  1   
 43  19  43  1   
 44  19  44  1   
@<TRIPOS>SUBSTRUCTURE
  1 ****   7 GROUP 4 **** **** 0

# MOE 2024.06 (io_trps.svl 2023.06)
