@<TRIPOS>MOLECULE
NONAME
57 60 1 0 0 
SMALL
USER_CHARGES


@<TRIPOS>ATOM
  1 O       -3.3660     2.3250    -2.7590 O.2   1 <1>  -0.5700 
  2 C       -3.2920     2.0720    -1.5720 C.2   1 <1>   0.5440 
  3 N       -4.2540     1.2750    -0.9870 N.am  1 <1>  -0.6600 
  4 C       -2.1920     2.6090    -0.8040 C.ar  1 <1>   0.0860 
  5 C       -5.3570     0.6540    -1.7700 C.3   1 <1>   0.1400 
  6 C       -4.2990     0.9490     0.4660 C.3   1 <1>   0.1400 
  7 C       -1.0340     1.8740    -0.5250 C.ar  1 <1>   0.1660 
  8 C       -2.2700     3.8970    -0.2940 C.ar  1 <1>  -0.1500 
  9 C       -5.2770    -0.8660    -1.6230 C.3   1 <1>  -0.1600 
 10 C       -4.2110    -0.5680     0.6420 C.3   1 <1>  -0.1600 
 11 N       -0.0260     2.3130     0.2140 N.ar  1 <1>  -0.6200 
 12 C       -0.8320     0.4660    -1.0620 C.3   1 <1>  -0.0970 
 13 C       -1.2200     4.3630     0.4640 C.ar  1 <1>  -0.1500 
 14 C       -5.3060    -1.3020    -0.1470 C.3   1 <1>   0.4240 
 15 C       -0.1310     3.5400     0.6910 C.ar  1 <1>   0.1670 
 16 O       -6.5200    -0.8650     0.4170 O.3   1 <1>  -0.5600 
 17 C       -5.1300    -2.8300    -0.0140 C.ar  1 <1>  -0.1430 
 18 C        1.0360     4.0260     1.5240 C.3   1 <1>  -0.0970 
 19 C       -7.6440    -1.6680     0.2320 C.3   1 <1>   0.1200 
 20 C       -6.1390    -3.6270     0.5170 C.ar  1 <1>  -0.1430 
 21 C       -3.9510    -3.4420    -0.4280 C.ar  1 <1>  -0.1500 
 22 C       -7.4350    -2.9870     0.9710 C.3   1 <1>  -0.0170 
 23 C       -5.9710    -4.9990     0.6280 C.ar  1 <1>  -0.1500 
 24 C       -3.7690    -4.8080    -0.3090 C.ar  1 <1>   0.0820 
 25 C       -4.8000    -5.6000     0.2040 C.ar  1 <1>   0.0820 
 26 O       -2.5720    -5.3130    -0.6990 O.3   1 <1>  -0.3620 
 27 O       -4.7170    -6.9500     0.3040 O.3   1 <1>  -0.3620 
 28 C       -1.7750    -5.8850     0.3150 C.3   1 <1>   0.0400 
 29 C       -4.6470    -7.6630    -0.9120 C.3   1 <1>   0.0400 
 30 H       -5.2870     0.9210    -2.8110 H     1 <1>   0.0800 
 31 H       -6.3010     1.0140    -1.3960 H     1 <1>   0.0800 
 32 H       -5.2260     1.3120     0.8780 H     1 <1>   0.0800 
 33 H       -3.4930     1.4220     1.0000 H     1 <1>   0.0800 
 34 H       -3.1340     4.5070    -0.4940 H     1 <1>   0.1500 
 35 H       -4.3610    -1.1950    -2.0780 H     1 <1>   0.0800 
 36 H       -6.0790    -1.3310    -2.1630 H     1 <1>   0.0800 
 37 H       -4.3010    -0.8200     1.6830 H     1 <1>   0.0800 
 38 H       -3.2410    -0.8880     0.3170 H     1 <1>   0.0800 
 39 H       -1.5890     0.1770    -1.7670 H     1 <1>   0.0800 
 40 H       -0.8330    -0.2310    -0.2450 H     1 <1>   0.0800 
 41 H        0.1210     0.4100    -1.5560 H     1 <1>   0.0800 
 42 H       -1.2490     5.3560     0.8730 H     1 <1>   0.1500 
 43 H        1.9320     4.0050     0.9310 H     1 <1>   0.0800 
 44 H        1.1670     3.3780     2.3710 H     1 <1>   0.0800 
 45 H        0.8730     5.0290     1.8740 H     1 <1>   0.0800 
 46 H       -7.7950    -1.8330    -0.8200 H     1 <1>   0.0800 
 47 H       -8.4940    -1.1440     0.6320 H     1 <1>   0.0800 
 48 H       -3.1480    -2.8650    -0.8480 H     1 <1>   0.1500 
 49 H       -8.2640    -3.6410     0.7700 H     1 <1>   0.0800 
 50 H       -7.3980    -2.8030     2.0290 H     1 <1>   0.0800 
 51 H       -6.7490    -5.6160     1.0380 H     1 <1>   0.1500 
 52 H       -0.8180    -6.1300    -0.1080 H     1 <1>   0.0800 
 53 H       -2.2500    -6.7750     0.6840 H     1 <1>   0.0800 
 54 H       -1.6560    -5.1690     1.1090 H     1 <1>   0.0800 
 55 H       -4.6900    -8.7130    -0.6880 H     1 <1>   0.0800 
 56 H       -3.7230    -7.4310    -1.4090 H     1 <1>   0.0800 
 57 H       -5.4830    -7.3810    -1.5270 H     1 <1>   0.0800 
@<TRIPOS>BOND
  1   1   2  2   
  2   2   3  am  
  3   2   4  1   
  4   3   5  1   
  5   3   6  1   
  6   4   7  ar  
  7   4   8  ar  
  8   5   9  1   
  9   5  30  1   
 10   5  31  1   
 11   6  10  1   
 12   6  32  1   
 13   6  33  1   
 14   7  11  ar  
 15   7  12  1   
 16   8  13  ar  
 17   8  34  1   
 18   9  14  1   
 19   9  35  1   
 20   9  36  1   
 21  10  14  1   
 22  10  37  1   
 23  10  38  1   
 24  11  15  ar  
 25  12  39  1   
 26  12  40  1   
 27  12  41  1   
 28  13  15  ar  
 29  13  42  1   
 30  14  16  1   
 31  14  17  1   
 32  15  18  1   
 33  16  19  1   
 34  17  20  ar  
 35  17  21  ar  
 36  18  43  1   
 37  18  44  1   
 38  18  45  1   
 39  19  22  1   
 40  19  46  1   
 41  19  47  1   
 42  20  22  1   
 43  20  23  ar  
 44  21  24  ar  
 45  21  48  1   
 46  22  49  1   
 47  22  50  1   
 48  23  25  ar  
 49  23  51  1   
 50  24  25  ar  
 51  24  26  1   
 52  25  27  1   
 53  26  28  1   
 54  27  29  1   
 55  28  52  1   
 56  28  53  1   
 57  28  54  1   
 58  29  55  1   
 59  29  56  1   
 60  29  57  1   
@<TRIPOS>SUBSTRUCTURE
  1 ****  10 GROUP 4 **** **** 0

# MOE 2024.06 (io_trps.svl 2023.06)
