@<TRIPOS>MOLECULE
NONAME
47 49 1 0 0 
SMALL
USER_CHARGES


@<TRIPOS>ATOM
  1 S       -0.1360    -1.5890     1.2180 S.3   1 <1>  -0.0800 
  2 C       -1.1890    -2.8640     0.6230 C.2   1 <1>  -0.1400 
  3 C        0.8480    -2.7460     2.0960 C.2   1 <1>  -0.1100 
  4 C       -0.7790    -4.0620     1.0870 C.2   1 <1>  -0.1500 
  5 C       -2.3340    -2.4310    -0.2740 C.3   1 <1>   0.3200 
  6 C        0.3790    -3.9950     1.9250 C.2   1 <1>  -0.1500 
  7 N       -3.1230    -3.6060    -0.6620 N.am  1 <1>  -0.7300 
  8 C       -3.8170    -3.7770    -1.8090 C.2   1 <1>   0.5690 
  9 O       -3.9520    -2.8900    -2.6180 O.2   1 <1>  -0.5700 
 10 C       -4.4280    -5.1600    -2.0620 C.3   1 <1>   0.1710 
 11 N       -4.4540    -6.0230    -0.8450 N.3   1 <1>  -0.8100 
 12 C       -4.4670    -7.4590    -1.2110 C.3   1 <1>   0.1100 
 13 C       -5.5860    -5.6940     0.0340 C.3   1 <1>   0.1100 
 14 C       -4.2650    -8.3500     0.0310 C.3   1 <1>  -0.1060 
 15 C       -5.4930    -6.5020     1.3300 C.3   1 <1>  -0.1600 
 16 C       -4.4570    -9.8180    -0.3520 C.2   1 <1>   0.9060 
 17 C       -5.3980    -7.9970     1.0180 C.3   1 <1>   0.2000 
 18 C       -2.8490    -8.1390     0.6450 C.3   1 <1>  -0.0650 
 19 O       -4.5890   -10.1390    -1.5390 O.co2 1 <1>  -0.9000 
 20 O       -4.5170   -10.6600     0.5590 O.co2 1 <1>  -0.9000 
 21 O       -5.2320    -8.6850     2.2040 O.3   1 <1>  -0.6800 
 22 C       -1.6870    -8.4390    -0.3170 C.3   1 <1>  -0.1950 
 23 C       -0.3150    -7.9230    -0.0220 C.3   1 <1>  -0.2000 
 24 C       -1.0920    -7.3760    -1.1850 C.3   1 <1>  -0.2000 
 25 H        1.6840    -2.3630     2.6540 H     1 <1>   0.1500 
 26 H       -1.2430    -5.0110     0.8760 H     1 <1>   0.1500 
 27 H       -1.9500    -1.9460    -1.1560 H     1 <1>   0.0800 
 28 H       -2.9670    -1.7380     0.2520 H     1 <1>   0.0800 
 29 H        0.7990    -4.8880     2.3530 H     1 <1>   0.1500 
 30 H       -3.0950    -4.4200    -0.0380 H     1 <1>   0.3700 
 31 H       -3.8240    -5.6290    -2.8180 H     1 <1>   0.0800 
 32 H       -5.4210    -5.0450    -2.4590 H     1 <1>   0.0800 
 33 H       -5.4060    -7.7050    -1.6810 H     1 <1>   0.0800 
 34 H       -3.6910    -7.6710    -1.9250 H     1 <1>   0.0800 
 35 H       -5.5750    -4.6440     0.2700 H     1 <1>   0.0800 
 36 H       -6.5130    -5.9200    -0.4680 H     1 <1>   0.0800 
 37 H       -6.3680    -6.3200     1.9250 H     1 <1>   0.0800 
 38 H       -4.6320    -6.1810     1.8870 H     1 <1>   0.0800 
 39 H       -6.3330    -8.3260     0.5960 H     1 <1>   0.0800 
 40 H       -2.7520    -7.1310     1.0020 H     1 <1>   0.0800 
 41 H       -2.7410    -8.7890     1.4960 H     1 <1>   0.0800 
 42 H       -4.9880    -9.6160     1.9300 H     1 <1>   0.4000 
 43 H       -1.7500    -9.4340    -0.7300 H     1 <1>   0.1000 
 44 H       -0.1700    -7.3040     0.8450 H     1 <1>   0.1000 
 45 H        0.5220    -8.5700    -0.2130 H     1 <1>   0.1000 
 46 H       -0.8070    -7.6480    -2.1860 H     1 <1>   0.1000 
 47 H       -1.5050    -6.3840    -1.1300 H     1 <1>   0.1000 
@<TRIPOS>BOND
  1   1   2  1   
  2   1   3  1   
  3   2   4  2   
  4   2   5  1   
  5   3   6  2   
  6   3  25  1   
  7   4   6  1   
  8   4  26  1   
  9   5   7  1   
 10   5  27  1   
 11   5  28  1   
 12   6  29  1   
 13   7   8  am  
 14   7  30  1   
 15   8   9  2   
 16   8  10  1   
 17  10  11  1   
 18  10  31  1   
 19  10  32  1   
 20  11  12  1   
 21  11  13  1   
 22  12  14  1   
 23  12  33  1   
 24  12  34  1   
 25  13  15  1   
 26  13  35  1   
 27  13  36  1   
 28  14  16  1   
 29  14  17  1   
 30  14  18  1   
 31  15  17  1   
 32  15  37  1   
 33  15  38  1   
 34  16  19  ar  
 35  16  20  ar  
 36  17  21  1   
 37  17  39  1   
 38  18  22  1   
 39  18  40  1   
 40  18  41  1   
 41  21  42  1   
 42  22  23  1   
 43  22  24  1   
 44  22  43  1   
 45  23  24  1   
 46  23  44  1   
 47  23  45  1   
 48  24  46  1   
 49  24  47  1   
@<TRIPOS>SUBSTRUCTURE
  1 ****  11 GROUP 4 **** **** 0

# MOE 2024.06 (io_trps.svl 2023.06)
