@<TRIPOS>MOLECULE
NONAME
64 66 1 0 0 
SMALL
USER_CHARGES


@<TRIPOS>ATOM
  1 O       -1.5120     0.0220     2.1560 O.2   1 <1>  -0.5700 
  2 C       -1.8550     0.7130     1.2160 C.2   1 <1>   0.7150 
  3 N       -2.3580     0.1110     0.0860 N.am  1 <1>  -0.6600 
  4 C       -1.6960     2.1360     1.2970 C.2   1 <1>  -0.2370 
  5 C       -2.4170    -1.3880    -0.0020 C.3   1 <1>   0.3640 
  6 C       -2.7930     0.8900    -1.1140 C.3   1 <1>   0.1400 
  7 N       -0.5310     2.7410     1.6480 N.pl3 1 <1>   0.3140 
  8 C       -2.5720     3.1530     1.0680 C.2   1 <1>  -0.1500 
  9 C       -1.0570    -1.9730    -0.4090 C.ar  1 <1>  -0.1440 
 10 C       -3.5370    -1.9300    -0.9480 C.3   1 <1>   0.2000 
 11 C       -3.2140    -0.0090    -2.2840 C.3   1 <1>   0.1200 
 12 N       -0.6290     4.0810     1.6140 N.2   1 <1>  -0.7070 
 13 C        0.7440     2.0960     2.0410 C.3   1 <1>   0.0960 
 14 C       -1.8570     4.3180     1.2690 C.2   1 <1>   0.1080 
 15 C       -0.7250    -3.2370     0.0620 C.ar  1 <1>  -0.1500 
 16 C       -0.1470    -1.3100    -1.2270 C.ar  1 <1>  -0.1500 
 17 O       -4.1000    -0.9720    -1.8140 O.3   1 <1>  -0.5600 
 18 C       -4.7000    -2.5400    -0.1570 C.3   1 <1>   0.1200 
 19 C        1.4840     1.5170     0.8280 C.3   1 <1>  -0.2400 
 20 C       -2.4090     5.7240     1.1140 C.3   1 <1>   0.0210 
 21 C        0.4760    -3.8370    -0.2760 C.ar  1 <1>   0.0830 
 22 C        1.0640    -1.8930    -1.5570 C.ar  1 <1>  -0.1500 
 23 O       -4.2860    -3.6960     0.5010 O.3   1 <1>  -0.6800 
 24 C       -2.8770     6.0260    -0.3230 C.3   1 <1>  -0.0800 
 25 O        0.6990    -5.0900     0.1910 O.3   1 <1>  -0.3630 
 26 C        1.3930    -3.1470    -1.0750 C.ar  1 <1>   0.0830 
 27 C       -1.7200     5.9270    -1.3280 C.3   1 <1>  -0.2400 
 28 C       -3.5070     7.4230    -0.3980 C.3   1 <1>  -0.2400 
 29 C        0.8030    -6.1140    -0.7740 C.3   1 <1>   0.0400 
 30 O        2.6110    -3.6430    -1.4040 O.3   1 <1>  -0.3630 
 31 C        3.5190    -3.8230    -0.3390 C.3   1 <1>   0.0400 
 32 H       -2.6240    -1.7670     0.9850 H     1 <1>   0.0800 
 33 H       -3.6380     1.4970    -0.8460 H     1 <1>   0.0800 
 34 H       -1.9980     1.5440    -1.4290 H     1 <1>   0.0800 
 35 H       -3.6090     3.0920     0.7940 H     1 <1>   0.1500 
 36 H       -3.1230    -2.6980    -1.5770 H     1 <1>   0.0800 
 37 H       -2.3720    -0.4980    -2.7410 H     1 <1>   0.0800 
 38 H       -3.7240     0.5720    -3.0320 H     1 <1>   0.0800 
 39 H        1.3580     2.8400     2.5160 H     1 <1>   0.0800 
 40 H        0.5390     1.3250     2.7610 H     1 <1>   0.0800 
 41 H       -1.4030    -3.7760     0.7020 H     1 <1>   0.1500 
 42 H       -0.3620    -0.3300    -1.6080 H     1 <1>   0.1500 
 43 H       -5.5110    -2.8030    -0.8140 H     1 <1>   0.0800 
 44 H       -5.0490    -1.8430     0.5850 H     1 <1>   0.0800 
 45 H        1.6610     2.2870     0.0990 H     1 <1>   0.0800 
 46 H        0.9110     0.7230     0.3860 H     1 <1>   0.0800 
 47 H        2.4300     1.1140     1.1410 H     1 <1>   0.0800 
 48 H       -3.2330     5.8360     1.7960 H     1 <1>   0.0800 
 49 H       -1.6490     6.4280     1.4030 H     1 <1>   0.0800 
 50 H        1.7660    -1.3730    -2.1840 H     1 <1>   0.1500 
 51 H       -4.2170    -4.4470    -0.1220 H     1 <1>   0.4000 
 52 H       -3.6280     5.3050    -0.5970 H     1 <1>   0.0800 
 53 H       -0.9400     6.6230    -1.0740 H     1 <1>   0.0800 
 54 H       -2.0650     6.1440    -2.3230 H     1 <1>   0.0800 
 55 H       -1.3010     4.9360    -1.3260 H     1 <1>   0.0800 
 56 H       -2.7860     8.1780    -0.1350 H     1 <1>   0.0800 
 57 H       -4.3420     7.4950     0.2760 H     1 <1>   0.0800 
 58 H       -3.8610     7.6200    -1.3940 H     1 <1>   0.0800 
 59 H        0.8550    -7.0560    -0.2590 H     1 <1>   0.0800 
 60 H        1.6920    -5.9670    -1.3580 H     1 <1>   0.0800 
 61 H       -0.0680    -6.0850    -1.4050 H     1 <1>   0.0800 
 62 H        4.4690    -4.1110    -0.7520 H     1 <1>   0.0800 
 63 H        3.1550    -4.5940     0.3150 H     1 <1>   0.0800 
 64 H        3.6150    -2.8950     0.1960 H     1 <1>   0.0800 
@<TRIPOS>BOND
  1   1   2  2   
  2   2   3  am  
  3   2   4  1   
  4   3   5  1   
  5   3   6  1   
  6   4   7  1   
  7   4   8  2   
  8   5   9  1   
  9   5  10  1   
 10   5  32  1   
 11   6  11  1   
 12   6  33  1   
 13   6  34  1   
 14   7  12  1   
 15   7  13  1   
 16   8  14  1   
 17   8  35  1   
 18   9  15  ar  
 19   9  16  ar  
 20  10  17  1   
 21  10  18  1   
 22  10  36  1   
 23  11  17  1   
 24  11  37  1   
 25  11  38  1   
 26  12  14  2   
 27  13  19  1   
 28  13  39  1   
 29  13  40  1   
 30  14  20  1   
 31  15  21  ar  
 32  15  41  1   
 33  16  22  ar  
 34  16  42  1   
 35  18  23  1   
 36  18  43  1   
 37  18  44  1   
 38  19  45  1   
 39  19  46  1   
 40  19  47  1   
 41  20  24  1   
 42  20  48  1   
 43  20  49  1   
 44  21  25  1   
 45  21  26  ar  
 46  22  26  ar  
 47  22  50  1   
 48  23  51  1   
 49  24  27  1   
 50  24  28  1   
 51  24  52  1   
 52  25  29  1   
 53  26  30  1   
 54  27  53  1   
 55  27  54  1   
 56  27  55  1   
 57  28  56  1   
 58  28  57  1   
 59  28  58  1   
 60  29  59  1   
 61  29  60  1   
 62  29  61  1   
 63  30  31  1   
 64  31  62  1   
 65  31  63  1   
 66  31  64  1   
@<TRIPOS>SUBSTRUCTURE
  1 ****   3 GROUP 4 **** **** 0

# MOE 2024.06 (io_trps.svl 2023.06)
