@<TRIPOS>MOLECULE
NONAME
60 62 1 0 0 
SMALL
USER_CHARGES


@<TRIPOS>ATOM
  1 S       -1.4160     0.0160    -1.7450 S.o2  1 <1>   1.0900 
  2 O       -1.4100     1.4590    -1.7790 O.2   1 <1>  -0.6500 
  3 O       -1.4130    -0.7350    -2.9770 O.2   1 <1>  -0.6500 
  4 C       -2.8270    -0.5150    -0.7790 C.3   1 <1>  -0.0550 
  5 C       -0.0060    -0.5180    -0.7910 C.3   1 <1>  -0.1350 
  6 C       -2.9780     0.2300     0.5560 C.3   1 <1>  -0.0990 
  7 C       -4.1950    -0.2810     1.2980 C.2   1 <1>   0.5690 
  8 O       -4.0210    -1.2510     1.9970 O.2   1 <1>  -0.5700 
  9 N       -5.4210     0.3160     1.1540 N.am  1 <1>  -0.6600 
 10 C       -6.5930    -0.1870     1.9360 C.3   1 <1>   0.1400 
 11 C       -5.6850     1.4840     0.2570 C.3   1 <1>   0.1400 
 12 C       -7.4950     0.9800     2.3460 C.3   1 <1>  -0.1600 
 13 C       -7.1660     1.5560    -0.1150 C.3   1 <1>  -0.1600 
 14 C       -8.0560     1.7640     1.1330 C.3   1 <1>   0.2800 
 15 O       -7.9070     3.1270     1.4720 O.3   1 <1>  -0.5600 
 16 C       -9.5540     1.3850     0.8790 C.3   1 <1>   0.2000 
 17 C       -8.9990     3.9920     1.3860 C.3   1 <1>   0.1200 
 18 O       -9.6520     0.0620     0.4350 O.3   1 <1>  -0.6800 
 19 C      -10.3380     2.3840    -0.0380 C.3   1 <1>   0.3000 
 20 C       -9.7020     3.7860     0.0450 C.3   1 <1>  -0.1600 
 21 N      -11.7170     2.5550     0.4900 N.am  1 <1>  -0.7300 
 22 C      -10.4030     1.9830    -1.5250 C.3   1 <1>  -0.2400 
 23 C      -12.8960     2.0130     0.0670 C.2   1 <1>   0.7160 
 24 O      -13.8030     2.8170    -0.0390 O.2   1 <1>  -0.5700 
 25 C      -13.1210     0.6030    -0.2360 C.2   1 <1>   0.1410 
 26 N      -12.3320    -0.4290     0.1890 N.2   1 <1>  -0.5650 
 27 C      -14.1500     0.0800    -0.9640 C.2   1 <1>  -0.3020 
 28 C      -12.8910    -1.4930    -0.2820 C.2   1 <1>   0.0360 
 29 N      -14.0080    -1.2490    -0.9990 N.pl3 1 <1>   0.0480 
 30 C      -14.8870    -2.2290    -1.6580 C.3   1 <1>   0.0160 
 31 H       -3.7180    -0.3580    -1.3570 H     1 <1>   0.0800 
 32 H       -2.7590    -1.5700    -0.5860 H     1 <1>   0.0800 
 33 H        0.0190    -0.0250     0.1620 H     1 <1>   0.0800 
 34 H        0.8980    -0.2780    -1.3160 H     1 <1>   0.0800 
 35 H       -0.0350    -1.5790    -0.6360 H     1 <1>   0.0800 
 36 H       -2.1170     0.0530     1.1730 H     1 <1>   0.0800 
 37 H       -3.0460     1.2900     0.3970 H     1 <1>   0.0800 
 38 H       -7.1480    -0.8850     1.3320 H     1 <1>   0.0800 
 39 H       -6.2550    -0.7030     2.8190 H     1 <1>   0.0800 
 40 H       -5.3980     2.3900     0.7640 H     1 <1>   0.0800 
 41 H       -5.1040     1.3980    -0.6450 H     1 <1>   0.0800 
 42 H       -6.9170     1.6320     2.9760 H     1 <1>   0.0800 
 43 H       -8.2980     0.5890     2.9440 H     1 <1>   0.0800 
 44 H       -7.4240     0.6420    -0.6180 H     1 <1>   0.0800 
 45 H       -7.3140     2.3550    -0.8150 H     1 <1>   0.0800 
 46 H      -10.0370     1.4010     1.8400 H     1 <1>   0.0800 
 47 H       -9.6570     3.8000     2.2170 H     1 <1>   0.0800 
 48 H       -8.6210     4.9970     1.4670 H     1 <1>   0.0800 
 49 H      -10.6160    -0.1800     0.3570 H     1 <1>   0.4000 
 50 H      -10.4430     4.5510    -0.1070 H     1 <1>   0.0800 
 51 H       -8.9670     3.9210    -0.7270 H     1 <1>   0.0800 
 52 H      -11.8730     3.4990     0.8350 H     1 <1>   0.3700 
 53 H       -9.4130     1.9240    -1.9380 H     1 <1>   0.0800 
 54 H      -10.9600     2.7090    -2.0890 H     1 <1>   0.0800 
 55 H      -10.8550     1.0180    -1.6580 H     1 <1>   0.0800 
 56 H      -14.9570     0.6100    -1.4370 H     1 <1>   0.1500 
 57 H      -12.5220    -2.4930    -0.1290 H     1 <1>   0.1500 
 58 H      -15.5840    -1.7150    -2.2950 H     1 <1>   0.0800 
 59 H      -15.4260    -2.7820    -0.9110 H     1 <1>   0.0800 
 60 H      -14.2930    -2.9010    -2.2490 H     1 <1>   0.0800 
@<TRIPOS>BOND
  1   1   2  2   
  2   1   3  2   
  3   1   4  1   
  4   1   5  1   
  5   4   6  1   
  6   4  31  1   
  7   4  32  1   
  8   5  33  1   
  9   5  34  1   
 10   5  35  1   
 11   6   7  1   
 12   6  36  1   
 13   6  37  1   
 14   7   8  2   
 15   7   9  am  
 16   9  10  1   
 17   9  11  1   
 18  10  12  1   
 19  10  38  1   
 20  10  39  1   
 21  11  13  1   
 22  11  40  1   
 23  11  41  1   
 24  12  14  1   
 25  12  42  1   
 26  12  43  1   
 27  13  14  1   
 28  13  44  1   
 29  13  45  1   
 30  14  15  1   
 31  14  16  1   
 32  15  17  1   
 33  16  18  1   
 34  16  19  1   
 35  16  46  1   
 36  17  20  1   
 37  17  47  1   
 38  17  48  1   
 39  18  49  1   
 40  19  20  1   
 41  19  21  1   
 42  19  22  1   
 43  20  50  1   
 44  20  51  1   
 45  21  23  am  
 46  21  52  1   
 47  22  53  1   
 48  22  54  1   
 49  22  55  1   
 50  23  24  2   
 51  23  25  1   
 52  25  26  1   
 53  25  27  2   
 54  26  28  2   
 55  27  29  1   
 56  27  56  1   
 57  28  29  1   
 58  28  57  1   
 59  29  30  1   
 60  30  58  1   
 61  30  59  1   
 62  30  60  1   
@<TRIPOS>SUBSTRUCTURE
  1 ****  13 GROUP 4 **** **** 0

# MOE 2024.06 (io_trps.svl 2023.06)
