@<TRIPOS>MOLECULE
NONAME
66 69 1 0 0 
SMALL
USER_CHARGES


@<TRIPOS>ATOM
  1 O       -0.0270     3.6160     2.1550 O.2   1 <1>  -0.5700 
  2 C        0.4030     3.2420     1.0820 C.2   1 <1>   0.5440 
  3 N       -0.3290     2.5630     0.1360 N.am  1 <1>  -0.6600 
  4 C        1.7120     3.5410     0.5840 C.ar  1 <1>   0.0860 
  5 C       -1.7800     2.1510     0.1380 C.3   1 <1>   0.3000 
  6 C        0.4950     2.4380    -1.1100 C.3   1 <1>   0.2840 
  7 C        1.8060     3.0900    -0.7150 C.ar  1 <1>  -0.1440 
  8 C        2.7960     4.1830     1.1710 C.ar  1 <1>  -0.1500 
  9 C       -2.3750     2.1280     1.5680 C.3   1 <1>  -0.1600 
 10 C       -1.8400     0.7010    -0.3980 C.3   1 <1>  -0.1600 
 11 C       -2.5830     3.0850    -0.8030 C.3   1 <1>  -0.0990 
 12 C        2.9610     3.2610    -1.4550 C.ar  1 <1>  -0.1500 
 13 C        3.9590     4.3600     0.4410 C.ar  1 <1>  -0.1500 
 14 C       -3.7560     1.4760     1.6720 C.3   1 <1>   0.1400 
 15 C       -3.2320     0.0670    -0.3180 C.3   1 <1>   0.1400 
 16 C       -2.4260     4.5890    -0.6610 C.2   1 <1>   0.5690 
 17 C        4.0420     3.9010    -0.8670 C.ar  1 <1>  -0.1500 
 18 N       -3.7190     0.1110     1.0830 N.am  1 <1>  -0.6600 
 19 O       -2.8170     5.2620    -1.5830 O.2   1 <1>  -0.5700 
 20 N       -1.8700     5.1500     0.4390 N.am  1 <1>  -0.7300 
 21 C       -4.1280    -0.9780     1.8120 C.2   1 <1>   0.5690 
 22 C       -1.5490     6.5730     0.6160 C.3   1 <1>   0.2200 
 23 O       -4.5610    -0.8770     2.9340 O.2   1 <1>  -0.5700 
 24 C       -4.0550    -2.3710     1.2290 C.3   1 <1>  -0.1790 
 25 C       -0.0470     6.7400     0.3430 C.3   1 <1>  -0.1600 
 26 C       -1.9890     6.9460     2.0370 C.3   1 <1>  -0.1600 
 27 C        0.3600     8.1620    -0.0930 C.3   1 <1>  -0.1600 
 28 C       -1.7980     8.4230     2.4180 C.3   1 <1>  -0.1600 
 29 C        1.2240     8.9060     0.9360 C.3   1 <1>  -0.1600 
 30 C       -0.3930     8.7570     2.9540 C.3   1 <1>  -0.1600 
 31 C        0.4370     9.6520     2.0220 C.3   1 <1>  -0.1600 
 32 H        0.0390     2.9690    -1.9270 H     1 <1>   0.0800 
 33 H        0.6540     1.4050    -1.3650 H     1 <1>   0.0800 
 34 H        2.7140     4.5360     2.1840 H     1 <1>   0.1500 
 35 H       -2.4670     3.1200     1.9650 H     1 <1>   0.0800 
 36 H       -1.7140     1.5800     2.2170 H     1 <1>   0.0800 
 37 H       -1.1650     0.0870     0.1730 H     1 <1>   0.0800 
 38 H       -1.5300     0.6650    -1.4260 H     1 <1>   0.0800 
 39 H       -3.6310     2.8810    -0.7140 H     1 <1>   0.0800 
 40 H       -2.3270     2.8510    -1.8180 H     1 <1>   0.0800 
 41 H        3.0270     2.9070    -2.4700 H     1 <1>   0.1500 
 42 H        4.8030     4.8570     0.8880 H     1 <1>   0.1500 
 43 H       -4.4970     2.0640     1.1590 H     1 <1>   0.0800 
 44 H       -4.0420     1.4330     2.7090 H     1 <1>   0.0800 
 45 H       -3.1780    -0.9440    -0.6790 H     1 <1>   0.0800 
 46 H       -3.9260     0.5990    -0.9470 H     1 <1>   0.0800 
 47 H        4.9500     4.0440    -1.4270 H     1 <1>   0.1500 
 48 H       -1.4240     4.5430     1.1410 H     1 <1>   0.3700 
 49 H       -2.1140     7.1470    -0.1010 H     1 <1>   0.0800 
 50 H       -3.0400    -2.6060     0.9740 H     1 <1>   0.0800 
 51 H       -4.6810    -2.4360     0.3600 H     1 <1>   0.0800 
 52 H       -4.4000    -3.0840     1.9550 H     1 <1>   0.0800 
 53 H        0.2130     6.0860    -0.4720 H     1 <1>   0.0800 
 54 H        0.5180     6.4180     1.1980 H     1 <1>   0.0800 
 55 H       -1.4880     6.3170     2.7520 H     1 <1>   0.0800 
 56 H       -3.0410     6.7330     2.1040 H     1 <1>   0.0800 
 57 H       -0.5000     8.7530    -0.3570 H     1 <1>   0.0800 
 58 H        0.9480     8.0630    -0.9890 H     1 <1>   0.0800 
 59 H       -2.4990     8.6370     3.2060 H     1 <1>   0.0800 
 60 H       -2.0670     9.0580     1.5910 H     1 <1>   0.0800 
 61 H        1.8040     9.6400     0.4040 H     1 <1>   0.0800 
 62 H        1.9260     8.2280     1.3890 H     1 <1>   0.0800 
 63 H        0.1570     7.8660     3.2030 H     1 <1>   0.0800 
 64 H       -0.5250     9.2990     3.8750 H     1 <1>   0.0800 
 65 H       -0.1900    10.4020     1.5720 H     1 <1>   0.0800 
 66 H        1.1560    10.1750     2.6290 H     1 <1>   0.0800 
@<TRIPOS>BOND
  1   1   2  2   
  2   2   3  am  
  3   2   4  1   
  4   3   5  1   
  5   3   6  1   
  6   4   7  ar  
  7   4   8  ar  
  8   5   9  1   
  9   5  10  1   
 10   5  11  1   
 11   6   7  1   
 12   6  32  1   
 13   6  33  1   
 14   7  12  ar  
 15   8  13  ar  
 16   8  34  1   
 17   9  14  1   
 18   9  35  1   
 19   9  36  1   
 20  10  15  1   
 21  10  37  1   
 22  10  38  1   
 23  11  16  1   
 24  11  39  1   
 25  11  40  1   
 26  12  17  ar  
 27  12  41  1   
 28  13  17  ar  
 29  13  42  1   
 30  14  18  1   
 31  14  43  1   
 32  14  44  1   
 33  15  18  1   
 34  15  45  1   
 35  15  46  1   
 36  16  19  2   
 37  16  20  am  
 38  17  47  1   
 39  18  21  am  
 40  20  22  1   
 41  20  48  1   
 42  21  23  2   
 43  21  24  1   
 44  22  25  1   
 45  22  26  1   
 46  22  49  1   
 47  24  50  1   
 48  24  51  1   
 49  24  52  1   
 50  25  27  1   
 51  25  53  1   
 52  25  54  1   
 53  26  28  1   
 54  26  55  1   
 55  26  56  1   
 56  27  29  1   
 57  27  57  1   
 58  27  58  1   
 59  28  30  1   
 60  28  59  1   
 61  28  60  1   
 62  29  31  1   
 63  29  61  1   
 64  29  62  1   
 65  30  31  1   
 66  30  63  1   
 67  30  64  1   
 68  31  65  1   
 69  31  66  1   
@<TRIPOS>SUBSTRUCTURE
  1 ****   2 GROUP 4 **** **** 0

# MOE 2024.06 (io_trps.svl 2023.06)
