@<TRIPOS>MOLECULE
NONAME
57 59 1 0 0 
SMALL
USER_CHARGES


@<TRIPOS>ATOM
  1 O       -0.2020    -0.1790     0.7220 O.2   1 <1>  -0.5700 
  2 C       -0.1830     0.9850     1.0550 C.2   1 <1>   0.5690 
  3 N       -1.3460     1.7130     1.1870 N.am  1 <1>  -0.6600 
  4 C        1.1870     1.5920     1.3460 C.3   1 <1>   0.1810 
  5 C       -2.6590     1.1480     0.7740 C.3   1 <1>   0.1400 
  6 C       -1.4100     3.1420     1.5890 C.3   1 <1>   0.1400 
  7 O        1.4580     2.6960     0.4960 O.3   1 <1>  -0.3620 
  8 C       -3.2310     1.9770    -0.3810 C.3   1 <1>  -0.1600 
  9 C       -1.9280     3.9710     0.4120 C.3   1 <1>  -0.1600 
 10 C        2.7630     3.0100     0.3430 C.ar  1 <1>   0.0820 
 11 C       -3.3090     3.4840    -0.0690 C.3   1 <1>   0.2800 
 12 C        3.5420     2.3220    -0.5880 C.ar  1 <1>  -0.1440 
 13 C        3.3030     4.0240     1.1280 C.ar  1 <1>  -0.1430 
 14 O       -3.5880     4.0960    -1.3020 O.3   1 <1>  -0.5600 
 15 C       -4.4370     3.8010     0.9520 C.3   1 <1>  -0.1600 
 16 C        4.8950     2.6300    -0.6940 C.ar  1 <1>  -0.1430 
 17 C        2.9150     1.2490    -1.4800 C.3   1 <1>  -0.0970 
 18 C        4.6480     4.3230     1.0010 C.ar  1 <1>  -0.1500 
 19 C        2.4470     4.8060     2.1130 C.3   1 <1>  -0.0970 
 20 C       -4.0100     5.4300    -1.2870 C.3   1 <1>   0.1200 
 21 C       -5.7060     4.3450     0.2930 C.3   1 <1>   0.2800 
 22 C        5.4350     3.6280     0.1020 C.ar  1 <1>  -0.1500 
 23 C        5.8150     1.9020    -1.6660 C.3   1 <1>  -0.0970 
 24 C       -5.3570     5.5690    -0.5590 C.3   1 <1>  -0.1600 
 25 O       -6.1810     3.3830    -0.5580 O.3   1 <1>  -0.6800 
 26 C       -6.8170     4.6330     1.2990 C.3   1 <1>  -0.2400 
 27 H        1.9430     0.8440     1.1890 H     1 <1>   0.0800 
 28 H        1.2350     1.9280     2.3640 H     1 <1>   0.0800 
 29 H       -3.3270     1.1570     1.6160 H     1 <1>   0.0800 
 30 H       -2.5510     0.1260     0.4550 H     1 <1>   0.0800 
 31 H       -0.4450     3.5080     1.8900 H     1 <1>   0.0800 
 32 H       -2.0720     3.2390     2.4320 H     1 <1>   0.0800 
 33 H       -4.2050     1.5990    -0.6290 H     1 <1>   0.0800 
 34 H       -2.5940     1.8280    -1.2360 H     1 <1>   0.0800 
 35 H       -1.2190     3.8900    -0.3940 H     1 <1>   0.0800 
 36 H       -1.9730     5.0010     0.7130 H     1 <1>   0.0800 
 37 H       -4.0870     4.5430     1.6450 H     1 <1>   0.0800 
 38 H       -4.6820     2.9370     1.5410 H     1 <1>   0.0800 
 39 H        1.8500     1.3730    -1.5580 H     1 <1>   0.0800 
 40 H        3.1160     0.2740    -1.0750 H     1 <1>   0.0800 
 41 H        3.3100     1.3020    -2.4770 H     1 <1>   0.0800 
 42 H        5.0920     5.0980     1.6000 H     1 <1>   0.1500 
 43 H        1.5460     5.1380     1.6290 H     1 <1>   0.0800 
 44 H        2.9720     5.6690     2.4770 H     1 <1>   0.0800 
 45 H        2.1880     4.1810     2.9480 H     1 <1>   0.0800 
 46 H       -4.1030     5.7530    -2.3090 H     1 <1>   0.0800 
 47 H       -3.2500     6.0250    -0.8120 H     1 <1>   0.0800 
 48 H        6.4790     3.8760     0.0250 H     1 <1>   0.1500 
 49 H        5.7000     0.8380    -1.5600 H     1 <1>   0.0800 
 50 H        6.8450     2.1460    -1.4780 H     1 <1>   0.0800 
 51 H        5.5770     2.1850    -2.6750 H     1 <1>   0.0800 
 52 H       -6.1430     5.7560    -1.2700 H     1 <1>   0.0800 
 53 H       -5.2980     6.4370     0.0700 H     1 <1>   0.0800 
 54 H       -5.4900     3.2580    -1.2440 H     1 <1>   0.4000 
 55 H       -6.4990     5.3790     2.0030 H     1 <1>   0.0800 
 56 H       -7.0700     3.7380     1.8390 H     1 <1>   0.0800 
 57 H       -7.6930     4.9940     0.7900 H     1 <1>   0.0800 
@<TRIPOS>BOND
  1   1   2  2   
  2   2   3  am  
  3   2   4  1   
  4   3   5  1   
  5   3   6  1   
  6   4   7  1   
  7   4  27  1   
  8   4  28  1   
  9   5   8  1   
 10   5  29  1   
 11   5  30  1   
 12   6   9  1   
 13   6  31  1   
 14   6  32  1   
 15   7  10  1   
 16   8  11  1   
 17   8  33  1   
 18   8  34  1   
 19   9  11  1   
 20   9  35  1   
 21   9  36  1   
 22  10  12  ar  
 23  10  13  ar  
 24  11  14  1   
 25  11  15  1   
 26  12  16  ar  
 27  12  17  1   
 28  13  18  ar  
 29  13  19  1   
 30  14  20  1   
 31  15  21  1   
 32  15  37  1   
 33  15  38  1   
 34  16  22  ar  
 35  16  23  1   
 36  17  39  1   
 37  17  40  1   
 38  17  41  1   
 39  18  22  ar  
 40  18  42  1   
 41  19  43  1   
 42  19  44  1   
 43  19  45  1   
 44  20  24  1   
 45  20  46  1   
 46  20  47  1   
 47  21  24  1   
 48  21  25  1   
 49  21  26  1   
 50  22  48  1   
 51  23  49  1   
 52  23  50  1   
 53  23  51  1   
 54  24  52  1   
 55  24  53  1   
 56  25  54  1   
 57  26  55  1   
 58  26  56  1   
 59  26  57  1   
@<TRIPOS>SUBSTRUCTURE
  1 ****   6 GROUP 4 **** **** 0

# MOE 2024.06 (io_trps.svl 2023.06)
