@<TRIPOS>MOLECULE
Untitled Document
40 43 1 0 0 
SMALL
USER_CHARGES


@<TRIPOS>ATOM
  1 S        0.4010     1.4490     1.9520 S.3   1 <1>  -0.1570 
  2 C       -1.1600     1.3860     1.0470 C.ar  1 <1>   0.1020 
  3 C        1.6210     1.3270     0.6500 C.2   1 <1>   0.2420 
  4 C       -1.4170     2.2230    -0.0440 C.ar  1 <1>   0.3490 
  5 C       -2.0870     0.4570     1.4810 C.ar  1 <1>  -0.1500 
  6 N        2.6290     0.5380     0.7020 N.2   1 <1>  -0.5650 
  7 N        1.4810     2.0610    -0.4870 N.pl3 1 <1>   0.3040 
  8 N       -0.5490     3.2590    -0.4640 N.pl3 1 <1>  -0.6530 
  9 C       -2.6280     2.0710    -0.7060 C.ar  1 <1>  -0.1500 
 10 C       -3.2900     0.3300     0.8100 C.ar  1 <1>  -0.1500 
 11 C        3.1860     0.6710    -0.5230 C.2   1 <1>   0.0770 
 12 C        0.7840     3.2710    -0.5680 C.cat 1 <1>   0.7080 
 13 C        2.5080     1.5750    -1.2590 C.2   1 <1>  -0.3020 
 14 C       -3.5570     1.1330    -0.2860 C.ar  1 <1>  -0.1500 
 15 N        1.4220     4.4610    -0.7240 N.pl3 1 <1>  -0.8330 
 16 C        0.7540     5.8030    -0.9660 C.3   1 <1>   0.3290 
 17 C        2.9390     4.6000    -0.6510 C.3   1 <1>   0.3290 
 18 C        1.2310     6.9070     0.0190 C.3   1 <1>   0.3430 
 19 C        3.4030     5.7160     0.3240 C.3   1 <1>   0.3430 
 20 N        2.7340     7.0490     0.0840 N.4   1 <1>  -0.9590 
 21 C        3.1300     8.0360     1.1450 C.3   1 <1>   0.2630 
 22 H       -1.8710    -0.1710     2.3300 H     1 <1>   0.1500 
 23 H       -1.0600     4.1100    -0.6710 H     1 <1>   0.4500 
 24 H       -2.8650     2.6840    -1.5580 H     1 <1>   0.1500 
 25 H       -4.0170    -0.3960     1.1380 H     1 <1>   0.1500 
 26 H        4.0520     0.0860    -0.8000 H     1 <1>   0.1500 
 27 H        2.6870     1.9010    -2.2690 H     1 <1>   0.1500 
 28 H       -4.4950     1.0240    -0.8080 H     1 <1>   0.1500 
 29 H       -0.3160     5.7300    -0.8900 H     1 <1>   0.0800 
 30 H        0.9720     6.1230    -1.9720 H     1 <1>   0.0800 
 31 H        3.3240     4.8100    -1.6350 H     1 <1>   0.0800 
 32 H        3.4070     3.6930    -0.3140 H     1 <1>   0.0800 
 33 H        0.8540     6.6670     1.0010 H     1 <1>   0.0800 
 34 H        0.7930     7.8480    -0.2710 H     1 <1>   0.0800 
 35 H        4.4730     5.8280     0.2420 H     1 <1>   0.0800 
 36 H        3.1930     5.3880     1.3300 H     1 <1>   0.0800 
 37 H        3.0710     7.4290    -0.8160 H     1 <1>   0.4500 
 38 H        2.8100     7.6980     2.1180 H     1 <1>   0.0800 
 39 H        2.6810     8.9980     0.9530 H     1 <1>   0.0800 
 40 H        4.2010     8.1620     1.1630 H     1 <1>   0.0800 
@<TRIPOS>BOND
  1   1   2  1   
  2   1   3  1   
  3   2   4  ar  
  4   2   5  ar  
  5   3   6  2   
  6   3   7  1   
  7   4   8  1   
  8   4   9  ar  
  9   5  10  ar  
 10   5  22  1   
 11   6  11  1   
 12   7  12  ar  
 13   7  13  1   
 14   8  12  ar  
 15   8  23  1   
 16   9  14  ar  
 17   9  24  1   
 18  10  14  ar  
 19  10  25  1   
 20  11  13  2   
 21  11  26  1   
 22  12  15  ar  
 23  13  27  1   
 24  14  28  1   
 25  15  16  1   
 26  15  17  1   
 27  16  18  1   
 28  16  29  1   
 29  16  30  1   
 30  17  19  1   
 31  17  31  1   
 32  17  32  1   
 33  18  20  1   
 34  18  33  1   
 35  18  34  1   
 36  19  20  1   
 37  19  35  1   
 38  19  36  1   
 39  20  21  1   
 40  20  37  1   
 41  21  38  1   
 42  21  39  1   
 43  21  40  1   
@<TRIPOS>SUBSTRUCTURE
  1 ****  12 GROUP 4 **** **** 0

# MOE 2024.06 (io_trps.svl 2023.06)
