@<TRIPOS>MOLECULE
NONAME
48 50 1 0 0 
SMALL
USER_CHARGES


@<TRIPOS>ATOM
  1 F       -0.9140    -0.4350    -0.7310 F     1 <1>  -0.1900 
  2 C       -2.1000     0.1030    -0.6070 C.ar  1 <1>   0.1900 
  3 C       -2.3200     1.4710    -0.8020 C.ar  1 <1>   0.0830 
  4 C       -3.1320    -0.7520    -0.2730 C.ar  1 <1>  -0.1500 
  5 O       -1.3910     2.4130    -1.1330 O.3   1 <1>  -0.3630 
  6 C       -3.6140     1.9420    -0.6490 C.ar  1 <1>  -0.1500 
  7 C       -4.4110    -0.2490    -0.1290 C.ar  1 <1>  -0.1500 
  8 C       -0.0190     2.1210    -1.2840 C.3   1 <1>   0.0400 
  9 C       -4.6850     1.1100    -0.3120 C.ar  1 <1>   0.0530 
 10 C       -6.0180     1.6510    -0.1690 C.2   1 <1>   0.0870 
 11 O       -6.3230     2.8020    -0.7150 O.3   1 <1>  -0.0190 
 12 C       -7.1460     1.2040     0.4440 C.2   1 <1>  -0.0860 
 13 N       -7.5640     3.1550    -0.5120 N.2   1 <1>  -0.4100 
 14 C       -8.0820     2.2130     0.1960 C.2   1 <1>   0.3720 
 15 C       -7.3840     0.0060     1.1830 C.2   1 <1>   0.7160 
 16 N       -9.4130     2.2070     0.6410 N.pl3 1 <1>  -0.8210 
 17 O       -6.7830    -0.1740     2.2260 O.2   1 <1>  -0.5700 
 18 N       -8.2360    -0.9790     0.7370 N.am  1 <1>  -0.6600 
 19 C       -9.5580     2.3650     2.1160 C.3   1 <1>   0.1290 
 20 C      -10.3420     3.1070    -0.1000 C.3   1 <1>   0.1290 
 21 C       -8.4160    -2.2700     1.4970 C.3   1 <1>   0.2010 
 22 C       -9.0730    -0.8720    -0.5000 C.3   1 <1>   0.1400 
 23 C       -8.6360    -3.4950     0.6020 C.2   1 <1>   0.5690 
 24 C       -8.8260    -2.0590    -1.4550 C.3   1 <1>   0.2200 
 25 O       -8.6260    -4.5970     1.0890 O.2   1 <1>  -0.5700 
 26 N       -8.8480    -3.3460    -0.7300 N.am  1 <1>  -0.7300 
 27 C       -9.8830    -2.1180    -2.5550 C.3   1 <1>  -0.2400 
 28 H       -2.9320    -1.7990    -0.1270 H     1 <1>   0.1500 
 29 H       -3.7860     2.9940    -0.7960 H     1 <1>   0.1500 
 30 H       -5.2000    -0.9310     0.1270 H     1 <1>   0.1500 
 31 H        0.4930     3.0360    -1.5190 H     1 <1>   0.0800 
 32 H        0.1040     1.4190    -2.0890 H     1 <1>   0.0800 
 33 H        0.3580     1.7200    -0.3600 H     1 <1>   0.0800 
 34 H      -10.5670     2.1320     2.4110 H     1 <1>   0.0800 
 35 H       -9.3300     3.3780     2.4010 H     1 <1>   0.0800 
 36 H       -8.8900     1.7020     2.6370 H     1 <1>   0.0800 
 37 H      -11.3610     2.8880     0.1690 H     1 <1>   0.0800 
 38 H      -10.2260     2.9590    -1.1610 H     1 <1>   0.0800 
 39 H      -10.1250     4.1360     0.1310 H     1 <1>   0.0800 
 40 H       -7.5520    -2.4630     2.1080 H     1 <1>   0.0800 
 41 H       -9.2640    -2.1730     2.1480 H     1 <1>   0.0800 
 42 H      -10.1100    -0.8510    -0.2110 H     1 <1>   0.0800 
 43 H       -8.8720     0.0400    -1.0300 H     1 <1>   0.0800 
 44 H       -7.8560    -1.9390    -1.9090 H     1 <1>   0.0800 
 45 H       -8.9620    -4.1990    -1.2800 H     1 <1>   0.3700 
 46 H      -10.8610    -2.2660    -2.1310 H     1 <1>   0.0800 
 47 H       -9.6680    -2.9210    -3.2370 H     1 <1>   0.0800 
 48 H       -9.8870    -1.1980    -3.1110 H     1 <1>   0.0800 
@<TRIPOS>BOND
  1   1   2  1   
  2   2   3  ar  
  3   2   4  ar  
  4   3   5  1   
  5   3   6  ar  
  6   4   7  ar  
  7   4  28  1   
  8   5   8  1   
  9   6   9  ar  
 10   6  29  1   
 11   7   9  ar  
 12   7  30  1   
 13   8  31  1   
 14   8  32  1   
 15   8  33  1   
 16   9  10  1   
 17  10  11  1   
 18  10  12  2   
 19  11  13  1   
 20  12  14  1   
 21  12  15  1   
 22  13  14  2   
 23  14  16  1   
 24  15  17  2   
 25  15  18  am  
 26  16  19  1   
 27  16  20  1   
 28  18  21  1   
 29  18  22  1   
 30  19  34  1   
 31  19  35  1   
 32  19  36  1   
 33  20  37  1   
 34  20  38  1   
 35  20  39  1   
 36  21  23  1   
 37  21  40  1   
 38  21  41  1   
 39  22  24  1   
 40  22  42  1   
 41  22  43  1   
 42  23  25  2   
 43  23  26  am  
 44  24  26  1   
 45  24  27  1   
 46  24  44  1   
 47  26  45  1   
 48  27  46  1   
 49  27  47  1   
 50  27  48  1   
@<TRIPOS>SUBSTRUCTURE
  1 ****  12 GROUP 4 **** **** 0

# MOE 2024.06 (io_trps.svl 2023.06)
