@<TRIPOS>MOLECULE
NONAME
45 46 1 0 0 
SMALL
USER_CHARGES


@<TRIPOS>ATOM
  1 CL      -1.6030    -1.6570     3.0010 Cl    1 <1>  -0.1770 
  2 C       -1.6680    -3.1560     2.1080 C.ar  1 <1>   0.1770 
  3 C       -1.8820    -4.3410     2.7870 C.ar  1 <1>  -0.1500 
  4 C       -1.5040    -3.1340     0.7350 C.ar  1 <1>  -0.1500 
  5 C       -1.9330    -5.5270     2.0740 C.ar  1 <1>  -0.1500 
  6 C       -1.5550    -4.3220     0.0240 C.ar  1 <1>  -0.1500 
  7 C       -1.7710    -5.5250     0.6950 C.ar  1 <1>   0.0830 
  8 O       -1.8370    -6.7300     0.0780 O.3   1 <1>  -0.3630 
  9 C       -1.6360    -6.8560    -1.3240 C.3   1 <1>   0.1810 
 10 C       -1.7730    -8.3070    -1.7670 C.2   1 <1>   0.5690 
 11 O       -1.9920    -8.5460    -2.9300 O.2   1 <1>  -0.5700 
 12 N       -1.6660    -9.3000    -0.8490 N.am  1 <1>  -0.7300 
 13 C       -1.8120   -10.7500    -1.1110 C.3   1 <1>   0.2200 
 14 C       -3.1820   -11.2400    -0.6690 C.3   1 <1>  -0.0800 
 15 C       -0.9170   -11.5160    -0.1470 C.3   1 <1>   0.1200 
 16 C       -2.9890   -11.4690     0.8360 C.3   1 <1>   0.1200 
 17 C       -4.3570   -10.3120    -1.0490 C.3   1 <1>  -0.0550 
 18 O       -1.6100   -11.5200     1.0640 O.3   1 <1>  -0.5600 
 19 S       -5.9790   -10.9790    -0.6670 S.o2  1 <1>   1.3330 
 20 O       -6.0000   -12.3660    -1.0780 O.2   1 <1>  -0.6500 
 21 O       -6.9940   -10.0730    -1.1540 O.2   1 <1>  -0.6500 
 22 N       -6.0440   -10.9400     1.0310 N.am  1 <1>  -0.8490 
 23 C       -6.9670   -11.9430     1.5700 C.3   1 <1>   0.1160 
 24 C       -6.3820    -9.6170     1.5680 C.3   1 <1>   0.1160 
 25 H       -2.0050    -4.3310     3.8550 H     1 <1>   0.1500 
 26 H       -1.3390    -2.1960     0.2350 H     1 <1>   0.1500 
 27 H       -2.0970    -6.4590     2.5850 H     1 <1>   0.1500 
 28 H       -1.4270    -4.2850    -1.0420 H     1 <1>   0.1500 
 29 H       -2.3750    -6.2620    -1.8290 H     1 <1>   0.0800 
 30 H       -0.6500    -6.5010    -1.5620 H     1 <1>   0.0800 
 31 H       -1.5260    -9.0550     0.1370 H     1 <1>   0.3700 
 32 H       -1.5970   -10.9750    -2.1430 H     1 <1>   0.0800 
 33 H       -3.3500   -12.2020    -1.1230 H     1 <1>   0.0800 
 34 H        0.0460   -11.0580    -0.0140 H     1 <1>   0.0800 
 35 H       -0.8000   -12.5380    -0.4630 H     1 <1>   0.0800 
 36 H       -3.4360   -12.3930     1.1610 H     1 <1>   0.0800 
 37 H       -3.3810   -10.6520     1.4180 H     1 <1>   0.0800 
 38 H       -4.3080   -10.1360    -2.1060 H     1 <1>   0.0800 
 39 H       -4.2460    -9.3640    -0.5630 H     1 <1>   0.0800 
 40 H       -6.9780   -11.9020     2.6450 H     1 <1>   0.0800 
 41 H       -6.6530   -12.9300     1.2740 H     1 <1>   0.0800 
 42 H       -7.9640   -11.7720     1.1970 H     1 <1>   0.0800 
 43 H       -6.3250    -9.6290     2.6430 H     1 <1>   0.0800 
 44 H       -7.3800    -9.3340     1.2740 H     1 <1>   0.0800 
 45 H       -5.6920    -8.8770     1.2010 H     1 <1>   0.0800 
@<TRIPOS>BOND
  1   1   2  1   
  2   2   3  ar  
  3   2   4  ar  
  4   3   5  ar  
  5   3  25  1   
  6   4   6  ar  
  7   4  26  1   
  8   5   7  ar  
  9   5  27  1   
 10   6   7  ar  
 11   6  28  1   
 12   7   8  1   
 13   8   9  1   
 14   9  10  1   
 15   9  29  1   
 16   9  30  1   
 17  10  11  2   
 18  10  12  am  
 19  12  13  1   
 20  12  31  1   
 21  13  14  1   
 22  13  15  1   
 23  13  32  1   
 24  14  16  1   
 25  14  17  1   
 26  14  33  1   
 27  15  18  1   
 28  15  34  1   
 29  15  35  1   
 30  16  18  1   
 31  16  36  1   
 32  16  37  1   
 33  17  19  1   
 34  17  38  1   
 35  17  39  1   
 36  19  20  2   
 37  19  21  2   
 38  19  22  am  
 39  22  23  1   
 40  22  24  1   
 41  23  40  1   
 42  23  41  1   
 43  23  42  1   
 44  24  43  1   
 45  24  44  1   
 46  24  45  1   
@<TRIPOS>SUBSTRUCTURE
  1 ****  12 GROUP 4 **** **** 0

# MOE 2024.06 (io_trps.svl 2023.06)
