@<TRIPOS>MOLECULE
NONAME
50 52 1 0 0 
SMALL
USER_CHARGES


@<TRIPOS>ATOM
  1 S       -0.2760     0.2510     1.1650 S.3   1 <1>  -0.0800 
  2 C        0.9450    -0.8420     0.5460 C.2   1 <1>  -0.0450 
  3 C        0.5720     1.6050     0.4620 C.2   1 <1>   0.1980 
  4 C        1.8570    -0.0820    -0.1040 C.2   1 <1>   0.0460 
  5 C        0.8450    -2.2560     0.8100 C.2   1 <1>   0.7150 
  6 N        1.6360     1.2780    -0.1560 N.2   1 <1>  -0.5650 
  7 C       -0.0440     2.9880     0.6610 C.3   1 <1>   0.1000 
  8 C        3.1140    -0.5720    -0.7940 C.3   1 <1>  -0.0590 
  9 O        1.8470    -2.8830     1.1030 O.2   1 <1>  -0.5700 
 10 N       -0.3470    -2.9390     0.7050 N.am  1 <1>  -0.6600 
 11 C       -1.2180     3.1990    -0.3040 C.3   1 <1>  -0.2400 
 12 C        0.9920     4.1050     0.4770 C.3   1 <1>  -0.2400 
 13 C       -1.4880    -2.5050    -0.1450 C.3   1 <1>   0.1400 
 14 C       -0.4800    -4.3860     0.9990 C.3   1 <1>   0.1400 
 15 C       -2.3270    -3.7650    -0.4100 C.3   1 <1>   0.2000 
 16 C       -1.3650    -4.9230    -0.1250 C.3   1 <1>  -0.0800 
 17 O       -3.3870    -3.8280     0.5010 O.3   1 <1>  -0.5600 
 18 C       -2.0470    -6.2610     0.2150 C.3   1 <1>   0.0200 
 19 C       -4.5370    -3.1360     0.1270 C.3   1 <1>   0.0400 
 20 C       -1.0690    -7.4190     0.3210 C.2   1 <1>  -0.0400 
 21 O       -1.5190    -8.5870     0.6990 O.3   1 <1>  -0.0190 
 22 C        0.2490    -7.5440     0.0980 C.2   1 <1>  -0.1500 
 23 N       -0.5750    -9.4820     0.7430 N.2   1 <1>  -0.4100 
 24 C        0.5020    -8.8820     0.3870 C.2   1 <1>   0.1080 
 25 C        1.8580    -9.5460     0.2970 C.3   1 <1>  -0.0590 
 26 H       -0.4140     3.0420     1.6710 H     1 <1>   0.0800 
 27 H        3.1960    -1.6410    -0.7420 H     1 <1>   0.0800 
 28 H        3.9740    -0.1360    -0.3200 H     1 <1>   0.0800 
 29 H        3.0990    -0.2730    -1.8260 H     1 <1>   0.0800 
 30 H       -0.8750     3.1310    -1.3220 H     1 <1>   0.0800 
 31 H       -1.6610     4.1670    -0.1510 H     1 <1>   0.0800 
 32 H       -1.9710     2.4490    -0.1450 H     1 <1>   0.0800 
 33 H        1.3810     4.0930    -0.5260 H     1 <1>   0.0800 
 34 H        1.8120     3.9590     1.1580 H     1 <1>   0.0800 
 35 H        0.5520     5.0670     0.6690 H     1 <1>   0.0800 
 36 H       -2.0720    -1.7540     0.3560 H     1 <1>   0.0800 
 37 H       -1.1080    -2.1130    -1.0720 H     1 <1>   0.0800 
 38 H        0.4750    -4.8810     1.0280 H     1 <1>   0.0800 
 39 H       -0.9700    -4.5000     1.9520 H     1 <1>   0.0800 
 40 H       -2.7170    -3.8040    -1.4130 H     1 <1>   0.0800 
 41 H       -0.7480    -5.0590    -0.9950 H     1 <1>   0.0800 
 42 H       -2.7690    -6.4960    -0.5460 H     1 <1>   0.0800 
 43 H       -2.5760    -6.1740     1.1490 H     1 <1>   0.0800 
 44 H       -5.2640    -3.2490     0.9120 H     1 <1>   0.0800 
 45 H       -4.9240    -3.5560    -0.7850 H     1 <1>   0.0800 
 46 H       -4.3060    -2.0930    -0.0020 H     1 <1>   0.0800 
 47 H        0.9750    -6.8220    -0.2260 H     1 <1>   0.1500 
 48 H        2.5480    -9.0570     0.9590 H     1 <1>   0.0800 
 49 H        2.2270    -9.4870    -0.7100 H     1 <1>   0.0800 
 50 H        1.7780   -10.5810     0.5790 H     1 <1>   0.0800 
@<TRIPOS>BOND
  1   1   2  1   
  2   1   3  1   
  3   2   4  2   
  4   2   5  1   
  5   3   6  2   
  6   3   7  1   
  7   4   6  1   
  8   4   8  1   
  9   5   9  2   
 10   5  10  am  
 11   7  11  1   
 12   7  12  1   
 13   7  26  1   
 14   8  27  1   
 15   8  28  1   
 16   8  29  1   
 17  10  13  1   
 18  10  14  1   
 19  11  30  1   
 20  11  31  1   
 21  11  32  1   
 22  12  33  1   
 23  12  34  1   
 24  12  35  1   
 25  13  15  1   
 26  13  36  1   
 27  13  37  1   
 28  14  16  1   
 29  14  38  1   
 30  14  39  1   
 31  15  16  1   
 32  15  17  1   
 33  15  40  1   
 34  16  18  1   
 35  16  41  1   
 36  17  19  1   
 37  18  20  1   
 38  18  42  1   
 39  18  43  1   
 40  19  44  1   
 41  19  45  1   
 42  19  46  1   
 43  20  21  1   
 44  20  22  2   
 45  21  23  1   
 46  22  24  1   
 47  22  47  1   
 48  23  24  2   
 49  24  25  1   
 50  25  48  1   
 51  25  49  1   
 52  25  50  1   
@<TRIPOS>SUBSTRUCTURE
  1 ****  10 GROUP 4 **** **** 0

# MOE 2024.06 (io_trps.svl 2023.06)
