@<TRIPOS>MOLECULE
NONAME
52 55 1 0 0 
SMALL
USER_CHARGES


@<TRIPOS>ATOM
  1 O        0.8720    -0.9300    -1.7080 O.2   1 <1>  -0.5700 
  2 C        1.5090    -1.7750    -1.1370 C.2   1 <1>   0.5690 
  3 N        0.9180    -2.6960    -0.3480 N.am  1 <1>  -0.7300 
  4 C        3.0130    -1.8370    -1.2760 C.3   1 <1>  -0.0990 
  5 C        1.6610    -3.7050     0.4320 C.3   1 <1>   0.1400 
  6 C        3.4730    -3.3000    -1.4300 C.3   1 <1>  -0.0800 
  7 C        2.8420    -4.2640    -0.3950 C.3   1 <1>  -0.0800 
  8 C        4.9970    -3.4540    -1.3120 C.3   1 <1>  -0.1600 
  9 C        4.0070    -4.7480     0.4760 C.3   1 <1>  -0.1600 
 10 C        5.2090    -4.7030    -0.4640 C.3   1 <1>   0.4230 
 11 N        6.5510    -4.7590     0.1940 N.4   1 <1>  -0.9590 
 12 C        6.7370    -4.0420     1.4970 C.3   1 <1>   0.4860 
 13 C        7.0140    -6.1710     0.3220 C.3   1 <1>   0.2630 
 14 C        6.7860    -2.5360     1.2970 C.ar  1 <1>  -0.1440 
 15 C        7.7690    -1.9580     0.4870 C.ar  1 <1>   0.0000 
 16 C        5.8440    -1.7360     1.9270 C.ar  1 <1>  -0.1500 
 17 C        8.7520    -2.7650    -0.1990 C.ar  1 <1>   0.0000 
 18 C        7.7710    -0.5780     0.3260 C.ar  1 <1>  -0.1500 
 19 C        5.8610    -0.3640     1.7510 C.ar  1 <1>  -0.1500 
 20 C        9.7730    -3.4050     0.4960 C.ar  1 <1>  -0.1500 
 21 C        8.6680    -2.9560    -1.5750 C.ar  1 <1>  -0.1500 
 22 C        6.8260     0.2150     0.9490 C.ar  1 <1>  -0.1500 
 23 C       10.6580    -4.2430    -0.1560 C.ar  1 <1>  -0.1500 
 24 C        9.5510    -3.7930    -2.2310 C.ar  1 <1>  -0.1500 
 25 C       10.5440    -4.4440    -1.5200 C.ar  1 <1>  -0.1500 
 26 H       -0.0960    -2.6240    -0.2280 H     1 <1>   0.3700 
 27 H        3.3140    -1.2590    -2.1310 H     1 <1>   0.0800 
 28 H        3.4410    -1.3900    -0.3970 H     1 <1>   0.0800 
 29 H        2.0170    -3.2300     1.3300 H     1 <1>   0.0800 
 30 H        0.9970    -4.5050     0.7150 H     1 <1>   0.0800 
 31 H        3.1630    -3.6290    -2.4090 H     1 <1>   0.0800 
 32 H        2.4670    -5.1140    -0.9430 H     1 <1>   0.0800 
 33 H        5.4050    -2.5820    -0.8410 H     1 <1>   0.0800 
 34 H        5.4440    -3.5670    -2.2840 H     1 <1>   0.0800 
 35 H        3.8280    -5.7390     0.8540 H     1 <1>   0.0800 
 36 H        4.1260    -4.0580     1.2900 H     1 <1>   0.0800 
 37 H        5.1210    -5.5430    -1.1360 H     1 <1>   0.0800 
 38 H        7.2090    -4.2860    -0.4480 H     1 <1>   0.4500 
 39 H        5.9520    -4.3020     2.1860 H     1 <1>   0.0800 
 40 H        7.6710    -4.3450     1.9390 H     1 <1>   0.0800 
 41 H        6.3820    -6.7140     1.0060 H     1 <1>   0.0800 
 42 H        8.0280    -6.1990     0.6880 H     1 <1>   0.0800 
 43 H        6.9870    -6.6610    -0.6380 H     1 <1>   0.0800 
 44 H        5.0870    -2.1610     2.5640 H     1 <1>   0.1500 
 45 H        8.5230    -0.1190    -0.2940 H     1 <1>   0.1500 
 46 H        5.1280     0.2570     2.2390 H     1 <1>   0.1500 
 47 H        9.8810    -3.2390     1.5550 H     1 <1>   0.1500 
 48 H        7.9100    -2.4380    -2.1380 H     1 <1>   0.1500 
 49 H        6.8420     1.2830     0.8120 H     1 <1>   0.1500 
 50 H       11.4460    -4.7320     0.3930 H     1 <1>   0.1500 
 51 H        9.4790    -3.9330    -3.2970 H     1 <1>   0.1500 
 52 H       11.2380    -5.0920    -2.0300 H     1 <1>   0.1500 
@<TRIPOS>BOND
  1   1   2  2   
  2   2   3  am  
  3   2   4  1   
  4   3   5  1   
  5   3  26  1   
  6   4   6  1   
  7   4  27  1   
  8   4  28  1   
  9   5   7  1   
 10   5  29  1   
 11   5  30  1   
 12   6   7  1   
 13   6   8  1   
 14   6  31  1   
 15   7   9  1   
 16   7  32  1   
 17   8  10  1   
 18   8  33  1   
 19   8  34  1   
 20   9  10  1   
 21   9  35  1   
 22   9  36  1   
 23  10  11  1   
 24  10  37  1   
 25  11  12  1   
 26  11  13  1   
 27  11  38  1   
 28  12  14  1   
 29  12  39  1   
 30  12  40  1   
 31  13  41  1   
 32  13  42  1   
 33  13  43  1   
 34  14  15  ar  
 35  14  16  ar  
 36  15  17  1   
 37  15  18  ar  
 38  16  19  ar  
 39  16  44  1   
 40  17  20  ar  
 41  17  21  ar  
 42  18  22  ar  
 43  18  45  1   
 44  19  22  ar  
 45  19  46  1   
 46  20  23  ar  
 47  20  47  1   
 48  21  24  ar  
 49  21  48  1   
 50  22  49  1   
 51  23  25  ar  
 52  23  50  1   
 53  24  25  ar  
 54  24  51  1   
 55  25  52  1   
@<TRIPOS>SUBSTRUCTURE
  1 ****   8 GROUP 4 **** **** 0

# MOE 2024.06 (io_trps.svl 2023.06)
