@<TRIPOS>MOLECULE
NONAME
48 50 1 0 0 
SMALL
USER_CHARGES


@<TRIPOS>ATOM
  1 O       -1.2840     0.2880     2.5210 O.2   1 <1>  -0.5700 
  2 C       -1.9370     0.9520     1.7380 C.2   1 <1>   0.5440 
  3 N       -3.1090     0.4310     1.2410 N.am  1 <1>  -0.6600 
  4 C       -1.4810     2.2710     1.3660 C.ar  1 <1>   0.0860 
  5 C       -3.9350     1.0790     0.1870 C.3   1 <1>   0.1400 
  6 C       -3.4500    -1.0100     1.3460 C.3   1 <1>   0.1400 
  7 C       -0.9030     2.5220     0.1190 C.ar  1 <1>   0.0830 
  8 C       -1.6020     3.3340     2.2600 C.ar  1 <1>  -0.1500 
  9 C       -4.9550     0.0150    -0.2240 C.3   1 <1>   0.2000 
 10 C       -4.2580    -1.3130     0.0790 C.3   1 <1>  -0.0800 
 11 O       -0.7740     1.5030    -0.7630 O.3   1 <1>  -0.3630 
 12 C       -0.4740     3.8040    -0.2320 C.ar  1 <1>   0.0830 
 13 C       -1.1790     4.6050     1.9240 C.ar  1 <1>  -0.1500 
 14 O       -6.0600     0.1260     0.6060 O.3   1 <1>  -0.6800 
 15 C       -3.3360    -1.7250    -1.0850 C.3   1 <1>   0.0210 
 16 C        0.4500     0.8070    -0.7280 C.3   1 <1>   0.0400 
 17 O        0.0750     3.9810    -1.4680 O.3   1 <1>  -0.3630 
 18 C       -0.6170     4.8440     0.6810 C.ar  1 <1>  -0.1500 
 19 C       -2.6460    -3.0460    -0.8050 C.2   1 <1>   0.1080 
 20 C        0.4980     5.2500    -1.9170 C.3   1 <1>   0.0400 
 21 N       -3.2560    -4.1870    -0.8810 N.2   1 <1>  -0.7070 
 22 C       -1.3120    -3.1850    -0.4360 C.2   1 <1>  -0.1500 
 23 N       -2.3160    -5.0960    -0.5600 N.pl3 1 <1>   0.3000 
 24 C       -1.1300    -4.5130    -0.2850 C.2   1 <1>  -0.3320 
 25 C        0.1220    -5.2710     0.1160 C.3   1 <1>  -0.0600 
 26 H       -4.4130     1.9730     0.5510 H     1 <1>   0.0800 
 27 H       -3.3140     1.3230    -0.6560 H     1 <1>   0.0800 
 28 H       -2.5640    -1.6170     1.4310 H     1 <1>   0.0800 
 29 H       -4.0550    -1.1620     2.2220 H     1 <1>   0.0800 
 30 H       -2.0320     3.1470     3.2280 H     1 <1>   0.1500 
 31 H       -5.2860     0.1130    -1.2430 H     1 <1>   0.0800 
 32 H       -4.9690    -2.1030     0.2480 H     1 <1>   0.0800 
 33 H       -1.2830     5.4120     2.6300 H     1 <1>   0.1500 
 34 H       -5.7560     0.1310     1.5350 H     1 <1>   0.4000 
 35 H       -2.5890    -0.9720    -1.2640 H     1 <1>   0.0800 
 36 H       -3.9180    -1.8380    -1.9820 H     1 <1>   0.0800 
 37 H        0.4210     0.0360    -1.4750 H     1 <1>   0.0800 
 38 H        0.5770     0.3730     0.2490 H     1 <1>   0.0800 
 39 H        1.2480     1.4980    -0.9390 H     1 <1>   0.0800 
 40 H       -0.2980     5.8430     0.4500 H     1 <1>   0.1500 
 41 H        0.8750     5.1400    -2.9180 H     1 <1>   0.0800 
 42 H        1.2780     5.6080    -1.2700 H     1 <1>   0.0800 
 43 H       -0.3440     5.9190    -1.9170 H     1 <1>   0.0800 
 44 H       -0.6070    -2.3840    -0.3020 H     1 <1>   0.1500 
 45 H       -2.5160    -6.1030    -0.5360 H     1 <1>   0.2700 
 46 H        0.9320    -4.5820     0.2850 H     1 <1>   0.0800 
 47 H        0.4100    -5.9540    -0.6640 H     1 <1>   0.0800 
 48 H       -0.0510    -5.8230     1.0220 H     1 <1>   0.0800 
@<TRIPOS>BOND
  1   1   2  2   
  2   2   3  am  
  3   2   4  1   
  4   3   5  1   
  5   3   6  1   
  6   4   7  ar  
  7   4   8  ar  
  8   5   9  1   
  9   5  26  1   
 10   5  27  1   
 11   6  10  1   
 12   6  28  1   
 13   6  29  1   
 14   7  11  1   
 15   7  12  ar  
 16   8  13  ar  
 17   8  30  1   
 18   9  10  1   
 19   9  14  1   
 20   9  31  1   
 21  10  15  1   
 22  10  32  1   
 23  11  16  1   
 24  12  17  1   
 25  12  18  ar  
 26  13  18  ar  
 27  13  33  1   
 28  14  34  1   
 29  15  19  1   
 30  15  35  1   
 31  15  36  1   
 32  16  37  1   
 33  16  38  1   
 34  16  39  1   
 35  17  20  1   
 36  18  40  1   
 37  19  21  2   
 38  19  22  1   
 39  20  41  1   
 40  20  42  1   
 41  20  43  1   
 42  21  23  1   
 43  22  24  2   
 44  22  44  1   
 45  23  24  1   
 46  23  45  1   
 47  24  25  1   
 48  25  46  1   
 49  25  47  1   
 50  25  48  1   
@<TRIPOS>SUBSTRUCTURE
  1 ****   3 GROUP 4 **** **** 0

# MOE 2024.06 (io_trps.svl 2023.06)
