@<TRIPOS>MOLECULE
NONAME
49 51 1 0 0 
SMALL
USER_CHARGES


@<TRIPOS>ATOM
  1 O       -1.5030    -0.3550    -0.3500 O.2   1 <1>  -0.5700 
  2 C       -1.9220     0.7650    -0.5840 C.2   1 <1>   0.6160 
  3 N       -2.5980     0.9860    -1.7690 N.am  1 <1>  -0.6600 
  4 C       -1.6380     1.8180     0.3440 C.2   1 <1>   0.0290 
  5 C       -2.8410    -0.1350    -2.7200 C.3   1 <1>   0.1400 
  6 C       -3.2130     2.2850    -2.1480 C.3   1 <1>   0.1400 
  7 C       -2.6590     2.1950     1.2690 C.2   1 <1>   0.6160 
  8 C       -0.4290     2.4700     0.3850 C.2   1 <1>  -0.1500 
  9 C       -4.1160    -0.9040    -2.3450 C.3   1 <1>   0.1400 
 10 C       -4.7420     2.2260    -2.0790 C.3   1 <1>  -0.1600 
 11 O       -3.7670     1.6880     1.3250 O.2   1 <1>  -0.5700 
 12 N       -2.3960     3.2090     2.1520 N.am  1 <1>  -0.5390 
 13 C       -0.2050     3.5060     1.3170 C.2   1 <1>  -0.1500 
 14 N       -5.4090    -0.1450    -2.4670 N.am  1 <1>  -0.6600 
 15 C       -5.3780     1.2290    -3.0540 C.3   1 <1>   0.1400 
 16 C       -1.1900     3.8620     2.1870 C.2   1 <1>  -0.0410 
 17 C       -6.6200    -0.6890    -2.0920 C.2   1 <1>   0.5690 
 18 O       -7.6660    -0.2540    -2.5180 O.2   1 <1>  -0.5700 
 19 C       -6.7130    -1.8820    -1.1460 C.3   1 <1>   0.0440 
 20 C       -7.0190    -1.4430     0.2880 C.ar  1 <1>  -0.1430 
 21 C       -8.2850    -1.5540     0.8610 C.ar  1 <1>  -0.1430 
 22 C       -5.9840    -0.9010     1.0380 C.ar  1 <1>  -0.1500 
 23 C       -8.4810    -1.1450     2.1720 C.ar  1 <1>  -0.1500 
 24 C       -9.4790    -2.0980     0.0880 C.3   1 <1>  -0.0970 
 25 C       -6.1890    -0.4890     2.3410 C.ar  1 <1>  -0.1500 
 26 C       -7.4400    -0.6160     2.9120 C.ar  1 <1>  -0.1500 
 27 H       -2.0090    -0.8170    -2.6800 H     1 <1>   0.0800 
 28 H       -2.9000     0.2280    -3.7300 H     1 <1>   0.0800 
 29 H       -2.9050     2.5390    -3.1480 H     1 <1>   0.0800 
 30 H       -2.8650     3.0680    -1.4980 H     1 <1>   0.0800 
 31 H        0.3640     2.1960    -0.2900 H     1 <1>   0.1500 
 32 H       -3.9940    -1.2440    -1.3320 H     1 <1>   0.0800 
 33 H       -4.1790    -1.7730    -2.9750 H     1 <1>   0.0800 
 34 H       -5.1100     3.2050    -2.3290 H     1 <1>   0.0800 
 35 H       -5.0660     2.0160    -1.0740 H     1 <1>   0.0800 
 36 H       -3.1660     3.4270     2.7870 H     1 <1>   0.3700 
 37 H        0.7520     3.9990     1.3250 H     1 <1>   0.1500 
 38 H       -4.8620     1.2210    -3.9970 H     1 <1>   0.0800 
 39 H       -6.3830     1.5600    -3.2530 H     1 <1>   0.0800 
 40 H       -1.0580     4.6470     2.9150 H     1 <1>   0.1500 
 41 H       -5.8100    -2.4570    -1.1480 H     1 <1>   0.0800 
 42 H       -7.4760    -2.5360    -1.5170 H     1 <1>   0.0800 
 43 H       -5.0020    -0.7800     0.6150 H     1 <1>   0.1500 
 44 H       -9.4520    -1.2300     2.6270 H     1 <1>   0.1500 
 45 H       -9.5900    -1.5610    -0.8380 H     1 <1>   0.0800 
 46 H      -10.3880    -1.9820     0.6490 H     1 <1>   0.0800 
 47 H       -9.3390    -3.1420    -0.1210 H     1 <1>   0.0800 
 48 H       -5.3730    -0.0650     2.8980 H     1 <1>   0.1500 
 49 H       -7.6020    -0.2990     3.9260 H     1 <1>   0.1500 
@<TRIPOS>BOND
  1   1   2  2   
  2   2   3  am  
  3   2   4  1   
  4   3   5  1   
  5   3   6  1   
  6   4   7  1   
  7   4   8  2   
  8   5   9  1   
  9   5  27  1   
 10   5  28  1   
 11   6  10  1   
 12   6  29  1   
 13   6  30  1   
 14   7  11  2   
 15   7  12  am  
 16   8  13  1   
 17   8  31  1   
 18   9  14  1   
 19   9  32  1   
 20   9  33  1   
 21  10  15  1   
 22  10  34  1   
 23  10  35  1   
 24  12  16  1   
 25  12  36  1   
 26  13  16  2   
 27  13  37  1   
 28  14  15  1   
 29  14  17  am  
 30  15  38  1   
 31  15  39  1   
 32  16  40  1   
 33  17  18  2   
 34  17  19  1   
 35  19  20  1   
 36  19  41  1   
 37  19  42  1   
 38  20  21  ar  
 39  20  22  ar  
 40  21  23  ar  
 41  21  24  1   
 42  22  25  ar  
 43  22  43  1   
 44  23  26  ar  
 45  23  44  1   
 46  24  45  1   
 47  24  46  1   
 48  24  47  1   
 49  25  26  ar  
 50  25  48  1   
 51  26  49  1   
@<TRIPOS>SUBSTRUCTURE
  1 ****  11 GROUP 4 **** **** 0

# MOE 2024.06 (io_trps.svl 2023.06)
