@<TRIPOS>MOLECULE
NONAME
48 51 1 0 0 
SMALL
USER_CHARGES


@<TRIPOS>ATOM
  1 O        0.3990     1.6100     0.7870 O.2   1 <1>  -0.5700 
  2 C        1.1300     2.5570     0.6720 C.2   1 <1>   0.4230 
  3 C        2.5110     2.6570     1.0240 C.ar  1 <1>   0.0860 
  4 C        0.6690     3.8760     0.0950 C.3   1 <1>  -0.0990 
  5 C        3.0240     3.9030     0.7110 C.ar  1 <1>  -0.1440 
  6 C        3.3230     1.6990     1.6150 C.ar  1 <1>  -0.1500 
  7 C        1.9300     4.7640     0.0900 C.3   1 <1>  -0.0160 
  8 C        4.3550     4.2440     0.9740 C.ar  1 <1>   0.0860 
  9 C        4.6390     2.0060     1.8960 C.ar  1 <1>  -0.1500 
 10 C        4.9490     5.5360     0.6560 C.2   1 <1>   0.5440 
 11 C        5.1390     3.2590     1.5820 C.ar  1 <1>  -0.1500 
 12 O        5.8970     5.9660     1.2880 O.2   1 <1>  -0.5700 
 13 N        4.5610     6.2840    -0.4280 N.am  1 <1>  -0.6600 
 14 C        5.1350     5.9710    -1.7730 C.3   1 <1>   0.1400 
 15 C        4.0480     7.6730    -0.2520 C.3   1 <1>   0.1400 
 16 C        6.6460     6.2970    -1.8500 C.3   1 <1>   0.3430 
 17 C        5.1660     8.7100    -0.0520 C.3   1 <1>  -0.1600 
 18 N        7.0420     7.3590    -0.8740 N.4   1 <1>  -0.9590 
 19 C        6.3200     8.6450    -1.0550 C.3   1 <1>   0.3430 
 20 C        8.5090     7.5020    -0.7110 C.3   1 <1>   0.5240 
 21 C        8.7790     8.4100     0.4690 C.2   1 <1>  -0.1810 
 22 C        8.4680     8.2170     1.7700 C.2   1 <1>  -0.0100 
 23 C        9.4140     9.6600     0.4150 C.2   1 <1>  -0.1500 
 24 O        8.8540     9.2460     2.4950 O.3   1 <1>  -0.2800 
 25 C        9.4250    10.1140     1.6860 C.2   1 <1>  -0.0100 
 26 H       -0.1000     4.2920     0.7200 H     1 <1>   0.0800 
 27 H        0.2880     3.7260    -0.8990 H     1 <1>   0.0800 
 28 H        2.9120     0.7310     1.8510 H     1 <1>   0.1500 
 29 H        1.7690     5.6530     0.6760 H     1 <1>   0.0800 
 30 H        2.1850     5.0350    -0.9190 H     1 <1>   0.0800 
 31 H        5.2740     1.2710     2.3620 H     1 <1>   0.1500 
 32 H        6.1670     3.4780     1.8200 H     1 <1>   0.1500 
 33 H        4.6100     6.5320    -2.5270 H     1 <1>   0.0800 
 34 H        4.9870     4.9270    -1.9940 H     1 <1>   0.0800 
 35 H        3.3970     7.6970     0.6070 H     1 <1>   0.0800 
 36 H        3.4540     7.9390    -1.1110 H     1 <1>   0.0800 
 37 H        6.9030     6.5890    -2.8540 H     1 <1>   0.0800 
 38 H        7.1890     5.3940    -1.6220 H     1 <1>   0.0800 
 39 H        5.5570     8.6250     0.9470 H     1 <1>   0.0800 
 40 H        4.7220     9.6870    -0.1170 H     1 <1>   0.0800 
 41 H        6.6950     7.0020     0.0450 H     1 <1>   0.4500 
 42 H        6.9850     9.4730    -0.8660 H     1 <1>   0.0800 
 43 H        5.9490     8.7340    -2.0630 H     1 <1>   0.0800 
 44 H        8.9470     7.9180    -1.6030 H     1 <1>   0.0800 
 45 H        8.9550     6.5390    -0.5230 H     1 <1>   0.0800 
 46 H        7.9770     7.3970     2.2690 H     1 <1>   0.1500 
 47 H        9.8100    10.1460    -0.4610 H     1 <1>   0.1500 
 48 H        9.8150    11.0280     2.1020 H     1 <1>   0.1500 
@<TRIPOS>BOND
  1   1   2  2   
  2   2   3  1   
  3   2   4  1   
  4   3   5  ar  
  5   3   6  ar  
  6   4   7  1   
  7   4  26  1   
  8   4  27  1   
  9   5   7  1   
 10   5   8  ar  
 11   6   9  ar  
 12   6  28  1   
 13   7  29  1   
 14   7  30  1   
 15   8  10  1   
 16   8  11  ar  
 17   9  11  ar  
 18   9  31  1   
 19  10  12  2   
 20  10  13  am  
 21  11  32  1   
 22  13  14  1   
 23  13  15  1   
 24  14  16  1   
 25  14  33  1   
 26  14  34  1   
 27  15  17  1   
 28  15  35  1   
 29  15  36  1   
 30  16  18  1   
 31  16  37  1   
 32  16  38  1   
 33  17  19  1   
 34  17  39  1   
 35  17  40  1   
 36  18  19  1   
 37  18  20  1   
 38  18  41  1   
 39  19  42  1   
 40  19  43  1   
 41  20  21  1   
 42  20  44  1   
 43  20  45  1   
 44  21  22  2   
 45  21  23  1   
 46  22  24  1   
 47  22  46  1   
 48  23  25  2   
 49  23  47  1   
 50  24  25  1   
 51  25  48  1   
@<TRIPOS>SUBSTRUCTURE
  1 ****  10 GROUP 4 **** **** 0

# MOE 2024.06 (io_trps.svl 2023.06)
