@<TRIPOS>MOLECULE
NONAME
52 55 1 0 0 
SMALL
USER_CHARGES


@<TRIPOS>ATOM
  1 S       -0.4360    -0.3120    -1.6610 S.o2  1 <1>   1.5000 
  2 O       -0.9700    -1.4540    -2.3720 O.2   1 <1>  -0.6500 
  3 O       -0.1650     0.8990    -2.4060 O.2   1 <1>  -0.6500 
  4 N       -1.5580     0.1010    -0.4570 N.am  1 <1>  -0.8490 
  5 C        1.0540    -0.8280    -0.7610 C.2   1 <1>  -0.0220 
  6 C       -2.9390    -0.0170    -0.9400 C.3   1 <1>   0.1960 
  7 C       -1.2470     1.3590     0.2450 C.3   1 <1>   0.1960 
  8 S        0.8260    -1.4900     0.8670 S.3   1 <1>  -0.0800 
  9 C        2.3680    -0.8530    -1.0810 C.2   1 <1>  -0.1810 
 10 C       -3.9210     0.6840     0.0020 C.3   1 <1>  -0.1600 
 11 C       -2.1580     2.4960    -0.2190 C.3   1 <1>  -0.1600 
 12 C        2.5520    -1.7690     1.0790 C.ar  1 <1>   0.0400 
 13 C        3.2380    -1.3730    -0.0560 C.ar  1 <1>   0.0000 
 14 C        2.9570    -0.3920    -2.4070 C.3   1 <1>  -0.0590 
 15 C       -3.6240     2.1970     0.1400 C.3   1 <1>   0.2800 
 16 C        3.1670    -2.3010     2.1940 C.ar  1 <1>  -0.1500 
 17 C        4.6220    -1.5260    -0.0570 C.ar  1 <1>  -0.1500 
 18 O       -3.7370     2.5120     1.5040 O.3   1 <1>  -0.5600 
 19 C       -4.5480     3.0820    -0.7250 C.3   1 <1>  -0.1600 
 20 C        4.5420    -2.4430     2.1670 C.ar  1 <1>  -0.1500 
 21 C        5.2820    -2.0590     1.0440 C.ar  1 <1>   0.0730 
 22 C       -4.9160     3.0440     2.0430 C.3   1 <1>   0.1200 
 23 C       -5.9990     3.1860    -0.2160 C.3   1 <1>   0.2800 
 24 C        6.7080    -2.2120     1.0280 C.1   1 <1>   0.4840 
 25 C       -6.1470     2.6730     1.2170 C.3   1 <1>  -0.1600 
 26 O       -6.3240     4.5220    -0.1960 O.3   1 <1>  -0.6800 
 27 C       -7.0140     2.5310    -1.1530 C.3   1 <1>  -0.2400 
 28 N        7.8420    -2.3300     1.0060 N.1   1 <1>  -0.5570 
 29 H       -3.1940    -1.0610    -1.0220 H     1 <1>   0.0800 
 30 H       -3.0200     0.4210    -1.9220 H     1 <1>   0.0800 
 31 H       -0.2150     1.6330     0.1030 H     1 <1>   0.0800 
 32 H       -1.3970     1.2080     1.3020 H     1 <1>   0.0800 
 33 H       -3.8530     0.2040     0.9620 H     1 <1>   0.0800 
 34 H       -4.9120     0.5220    -0.3730 H     1 <1>   0.0800 
 35 H       -2.0400     2.6140    -1.2820 H     1 <1>   0.0800 
 36 H       -1.8550     3.4180     0.2420 H     1 <1>   0.0800 
 37 H        2.1900    -0.0640    -3.0850 H     1 <1>   0.0800 
 38 H        3.4920    -1.2000    -2.8730 H     1 <1>   0.0800 
 39 H        3.6340     0.4270    -2.2430 H     1 <1>   0.0800 
 40 H        2.5850    -2.5930     3.0510 H     1 <1>   0.1500 
 41 H        5.1860    -1.2290    -0.9240 H     1 <1>   0.1500 
 42 H       -4.5430     2.6990    -1.7300 H     1 <1>   0.0800 
 43 H       -4.1090     4.0630    -0.7750 H     1 <1>   0.0800 
 44 H        5.0510    -2.8560     3.0220 H     1 <1>   0.1500 
 45 H       -4.8000     4.1130     2.0880 H     1 <1>   0.0800 
 46 H       -5.0090     2.6700     3.0480 H     1 <1>   0.0800 
 47 H       -7.0340     3.0830     1.6660 H     1 <1>   0.0800 
 48 H       -6.2560     1.6040     1.2300 H     1 <1>   0.0800 
 49 H       -5.6740     5.0070     0.3430 H     1 <1>   0.4000 
 50 H       -6.8350     1.4760    -1.2320 H     1 <1>   0.0800 
 51 H       -6.9450     2.9620    -2.1360 H     1 <1>   0.0800 
 52 H       -8.0110     2.6770    -0.7790 H     1 <1>   0.0800 
@<TRIPOS>BOND
  1   1   2  2   
  2   1   3  2   
  3   1   4  am  
  4   1   5  1   
  5   4   6  1   
  6   4   7  1   
  7   5   8  1   
  8   5   9  2   
  9   6  10  1   
 10   6  29  1   
 11   6  30  1   
 12   7  11  1   
 13   7  31  1   
 14   7  32  1   
 15   8  12  1   
 16   9  13  1   
 17   9  14  1   
 18  10  15  1   
 19  10  33  1   
 20  10  34  1   
 21  11  15  1   
 22  11  35  1   
 23  11  36  1   
 24  12  13  ar  
 25  12  16  ar  
 26  13  17  ar  
 27  14  37  1   
 28  14  38  1   
 29  14  39  1   
 30  15  18  1   
 31  15  19  1   
 32  16  20  ar  
 33  16  40  1   
 34  17  21  ar  
 35  17  41  1   
 36  18  22  1   
 37  19  23  1   
 38  19  42  1   
 39  19  43  1   
 40  20  21  ar  
 41  20  44  1   
 42  21  24  1   
 43  22  25  1   
 44  22  45  1   
 45  22  46  1   
 46  23  25  1   
 47  23  26  1   
 48  23  27  1   
 49  24  28  3   
 50  25  47  1   
 51  25  48  1   
 52  26  49  1   
 53  27  50  1   
 54  27  51  1   
 55  27  52  1   
@<TRIPOS>SUBSTRUCTURE
  1 ****   4 GROUP 4 **** **** 0

# MOE 2024.06 (io_trps.svl 2023.06)
