@<TRIPOS>MOLECULE
NONAME
54 56 1 0 0 
SMALL
USER_CHARGES


@<TRIPOS>ATOM
  1 O       -1.0680    -0.1550     2.5940 O.2   1 <1>  -0.5700 
  2 C       -1.2670     0.5670     1.6430 C.2   1 <1>   0.5690 
  3 N       -1.8910     0.1240     0.4800 N.am  1 <1>  -0.4770 
  4 C       -0.8000     2.0250     1.8130 C.3   1 <1>   0.1710 
  5 C       -2.1610    -1.2350     0.1650 C.ar  1 <1>   0.1170 
  6 C       -2.4140     1.1060    -0.5120 C.3   1 <1>   0.1400 
  7 N        0.0590     2.5720     0.7210 N.3   1 <1>  -0.8100 
  8 C       -3.2580    -1.5810    -0.6330 C.ar  1 <1>  -0.1430 
  9 C       -1.3380    -2.2670     0.6130 C.ar  1 <1>  -0.1500 
 10 C       -3.9140     0.8740    -0.6800 C.3   1 <1>  -0.1600 
 11 C        0.3200     4.0020     0.9370 C.3   1 <1>   0.1100 
 12 C        1.3030     1.7940     0.6030 C.3   1 <1>   0.0300 
 13 C       -3.5230    -2.9090    -0.9260 C.ar  1 <1>  -0.1500 
 14 C       -4.1800    -0.5270    -1.2340 C.3   1 <1>  -0.0170 
 15 C       -1.6060    -3.5890     0.3160 C.ar  1 <1>  -0.1500 
 16 C        0.6070     4.6920    -0.3990 C.3   1 <1>  -0.1600 
 17 C       -2.7070    -3.9210    -0.4520 C.ar  1 <1>  -0.1430 
 18 C        0.8830     6.1870    -0.2190 C.3   1 <1>   0.2000 
 19 C       -3.0100    -5.3720    -0.7780 C.3   1 <1>  -0.0970 
 20 O       -0.2160     6.7640     0.4210 O.3   1 <1>  -0.5600 
 21 C        1.1070     6.8920    -1.5660 C.3   1 <1>  -0.1600 
 22 C       -0.0640     8.1110     0.7520 C.3   1 <1>   0.1200 
 23 C        1.2650     8.4050    -1.3740 C.3   1 <1>  -0.1600 
 24 C        0.1030     8.9380    -0.5280 C.3   1 <1>  -0.1600 
 25 H       -0.2670     2.0960     2.7450 H     1 <1>   0.0800 
 26 H       -1.6830     2.6310     1.9060 H     1 <1>   0.0800 
 27 H       -1.9020     0.9620    -1.4480 H     1 <1>   0.0800 
 28 H       -2.2570     2.1210    -0.2020 H     1 <1>   0.0800 
 29 H       -0.4700    -2.0400     1.2030 H     1 <1>   0.1500 
 30 H       -4.3270     1.6120    -1.3430 H     1 <1>   0.0800 
 31 H       -4.3900     0.9820     0.2790 H     1 <1>   0.0800 
 32 H        1.1420     4.1360     1.6200 H     1 <1>   0.0800 
 33 H       -0.5510     4.4670     1.3690 H     1 <1>   0.0800 
 34 H        1.0760     0.7640     0.3840 H     1 <1>   0.0800 
 35 H        1.8660     1.8390     1.5200 H     1 <1>   0.0800 
 36 H        1.9090     2.1740    -0.2000 H     1 <1>   0.0800 
 37 H       -4.3730    -3.1600    -1.5360 H     1 <1>   0.1500 
 38 H       -5.2070    -0.7930    -1.0560 H     1 <1>   0.0800 
 39 H       -4.0200    -0.5160    -2.2980 H     1 <1>   0.0800 
 40 H       -0.9520    -4.3580     0.6880 H     1 <1>   0.1500 
 41 H       -0.2380     4.5640    -1.0500 H     1 <1>   0.0800 
 42 H        1.4640     4.2440    -0.8650 H     1 <1>   0.0800 
 43 H        1.7440     6.3200     0.4150 H     1 <1>   0.0800 
 44 H       -4.0710    -5.5240    -0.8630 H     1 <1>   0.0800 
 45 H       -2.6360    -6.0170    -0.0030 H     1 <1>   0.0800 
 46 H       -2.5430    -5.6390    -1.7090 H     1 <1>   0.0800 
 47 H        0.2650     6.6960    -2.2080 H     1 <1>   0.0800 
 48 H        1.9850     6.4940    -2.0420 H     1 <1>   0.0800 
 49 H        0.7910     8.2120     1.3980 H     1 <1>   0.0800 
 50 H       -0.9470     8.4180     1.2860 H     1 <1>   0.0800 
 51 H        1.2860     8.9000    -2.3300 H     1 <1>   0.0800 
 52 H        2.1950     8.6050    -0.8700 H     1 <1>   0.0800 
 53 H        0.2790     9.9680    -0.2720 H     1 <1>   0.0800 
 54 H       -0.8120     8.8890    -1.0920 H     1 <1>   0.0800 
@<TRIPOS>BOND
  1   1   2  2   
  2   2   3  am  
  3   2   4  1   
  4   3   5  1   
  5   3   6  1   
  6   4   7  1   
  7   4  25  1   
  8   4  26  1   
  9   5   8  ar  
 10   5   9  ar  
 11   6  10  1   
 12   6  27  1   
 13   6  28  1   
 14   7  11  1   
 15   7  12  1   
 16   8  13  ar  
 17   8  14  1   
 18   9  15  ar  
 19   9  29  1   
 20  10  14  1   
 21  10  30  1   
 22  10  31  1   
 23  11  16  1   
 24  11  32  1   
 25  11  33  1   
 26  12  34  1   
 27  12  35  1   
 28  12  36  1   
 29  13  17  ar  
 30  13  37  1   
 31  14  38  1   
 32  14  39  1   
 33  15  17  ar  
 34  15  40  1   
 35  16  18  1   
 36  16  41  1   
 37  16  42  1   
 38  17  19  1   
 39  18  20  1   
 40  18  21  1   
 41  18  43  1   
 42  19  44  1   
 43  19  45  1   
 44  19  46  1   
 45  20  22  1   
 46  21  23  1   
 47  21  47  1   
 48  21  48  1   
 49  22  24  1   
 50  22  49  1   
 51  22  50  1   
 52  23  24  1   
 53  23  51  1   
 54  23  52  1   
 55  24  53  1   
 56  24  54  1   
@<TRIPOS>SUBSTRUCTURE
  1 ****   6 GROUP 4 **** **** 0

# MOE 2024.06 (io_trps.svl 2023.06)
