@<TRIPOS>MOLECULE
NONAME
48 50 1 0 0 
SMALL
USER_CHARGES


@<TRIPOS>ATOM
  1 O       -1.1740    -0.3560     1.3520 O.2   1 <1>  -0.5700 
  2 C       -1.6060     0.5700     0.6880 C.2   1 <1>   0.5440 
  3 N       -2.5690     0.2760    -0.2530 N.am  1 <1>  -0.6600 
  4 C       -1.1630     1.9280     0.9320 C.ar  1 <1>   0.0860 
  5 C       -2.6220    -1.1180    -0.7880 C.3   1 <1>   0.1400 
  6 C       -3.8850     0.9950    -0.1470 C.3   1 <1>   0.1400 
  7 C       -0.7100     2.3080     2.1940 C.ar  1 <1>   0.1600 
  8 C       -1.1620     2.9050    -0.0560 C.ar  1 <1>  -0.1500 
  9 C       -3.7310    -1.8120     0.0050 C.3   1 <1>   0.4230 
 10 C       -5.0490     0.2110    -0.7840 C.3   1 <1>  -0.1600 
 11 N       -0.3040     3.5190     2.5400 N.ar  1 <1>  -0.6200 
 12 C       -0.7400     4.1750     0.2740 C.ar  1 <1>  -0.1430 
 13 N       -3.6210    -3.3040     0.2110 N.4   1 <1>  -0.9590 
 14 C       -5.1270    -1.3150    -0.4440 C.3   1 <1>   0.0000 
 15 C       -0.3270     4.4230     1.5740 C.ar  1 <1>   0.1600 
 16 C       -0.7190     5.2800    -0.7690 C.3   1 <1>  -0.0970 
 17 C       -4.8750    -3.8980     0.7930 C.3   1 <1>   0.3430 
 18 C       -3.1400    -4.0800    -0.9770 C.3   1 <1>   0.2630 
 19 C       -6.0790    -1.5940     0.7500 C.3   1 <1>  -0.1600 
 20 C       -5.6150    -2.0600    -1.7180 C.3   1 <1>   0.1200 
 21 C       -5.6940    -2.8520     1.5710 C.3   1 <1>  -0.1600 
 22 O       -6.7820    -1.5010    -2.2130 O.3   1 <1>  -0.6800 
 23 H       -2.8370    -1.0950    -1.8420 H     1 <1>   0.0800 
 24 H       -1.6760    -1.6070    -0.6350 H     1 <1>   0.0800 
 25 H       -4.1050     1.1670     0.8940 H     1 <1>   0.0800 
 26 H       -3.8040     1.9580    -0.6250 H     1 <1>   0.0800 
 27 H       -0.6870     1.5580     2.9660 H     1 <1>   0.1500 
 28 H       -1.4790     2.6690    -1.0570 H     1 <1>   0.1500 
 29 H       -3.6080    -1.4010     0.9950 H     1 <1>   0.0800 
 30 H       -5.9790     0.6930    -0.5350 H     1 <1>   0.0800 
 31 H       -4.9360     0.3360    -1.8480 H     1 <1>   0.0800 
 32 H       -2.8930    -3.3950     0.9380 H     1 <1>   0.4500 
 33 H        0.0060     5.4140     1.8350 H     1 <1>   0.1500 
 34 H       -1.4360     5.0820    -1.5470 H     1 <1>   0.0800 
 35 H        0.2590     5.3470    -1.2100 H     1 <1>   0.0800 
 36 H       -0.9620     6.2270    -0.3190 H     1 <1>   0.0800 
 37 H       -5.4910    -4.2920     0.0020 H     1 <1>   0.0800 
 38 H       -4.6210    -4.7180     1.4460 H     1 <1>   0.0800 
 39 H       -3.8410    -4.0060    -1.7910 H     1 <1>   0.0800 
 40 H       -3.0230    -5.1210    -0.7200 H     1 <1>   0.0800 
 41 H       -2.1840    -3.7060    -1.3090 H     1 <1>   0.0800 
 42 H       -6.0700    -0.7520     1.4230 H     1 <1>   0.0800 
 43 H       -7.0930    -1.6890     0.4000 H     1 <1>   0.0800 
 44 H       -5.8150    -3.1000    -1.5400 H     1 <1>   0.0800 
 45 H       -4.8820    -1.9830    -2.5030 H     1 <1>   0.0800 
 46 H       -6.5900    -3.3170     1.9440 H     1 <1>   0.0800 
 47 H       -5.1230    -2.5530     2.4340 H     1 <1>   0.0800 
 48 H       -7.5380    -1.6140    -1.6020 H     1 <1>   0.4000 
@<TRIPOS>BOND
  1   1   2  2   
  2   2   3  am  
  3   2   4  1   
  4   3   5  1   
  5   3   6  1   
  6   4   7  ar  
  7   4   8  ar  
  8   5   9  1   
  9   5  23  1   
 10   5  24  1   
 11   6  10  1   
 12   6  25  1   
 13   6  26  1   
 14   7  11  ar  
 15   7  27  1   
 16   8  12  ar  
 17   8  28  1   
 18   9  13  1   
 19   9  14  1   
 20   9  29  1   
 21  10  14  1   
 22  10  30  1   
 23  10  31  1   
 24  11  15  ar  
 25  12  15  ar  
 26  12  16  1   
 27  13  17  1   
 28  13  18  1   
 29  13  32  1   
 30  14  19  1   
 31  14  20  1   
 32  15  33  1   
 33  16  34  1   
 34  16  35  1   
 35  16  36  1   
 36  17  21  1   
 37  17  37  1   
 38  17  38  1   
 39  18  39  1   
 40  18  40  1   
 41  18  41  1   
 42  19  21  1   
 43  19  42  1   
 44  19  43  1   
 45  20  22  1   
 46  20  44  1   
 47  20  45  1   
 48  21  46  1   
 49  21  47  1   
 50  22  48  1   
@<TRIPOS>SUBSTRUCTURE
  1 ****   3 GROUP 4 **** **** 0

# MOE 2024.06 (io_trps.svl 2023.06)
