@<TRIPOS>MOLECULE
NONAME
50 52 1 0 0 
SMALL
USER_CHARGES


@<TRIPOS>ATOM
  1 O        2.3910     0.7330    -1.1860 O.2   1 <1>  -0.5700 
  2 C        2.7310    -0.2430    -0.5440 C.2   1 <1>   0.5440 
  3 N        3.3400    -0.0570     0.6820 N.am  1 <1>  -0.6600 
  4 C        2.4810    -1.5590    -1.0930 C.ar  1 <1>   0.0860 
  5 C        4.1960    -1.1200     1.3150 C.3   1 <1>   0.1400 
  6 C        3.3000     1.2790     1.3450 C.3   1 <1>   0.1400 
  7 C        2.7980    -1.8360    -2.4210 C.ar  1 <1>   0.1600 
  8 C        1.9120    -2.5870    -0.3530 C.ar  1 <1>  -0.1500 
  9 C        5.5130    -0.6050     1.9220 C.3   1 <1>   0.1400 
 10 C        4.4380     2.1830     0.8480 C.3   1 <1>  -0.1600 
 11 N        2.6230    -2.9960    -3.0350 N.ar  1 <1>  -0.6200 
 12 C        1.7160    -3.8070    -0.9650 C.ar  1 <1>  -0.1430 
 13 N        6.1630     0.3980     1.0340 N.am  1 <1>  -0.6600 
 14 C        5.8280     1.8070     1.3680 C.3   1 <1>   0.1400 
 15 C        2.0890    -3.9530    -2.2930 C.ar  1 <1>   0.1600 
 16 C        1.1040    -4.9680    -0.2000 C.3   1 <1>  -0.0970 
 17 C        6.8500    -0.0220    -0.0820 C.2   1 <1>   0.5690 
 18 O        6.9920    -1.2040    -0.3080 O.2   1 <1>  -0.5700 
 19 C        7.3640     0.9420    -1.1330 C.3   1 <1>   0.1570 
 20 N        8.4760     1.7670    -0.6370 N.pl3 1 <1>   0.3140 
 21 N        9.6310     1.2320    -0.1670 N.2   1 <1>  -0.7070 
 22 C        8.5170     3.1310    -0.6050 C.2   1 <1>  -0.0680 
 23 C       10.3530     2.2490     0.1740 C.2   1 <1>   0.1080 
 24 N        7.5120     4.0130    -1.0340 N.pl3 1 <1>  -0.8840 
 25 C        9.7150     3.4590    -0.0710 C.2   1 <1>  -0.1500 
 26 C       11.7330     2.0910     0.7660 C.3   1 <1>  -0.0590 
 27 H        4.4570    -1.8560     0.5740 H     1 <1>   0.0800 
 28 H        3.6310    -1.6190     2.0820 H     1 <1>   0.0800 
 29 H        3.3470     1.1620     2.4140 H     1 <1>   0.0800 
 30 H        2.3590     1.7490     1.1120 H     1 <1>   0.0800 
 31 H        3.2240    -1.0370    -3.0050 H     1 <1>   0.1500 
 32 H        1.6290    -2.4210     0.6710 H     1 <1>   0.1500 
 33 H        6.1810    -1.4360     2.0710 H     1 <1>   0.0800 
 34 H        5.3230    -0.1740     2.8880 H     1 <1>   0.0800 
 35 H        4.2300     3.1860     1.1730 H     1 <1>   0.0800 
 36 H        4.4420     2.2010    -0.2260 H     1 <1>   0.0800 
 37 H        5.8610     1.9330     2.4370 H     1 <1>   0.0800 
 38 H        6.5560     2.4790     0.9580 H     1 <1>   0.0800 
 39 H        1.9410    -4.9050    -2.7730 H     1 <1>   0.1500 
 40 H        0.4880    -4.6080     0.6060 H     1 <1>   0.0800 
 41 H        1.8820    -5.5880     0.2080 H     1 <1>   0.0800 
 42 H        0.4900    -5.5640    -0.8520 H     1 <1>   0.0800 
 43 H        6.5600     1.5750    -1.4510 H     1 <1>   0.0800 
 44 H        7.7180     0.3820    -1.9770 H     1 <1>   0.0800 
 45 H        7.7840     5.0000    -0.9660 H     1 <1>   0.4000 
 46 H        7.1640     3.8350    -1.9830 H     1 <1>   0.4000 
 47 H       10.1120     4.4360     0.1270 H     1 <1>   0.1500 
 48 H       11.6690     1.5110     1.6680 H     1 <1>   0.0800 
 49 H       12.1590     3.0510     0.9920 H     1 <1>   0.0800 
 50 H       12.3660     1.5780     0.0660 H     1 <1>   0.0800 
@<TRIPOS>BOND
  1   1   2  2   
  2   2   3  am  
  3   2   4  1   
  4   3   5  1   
  5   3   6  1   
  6   4   7  ar  
  7   4   8  ar  
  8   5   9  1   
  9   5  27  1   
 10   5  28  1   
 11   6  10  1   
 12   6  29  1   
 13   6  30  1   
 14   7  11  ar  
 15   7  31  1   
 16   8  12  ar  
 17   8  32  1   
 18   9  13  1   
 19   9  33  1   
 20   9  34  1   
 21  10  14  1   
 22  10  35  1   
 23  10  36  1   
 24  11  15  ar  
 25  12  15  ar  
 26  12  16  1   
 27  13  14  1   
 28  13  17  am  
 29  14  37  1   
 30  14  38  1   
 31  15  39  1   
 32  16  40  1   
 33  16  41  1   
 34  16  42  1   
 35  17  18  2   
 36  17  19  1   
 37  19  20  1   
 38  19  43  1   
 39  19  44  1   
 40  20  21  1   
 41  20  22  1   
 42  21  23  2   
 43  22  24  1   
 44  22  25  2   
 45  23  25  1   
 46  23  26  1   
 47  24  45  1   
 48  24  46  1   
 49  25  47  1   
 50  26  48  1   
 51  26  49  1   
 52  26  50  1   
@<TRIPOS>SUBSTRUCTURE
  1 ****  17 GROUP 4 **** **** 0

# MOE 2024.06 (io_trps.svl 2023.06)
