@<TRIPOS>MOLECULE
NONAME
43 44 1 0 0 
SMALL
USER_CHARGES


@<TRIPOS>ATOM
  1 CL      -1.1600    -0.1630    -2.1760 Cl    1 <1>  -0.1770 
  2 C       -2.1480    -0.9280    -0.9540 C.ar  1 <1>   0.1770 
  3 C       -2.8980    -0.1790    -0.0640 C.ar  1 <1>   0.1900 
  4 C       -2.1770    -2.3100    -0.8860 C.ar  1 <1>  -0.1500 
  5 F       -2.8760     1.1260    -0.1260 F     1 <1>  -0.1900 
  6 C       -3.6800    -0.7840     0.9020 C.ar  1 <1>  -0.1500 
  7 C       -2.9650    -2.9370     0.0750 C.ar  1 <1>  -0.1440 
  8 C       -3.7090    -2.1690     0.9670 C.ar  1 <1>  -0.1500 
  9 C       -3.0150    -4.4530     0.1580 C.3   1 <1>   0.4870 
 10 N       -3.8320    -4.9810    -0.9720 N.4   1 <1>  -0.9590 
 11 C       -5.2680    -4.5670    -0.8480 C.3   1 <1>   0.3430 
 12 C       -3.8190    -6.4760    -0.9560 C.3   1 <1>   0.3430 
 13 C       -5.9680    -5.7210    -0.1260 C.3   1 <1>   0.2000 
 14 C       -5.2630    -6.9460    -0.7080 C.3   1 <1>  -0.0800 
 15 O       -5.6890    -5.6230     1.2350 O.3   1 <1>  -0.6800 
 16 C       -5.3530    -8.2360     0.1390 C.3   1 <1>  -0.0550 
 17 S       -4.4470    -9.5930    -0.5990 S.o2  1 <1>   1.3330 
 18 O       -5.0430    -9.8610    -1.8860 O.2   1 <1>  -0.6500 
 19 O       -3.0530    -9.2130    -0.5260 O.2   1 <1>  -0.6500 
 20 N       -4.7430   -10.8860     0.4550 N.am  1 <1>  -0.8490 
 21 C       -3.6050   -11.8090     0.5460 C.3   1 <1>   0.1160 
 22 C       -5.9620   -11.6360     0.1300 C.3   1 <1>   0.1160 
 23 H       -1.5790    -2.8710    -1.5830 H     1 <1>   0.1500 
 24 H       -4.2500    -0.1780     1.5870 H     1 <1>   0.1500 
 25 H       -4.3150    -2.6410     1.7250 H     1 <1>   0.1500 
 26 H       -3.4470    -4.7540     1.1000 H     1 <1>   0.0800 
 27 H       -2.0130    -4.8460     0.1060 H     1 <1>   0.0800 
 28 H       -3.4350    -4.6170    -1.8470 H     1 <1>   0.4500 
 29 H       -5.3880    -3.6400    -0.3140 H     1 <1>   0.0800 
 30 H       -5.6940    -4.4620    -1.8320 H     1 <1>   0.0800 
 31 H       -3.4490    -6.8740    -1.8880 H     1 <1>   0.0800 
 32 H       -3.1810    -6.8300    -0.1600 H     1 <1>   0.0800 
 33 H       -7.0360    -5.7150    -0.2710 H     1 <1>   0.0800 
 34 H       -5.6960    -7.1520    -1.6730 H     1 <1>   0.0800 
 35 H       -6.3500    -6.1110     1.7720 H     1 <1>   0.4000 
 36 H       -6.3830    -8.5170     0.2430 H     1 <1>   0.0800 
 37 H       -4.9580    -8.0610     1.1220 H     1 <1>   0.0800 
 38 H       -3.8220   -12.6010     1.2420 H     1 <1>   0.0800 
 39 H       -2.7310   -11.2860     0.8970 H     1 <1>   0.0800 
 40 H       -3.3890   -12.2360    -0.4190 H     1 <1>   0.0800 
 41 H       -6.1450   -12.3880     0.8790 H     1 <1>   0.0800 
 42 H       -5.8650   -12.1160    -0.8310 H     1 <1>   0.0800 
 43 H       -6.8110   -10.9750     0.0990 H     1 <1>   0.0800 
@<TRIPOS>BOND
  1   1   2  1   
  2   2   3  ar  
  3   2   4  ar  
  4   3   5  1   
  5   3   6  ar  
  6   4   7  ar  
  7   4  23  1   
  8   6   8  ar  
  9   6  24  1   
 10   7   8  ar  
 11   7   9  1   
 12   8  25  1   
 13   9  10  1   
 14   9  26  1   
 15   9  27  1   
 16  10  11  1   
 17  10  12  1   
 18  10  28  1   
 19  11  13  1   
 20  11  29  1   
 21  11  30  1   
 22  12  14  1   
 23  12  31  1   
 24  12  32  1   
 25  13  14  1   
 26  13  15  1   
 27  13  33  1   
 28  14  16  1   
 29  14  34  1   
 30  15  35  1   
 31  16  17  1   
 32  16  36  1   
 33  16  37  1   
 34  17  18  2   
 35  17  19  2   
 36  17  20  am  
 37  20  21  1   
 38  20  22  1   
 39  21  38  1   
 40  21  39  1   
 41  21  40  1   
 42  22  41  1   
 43  22  42  1   
 44  22  43  1   
@<TRIPOS>SUBSTRUCTURE
  1 ****  10 GROUP 4 **** **** 0

# MOE 2024.06 (io_trps.svl 2023.06)
