@<TRIPOS>MOLECULE
NONAME
50 53 1 0 0 
SMALL
USER_CHARGES


@<TRIPOS>ATOM
  1 O       -0.6380     3.2620     2.4380 O.2   1 <1>  -0.5700 
  2 C       -0.5690     2.8740     1.2960 C.2   1 <1>   0.5690 
  3 N       -1.4810     1.9420     0.8410 N.am  1 <1>  -0.6600 
  4 C        0.5600     3.4600     0.4420 C.3   1 <1>  -0.0190 
  5 C       -2.1950     1.0810     1.8340 C.3   1 <1>   0.1400 
  6 C       -1.8330     1.7170    -0.5840 C.3   1 <1>   0.1400 
  7 C        0.1070     4.5540    -0.5520 C.3   1 <1>  -0.0220 
  8 C        1.3800     2.4140    -0.3520 C.3   1 <1>  -0.0220 
  9 C       -3.7160     1.3280     1.9200 C.3   1 <1>   0.4230 
 10 C       -3.3100     2.0280    -0.8850 C.3   1 <1>  -0.0800 
 11 C        0.6940     4.0970    -1.8650 C.2   1 <1>  -0.2880 
 12 C        1.3690     2.9590    -1.7580 C.2   1 <1>  -0.2880 
 13 N       -4.4770     0.5140     0.8930 N.4   1 <1>  -0.9590 
 14 C       -4.0860     2.8370     1.9230 C.3   1 <1>   0.1200 
 15 C       -3.8060     3.3920    -0.3570 C.3   1 <1>   0.1200 
 16 C       -4.2620     0.8650    -0.5610 C.3   1 <1>   0.3430 
 17 C       -5.9360     0.5660     1.1990 C.3   1 <1>   0.4860 
 18 O       -4.6790     3.2410     0.7190 O.3   1 <1>  -0.5600 
 19 C       -6.6480    -0.5070     0.3970 C.ar  1 <1>  -0.1440 
 20 C       -7.4570    -0.1870    -0.6780 C.ar  1 <1>  -0.1500 
 21 C       -6.5290    -1.8520     0.6950 C.ar  1 <1>  -0.1500 
 22 C       -8.0740    -1.1990    -1.3940 C.ar  1 <1>   0.1600 
 23 C       -7.1890    -2.7850    -0.0870 C.ar  1 <1>   0.1600 
 24 N       -7.9480    -2.4860    -1.1260 N.ar  1 <1>  -0.6200 
 25 H        1.2480     3.9310     1.1230 H     1 <1>   0.0800 
 26 H       -2.0040     0.0470     1.6080 H     1 <1>   0.0800 
 27 H       -1.7840     1.2540     2.8140 H     1 <1>   0.0800 
 28 H       -1.2300     2.3460    -1.2120 H     1 <1>   0.0800 
 29 H       -1.6020     0.7000    -0.8520 H     1 <1>   0.0800 
 30 H       -0.9610     4.6290    -0.6200 H     1 <1>   0.0800 
 31 H        0.5120     5.5120    -0.2740 H     1 <1>   0.0800 
 32 H        2.3890     2.3620     0.0190 H     1 <1>   0.0800 
 33 H        0.9440     1.4320    -0.3190 H     1 <1>   0.0800 
 34 H       -3.9950     0.9550     2.8910 H     1 <1>   0.0800 
 35 H       -3.3400     2.1150    -1.9570 H     1 <1>   0.0800 
 36 H        0.5340     4.7030    -2.7420 H     1 <1>   0.1500 
 37 H        1.8910     2.4140    -2.5280 H     1 <1>   0.1500 
 38 H       -4.2070    -0.4690     1.0000 H     1 <1>   0.4500 
 39 H       -3.2350     3.4640     2.1340 H     1 <1>   0.0800 
 40 H       -4.8070     3.0170     2.7000 H     1 <1>   0.0800 
 41 H       -4.3610     3.8960    -1.1310 H     1 <1>   0.0800 
 42 H       -2.9970     4.0370    -0.0620 H     1 <1>   0.0800 
 43 H       -3.9100    -0.0130    -1.0780 H     1 <1>   0.0800 
 44 H       -5.2140     1.1150    -0.9980 H     1 <1>   0.0800 
 45 H       -6.1050     0.3920     2.2490 H     1 <1>   0.0800 
 46 H       -6.3320     1.5390     0.9500 H     1 <1>   0.0800 
 47 H       -7.6250     0.8350    -0.9710 H     1 <1>   0.1500 
 48 H       -5.9400    -2.1990     1.5250 H     1 <1>   0.1500 
 49 H       -8.7030    -0.9380    -2.2300 H     1 <1>   0.1500 
 50 H       -7.0920    -3.8320     0.1530 H     1 <1>   0.1500 
@<TRIPOS>BOND
  1   1   2  2   
  2   2   3  am  
  3   2   4  1   
  4   3   5  1   
  5   3   6  1   
  6   4   7  1   
  7   4   8  1   
  8   4  25  1   
  9   5   9  1   
 10   5  26  1   
 11   5  27  1   
 12   6  10  1   
 13   6  28  1   
 14   6  29  1   
 15   7  11  1   
 16   7  30  1   
 17   7  31  1   
 18   8  12  1   
 19   8  32  1   
 20   8  33  1   
 21   9  13  1   
 22   9  14  1   
 23   9  34  1   
 24  10  15  1   
 25  10  16  1   
 26  10  35  1   
 27  11  12  2   
 28  11  36  1   
 29  12  37  1   
 30  13  16  1   
 31  13  17  1   
 32  13  38  1   
 33  14  18  1   
 34  14  39  1   
 35  14  40  1   
 36  15  18  1   
 37  15  41  1   
 38  15  42  1   
 39  16  43  1   
 40  16  44  1   
 41  17  19  1   
 42  17  45  1   
 43  17  46  1   
 44  19  20  ar  
 45  19  21  ar  
 46  20  22  ar  
 47  20  47  1   
 48  21  23  ar  
 49  21  48  1   
 50  22  24  ar  
 51  22  49  1   
 52  23  24  ar  
 53  23  50  1   
@<TRIPOS>SUBSTRUCTURE
  1 ****  10 GROUP 4 **** **** 0

# MOE 2024.06 (io_trps.svl 2023.06)
