@<TRIPOS>MOLECULE
NONAME
54 57 1 0 0 
SMALL
USER_CHARGES


@<TRIPOS>ATOM
  1 O        0.2320     1.4820     1.3890 O.3   1 <1>  -0.3630 
  2 C        1.4030     1.3230     0.7200 C.ar  1 <1>   0.0820 
  3 C       -0.4330     2.7290     1.4360 C.3   1 <1>   0.0400 
  4 C        2.0920     0.1460     0.8930 C.ar  1 <1>  -0.1440 
  5 C        1.9110     2.3110    -0.1430 C.ar  1 <1>  -0.1500 
  6 C        3.3200    -0.0910     0.2280 C.ar  1 <1>   0.0000 
  7 C        1.5060    -0.9080     1.8110 C.3   1 <1>   0.4870 
  8 C        3.0840     2.0980    -0.8060 C.ar  1 <1>  -0.1500 
  9 C        3.8140     0.9050    -0.6460 C.ar  1 <1>   0.0000 
 10 C        4.0930    -1.2650     0.3840 C.ar  1 <1>  -0.1500 
 11 N        0.8390    -1.9550     0.9930 N.4   1 <1>  -0.9590 
 12 C        5.0240     0.6840    -1.3330 C.ar  1 <1>  -0.1500 
 13 C        5.2670    -1.4580    -0.2910 C.ar  1 <1>   0.0820 
 14 C       -0.2050    -1.4290     0.0630 C.3   1 <1>   0.3430 
 15 C        0.2300    -3.0740     1.7470 C.3   1 <1>   0.3430 
 16 C        5.7400    -0.4680    -1.1680 C.ar  1 <1>  -0.1500 
 17 O        5.9250    -2.6220    -0.0790 O.3   1 <1>  -0.3630 
 18 C       -1.2420    -2.5480    -0.0970 C.3   1 <1>   0.2000 
 19 C       -0.7640    -3.7170     0.7770 C.3   1 <1>  -0.0800 
 20 C        7.2970    -2.7530    -0.3850 C.3   1 <1>   0.0400 
 21 O       -2.4750    -2.1130     0.3750 O.3   1 <1>  -0.6800 
 22 C       -0.1670    -4.8840    -0.0510 C.3   1 <1>  -0.0170 
 23 C        1.2900    -4.7430    -0.4940 C.ar  1 <1>   0.1670 
 24 N        1.6210    -3.6550    -1.1760 N.ar  1 <1>  -0.6200 
 25 C        2.1990    -5.7520    -0.1760 C.ar  1 <1>   0.1600 
 26 C        2.8980    -3.6580    -1.5350 C.ar  1 <1>   0.1600 
 27 N        3.4770    -5.7380    -0.5050 N.ar  1 <1>  -0.6200 
 28 C        3.7970    -4.6640    -1.2040 C.ar  1 <1>   0.1600 
 29 H       -1.2780     2.6370     2.0950 H     1 <1>   0.0800 
 30 H       -0.7720     2.9850     0.4470 H     1 <1>   0.0800 
 31 H        0.2440     3.4750     1.8150 H     1 <1>   0.0800 
 32 H        1.3860     3.2360    -0.2940 H     1 <1>   0.1500 
 33 H        0.7900    -0.4510     2.4750 H     1 <1>   0.0800 
 34 H        2.2890    -1.3410     2.4110 H     1 <1>   0.0800 
 35 H        3.4750     2.8500    -1.4690 H     1 <1>   0.1500 
 36 H        3.7760    -2.0420     1.0500 H     1 <1>   0.1500 
 37 H        1.5420    -2.3740     0.3520 H     1 <1>   0.4500 
 38 H        5.3810     1.4500    -1.9990 H     1 <1>   0.1500 
 39 H       -0.6750    -0.5480     0.4670 H     1 <1>   0.0800 
 40 H        0.2410    -1.1910    -0.8890 H     1 <1>   0.0800 
 41 H        0.9760    -3.7780     2.0820 H     1 <1>   0.0800 
 42 H       -0.3030    -2.6860     2.6000 H     1 <1>   0.0800 
 43 H        6.6570    -0.6080    -1.7090 H     1 <1>   0.1500 
 44 H       -1.3660    -2.8200    -1.1320 H     1 <1>   0.0800 
 45 H       -1.5930    -4.1220     1.3310 H     1 <1>   0.0800 
 46 H        7.6390    -3.6940     0.0090 H     1 <1>   0.0800 
 47 H        7.8380    -1.9460     0.0770 H     1 <1>   0.0800 
 48 H        7.4230    -2.7390    -1.4530 H     1 <1>   0.0800 
 49 H       -2.4490    -1.8260     1.3090 H     1 <1>   0.4000 
 50 H       -0.7710    -5.0460    -0.9270 H     1 <1>   0.0800 
 51 H       -0.2540    -5.7790     0.5390 H     1 <1>   0.0800 
 52 H        1.8610    -6.6130     0.3750 H     1 <1>   0.1500 
 53 H        3.2590    -2.8240    -2.1130 H     1 <1>   0.1500 
 54 H        4.8190    -4.5740    -1.5290 H     1 <1>   0.1500 
@<TRIPOS>BOND
  1   1   2  1   
  2   1   3  1   
  3   2   4  ar  
  4   2   5  ar  
  5   3  29  1   
  6   3  30  1   
  7   3  31  1   
  8   4   6  ar  
  9   4   7  1   
 10   5   8  ar  
 11   5  32  1   
 12   6   9  ar  
 13   6  10  ar  
 14   7  11  1   
 15   7  33  1   
 16   7  34  1   
 17   8   9  ar  
 18   8  35  1   
 19   9  12  ar  
 20  10  13  ar  
 21  10  36  1   
 22  11  14  1   
 23  11  15  1   
 24  11  37  1   
 25  12  16  ar  
 26  12  38  1   
 27  13  16  ar  
 28  13  17  1   
 29  14  18  1   
 30  14  39  1   
 31  14  40  1   
 32  15  19  1   
 33  15  41  1   
 34  15  42  1   
 35  16  43  1   
 36  17  20  1   
 37  18  19  1   
 38  18  21  1   
 39  18  44  1   
 40  19  22  1   
 41  19  45  1   
 42  20  46  1   
 43  20  47  1   
 44  20  48  1   
 45  21  49  1   
 46  22  23  1   
 47  22  50  1   
 48  22  51  1   
 49  23  24  ar  
 50  23  25  ar  
 51  24  26  ar  
 52  25  27  ar  
 53  25  52  1   
 54  26  28  ar  
 55  26  53  1   
 56  27  28  ar  
 57  28  54  1   
@<TRIPOS>SUBSTRUCTURE
  1 ****  11 GROUP 4 **** **** 0

# MOE 2024.06 (io_trps.svl 2023.06)
