@<TRIPOS>MOLECULE
NONAME
57 60 1 0 0 
SMALL
USER_CHARGES


@<TRIPOS>ATOM
  1 O       -5.8790     2.5520    -0.8240 O.co2 1 <1>  -0.9000 
  2 C       -5.0170     1.7820    -0.3790 C.2   1 <1>   0.9060 
  3 O       -3.9080     2.1800    -0.0020 O.co2 1 <1>  -0.9000 
  4 C       -5.2980     0.2870    -0.3940 C.3   1 <1>   0.0140 
  5 O       -5.9870    -0.1730     0.7700 O.3   1 <1>  -0.3630 
  6 C       -6.6660    -1.3430     0.7590 C.ar  1 <1>   0.0830 
  7 C       -7.6030    -1.5310     1.7590 C.ar  1 <1>  -0.1500 
  8 C       -6.4770    -2.3310    -0.2000 C.ar  1 <1>  -0.1500 
  9 C       -8.3790    -2.6740     1.7870 C.ar  1 <1>  -0.1500 
 10 C       -7.2550    -3.4750    -0.1770 C.ar  1 <1>  -0.1500 
 11 C       -8.2240    -3.6420     0.8040 C.ar  1 <1>  -0.1440 
 12 C       -9.1340    -4.8510     0.7710 C.3   1 <1>   0.4870 
 13 N      -10.1470    -4.5820    -0.2810 N.4   1 <1>  -0.9590 
 14 C      -11.0890    -3.4880     0.1420 C.3   1 <1>   0.3430 
 15 C      -10.8900    -5.8000    -0.7050 C.3   1 <1>   0.3430 
 16 C      -12.0180    -3.0640    -1.0050 C.3   1 <1>   0.1430 
 17 C      -11.7940    -5.4540    -1.8930 C.3   1 <1>  -0.1600 
 18 C      -13.0010    -2.0630    -0.4510 C.ar  1 <1>   0.1670 
 19 C      -12.7560    -4.2920    -1.5780 C.3   1 <1>  -0.1600 
 20 C      -11.2770    -2.2480    -2.1010 C.3   1 <1>  -0.1600 
 21 N      -13.6960    -2.2450     0.6410 N.ar  1 <1>  -0.6200 
 22 C      -13.0630    -0.9350    -1.2070 C.ar  1 <1>  -0.1430 
 23 C      -12.1430    -1.0070    -2.3990 C.3   1 <1>  -0.0170 
 24 C      -14.4970    -1.2270     0.9720 C.ar  1 <1>   0.7200 
 25 C      -13.9100     0.0600    -0.7880 C.ar  1 <1>   0.1600 
 26 N      -14.6300    -0.0780     0.3000 N.ar  1 <1>  -0.6200 
 27 N      -15.2480    -1.3750     2.1190 N.pl3 1 <1>  -0.8380 
 28 C      -15.6550    -2.7090     2.6370 C.3   1 <1>   0.1290 
 29 C      -15.9070    -0.2110     2.7740 C.3   1 <1>   0.1290 
 30 H       -4.3650    -0.2380    -0.4630 H     1 <1>   0.0800 
 31 H       -5.9050     0.0850    -1.2540 H     1 <1>   0.0800 
 32 H       -7.7170    -0.7620     2.5050 H     1 <1>   0.1500 
 33 H       -5.7280    -2.2120    -0.9620 H     1 <1>   0.1500 
 34 H       -9.1040    -2.7860     2.5750 H     1 <1>   0.1500 
 35 H       -7.0920    -4.2230    -0.9340 H     1 <1>   0.1500 
 36 H       -9.6070    -4.9980     1.7290 H     1 <1>   0.0800 
 37 H       -8.5570    -5.7280     0.5260 H     1 <1>   0.0800 
 38 H       -9.6200    -4.2180    -1.0850 H     1 <1>   0.4500 
 39 H      -10.5380    -2.6220     0.4720 H     1 <1>   0.0800 
 40 H      -11.6950    -3.8270     0.9660 H     1 <1>   0.0800 
 41 H      -11.4930    -6.1630     0.1120 H     1 <1>   0.0800 
 42 H      -10.2000    -6.5780    -0.9920 H     1 <1>   0.0800 
 43 H      -12.3710    -6.3250    -2.1550 H     1 <1>   0.0800 
 44 H      -11.1850    -5.2120    -2.7460 H     1 <1>   0.0800 
 45 H      -13.3070    -4.0140    -2.4610 H     1 <1>   0.0800 
 46 H      -13.4770    -4.6320    -0.8520 H     1 <1>   0.0800 
 47 H      -11.1020    -2.8150    -2.9980 H     1 <1>   0.0800 
 48 H      -10.3290    -1.9040    -1.7240 H     1 <1>   0.0800 
 49 H      -12.7230    -1.1490    -3.2950 H     1 <1>   0.0800 
 50 H      -11.5420    -0.1170    -2.4910 H     1 <1>   0.0800 
 51 H      -13.9980     0.9760    -1.3470 H     1 <1>   0.1500 
 52 H      -15.5030    -3.4730     1.8950 H     1 <1>   0.0800 
 53 H      -16.6990    -2.6980     2.8980 H     1 <1>   0.0800 
 54 H      -15.0750    -2.9480     3.5110 H     1 <1>   0.0800 
 55 H      -15.3180     0.6800     2.6380 H     1 <1>   0.0800 
 56 H      -16.0100    -0.3900     3.8300 H     1 <1>   0.0800 
 57 H      -16.8800    -0.0560     2.3410 H     1 <1>   0.0800 
@<TRIPOS>BOND
  1   1   2  ar  
  2   2   3  ar  
  3   2   4  1   
  4   4   5  1   
  5   4  30  1   
  6   4  31  1   
  7   5   6  1   
  8   6   7  ar  
  9   6   8  ar  
 10   7   9  ar  
 11   7  32  1   
 12   8  10  ar  
 13   8  33  1   
 14   9  11  ar  
 15   9  34  1   
 16  10  11  ar  
 17  10  35  1   
 18  11  12  1   
 19  12  13  1   
 20  12  36  1   
 21  12  37  1   
 22  13  14  1   
 23  13  15  1   
 24  13  38  1   
 25  14  16  1   
 26  14  39  1   
 27  14  40  1   
 28  15  17  1   
 29  15  41  1   
 30  15  42  1   
 31  16  18  1   
 32  16  19  1   
 33  16  20  1   
 34  17  19  1   
 35  17  43  1   
 36  17  44  1   
 37  18  21  ar  
 38  18  22  ar  
 39  19  45  1   
 40  19  46  1   
 41  20  23  1   
 42  20  47  1   
 43  20  48  1   
 44  21  24  ar  
 45  22  23  1   
 46  22  25  ar  
 47  23  49  1   
 48  23  50  1   
 49  24  26  ar  
 50  24  27  1   
 51  25  26  ar  
 52  25  51  1   
 53  27  28  1   
 54  27  29  1   
 55  28  52  1   
 56  28  53  1   
 57  28  54  1   
 58  29  55  1   
 59  29  56  1   
 60  29  57  1   
@<TRIPOS>SUBSTRUCTURE
  1 ****  14 GROUP 4 **** **** 0

# MOE 2024.06 (io_trps.svl 2023.06)
