@<TRIPOS>MOLECULE
NONAME
47 48 1 0 0 
SMALL
USER_CHARGES


@<TRIPOS>ATOM
  1 S        0.9210     1.5080     0.3550 S.o2  1 <1>   1.3330 
  2 O       -0.1630     0.6110     0.0240 O.2   1 <1>  -0.6500 
  3 O        1.0440     2.0170     1.7020 O.2   1 <1>  -0.6500 
  4 N        2.3810     0.7300    -0.0250 N.am  1 <1>  -0.8490 
  5 C        0.8880     2.8620    -0.8200 C.3   1 <1>  -0.0550 
  6 C        2.3750    -0.6770     0.3820 C.3   1 <1>   0.1160 
  7 C        3.5570     1.4050     0.5340 C.3   1 <1>   0.1160 
  8 C       -0.4350     3.6620    -0.8460 C.3   1 <1>  -0.0800 
  9 C       -0.3780     4.7050    -1.9640 C.3   1 <1>   0.2000 
 10 C       -0.6040     4.5250     0.4110 C.3   1 <1>   0.1400 
 11 O       -1.6680     5.1370    -2.2260 O.3   1 <1>  -0.6800 
 12 C        0.4150     5.8620    -1.3520 C.3   1 <1>   0.1400 
 13 N        0.1840     5.7460     0.1190 N.am  1 <1>  -0.6600 
 14 C        0.8760     6.3950     1.1080 C.2   1 <1>   0.5690 
 15 O        0.5470     6.2960     2.2670 O.2   1 <1>  -0.5700 
 16 C        2.0850     7.2460     0.7980 C.3   1 <1>   0.1570 
 17 N        3.1910     6.3990     0.3220 N.pl3 1 <1>   0.3140 
 18 N        3.7370     6.6130    -0.8930 N.2   1 <1>  -0.7070 
 19 C        3.8140     5.3750     0.9570 C.2   1 <1>  -0.3320 
 20 C        4.6930     5.7460    -0.9930 C.2   1 <1>   0.1080 
 21 C        4.7920     4.9420     0.1340 C.2   1 <1>  -0.1500 
 22 C        3.4580     4.8470     2.3400 C.3   1 <1>  -0.0600 
 23 C        5.5790     5.6560    -2.2130 C.3   1 <1>  -0.0590 
 24 H        1.7070     3.5230    -0.6140 H     1 <1>   0.0800 
 25 H        1.0460     2.4480    -1.7970 H     1 <1>   0.0800 
 26 H        3.3040    -1.1480     0.1130 H     1 <1>   0.0800 
 27 H        1.5760    -1.2020    -0.1170 H     1 <1>   0.0800 
 28 H        2.2280    -0.7590     1.4460 H     1 <1>   0.0800 
 29 H        4.4570     0.9210     0.1950 H     1 <1>   0.0800 
 30 H        3.5300     1.3820     1.6110 H     1 <1>   0.0800 
 31 H        3.5830     2.4320     0.2120 H     1 <1>   0.0800 
 32 H       -1.2600     2.9840    -0.9800 H     1 <1>   0.0800 
 33 H        0.0480     4.3400    -2.8840 H     1 <1>   0.0800 
 34 H       -0.2590     4.0420     1.3090 H     1 <1>   0.0800 
 35 H       -1.6360     4.7970     0.5460 H     1 <1>   0.0800 
 36 H       -2.0270     5.5880    -1.4360 H     1 <1>   0.4000 
 37 H        0.0910     6.8150    -1.7330 H     1 <1>   0.0800 
 38 H        1.4570     5.7230    -1.5740 H     1 <1>   0.0800 
 39 H        2.4040     7.7610     1.6830 H     1 <1>   0.0800 
 40 H        1.8410     7.9670     0.0420 H     1 <1>   0.0800 
 41 H        5.5080     4.1560     0.2880 H     1 <1>   0.1500 
 42 H        4.1910     4.1310     2.6660 H     1 <1>   0.0800 
 43 H        2.4980     4.3620     2.3230 H     1 <1>   0.0800 
 44 H        3.4280     5.6500     3.0540 H     1 <1>   0.0800 
 45 H        6.3090     4.8780    -2.0920 H     1 <1>   0.0800 
 46 H        6.0840     6.5940    -2.3570 H     1 <1>   0.0800 
 47 H        4.9790     5.4470    -3.0790 H     1 <1>   0.0800 
@<TRIPOS>BOND
  1   1   2  2   
  2   1   3  2   
  3   1   4  am  
  4   1   5  1   
  5   4   6  1   
  6   4   7  1   
  7   5   8  1   
  8   5  24  1   
  9   5  25  1   
 10   6  26  1   
 11   6  27  1   
 12   6  28  1   
 13   7  29  1   
 14   7  30  1   
 15   7  31  1   
 16   8   9  1   
 17   8  10  1   
 18   8  32  1   
 19   9  11  1   
 20   9  12  1   
 21   9  33  1   
 22  10  13  1   
 23  10  34  1   
 24  10  35  1   
 25  11  36  1   
 26  12  13  1   
 27  12  37  1   
 28  12  38  1   
 29  13  14  am  
 30  14  15  2   
 31  14  16  1   
 32  16  17  1   
 33  16  39  1   
 34  16  40  1   
 35  17  18  1   
 36  17  19  1   
 37  18  20  2   
 38  19  21  2   
 39  19  22  1   
 40  20  21  1   
 41  20  23  1   
 42  21  41  1   
 43  22  42  1   
 44  22  43  1   
 45  22  44  1   
 46  23  45  1   
 47  23  46  1   
 48  23  47  1   
@<TRIPOS>SUBSTRUCTURE
  1 ****   5 GROUP 4 **** **** 0

# MOE 2024.06 (io_trps.svl 2023.06)
