@<TRIPOS>MOLECULE
NONAME
49 51 1 0 0 
SMALL
USER_CHARGES


@<TRIPOS>ATOM
  1 CL       0.9320    -0.0430    -1.1260 Cl    1 <1>  -0.1770 
  2 C        0.7020    -1.7440    -0.8110 C.ar  1 <1>   0.1770 
  3 C        0.5400    -2.1760     0.4910 C.ar  1 <1>  -0.1500 
  4 C        0.6850    -2.6330    -1.8690 C.ar  1 <1>  -0.1500 
  5 C        0.3560    -3.5270     0.7380 C.ar  1 <1>  -0.1500 
  6 C        0.5000    -3.9820    -1.6160 C.ar  1 <1>  -0.1500 
  7 C        0.3340    -4.4330    -0.3140 C.ar  1 <1>  -0.1430 
  8 C        0.1220    -5.9140    -0.0420 C.3   1 <1>  -0.0160 
  9 C       -1.3730    -6.2560    -0.1130 C.3   1 <1>  -0.0990 
 10 C       -1.6900    -7.7160     0.1860 C.2   1 <1>   0.5690 
 11 O       -0.7660    -8.4920     0.2580 O.2   1 <1>  -0.5700 
 12 N       -2.9900    -8.1300     0.3670 N.am  1 <1>  -0.6600 
 13 C       -4.1710    -7.2330     0.1700 C.3   1 <1>   0.2200 
 14 C       -3.2520    -9.5440     0.7820 C.3   1 <1>   0.0600 
 15 C       -5.3390    -7.8650    -0.5860 C.3   1 <1>  -0.1600 
 16 C       -4.7800    -6.7800     1.4920 C.3   1 <1>  -0.1600 
 17 C       -6.5410    -6.9800    -0.2320 C.3   1 <1>  -0.0800 
 18 C       -6.2000    -6.3270     1.1290 C.3   1 <1>  -0.0800 
 19 C       -7.8800    -7.7440    -0.2760 C.3   1 <1>   0.1400 
 20 C       -7.2310    -6.6270     2.2310 C.3   1 <1>  -0.0990 
 21 N       -8.9220    -6.9980     0.4740 N.am  1 <1>  -0.6600 
 22 C       -8.6380    -6.4560     1.6980 C.2   1 <1>   0.5690 
 23 C      -10.2740    -6.9300    -0.1400 C.3   1 <1>   0.0600 
 24 O       -9.4480    -5.8580     2.3640 O.2   1 <1>  -0.5700 
 25 H        0.5590    -1.4650     1.2970 H     1 <1>   0.1500 
 26 H        0.8150    -2.2720    -2.8730 H     1 <1>   0.1500 
 27 H        0.2300    -3.8690     1.7500 H     1 <1>   0.1500 
 28 H        0.4870    -4.6790    -2.4360 H     1 <1>   0.1500 
 29 H        0.6650    -6.4980    -0.7650 H     1 <1>   0.0800 
 30 H        0.5070    -6.1660     0.9320 H     1 <1>   0.0800 
 31 H       -1.7330    -6.0260    -1.0980 H     1 <1>   0.0800 
 32 H       -1.8940    -5.6400     0.5950 H     1 <1>   0.0800 
 33 H       -3.8850    -6.3540    -0.3810 H     1 <1>   0.0800 
 34 H       -4.0680    -9.5920     1.4800 H     1 <1>   0.0800 
 35 H       -2.3840    -9.9690     1.2560 H     1 <1>   0.0800 
 36 H       -3.4890   -10.1360    -0.0850 H     1 <1>   0.0800 
 37 H       -5.1560    -7.8820    -1.6460 H     1 <1>   0.0800 
 38 H       -5.5260    -8.8630    -0.2380 H     1 <1>   0.0800 
 39 H       -4.8190    -7.6050     2.1800 H     1 <1>   0.0800 
 40 H       -4.2120    -5.9790     1.9320 H     1 <1>   0.0800 
 41 H       -6.5970    -6.1910    -0.9640 H     1 <1>   0.0800 
 42 H       -6.1890    -5.2600     0.9760 H     1 <1>   0.0800 
 43 H       -7.7710    -8.7140     0.1780 H     1 <1>   0.0800 
 44 H       -8.1850    -7.8820    -1.2990 H     1 <1>   0.0800 
 45 H       -7.0810    -5.9670     3.0670 H     1 <1>   0.0800 
 46 H       -7.1340    -7.6390     2.5780 H     1 <1>   0.0800 
 47 H      -10.2200    -6.4200    -1.0850 H     1 <1>   0.0800 
 48 H      -10.9530    -6.3940     0.5010 H     1 <1>   0.0800 
 49 H      -10.6570    -7.9240    -0.2910 H     1 <1>   0.0800 
@<TRIPOS>BOND
  1   1   2  1   
  2   2   3  ar  
  3   2   4  ar  
  4   3   5  ar  
  5   3  25  1   
  6   4   6  ar  
  7   4  26  1   
  8   5   7  ar  
  9   5  27  1   
 10   6   7  ar  
 11   6  28  1   
 12   7   8  1   
 13   8   9  1   
 14   8  29  1   
 15   8  30  1   
 16   9  10  1   
 17   9  31  1   
 18   9  32  1   
 19  10  11  2   
 20  10  12  am  
 21  12  13  1   
 22  12  14  1   
 23  13  15  1   
 24  13  16  1   
 25  13  33  1   
 26  14  34  1   
 27  14  35  1   
 28  14  36  1   
 29  15  17  1   
 30  15  37  1   
 31  15  38  1   
 32  16  18  1   
 33  16  39  1   
 34  16  40  1   
 35  17  18  1   
 36  17  19  1   
 37  17  41  1   
 38  18  20  1   
 39  18  42  1   
 40  19  21  1   
 41  19  43  1   
 42  19  44  1   
 43  20  22  1   
 44  20  45  1   
 45  20  46  1   
 46  21  22  am  
 47  21  23  1   
 48  22  24  2   
 49  23  47  1   
 50  23  48  1   
 51  23  49  1   
@<TRIPOS>SUBSTRUCTURE
  1 ****  13 GROUP 4 **** **** 0

# MOE 2024.06 (io_trps.svl 2023.06)
