@<TRIPOS>MOLECULE
NONAME
43 45 1 0 0 
SMALL
USER_CHARGES


@<TRIPOS>ATOM
  1 O       -1.8390    -1.6030     0.6260 O.3   1 <1>  -0.5600 
  2 C       -1.8860    -0.5880     1.5780 C.3   1 <1>   0.1200 
  3 C       -1.4550    -1.2560    -0.6620 C.3   1 <1>   0.1200 
  4 C       -2.9770     0.4720     1.3050 C.3   1 <1>   0.4230 
  5 C       -2.5800    -0.5070    -1.3940 C.3   1 <1>  -0.0800 
  6 N       -2.5350     1.4800     0.2610 N.4   1 <1>  -0.9590 
  7 C       -4.3750    -0.1670     1.0610 C.3   1 <1>   0.1100 
  8 C       -3.9830    -1.1090    -1.1680 C.3   1 <1>   0.1100 
  9 C       -2.5560     1.0110    -1.1700 C.3   1 <1>   0.3430 
 10 C       -3.3820     2.7050     0.3630 C.3   1 <1>   0.2630 
 11 N       -4.8390    -0.2260    -0.3520 N.3   1 <1>  -0.8100 
 12 C       -6.2640    -0.6360    -0.4410 C.3   1 <1>   0.2900 
 13 C       -6.5360    -1.9980     0.1770 C.2   1 <1>  -0.0400 
 14 O       -6.6930    -2.1060     1.4690 O.3   1 <1>  -0.0190 
 15 C       -6.6700    -3.2220    -0.3570 C.2   1 <1>  -0.1500 
 16 N       -6.9100    -3.3360     1.8310 N.2   1 <1>  -0.4100 
 17 C       -6.9040    -4.0330     0.7510 C.2   1 <1>   0.1080 
 18 C       -7.1180    -5.5340     0.7040 C.3   1 <1>   0.0210 
 19 C       -8.5110    -5.8810     0.1670 C.3   1 <1>  -0.2400 
 20 H       -2.1040    -1.0710     2.5150 H     1 <1>   0.0800 
 21 H       -0.9120    -0.1390     1.6590 H     1 <1>   0.0800 
 22 H       -0.5400    -0.6890    -0.6240 H     1 <1>   0.0800 
 23 H       -1.2540    -2.1810    -1.1760 H     1 <1>   0.0800 
 24 H       -3.0630     1.0070     2.2350 H     1 <1>   0.0800 
 25 H       -2.3710    -0.6430    -2.4400 H     1 <1>   0.0800 
 26 H       -1.5660     1.7300     0.4850 H     1 <1>   0.4500 
 27 H       -5.0920     0.4020     1.6280 H     1 <1>   0.0800 
 28 H       -4.3690    -1.1580     1.4830 H     1 <1>   0.0800 
 29 H       -3.9120    -2.0860    -0.7160 H     1 <1>   0.0800 
 30 H       -4.4470    -1.2380    -2.1320 H     1 <1>   0.0800 
 31 H       -3.4340     1.4090    -1.6520 H     1 <1>   0.0800 
 32 H       -1.7010     1.4220    -1.6800 H     1 <1>   0.0800 
 33 H       -4.4060     2.4640     0.1220 H     1 <1>   0.0800 
 34 H       -3.0360     3.4600    -0.3250 H     1 <1>   0.0800 
 35 H       -3.3470     3.1070     1.3620 H     1 <1>   0.0800 
 36 H       -6.8800     0.0980     0.0490 H     1 <1>   0.0800 
 37 H       -6.5580    -0.6580    -1.4760 H     1 <1>   0.0800 
 38 H       -6.6160    -3.5440    -1.3800 H     1 <1>   0.1500 
 39 H       -6.3640    -5.9790     0.0800 H     1 <1>   0.0800 
 40 H       -7.0070    -5.9350     1.6960 H     1 <1>   0.0800 
 41 H       -8.6310    -5.5090    -0.8340 H     1 <1>   0.0800 
 42 H       -9.2650    -5.4380     0.7940 H     1 <1>   0.0800 
 43 H       -8.6490    -6.9470     0.1600 H     1 <1>   0.0800 
@<TRIPOS>BOND
  1   1   2  1   
  2   1   3  1   
  3   2   4  1   
  4   2  20  1   
  5   2  21  1   
  6   3   5  1   
  7   3  22  1   
  8   3  23  1   
  9   4   6  1   
 10   4   7  1   
 11   4  24  1   
 12   5   8  1   
 13   5   9  1   
 14   5  25  1   
 15   6   9  1   
 16   6  10  1   
 17   6  26  1   
 18   7  11  1   
 19   7  27  1   
 20   7  28  1   
 21   8  11  1   
 22   8  29  1   
 23   8  30  1   
 24   9  31  1   
 25   9  32  1   
 26  10  33  1   
 27  10  34  1   
 28  10  35  1   
 29  11  12  1   
 30  12  13  1   
 31  12  36  1   
 32  12  37  1   
 33  13  14  1   
 34  13  15  2   
 35  14  16  1   
 36  15  17  1   
 37  15  38  1   
 38  16  17  2   
 39  17  18  1   
 40  18  19  1   
 41  18  39  1   
 42  18  40  1   
 43  19  41  1   
 44  19  42  1   
 45  19  43  1   
@<TRIPOS>SUBSTRUCTURE
  1 ****  11 GROUP 4 **** **** 0

# MOE 2024.06 (io_trps.svl 2023.06)
