@<TRIPOS>MOLECULE
NONAME
44 46 1 0 0 
SMALL
USER_CHARGES


@<TRIPOS>ATOM
  1 O        0.3470     1.6930    -0.8090 O.2   1 <1>  -0.5700 
  2 C       -0.1070     2.8090    -0.9060 C.2   1 <1>   0.5690 
  3 N       -0.9920     3.3510    -0.0140 N.am  1 <1>  -0.5090 
  4 C        0.3310     3.6740    -2.0810 C.3   1 <1>   0.1810 
  5 C       -1.5260     4.7350    -0.2180 C.3   1 <1>   0.3640 
  6 C       -1.2970     2.7050     1.2870 C.3   1 <1>   0.0490 
  7 O        0.5070     5.0040    -1.6710 O.3   1 <1>  -0.5600 
  8 C       -2.9540     4.6830    -0.7660 C.ar  1 <1>  -0.1440 
  9 C       -0.6590     5.6350    -1.1520 C.3   1 <1>   0.2610 
 10 C       -1.9150     1.3430     1.2790 C.3   1 <1>  -0.2000 
 11 C       -2.7160     2.5200     1.7340 C.3   1 <1>  -0.2000 
 12 C       -3.8520     5.6760    -0.3980 C.ar  1 <1>   0.1600 
 13 C       -3.3920     3.6880    -1.6240 C.ar  1 <1>  -0.1500 
 14 C       -0.2830     6.9150    -0.4010 C.2   1 <1>   0.5690 
 15 N       -5.1090     5.7530    -0.8020 N.ar  1 <1>  -0.6200 
 16 C       -4.6990     3.7540    -2.0540 C.ar  1 <1>  -0.1500 
 17 O       -1.1600     7.5730     0.1080 O.2   1 <1>  -0.5700 
 18 N        1.0250     7.2740    -0.3080 N.am  1 <1>  -0.7300 
 19 C       -5.5040     4.7920    -1.6190 C.ar  1 <1>   0.1600 
 20 C        1.5620     8.4460     0.4090 C.3   1 <1>   0.1400 
 21 C        2.4570     7.9600     1.5470 C.3   1 <1>  -0.1600 
 22 C        3.0000     9.1410     2.3460 C.3   1 <1>   0.1200 
 23 O        3.8390     8.6500     3.3260 O.3   1 <1>  -0.6800 
 24 H       -0.4020     3.6410    -2.8670 H     1 <1>   0.0800 
 25 H        1.2720     3.3170    -2.4590 H     1 <1>   0.0800 
 26 H       -1.5710     5.1980     0.7530 H     1 <1>   0.0800 
 27 H       -0.5430     2.9070     2.0300 H     1 <1>   0.1000 
 28 H       -1.2510     5.9320    -1.9990 H     1 <1>   0.0800 
 29 H       -2.1380     0.8900     0.3290 H     1 <1>   0.1000 
 30 H       -1.5870     0.6270     2.0110 H     1 <1>   0.1000 
 31 H       -2.9440     2.5960     2.7820 H     1 <1>   0.1000 
 32 H       -3.5390     2.8240     1.1140 H     1 <1>   0.1000 
 33 H       -3.5220     6.4600     0.2670 H     1 <1>   0.1500 
 34 H       -2.7570     2.8810    -1.9460 H     1 <1>   0.1500 
 35 H       -5.0960     3.0080    -2.7180 H     1 <1>   0.1500 
 36 H        1.7070     6.6610    -0.7690 H     1 <1>   0.3700 
 37 H       -6.5240     4.8340    -1.9600 H     1 <1>   0.1500 
 38 H        2.1240     9.0560    -0.2780 H     1 <1>   0.0800 
 39 H        0.7500     9.0360     0.8030 H     1 <1>   0.0800 
 40 H        3.2810     7.4040     1.1350 H     1 <1>   0.0800 
 41 H        1.8810     7.3250     2.1960 H     1 <1>   0.0800 
 42 H        2.2080     9.6950     2.8220 H     1 <1>   0.0800 
 43 H        3.5770     9.8030     1.7210 H     1 <1>   0.0800 
 44 H        3.3560     8.0470     3.9240 H     1 <1>   0.4000 
@<TRIPOS>BOND
  1   1   2  2   
  2   2   3  am  
  3   2   4  1   
  4   3   5  1   
  5   3   6  1   
  6   4   7  1   
  7   4  24  1   
  8   4  25  1   
  9   5   8  1   
 10   5   9  1   
 11   5  26  1   
 12   6  10  1   
 13   6  11  1   
 14   6  27  1   
 15   7   9  1   
 16   8  12  ar  
 17   8  13  ar  
 18   9  14  1   
 19   9  28  1   
 20  10  11  1   
 21  10  29  1   
 22  10  30  1   
 23  11  31  1   
 24  11  32  1   
 25  12  15  ar  
 26  12  33  1   
 27  13  16  ar  
 28  13  34  1   
 29  14  17  2   
 30  14  18  am  
 31  15  19  ar  
 32  16  19  ar  
 33  16  35  1   
 34  18  20  1   
 35  18  36  1   
 36  19  37  1   
 37  20  21  1   
 38  20  38  1   
 39  20  39  1   
 40  21  22  1   
 41  21  40  1   
 42  21  41  1   
 43  22  23  1   
 44  22  42  1   
 45  22  43  1   
 46  23  44  1   
@<TRIPOS>SUBSTRUCTURE
  1 ****   5 GROUP 4 **** **** 0

# MOE 2024.06 (io_trps.svl 2023.06)
