@<TRIPOS>MOLECULE
NONAME
48 50 1 0 0 
SMALL
USER_CHARGES


@<TRIPOS>ATOM
  1 CL       0.7970     0.7150    -0.4950 Cl    1 <1>  -0.1770 
  2 C        0.8850     2.2630     0.3160 C.ar  1 <1>   0.1770 
  3 C        2.1050     2.8700     0.6010 C.ar  1 <1>  -0.1440 
  4 C       -0.3160     2.8580     0.6600 C.ar  1 <1>  -0.1500 
  5 C        2.0860     4.1040     1.2420 C.ar  1 <1>  -0.1500 
  6 C        3.4530     2.2530     0.2400 C.3   1 <1>   0.3640 
  7 C       -0.3160     4.0840     1.3000 C.ar  1 <1>  -0.1500 
  8 C        0.8870     4.7050     1.5890 C.ar  1 <1>  -0.1500 
  9 N        3.5960     0.9380     0.9090 N.am  1 <1>  -0.7300 
 10 C        3.6920     2.1760    -1.2900 C.3   1 <1>   0.2610 
 11 C        4.0490    -0.1700     0.2790 C.2   1 <1>   0.5690 
 12 O        4.7030     1.2340    -1.6180 O.3   1 <1>  -0.5600 
 13 C        3.9870     3.5830    -1.8290 C.2   1 <1>   0.5690 
 14 O        4.1580    -1.2120     0.8730 O.2   1 <1>  -0.5700 
 15 C        4.4100    -0.0850    -1.2070 C.3   1 <1>   0.1810 
 16 O        3.0850     4.1150    -2.4350 O.2   1 <1>  -0.5700 
 17 N        5.1830     4.2460    -1.6210 N.am  1 <1>  -0.6600 
 18 C        5.4110     5.5980    -2.2130 C.3   1 <1>   0.1400 
 19 C        6.3940     3.6700    -0.9640 C.3   1 <1>   0.1400 
 20 C        5.8950     6.5630    -1.1300 C.3   1 <1>  -0.1600 
 21 C        6.8910     4.6210     0.1280 C.3   1 <1>  -0.1600 
 22 C        7.1460     6.0160    -0.4440 C.3   1 <1>   0.2200 
 23 N        7.5330     6.9230     0.6480 N.am  1 <1>  -0.7300 
 24 C        8.7420     7.5250     0.7590 C.2   1 <1>   0.5690 
 25 O        9.6290     7.3560    -0.0390 O.2   1 <1>  -0.5700 
 26 C        8.9710     8.4400     1.9320 C.3   1 <1>  -0.1790 
 27 H       -1.2410     2.3630     0.4250 H     1 <1>   0.1500 
 28 H        3.0040     4.6140     1.4760 H     1 <1>   0.1500 
 29 H        4.2200     2.8860     0.6490 H     1 <1>   0.0800 
 30 H       -1.2460     4.5540     1.5690 H     1 <1>   0.1500 
 31 H        0.8870     5.6610     2.0840 H     1 <1>   0.1500 
 32 H        3.2830     0.8540     1.8770 H     1 <1>   0.3700 
 33 H        2.7940     1.8420    -1.7740 H     1 <1>   0.0800 
 34 H        3.5910    -0.4530    -1.7980 H     1 <1>   0.0800 
 35 H        5.2770    -0.6900    -1.3990 H     1 <1>   0.0800 
 36 H        6.1510     5.5180    -2.9910 H     1 <1>   0.0800 
 37 H        4.5090     5.9850    -2.6560 H     1 <1>   0.0800 
 38 H        6.1930     2.7130    -0.5220 H     1 <1>   0.0800 
 39 H        7.1610     3.5340    -1.7080 H     1 <1>   0.0800 
 40 H        5.1030     6.7050    -0.4160 H     1 <1>   0.0800 
 41 H        6.1220     7.5110    -1.5830 H     1 <1>   0.0800 
 42 H        7.8070     4.2350     0.5370 H     1 <1>   0.0800 
 43 H        6.1580     4.6680     0.9120 H     1 <1>   0.0800 
 44 H        7.9440     5.9580    -1.1670 H     1 <1>   0.0800 
 45 H        6.8140     7.1070     1.3450 H     1 <1>   0.3700 
 46 H        8.7940     7.9100     2.8480 H     1 <1>   0.0800 
 47 H        8.3110     9.2840     1.8680 H     1 <1>   0.0800 
 48 H        9.9870     8.7920     1.9230 H     1 <1>   0.0800 
@<TRIPOS>BOND
  1   1   2  1   
  2   2   3  ar  
  3   2   4  ar  
  4   3   5  ar  
  5   3   6  1   
  6   4   7  ar  
  7   4  27  1   
  8   5   8  ar  
  9   5  28  1   
 10   6   9  1   
 11   6  10  1   
 12   6  29  1   
 13   7   8  ar  
 14   7  30  1   
 15   8  31  1   
 16   9  11  am  
 17   9  32  1   
 18  10  12  1   
 19  10  13  1   
 20  10  33  1   
 21  11  14  2   
 22  11  15  1   
 23  12  15  1   
 24  13  16  2   
 25  13  17  am  
 26  15  34  1   
 27  15  35  1   
 28  17  18  1   
 29  17  19  1   
 30  18  20  1   
 31  18  36  1   
 32  18  37  1   
 33  19  21  1   
 34  19  38  1   
 35  19  39  1   
 36  20  22  1   
 37  20  40  1   
 38  20  41  1   
 39  21  22  1   
 40  21  42  1   
 41  21  43  1   
 42  22  23  1   
 43  22  44  1   
 44  23  24  am  
 45  23  45  1   
 46  24  25  2   
 47  24  26  1   
 48  26  46  1   
 49  26  47  1   
 50  26  48  1   
@<TRIPOS>SUBSTRUCTURE
  1 ****   6 GROUP 4 **** **** 0

# MOE 2024.06 (io_trps.svl 2023.06)
