@<TRIPOS>MOLECULE
NONAME
50 54 1 0 0 
SMALL
USER_CHARGES


@<TRIPOS>ATOM
  1 S       -0.2300     0.1050    -0.9970 S.3   1 <1>  -0.0800 
  2 C        0.9070    -1.1270    -0.4060 C.ar  1 <1>   0.0400 
  3 C        1.0710     1.1890    -1.4600 C.2   1 <1>  -0.1100 
  4 C        0.6710    -2.3910     0.1650 C.ar  1 <1>   0.4100 
  5 C        2.1810    -0.6580    -0.5890 C.ar  1 <1>   0.3070 
  6 C        2.2680     0.6420    -1.1810 C.2   1 <1>  -0.1500 
  7 N        1.7380    -3.1310     0.5280 N.ar  1 <1>  -0.6200 
  8 N       -0.5450    -2.9510     0.3940 N.pl3 1 <1>  -0.8380 
  9 N        3.2000    -1.4580    -0.2000 N.ar  1 <1>  -0.1250 
 10 C        2.9390    -2.6650     0.3440 C.ar  1 <1>   0.5280 
 11 C       -1.8710    -2.3380     0.1110 C.3   1 <1>   0.2090 
 12 C       -0.7240    -4.3070     0.9810 C.3   1 <1>   0.2090 
 13 C        4.1080    -3.5310     0.7680 C.3   1 <1>  -0.0970 
 14 C       -2.9270    -3.3420     0.5860 C.3   1 <1>  -0.0800 
 15 C       -2.1950    -4.6800     0.7920 C.3   1 <1>  -0.0800 
 16 C       -4.2100    -3.4100    -0.2860 C.3   1 <1>   0.4240 
 17 C       -2.4230    -5.6580    -0.3730 C.3   1 <1>  -0.1600 
 18 O       -3.8710    -3.3190    -1.6250 O.3   1 <1>  -0.6800 
 19 C       -5.1760    -2.2630     0.0760 C.ar  1 <1>  -0.1440 
 20 C       -4.8560    -4.8010    -0.1470 C.3   1 <1>  -0.1600 
 21 C       -3.9230    -5.9590    -0.5780 C.3   1 <1>  -0.1600 
 22 C       -5.8520    -2.2790     1.2940 C.ar  1 <1>  -0.1500 
 23 C       -5.3950    -1.1810    -0.7730 C.ar  1 <1>  -0.1500 
 24 C       -6.7170    -1.2590     1.6470 C.ar  1 <1>  -0.1500 
 25 C       -6.2590    -0.1580    -0.4220 C.ar  1 <1>  -0.1500 
 26 C       -6.9230    -0.1960     0.7890 C.ar  1 <1>  -0.1500 
 27 H        0.7900     2.1340    -1.8990 H     1 <1>   0.1500 
 28 H        3.2130     1.1200    -1.3760 H     1 <1>   0.1500 
 29 H        4.1640    -1.1500    -0.3170 H     1 <1>   0.4570 
 30 H       -1.9840    -1.4100     0.6440 H     1 <1>   0.0800 
 31 H       -1.9410    -2.1450    -0.9450 H     1 <1>   0.0800 
 32 H       -0.0750    -5.0220     0.5050 H     1 <1>   0.0800 
 33 H       -0.4880    -4.2630     2.0310 H     1 <1>   0.0800 
 34 H        3.7490    -4.4560     1.1860 H     1 <1>   0.0800 
 35 H        4.6950    -3.0320     1.5180 H     1 <1>   0.0800 
 36 H        4.7290    -3.7650    -0.0780 H     1 <1>   0.0800 
 37 H       -3.2230    -3.0180     1.5670 H     1 <1>   0.0800 
 38 H       -2.5480    -5.1550     1.6920 H     1 <1>   0.0800 
 39 H       -2.0070    -5.2330    -1.2710 H     1 <1>   0.0800 
 40 H       -1.8980    -6.5790    -0.1870 H     1 <1>   0.0800 
 41 H       -3.4400    -4.1550    -1.8740 H     1 <1>   0.4000 
 42 H       -5.1180    -4.9540     0.8830 H     1 <1>   0.0800 
 43 H       -5.7730    -4.8300    -0.7100 H     1 <1>   0.0800 
 44 H       -4.1900    -6.8360    -0.0120 H     1 <1>   0.0800 
 45 H       -4.0910    -6.1930    -1.6160 H     1 <1>   0.0800 
 46 H       -5.7110    -3.0880     1.9880 H     1 <1>   0.1500 
 47 H       -4.8940    -1.1200    -1.7240 H     1 <1>   0.1500 
 48 H       -7.2320    -1.2920     2.5920 H     1 <1>   0.1500 
 49 H       -6.4140     0.6660    -1.0960 H     1 <1>   0.1500 
 50 H       -7.5960     0.5980     1.0610 H     1 <1>   0.1500 
@<TRIPOS>BOND
  1   1   2  1   
  2   1   3  1   
  3   2   4  ar  
  4   2   5  ar  
  5   3   6  2   
  6   3  27  1   
  7   4   7  ar  
  8   4   8  1   
  9   5   6  1   
 10   5   9  ar  
 11   6  28  1   
 12   7  10  ar  
 13   8  11  1   
 14   8  12  1   
 15   9  10  ar  
 16   9  29  1   
 17  10  13  1   
 18  11  14  1   
 19  11  30  1   
 20  11  31  1   
 21  12  15  1   
 22  12  32  1   
 23  12  33  1   
 24  13  34  1   
 25  13  35  1   
 26  13  36  1   
 27  14  15  1   
 28  14  16  1   
 29  14  37  1   
 30  15  17  1   
 31  15  38  1   
 32  16  18  1   
 33  16  19  1   
 34  16  20  1   
 35  17  21  1   
 36  17  39  1   
 37  17  40  1   
 38  18  41  1   
 39  19  22  ar  
 40  19  23  ar  
 41  20  21  1   
 42  20  42  1   
 43  20  43  1   
 44  21  44  1   
 45  21  45  1   
 46  22  24  ar  
 47  22  46  1   
 48  23  25  ar  
 49  23  47  1   
 50  24  26  ar  
 51  24  48  1   
 52  25  26  ar  
 53  25  49  1   
 54  26  50  1   
@<TRIPOS>SUBSTRUCTURE
  1 ****  11 GROUP 4 **** **** 0

# MOE 2024.06 (io_trps.svl 2023.06)
