@<TRIPOS>MOLECULE
NONAME
43 44 1 0 0 
SMALL
USER_CHARGES


@<TRIPOS>ATOM
  1 CL       0.4860    -0.6560     1.3770 Cl    1 <1>  -0.1770 
  2 C        0.2780    -2.3430     0.9900 C.ar  1 <1>   0.1770 
  3 C        0.0970    -3.2550     2.0110 C.ar  1 <1>  -0.1500 
  4 C        0.3020    -2.7410    -0.3370 C.ar  1 <1>  -0.1500 
  5 C       -0.0650    -4.5810     1.6630 C.ar  1 <1>   0.1900 
  6 C        0.1320    -4.0800    -0.6600 C.ar  1 <1>  -0.1500 
  7 F       -0.2070    -5.4570     2.6200 F     1 <1>  -0.1900 
  8 C       -0.0660    -5.0180     0.3470 C.ar  1 <1>  -0.1440 
  9 C       -0.2760    -6.4900     0.0440 C.3   1 <1>   0.4870 
 10 N       -1.7170    -6.7890    -0.0720 N.4   1 <1>  -0.9590 
 11 C       -2.0060    -8.2700    -0.1150 C.3   1 <1>   0.3430 
 12 C       -2.4620    -6.0350    -1.1140 C.3   1 <1>   0.3430 
 13 C       -3.4530    -8.5940    -0.5700 C.3   1 <1>   0.2000 
 14 C       -3.9790    -6.1540    -0.8820 C.3   1 <1>  -0.1600 
 15 O       -3.4680    -8.7350    -1.9600 O.3   1 <1>  -0.6800 
 16 C       -4.4140    -7.4630    -0.1450 C.3   1 <1>  -0.1060 
 17 C       -4.1920    -7.3660     1.3750 C.2   1 <1>   0.9060 
 18 C       -5.8910    -7.8170    -0.4740 C.3   1 <1>  -0.1600 
 19 O       -3.5860    -6.3860     1.8310 O.co2 1 <1>  -0.9000 
 20 O       -4.3960    -8.3690     2.0570 O.co2 1 <1>  -0.9000 
 21 C       -6.9000    -6.7650     0.0150 C.3   1 <1>  -0.1600 
 22 C       -8.3340    -7.1840    -0.3190 C.3   1 <1>  -0.2400 
 23 H        0.0820    -2.9450     3.0400 H     1 <1>   0.1500 
 24 H        0.4520    -2.0030    -1.1050 H     1 <1>   0.1500 
 25 H        0.1550    -4.3770    -1.6950 H     1 <1>   0.1500 
 26 H        0.1480    -7.0770     0.8430 H     1 <1>   0.0800 
 27 H        0.2260    -6.7500    -0.8720 H     1 <1>   0.0800 
 28 H       -2.1760    -6.4680     0.8260 H     1 <1>   0.4500 
 29 H       -1.3190    -8.7750    -0.7720 H     1 <1>   0.0800 
 30 H       -1.8780    -8.6650     0.8810 H     1 <1>   0.0800 
 31 H       -2.1880    -4.9940    -1.0980 H     1 <1>   0.0800 
 32 H       -2.2200    -6.4430    -2.0820 H     1 <1>   0.0800 
 33 H       -3.7560    -9.5370    -0.1440 H     1 <1>   0.0800 
 34 H       -4.3140    -5.2970    -0.3240 H     1 <1>   0.0800 
 35 H       -4.4550    -6.0980    -1.8440 H     1 <1>   0.0800 
 36 H       -4.3710    -8.9810    -2.2440 H     1 <1>   0.4000 
 37 H       -6.0120    -7.9440    -1.5350 H     1 <1>   0.0800 
 38 H       -6.1290    -8.7570    -0.0030 H     1 <1>   0.0800 
 39 H       -6.8120    -6.6480     1.0830 H     1 <1>   0.0800 
 40 H       -6.7000    -5.8120    -0.4410 H     1 <1>   0.0800 
 41 H       -8.5680    -8.1220     0.1540 H     1 <1>   0.0800 
 42 H       -8.4600    -7.2890    -1.3820 H     1 <1>   0.0800 
 43 H       -9.0250    -6.4410     0.0370 H     1 <1>   0.0800 
@<TRIPOS>BOND
  1   1   2  1   
  2   2   3  ar  
  3   2   4  ar  
  4   3   5  ar  
  5   3  23  1   
  6   4   6  ar  
  7   4  24  1   
  8   5   7  1   
  9   5   8  ar  
 10   6   8  ar  
 11   6  25  1   
 12   8   9  1   
 13   9  10  1   
 14   9  26  1   
 15   9  27  1   
 16  10  11  1   
 17  10  12  1   
 18  10  28  1   
 19  11  13  1   
 20  11  29  1   
 21  11  30  1   
 22  12  14  1   
 23  12  31  1   
 24  12  32  1   
 25  13  15  1   
 26  13  16  1   
 27  13  33  1   
 28  14  16  1   
 29  14  34  1   
 30  14  35  1   
 31  15  36  1   
 32  16  17  1   
 33  16  18  1   
 34  17  19  ar  
 35  17  20  ar  
 36  18  21  1   
 37  18  37  1   
 38  18  38  1   
 39  21  22  1   
 40  21  39  1   
 41  21  40  1   
 42  22  41  1   
 43  22  42  1   
 44  22  43  1   
@<TRIPOS>SUBSTRUCTURE
  1 ****  10 GROUP 4 **** **** 0

# MOE 2024.06 (io_trps.svl 2023.06)
