@<TRIPOS>MOLECULE
NONAME
39 41 1 0 0 
SMALL
USER_CHARGES


@<TRIPOS>ATOM
  1 F       -0.3890    -0.5870    -1.6910 F     1 <1>  -0.1900 
  2 C       -0.3660    -1.8080    -1.2230 C.ar  1 <1>   0.1900 
  3 C       -0.3630    -2.0130     0.1480 C.ar  1 <1>  -0.1440 
  4 C       -0.3470    -2.8500    -2.1300 C.ar  1 <1>  -0.1500 
  5 C       -0.3450    -3.3210     0.6070 C.ar  1 <1>  -0.1500 
  6 C       -0.3670    -0.8470     1.1250 C.3   1 <1>  -0.0960 
  7 C       -0.3290    -4.1490    -1.6530 C.ar  1 <1>  -0.1500 
  8 C       -0.3360    -4.3910    -0.2840 C.ar  1 <1>  -0.1440 
  9 C       -0.3460    -5.8310     0.2270 C.3   1 <1>   0.4610 
 10 N       -1.7210    -6.1060     0.7770 N.4   1 <1>  -0.8970 
 11 C        0.7280    -6.1280     1.2960 C.2   1 <1>   0.9060 
 12 C       -1.9800    -7.5640     0.9570 C.3   1 <1>   0.4720 
 13 C       -2.8990    -5.9960    -0.1270 C.3   1 <1>   0.4720 
 14 O        1.7560    -6.7230     0.9680 O.co2 1 <1>  -0.9000 
 15 O        0.4220    -5.8930     2.4770 O.co2 1 <1>  -0.9000 
 16 C       -2.8000    -7.5260    -0.3580 C.3   1 <1>   0.1080 
 17 C       -4.1320    -8.2680    -0.3050 C.ar  1 <1>  -0.1080 
 18 C       -4.2690    -9.4820     0.3440 C.ar  1 <1>  -0.1500 
 19 C       -5.2700    -7.7760    -0.9170 C.ar  1 <1>  -0.1500 
 20 C       -5.5010   -10.1130     0.3650 C.ar  1 <1>   0.1600 
 21 C       -6.4550    -8.4890    -0.8370 C.ar  1 <1>   0.1600 
 22 N       -6.5950    -9.6410    -0.2050 N.ar  1 <1>  -0.6200 
 23 H       -0.3400    -2.6410    -3.1840 H     1 <1>   0.1500 
 24 H       -0.3290    -3.5080     1.6700 H     1 <1>   0.1500 
 25 H        0.4850    -0.2170     0.9450 H     1 <1>   0.0800 
 26 H       -0.3240    -1.1950     2.1420 H     1 <1>   0.0800 
 27 H       -1.2610    -0.2640     0.9970 H     1 <1>   0.0800 
 28 H       -0.3040    -4.9640    -2.3560 H     1 <1>   0.1500 
 29 H       -0.1450    -6.4900    -0.5960 H     1 <1>   0.0800 
 30 H       -1.7660    -5.6330     1.6930 H     1 <1>   0.4500 
 31 H       -2.5850    -7.7420     1.8280 H     1 <1>   0.0000 
 32 H       -1.0830    -8.1530     0.9050 H     1 <1>   0.0000 
 33 H       -2.6970    -5.4020    -1.0000 H     1 <1>   0.0000 
 34 H       -3.7790    -5.7070     0.4190 H     1 <1>   0.0000 
 35 H       -2.2080    -7.7760    -1.2220 H     1 <1>   0.0000 
 36 H       -3.4390    -9.9580     0.8350 H     1 <1>   0.1500 
 37 H       -5.2630    -6.8510    -1.4640 H     1 <1>   0.1500 
 38 H       -5.5930   -11.0570     0.8770 H     1 <1>   0.1500 
 39 H       -7.3350    -8.0920    -1.3170 H     1 <1>   0.1500 
@<TRIPOS>BOND
  1   1   2  1   
  2   2   3  ar  
  3   2   4  ar  
  4   3   5  ar  
  5   3   6  1   
  6   4   7  ar  
  7   4  23  1   
  8   5   8  ar  
  9   5  24  1   
 10   6  25  1   
 11   6  26  1   
 12   6  27  1   
 13   7   8  ar  
 14   7  28  1   
 15   8   9  1   
 16   9  10  1   
 17   9  11  1   
 18   9  29  1   
 19  10  12  1   
 20  10  13  1   
 21  10  30  1   
 22  11  14  ar  
 23  11  15  ar  
 24  12  16  1   
 25  12  31  1   
 26  12  32  1   
 27  13  16  1   
 28  13  33  1   
 29  13  34  1   
 30  16  17  1   
 31  16  35  1   
 32  17  18  ar  
 33  17  19  ar  
 34  18  20  ar  
 35  18  36  1   
 36  19  21  ar  
 37  19  37  1   
 38  20  22  ar  
 39  20  38  1   
 40  21  22  ar  
 41  21  39  1   
@<TRIPOS>SUBSTRUCTURE
  1 ****  10 GROUP 4 **** **** 0

# MOE 2024.06 (io_trps.svl 2023.06)
