@<TRIPOS>MOLECULE
NONAME
49 52 1 0 0 
SMALL
USER_CHARGES


@<TRIPOS>ATOM
  1 S       -0.2880     0.0080    -1.8590 S.o2  1 <1>   1.4470 
  2 O       -0.1880     1.0980    -2.8050 O.2   1 <1>  -0.6500 
  3 O       -0.9370    -1.2230    -2.2590 O.2   1 <1>  -0.6500 
  4 N       -1.1380     0.5920    -0.5140 N.am  1 <1>  -0.8490 
  5 C        1.3570    -0.3460    -1.1830 C.ar  1 <1>  -0.0090 
  6 C       -2.3850     1.2680    -0.9190 C.3   1 <1>   0.1960 
  7 C       -1.4210    -0.4610     0.4680 C.3   1 <1>   0.1960 
  8 C        1.9890     0.5600    -0.3410 C.ar  1 <1>  -0.1500 
  9 C        2.0280    -1.5240    -1.4910 C.ar  1 <1>  -0.1500 
 10 C       -3.0660     1.9600     0.2780 C.3   1 <1>   0.1440 
 11 C       -2.0460     0.1470     1.7290 C.3   1 <1>  -0.1600 
 12 C        3.2420     0.3070     0.1910 C.ar  1 <1>   0.0830 
 13 C        3.2820    -1.7920    -0.9700 C.ar  1 <1>  -0.1500 
 14 C       -4.3390     2.6240    -0.2110 C.ar  1 <1>   0.1660 
 15 C       -3.3270     0.9290     1.3950 C.3   1 <1>  -0.1600 
 16 C       -2.2310     3.1690     0.7830 C.3   1 <1>  -0.1600 
 17 O        3.7590     1.2560     1.0080 O.3   1 <1>  -0.3630 
 18 C        3.8920    -0.8810    -0.1280 C.ar  1 <1>  -0.1500 
 19 N       -5.4460     1.9980    -0.5430 N.ar  1 <1>  -0.6200 
 20 C       -4.2010     3.9780    -0.2900 C.ar  1 <1>  -0.1430 
 21 C       -2.8240     4.4290     0.1290 C.3   1 <1>  -0.0170 
 22 C        5.0460     1.1210     1.5690 C.3   1 <1>   0.0400 
 23 C       -6.4240     2.7940    -0.9490 C.ar  1 <1>   0.4770 
 24 C       -5.2790     4.7060    -0.7270 C.ar  1 <1>   0.1600 
 25 N       -6.4080     4.1160    -1.0620 N.ar  1 <1>  -0.6200 
 26 C       -7.7110     2.1070    -1.3370 C.3   1 <1>  -0.0970 
 27 H       -3.0620     0.5520    -1.3550 H     1 <1>   0.0800 
 28 H       -2.1720     2.0140    -1.6670 H     1 <1>   0.0800 
 29 H       -0.5070    -0.9630     0.7390 H     1 <1>   0.0800 
 30 H       -2.0920    -1.1900     0.0430 H     1 <1>   0.0800 
 31 H        1.4980     1.4840    -0.0900 H     1 <1>   0.1500 
 32 H        1.5610    -2.2410    -2.1460 H     1 <1>   0.1500 
 33 H       -1.3270     0.7960     2.1970 H     1 <1>   0.0800 
 34 H       -2.2780    -0.6400     2.4240 H     1 <1>   0.0800 
 35 H        3.7830    -2.7110    -1.2220 H     1 <1>   0.1500 
 36 H       -4.0760     0.2330     1.0550 H     1 <1>   0.0800 
 37 H       -3.7140     1.4140     2.2730 H     1 <1>   0.0800 
 38 H       -1.1830     3.0660     0.5630 H     1 <1>   0.0800 
 39 H       -2.3420     3.2630     1.8490 H     1 <1>   0.0800 
 40 H        4.8640    -1.1090     0.2660 H     1 <1>   0.1500 
 41 H       -2.2550     4.7080    -0.7410 H     1 <1>   0.0800 
 42 H       -2.8660     5.2530     0.8200 H     1 <1>   0.0800 
 43 H        5.2450     1.9960     2.1610 H     1 <1>   0.0800 
 44 H        5.7670     1.0450     0.7750 H     1 <1>   0.0800 
 45 H        5.0650     0.2460     2.1940 H     1 <1>   0.0800 
 46 H       -5.2190     5.7780    -0.8070 H     1 <1>   0.1500 
 47 H       -7.9440     1.3440    -0.6190 H     1 <1>   0.0800 
 48 H       -7.5940     1.6590    -2.3050 H     1 <1>   0.0800 
 49 H       -8.5180     2.8150    -1.3700 H     1 <1>   0.0800 
@<TRIPOS>BOND
  1   1   2  2   
  2   1   3  2   
  3   1   4  am  
  4   1   5  1   
  5   4   6  1   
  6   4   7  1   
  7   5   8  ar  
  8   5   9  ar  
  9   6  10  1   
 10   6  27  1   
 11   6  28  1   
 12   7  11  1   
 13   7  29  1   
 14   7  30  1   
 15   8  12  ar  
 16   8  31  1   
 17   9  13  ar  
 18   9  32  1   
 19  10  14  1   
 20  10  15  1   
 21  10  16  1   
 22  11  15  1   
 23  11  33  1   
 24  11  34  1   
 25  12  17  1   
 26  12  18  ar  
 27  13  18  ar  
 28  13  35  1   
 29  14  19  ar  
 30  14  20  ar  
 31  15  36  1   
 32  15  37  1   
 33  16  21  1   
 34  16  38  1   
 35  16  39  1   
 36  17  22  1   
 37  18  40  1   
 38  19  23  ar  
 39  20  21  1   
 40  20  24  ar  
 41  21  41  1   
 42  21  42  1   
 43  22  43  1   
 44  22  44  1   
 45  22  45  1   
 46  23  25  ar  
 47  23  26  1   
 48  24  25  ar  
 49  24  46  1   
 50  26  47  1   
 51  26  48  1   
 52  26  49  1   
@<TRIPOS>SUBSTRUCTURE
  1 ****   4 GROUP 4 **** **** 0

# MOE 2024.06 (io_trps.svl 2023.06)
