@<TRIPOS>MOLECULE
NONAME
48 51 1 0 0 
SMALL
USER_CHARGES


@<TRIPOS>ATOM
  1 F       -1.4150    -0.9380     2.1370 F     1 <1>  -0.1900 
  2 C       -2.0860    -1.1860     1.0430 C.ar  1 <1>   0.1900 
  3 C       -2.0720    -2.4700     0.5090 C.ar  1 <1>  -0.1440 
  4 C       -2.7870    -0.1420     0.4750 C.ar  1 <1>  -0.1500 
  5 C       -2.8230    -2.6980    -0.6450 C.ar  1 <1>  -0.1440 
  6 C       -1.2420    -3.5510     1.2030 C.3   1 <1>  -0.0960 
  7 C       -3.5100    -0.3790    -0.6790 C.ar  1 <1>  -0.1500 
  8 C       -3.5250    -1.6490    -1.2310 C.ar  1 <1>  -0.1500 
  9 C       -2.9210    -4.0690    -1.2900 C.3   1 <1>   0.4870 
 10 N       -3.7930    -4.9230    -0.4400 N.4   1 <1>  -0.9590 
 11 C       -5.1960    -4.3780    -0.3490 C.3   1 <1>   0.3430 
 12 C       -3.8040    -6.3520    -0.9000 C.3   1 <1>   0.3430 
 13 C       -6.1130    -5.2750     0.5060 C.3   1 <1>   0.1900 
 14 C       -4.7460    -7.2250    -0.0450 C.3   1 <1>   0.1100 
 15 N       -6.1170    -6.6690    -0.0110 N.3   1 <1>  -0.8100 
 16 C       -7.5380    -4.6960     0.5290 C.3   1 <1>   0.1200 
 17 C       -7.0800    -7.5070     0.7610 C.3   1 <1>   0.2850 
 18 O       -8.3540    -5.5020     1.3160 O.3   1 <1>  -0.5600 
 19 C       -7.1660    -8.9200     0.1390 C.3   1 <1>  -0.1950 
 20 C       -8.4640    -6.8140     0.8370 C.3   1 <1>   0.1200 
 21 C       -7.7350    -9.1600    -1.2270 C.3   1 <1>  -0.2000 
 22 C       -8.4390    -9.7020    -0.0170 C.3   1 <1>  -0.2000 
 23 H       -2.7620     0.8340     0.9270 H     1 <1>   0.1500 
 24 H       -1.0200    -4.3810     0.5600 H     1 <1>   0.0800 
 25 H       -1.7570    -3.9060     2.0780 H     1 <1>   0.0800 
 26 H       -0.2980    -3.1390     1.5210 H     1 <1>   0.0800 
 27 H       -4.0570     0.4260    -1.1430 H     1 <1>   0.1500 
 28 H       -4.0950    -1.8030    -2.1320 H     1 <1>   0.1500 
 29 H       -1.9370    -4.5000    -1.3710 H     1 <1>   0.0800 
 30 H       -3.3370    -3.9830    -2.2810 H     1 <1>   0.0800 
 31 H       -3.4030    -4.8860     0.5090 H     1 <1>   0.4500 
 32 H       -5.1760    -3.3890     0.0800 H     1 <1>   0.0800 
 33 H       -5.6210    -4.3040    -1.3360 H     1 <1>   0.0800 
 34 H       -4.1420    -6.4020    -1.9230 H     1 <1>   0.0800 
 35 H       -2.8090    -6.7630    -0.8580 H     1 <1>   0.0800 
 36 H       -5.7470    -5.2690     1.5190 H     1 <1>   0.0800 
 37 H       -4.3580    -7.3160     0.9550 H     1 <1>   0.0800 
 38 H       -4.7620    -8.2070    -0.4850 H     1 <1>   0.0800 
 39 H       -7.9560    -4.6450    -0.4630 H     1 <1>   0.0800 
 40 H       -7.5440    -3.7120     0.9630 H     1 <1>   0.0800 
 41 H       -6.7300    -7.6130     1.7740 H     1 <1>   0.0800 
 42 H       -6.3260    -9.5200     0.4390 H     1 <1>   0.1000 
 43 H       -9.1070    -7.3490     1.5120 H     1 <1>   0.0800 
 44 H       -8.9310    -6.7840    -0.1320 H     1 <1>   0.0800 
 45 H       -8.1800    -8.3390    -1.7610 H     1 <1>   0.1000 
 46 H       -7.2320    -9.8490    -1.8840 H     1 <1>   0.1000 
 47 H       -8.4120   -10.7660     0.1520 H     1 <1>   0.1000 
 48 H       -9.4000    -9.2850     0.2250 H     1 <1>   0.1000 
@<TRIPOS>BOND
  1   1   2  1   
  2   2   3  ar  
  3   2   4  ar  
  4   3   5  ar  
  5   3   6  1   
  6   4   7  ar  
  7   4  23  1   
  8   5   8  ar  
  9   5   9  1   
 10   6  24  1   
 11   6  25  1   
 12   6  26  1   
 13   7   8  ar  
 14   7  27  1   
 15   8  28  1   
 16   9  10  1   
 17   9  29  1   
 18   9  30  1   
 19  10  11  1   
 20  10  12  1   
 21  10  31  1   
 22  11  13  1   
 23  11  32  1   
 24  11  33  1   
 25  12  14  1   
 26  12  34  1   
 27  12  35  1   
 28  13  15  1   
 29  13  16  1   
 30  13  36  1   
 31  14  15  1   
 32  14  37  1   
 33  14  38  1   
 34  15  17  1   
 35  16  18  1   
 36  16  39  1   
 37  16  40  1   
 38  17  19  1   
 39  17  20  1   
 40  17  41  1   
 41  18  20  1   
 42  19  21  1   
 43  19  22  1   
 44  19  42  1   
 45  20  43  1   
 46  20  44  1   
 47  21  22  1   
 48  21  45  1   
 49  21  46  1   
 50  22  47  1   
 51  22  48  1   
@<TRIPOS>SUBSTRUCTURE
  1 ****  11 GROUP 4 **** **** 0

# MOE 2024.06 (io_trps.svl 2023.06)
