@<TRIPOS>MOLECULE
NONAME
47 49 1 0 0 
SMALL
USER_CHARGES


@<TRIPOS>ATOM
  1 CL       1.0830     0.6590    -1.8070 Cl    1 <1>  -0.1770 
  2 C        0.4640     1.6880    -0.5350 C.ar  1 <1>   0.1770 
  3 C        1.3120     2.3270     0.3670 C.ar  1 <1>  -0.1440 
  4 C       -0.9090     1.8430    -0.4710 C.ar  1 <1>  -0.1500 
  5 C        0.7360     3.1390     1.3360 C.ar  1 <1>  -0.1500 
  6 C        2.8340     2.1780     0.3440 C.3   1 <1>   0.3640 
  7 C       -1.4640     2.6510     0.5050 C.ar  1 <1>  -0.1500 
  8 C       -0.6380     3.2990     1.4060 C.ar  1 <1>  -0.1500 
  9 N        3.1680     0.7510     0.5750 N.am  1 <1>  -0.7300 
 10 C        3.4880     2.7680    -0.9410 C.3   1 <1>   0.2610 
 11 C        3.9960     0.0370    -0.2160 C.2   1 <1>   0.5690 
 12 O        4.7160     2.1200    -1.2660 O.3   1 <1>  -0.5600 
 13 C        3.7200     4.2720    -0.7620 C.2   1 <1>   0.5690 
 14 O        4.2340    -1.1200     0.0220 O.2   1 <1>  -0.5700 
 15 C        4.6180     0.7220    -1.4340 C.3   1 <1>   0.1810 
 16 O        2.8360     4.9610    -0.3080 O.2   1 <1>  -0.5700 
 17 N        4.9340     4.7820    -1.1100 N.am  1 <1>  -0.5790 
 18 C        5.3710     6.1810    -1.0160 C.3   1 <1>   0.0540 
 19 C        6.1260     6.6950    -2.2030 C.3   1 <1>  -0.2000 
 20 C        4.7070     7.1170    -1.9740 C.3   1 <1>  -0.2000 
 21 C        5.7270     6.5550     0.4400 C.3   1 <1>  -0.0650 
 22 C        6.7410     7.6940     0.7020 C.3   1 <1>  -0.0800 
 23 C        7.1570     7.6680     2.1800 C.3   1 <1>  -0.2400 
 24 C        6.1990     9.0940     0.3760 C.3   1 <1>  -0.2400 
 25 H       -1.5360     1.3340    -1.1800 H     1 <1>   0.1500 
 26 H        1.3540     3.6640     2.0450 H     1 <1>   0.1500 
 27 H        3.2360     2.7260     1.1790 H     1 <1>   0.0800 
 28 H       -2.5310     2.7770     0.5620 H     1 <1>   0.1500 
 29 H       -1.0650     3.9350     2.1630 H     1 <1>   0.1500 
 30 H        2.7110     0.2760     1.3550 H     1 <1>   0.3700 
 31 H        2.8290     2.6440    -1.7800 H     1 <1>   0.0800 
 32 H        4.0230     0.5200    -2.3060 H     1 <1>   0.0800 
 33 H        5.6090     0.3380    -1.5910 H     1 <1>   0.0800 
 34 H        5.6380     4.1130    -1.4360 H     1 <1>   0.3700 
 35 H        6.8820     7.4510    -2.1000 H     1 <1>   0.1000 
 36 H        6.3330     6.0260    -3.0190 H     1 <1>   0.1000 
 37 H        3.9330     6.7240    -2.6080 H     1 <1>   0.1000 
 38 H        4.4880     8.1180    -1.6540 H     1 <1>   0.1000 
 39 H        4.8100     6.7680     0.9610 H     1 <1>   0.0800 
 40 H        6.1410     5.6690     0.8880 H     1 <1>   0.0800 
 41 H        7.6270     7.5170     0.1160 H     1 <1>   0.0800 
 42 H        6.3070     7.8450     2.8160 H     1 <1>   0.0800 
 43 H        7.8940     8.4270     2.3760 H     1 <1>   0.0800 
 44 H        7.5860     6.7160     2.4360 H     1 <1>   0.0800 
 45 H        5.2360     9.2440     0.8320 H     1 <1>   0.0800 
 46 H        6.1090     9.2360    -0.6830 H     1 <1>   0.0800 
 47 H        6.8710     9.8500     0.7410 H     1 <1>   0.0800 
@<TRIPOS>BOND
  1   1   2  1   
  2   2   3  ar  
  3   2   4  ar  
  4   3   5  ar  
  5   3   6  1   
  6   4   7  ar  
  7   4  25  1   
  8   5   8  ar  
  9   5  26  1   
 10   6   9  1   
 11   6  10  1   
 12   6  27  1   
 13   7   8  ar  
 14   7  28  1   
 15   8  29  1   
 16   9  11  am  
 17   9  30  1   
 18  10  12  1   
 19  10  13  1   
 20  10  31  1   
 21  11  14  2   
 22  11  15  1   
 23  12  15  1   
 24  13  16  2   
 25  13  17  am  
 26  15  32  1   
 27  15  33  1   
 28  17  18  1   
 29  17  34  1   
 30  18  19  1   
 31  18  20  1   
 32  18  21  1   
 33  19  20  1   
 34  19  35  1   
 35  19  36  1   
 36  20  37  1   
 37  20  38  1   
 38  21  22  1   
 39  21  39  1   
 40  21  40  1   
 41  22  23  1   
 42  22  24  1   
 43  22  41  1   
 44  23  42  1   
 45  23  43  1   
 46  23  44  1   
 47  24  45  1   
 48  24  46  1   
 49  24  47  1   
@<TRIPOS>SUBSTRUCTURE
  1 ****  13 GROUP 4 **** **** 0

# MOE 2024.06 (io_trps.svl 2023.06)
