@<TRIPOS>MOLECULE
NONAME
53 56 1 0 0 
SMALL
USER_CHARGES


@<TRIPOS>ATOM
  1 O        4.4860    -2.6460     1.6280 O.2   1 <1>  -0.5700 
  2 C        3.4460    -2.4030     1.0470 C.2   1 <1>   0.5440 
  3 N        3.1260    -1.0780     0.8580 N.am  1 <1>  -0.6600 
  4 C        2.6260    -3.4780     0.5150 C.ar  1 <1>   0.0860 
  5 C        3.6510    -0.0540     1.8430 C.3   1 <1>   0.2200 
  6 C        2.6720    -0.6150    -0.4890 C.3   1 <1>   0.1400 
  7 C        1.2390    -3.3660     0.4290 C.ar  1 <1>  -0.1500 
  8 C        3.2030    -4.6650     0.0640 C.ar  1 <1>  -0.1500 
  9 C        2.7280     1.1690     1.9680 C.3   1 <1>   0.1200 
 10 C        5.1030     0.3730     1.5140 C.3   1 <1>   0.3430 
 11 C        3.2790     0.7250    -0.9460 C.3   1 <1>  -0.0800 
 12 C        0.4410    -4.3690    -0.1060 C.ar  1 <1>   0.0000 
 13 C        2.4300    -5.6790    -0.4680 C.ar  1 <1>  -0.1500 
 14 O        3.0410     2.1390     1.0160 O.3   1 <1>  -0.5600 
 15 N        5.4970    -0.0210     0.1230 N.4   1 <1>  -0.9590 
 16 C        2.5880     1.9250    -0.2780 C.3   1 <1>   0.1200 
 17 C        4.8210     0.8310    -0.9080 C.3   1 <1>   0.3430 
 18 C       -0.9910    -4.2070    -0.1920 C.ar  1 <1>   0.0000 
 19 C        1.0590    -5.5300    -0.5550 C.ar  1 <1>  -0.1500 
 20 C        7.0050     0.1300    -0.0130 C.3   1 <1>   0.2370 
 21 C       -1.6390    -4.2220    -1.4250 C.ar  1 <1>  -0.1500 
 22 C       -1.7620    -4.0260     0.9550 C.ar  1 <1>  -0.1500 
 23 C        7.5160     1.5670     0.1250 C.2   1 <1>   0.9060 
 24 C       -3.0090    -4.0590    -1.5130 C.ar  1 <1>  -0.1500 
 25 C       -3.1330    -3.8610     0.8770 C.ar  1 <1>  -0.1500 
 26 O        7.7840     1.9810     1.2560 O.co2 1 <1>  -0.9000 
 27 O        7.5110     2.2780    -0.8850 O.co2 1 <1>  -0.9000 
 28 C       -3.7540    -3.8780    -0.3610 C.ar  1 <1>   0.0820 
 29 O       -5.0800    -3.7200    -0.4570 O.3   1 <1>  -0.5330 
 30 H        3.6670    -0.5180     2.8140 H     1 <1>   0.0800 
 31 H        2.9270    -1.3670    -1.2170 H     1 <1>   0.0800 
 32 H        1.5980    -0.5330    -0.4810 H     1 <1>   0.0800 
 33 H        0.7620    -2.4730     0.7900 H     1 <1>   0.1500 
 34 H        4.2700    -4.7910     0.1350 H     1 <1>   0.1500 
 35 H        2.8880     1.6280     2.9270 H     1 <1>   0.0800 
 36 H        1.6890     0.8970     1.8910 H     1 <1>   0.0800 
 37 H        5.7610    -0.1140     2.2150 H     1 <1>   0.0800 
 38 H        5.2240     1.4360     1.6500 H     1 <1>   0.0800 
 39 H        3.0150     0.8190    -1.9840 H     1 <1>   0.0800 
 40 H        2.8940    -6.5890    -0.8120 H     1 <1>   0.1500 
 41 H        5.2130    -1.0060     0.0340 H     1 <1>   0.4500 
 42 H        1.5180     1.8060    -0.2540 H     1 <1>   0.0800 
 43 H        2.8120     2.8220    -0.8310 H     1 <1>   0.0800 
 44 H        5.0960     1.8640    -0.7510 H     1 <1>   0.0800 
 45 H        5.2050     0.5530    -1.8750 H     1 <1>   0.0800 
 46 H        0.4580    -6.3210    -0.9690 H     1 <1>   0.1500 
 47 H        7.4970    -0.4560     0.7410 H     1 <1>   0.0800 
 48 H        7.3200    -0.2240    -0.9770 H     1 <1>   0.0800 
 49 H       -1.0620    -4.3620    -2.3220 H     1 <1>   0.1500 
 50 H       -1.2780    -4.0200     1.9160 H     1 <1>   0.1500 
 51 H       -3.5060    -4.0710    -2.4660 H     1 <1>   0.1500 
 52 H       -3.7080    -3.7240     1.7740 H     1 <1>   0.1500 
 53 H       -5.5210    -3.6130     0.4040 H     1 <1>   0.4500 
@<TRIPOS>BOND
  1   1   2  2   
  2   2   3  am  
  3   2   4  1   
  4   3   5  1   
  5   3   6  1   
  6   4   7  ar  
  7   4   8  ar  
  8   5   9  1   
  9   5  10  1   
 10   5  30  1   
 11   6  11  1   
 12   6  31  1   
 13   6  32  1   
 14   7  12  ar  
 15   7  33  1   
 16   8  13  ar  
 17   8  34  1   
 18   9  14  1   
 19   9  35  1   
 20   9  36  1   
 21  10  15  1   
 22  10  37  1   
 23  10  38  1   
 24  11  16  1   
 25  11  17  1   
 26  11  39  1   
 27  12  18  1   
 28  12  19  ar  
 29  13  19  ar  
 30  13  40  1   
 31  14  16  1   
 32  15  17  1   
 33  15  20  1   
 34  15  41  1   
 35  16  42  1   
 36  16  43  1   
 37  17  44  1   
 38  17  45  1   
 39  18  21  ar  
 40  18  22  ar  
 41  19  46  1   
 42  20  23  1   
 43  20  47  1   
 44  20  48  1   
 45  21  24  ar  
 46  21  49  1   
 47  22  25  ar  
 48  22  50  1   
 49  23  26  ar  
 50  23  27  ar  
 51  24  28  ar  
 52  24  51  1   
 53  25  28  ar  
 54  25  52  1   
 55  28  29  1   
 56  29  53  1   
@<TRIPOS>SUBSTRUCTURE
  1 ****   3 GROUP 4 **** **** 0

# MOE 2024.06 (io_trps.svl 2023.06)
