@<TRIPOS>MOLECULE
NONAME
47 50 1 0 0 
SMALL
USER_CHARGES


@<TRIPOS>ATOM
  1 S        0.7360    -1.8700    -2.7600 S.3   1 <1>  -0.0800 
  2 C       -0.2150    -1.5110    -1.3260 C.2   1 <1>   0.3250 
  3 C       -0.7130    -2.0150    -3.6900 C.2   1 <1>  -0.1100 
  4 N       -1.4770    -1.5100    -1.5720 N.2   1 <1>  -0.5650 
  5 C        0.4520    -1.2630    -0.0620 C.ar  1 <1>   0.0530 
  6 C       -1.7920    -1.7870    -2.9110 C.2   1 <1>   0.1410 
  7 C       -0.3040    -1.0980     1.1000 C.ar  1 <1>  -0.1500 
  8 C        1.8410    -1.1730     0.0700 C.ar  1 <1>  -0.1500 
  9 C       -3.1710    -1.8510    -3.3970 C.2   1 <1>   0.7160 
 10 C        0.2860    -0.8570     2.3270 C.ar  1 <1>  -0.1500 
 11 C        2.4380    -0.9330     1.2950 C.ar  1 <1>  -0.1500 
 12 O       -3.4180    -2.5810    -4.3430 O.2   1 <1>  -0.5700 
 13 N       -4.2150    -1.1230    -2.8510 N.am  1 <1>  -0.6600 
 14 C        1.6620    -0.7740     2.4270 C.ar  1 <1>  -0.1500 
 15 C       -4.0510     0.1060    -2.0300 C.3   1 <1>   0.1400 
 16 C       -5.6360    -1.5260    -3.0240 C.3   1 <1>   0.1400 
 17 C       -4.6150    -0.1600    -0.6340 C.3   1 <1>  -0.1600 
 18 C       -6.2420    -1.7980    -1.6440 C.3   1 <1>  -0.1600 
 19 C       -6.0860    -0.5980    -0.7020 C.3   1 <1>   0.4180 
 20 O       -6.8560     0.4390    -1.2630 O.3   1 <1>  -0.5600 
 21 C       -6.6130    -0.9620     0.6830 C.2   1 <1>  -0.2880 
 22 C       -7.2430     1.4860    -0.4170 C.3   1 <1>   0.1200 
 23 C       -7.5590    -0.2770     1.3300 C.2   1 <1>  -0.2760 
 24 C       -8.1580     0.9670     0.7010 C.3   1 <1>  -0.0220 
 25 C       -8.1180    -0.6550     2.6910 C.3   1 <1>  -0.1020 
 26 H       -0.6350    -2.2620    -4.7330 H     1 <1>   0.1500 
 27 H       -1.3770    -1.1620     1.0390 H     1 <1>   0.1500 
 28 H        2.4780    -1.2890    -0.7880 H     1 <1>   0.1500 
 29 H       -0.3250    -0.7350     3.2050 H     1 <1>   0.1500 
 30 H        3.5100    -0.8680     1.3680 H     1 <1>   0.1500 
 31 H        2.1260    -0.5870     3.3810 H     1 <1>   0.1500 
 32 H       -4.5970     0.9100    -2.4940 H     1 <1>   0.0800 
 33 H       -3.0210     0.4050    -1.9710 H     1 <1>   0.0800 
 34 H       -5.7140    -2.4110    -3.6330 H     1 <1>   0.0800 
 35 H       -6.1730    -0.7320    -3.5150 H     1 <1>   0.0800 
 36 H       -4.5130     0.7140    -0.0200 H     1 <1>   0.0800 
 37 H       -4.0340    -0.9390    -0.1750 H     1 <1>   0.0800 
 38 H       -5.7520    -2.6540    -1.2200 H     1 <1>   0.0800 
 39 H       -7.2860    -2.0350    -1.7440 H     1 <1>   0.0800 
 40 H       -6.1450    -1.8420     1.0860 H     1 <1>   0.1500 
 41 H       -7.7610     2.2160    -1.0130 H     1 <1>   0.0800 
 42 H       -6.3610     1.9390    -0.0020 H     1 <1>   0.0800 
 43 H       -9.1300     0.7410     0.3000 H     1 <1>   0.0800 
 44 H       -8.2690     1.7420     1.4380 H     1 <1>   0.0800 
 45 H       -7.9360     0.1330     3.4000 H     1 <1>   0.0800 
 46 H       -7.6520    -1.5540     3.0530 H     1 <1>   0.0800 
 47 H       -9.1770    -0.8240     2.6210 H     1 <1>   0.0800 
@<TRIPOS>BOND
  1   1   2  1   
  2   1   3  1   
  3   2   4  2   
  4   2   5  1   
  5   3   6  2   
  6   3  26  1   
  7   4   6  1   
  8   5   7  ar  
  9   5   8  ar  
 10   6   9  1   
 11   7  10  ar  
 12   7  27  1   
 13   8  11  ar  
 14   8  28  1   
 15   9  12  2   
 16   9  13  am  
 17  10  14  ar  
 18  10  29  1   
 19  11  14  ar  
 20  11  30  1   
 21  13  15  1   
 22  13  16  1   
 23  14  31  1   
 24  15  17  1   
 25  15  32  1   
 26  15  33  1   
 27  16  18  1   
 28  16  34  1   
 29  16  35  1   
 30  17  19  1   
 31  17  36  1   
 32  17  37  1   
 33  18  19  1   
 34  18  38  1   
 35  18  39  1   
 36  19  20  1   
 37  19  21  1   
 38  20  22  1   
 39  21  23  2   
 40  21  40  1   
 41  22  24  1   
 42  22  41  1   
 43  22  42  1   
 44  23  24  1   
 45  23  25  1   
 46  24  43  1   
 47  24  44  1   
 48  25  45  1   
 49  25  46  1   
 50  25  47  1   
@<TRIPOS>SUBSTRUCTURE
  1 ****  17 GROUP 4 **** **** 0

# MOE 2024.06 (io_trps.svl 2023.06)
