@<TRIPOS>MOLECULE
NONAME
44 46 1 0 0 
SMALL
USER_CHARGES


@<TRIPOS>ATOM
  1 S       -1.0950     0.1850     0.5990 S.3   1 <1>  -0.0800 
  2 C       -1.8350    -1.3240     1.0980 C.2   1 <1>  -0.1100 
  3 C       -1.4890    -0.1270    -1.0800 C.2   1 <1>  -0.1100 
  4 C       -2.3470    -1.9810     0.0390 C.2   1 <1>  -0.1810 
  5 C       -2.1390    -1.2980    -1.2070 C.2   1 <1>  -0.1500 
  6 C       -3.0670    -3.3110     0.1040 C.3   1 <1>   0.5240 
  7 N       -4.4800    -3.0540     0.4910 N.4   1 <1>  -0.9590 
  8 C       -5.1000    -4.3170     1.0350 C.3   1 <1>   0.3430 
  9 C       -5.2260    -2.4050    -0.6370 C.3   1 <1>   0.3430 
 10 C       -6.5850    -4.1960     1.4390 C.3   1 <1>   0.1400 
 11 C       -6.4420    -1.6410    -0.1070 C.3   1 <1>  -0.1600 
 12 N       -7.4310    -3.9120     0.2470 N.am  1 <1>  -0.6600 
 13 C       -7.7220    -2.4810    -0.0360 C.3   1 <1>   0.1400 
 14 C       -7.5810    -4.8640    -0.7380 C.2   1 <1>   0.7160 
 15 O       -7.3850    -4.5250    -1.8880 O.2   1 <1>  -0.5700 
 16 C       -7.8310    -6.2420    -0.4050 C.2   1 <1>  -0.0860 
 17 C       -7.2810    -7.3820    -0.8770 C.2   1 <1>  -0.0400 
 18 C       -8.7280    -6.7450     0.5280 C.2   1 <1>   0.1080 
 19 O       -7.7460    -8.4450    -0.2680 O.3   1 <1>  -0.0190 
 20 C       -6.2490    -7.5940    -1.9680 C.3   1 <1>  -0.0600 
 21 N       -8.6360    -8.0170     0.5950 N.2   1 <1>  -0.4100 
 22 C       -9.7200    -5.9500     1.3550 C.3   1 <1>  -0.0590 
 23 H       -1.7990    -1.5450     2.1520 H     1 <1>   0.1500 
 24 H       -1.1810     0.6110    -1.8020 H     1 <1>   0.1500 
 25 H       -2.4720    -1.7040    -2.1480 H     1 <1>   0.1500 
 26 H       -2.5890    -3.9250     0.8500 H     1 <1>   0.0800 
 27 H       -3.0140    -3.8190    -0.8450 H     1 <1>   0.0800 
 28 H       -4.4280    -2.3540     1.2410 H     1 <1>   0.4500 
 29 H       -4.5440    -4.6350     1.9010 H     1 <1>   0.0800 
 30 H       -5.0210    -5.1000     0.2980 H     1 <1>   0.0800 
 31 H       -5.5290    -3.1340    -1.3720 H     1 <1>   0.0800 
 32 H       -4.5830    -1.6920    -1.1250 H     1 <1>   0.0800 
 33 H       -6.7110    -3.4270     2.1820 H     1 <1>   0.0800 
 34 H       -6.8950    -5.1270     1.8830 H     1 <1>   0.0800 
 35 H       -6.6410    -0.8230    -0.7770 H     1 <1>   0.0800 
 36 H       -6.2280    -1.2020     0.8510 H     1 <1>   0.0800 
 37 H       -8.2450    -2.4070    -0.9770 H     1 <1>   0.0800 
 38 H       -8.3790    -2.0900     0.7220 H     1 <1>   0.0800 
 39 H       -5.9390    -6.6600    -2.3980 H     1 <1>   0.0800 
 40 H       -6.6730    -8.2020    -2.7470 H     1 <1>   0.0800 
 41 H       -5.3900    -8.1010    -1.5670 H     1 <1>   0.0800 
 42 H      -10.1070    -5.1260     0.7850 H     1 <1>   0.0800 
 43 H       -9.2520    -5.5810     2.2470 H     1 <1>   0.0800 
 44 H      -10.5430    -6.5840     1.6370 H     1 <1>   0.0800 
@<TRIPOS>BOND
  1   1   2  1   
  2   1   3  1   
  3   2   4  2   
  4   2  23  1   
  5   3   5  2   
  6   3  24  1   
  7   4   5  1   
  8   4   6  1   
  9   5  25  1   
 10   6   7  1   
 11   6  26  1   
 12   6  27  1   
 13   7   8  1   
 14   7   9  1   
 15   7  28  1   
 16   8  10  1   
 17   8  29  1   
 18   8  30  1   
 19   9  11  1   
 20   9  31  1   
 21   9  32  1   
 22  10  12  1   
 23  10  33  1   
 24  10  34  1   
 25  11  13  1   
 26  11  35  1   
 27  11  36  1   
 28  12  13  1   
 29  12  14  am  
 30  13  37  1   
 31  13  38  1   
 32  14  15  2   
 33  14  16  1   
 34  16  17  2   
 35  16  18  1   
 36  17  19  1   
 37  17  20  1   
 38  18  21  2   
 39  18  22  1   
 40  19  21  1   
 41  20  39  1   
 42  20  40  1   
 43  20  41  1   
 44  22  42  1   
 45  22  43  1   
 46  22  44  1   
@<TRIPOS>SUBSTRUCTURE
  1 ****   8 GROUP 4 **** **** 0

# MOE 2024.06 (io_trps.svl 2023.06)
