@<TRIPOS>MOLECULE
NONAME
55 57 1 0 0 
SMALL
USER_CHARGES


@<TRIPOS>ATOM
  1 O        1.6510     0.3220    -2.4120 O.co2 1 <1>  -0.9000 
  2 C        2.5410     0.0520    -1.6070 C.2   1 <1>   0.9060 
  3 O        2.7900    -1.0880    -1.2070 O.co2 1 <1>  -0.9000 
  4 C        3.3930     1.1890    -1.0700 C.3   1 <1>  -0.1860 
  5 C        4.8640     1.0010    -1.4880 C.3   1 <1>  -0.1600 
  6 C        3.2510     1.2900     0.4610 C.3   1 <1>  -0.1600 
  7 C        5.7830     2.0060    -0.8100 C.3   1 <1>   0.3430 
  8 C        4.2360     2.2830     1.0620 C.3   1 <1>   0.3430 
  9 N        5.6190     1.8840     0.6710 N.4   1 <1>  -0.9590 
 10 C        6.6550     2.5670     1.4930 C.3   1 <1>   0.4230 
 11 C        6.7760     4.0570     1.1460 C.3   1 <1>  -0.1600 
 12 C        8.0020     1.8440     1.3590 C.3   1 <1>  -0.1600 
 13 C        7.8680     4.7020     1.9930 C.3   1 <1>   0.2090 
 14 C        9.0890     2.5420     2.1830 C.3   1 <1>   0.2090 
 15 N        9.1520     3.9690     1.7570 N.pl3 1 <1>  -0.8380 
 16 C       10.1730     4.5610     1.0720 C.ar  1 <1>   0.7710 
 17 N        9.8930     5.5820     0.2810 N.ar  1 <1>  -0.6200 
 18 N       11.4260     4.0950     1.2070 N.ar  1 <1>  -0.1790 
 19 C       10.8680     6.1310    -0.4170 C.ar  1 <1>   0.4100 
 20 C       12.4650     4.6560     0.5430 C.ar  1 <1>   0.2110 
 21 N       10.5070     7.1340    -1.2570 N.pl3 1 <1>  -0.8380 
 22 C       12.2130     5.6970    -0.2880 C.ar  1 <1>  -0.1430 
 23 C        9.5240     8.1790    -0.8500 C.3   1 <1>   0.1290 
 24 C       10.8120     7.1270    -2.7150 C.3   1 <1>   0.1290 
 25 C       13.3630     6.3940    -1.0140 C.3   1 <1>  -0.0970 
 26 H        3.0220     2.0970    -1.5110 H     1 <1>   0.0800 
 27 H        4.9380     1.1070    -2.5570 H     1 <1>   0.0800 
 28 H        5.1850     0.0010    -1.2480 H     1 <1>   0.0800 
 29 H        3.4040     0.3210     0.9060 H     1 <1>   0.0800 
 30 H        2.2450     1.5900     0.6990 H     1 <1>   0.0800 
 31 H        5.5270     3.0030    -1.1310 H     1 <1>   0.0800 
 32 H        6.8000     1.8020    -1.0980 H     1 <1>   0.0800 
 33 H        4.1320     2.2770     2.1350 H     1 <1>   0.0800 
 34 H        4.0180     3.2730     0.6980 H     1 <1>   0.0800 
 35 H        5.6570     0.8720     0.8590 H     1 <1>   0.4500 
 36 H        6.3590     2.4980     2.5280 H     1 <1>   0.0800 
 37 H        5.8490     4.5640     1.3440 H     1 <1>   0.0800 
 38 H        7.0330     4.2020     0.1120 H     1 <1>   0.0800 
 39 H        8.3220     1.8220     0.3330 H     1 <1>   0.0800 
 40 H        7.9020     0.8310     1.7060 H     1 <1>   0.0800 
 41 H        7.6110     4.6460     3.0390 H     1 <1>   0.0800 
 42 H        7.9540     5.7480     1.7450 H     1 <1>   0.0800 
 43 H       10.0270     2.0380     2.0260 H     1 <1>   0.0800 
 44 H        8.8520     2.4890     3.2340 H     1 <1>   0.0800 
 45 H       11.5590     3.3520     1.8820 H     1 <1>   0.4570 
 46 H       13.4580     4.2680     0.7050 H     1 <1>   0.1500 
 47 H        9.4170     8.1970     0.2210 H     1 <1>   0.0800 
 48 H        8.5650     7.9700    -1.2920 H     1 <1>   0.0800 
 49 H        9.8620     9.1470    -1.1760 H     1 <1>   0.0800 
 50 H       11.2550     6.1910    -3.0040 H     1 <1>   0.0800 
 51 H       11.4890     7.9300    -2.9510 H     1 <1>   0.0800 
 52 H        9.9050     7.2580    -3.2800 H     1 <1>   0.0800 
 53 H       13.2480     7.4630    -0.9470 H     1 <1>   0.0800 
 54 H       13.3790     6.1140    -2.0520 H     1 <1>   0.0800 
 55 H       14.3130     6.1370    -0.5820 H     1 <1>   0.0800 
@<TRIPOS>BOND
  1   1   2  ar  
  2   2   3  ar  
  3   2   4  1   
  4   4   5  1   
  5   4   6  1   
  6   4  26  1   
  7   5   7  1   
  8   5  27  1   
  9   5  28  1   
 10   6   8  1   
 11   6  29  1   
 12   6  30  1   
 13   7   9  1   
 14   7  31  1   
 15   7  32  1   
 16   8   9  1   
 17   8  33  1   
 18   8  34  1   
 19   9  10  1   
 20   9  35  1   
 21  10  11  1   
 22  10  12  1   
 23  10  36  1   
 24  11  13  1   
 25  11  37  1   
 26  11  38  1   
 27  12  14  1   
 28  12  39  1   
 29  12  40  1   
 30  13  15  1   
 31  13  41  1   
 32  13  42  1   
 33  14  15  1   
 34  14  43  1   
 35  14  44  1   
 36  15  16  1   
 37  16  17  ar  
 38  16  18  ar  
 39  17  19  ar  
 40  18  20  ar  
 41  18  45  1   
 42  19  21  1   
 43  19  22  ar  
 44  20  22  ar  
 45  20  46  1   
 46  21  23  1   
 47  21  24  1   
 48  22  25  1   
 49  23  47  1   
 50  23  48  1   
 51  23  49  1   
 52  24  50  1   
 53  24  51  1   
 54  24  52  1   
 55  25  53  1   
 56  25  54  1   
 57  25  55  1   
@<TRIPOS>SUBSTRUCTURE
  1 ****  11 GROUP 4 **** **** 0

# MOE 2024.06 (io_trps.svl 2023.06)
