@<TRIPOS>MOLECULE
NONAME
46 48 1 0 0 
SMALL
USER_CHARGES


@<TRIPOS>ATOM
  1 O       -1.6180     0.9240     1.7910 O.2   1 <1>  -0.5700 
  2 C       -2.0480     1.2490     0.7000 C.2   1 <1>   0.5440 
  3 N       -2.7580     0.3230    -0.0260 N.am  1 <1>  -0.6600 
  4 C       -1.8270     2.5870     0.1920 C.ar  1 <1>   0.0860 
  5 C       -3.2290     0.5180    -1.4190 C.3   1 <1>   0.1400 
  6 C       -2.9190    -1.0900     0.3880 C.3   1 <1>   0.1400 
  7 C       -0.8790     2.8220    -0.8120 C.ar  1 <1>   0.0830 
  8 C       -2.5640     3.6810     0.6660 C.ar  1 <1>  -0.1440 
  9 C       -4.0810    -0.7170    -1.7020 C.3   1 <1>   0.2000 
 10 C       -3.4080    -1.8170    -0.8720 C.3   1 <1>  -0.0800 
 11 O       -0.1250     1.8240    -1.3140 O.3   1 <1>  -0.3630 
 12 C       -0.6960     4.0880    -1.3420 C.ar  1 <1>  -0.1500 
 13 C       -2.3650     4.9450     0.1370 C.ar  1 <1>  -0.1500 
 14 C       -3.5980     3.4930     1.7700 C.3   1 <1>  -0.0970 
 15 O       -5.3560    -0.4810    -1.2090 O.3   1 <1>  -0.6800 
 16 C       -4.2930    -3.0440    -0.5810 C.3   1 <1>   0.0200 
 17 C        0.9670     1.3910    -0.5310 C.3   1 <1>   0.0400 
 18 C       -1.4370     5.1510    -0.8680 C.ar  1 <1>  -0.1500 
 19 C       -3.5460    -4.1680     0.1170 C.2   1 <1>  -0.0400 
 20 O       -4.2220    -5.2080     0.5290 O.3   1 <1>  -0.0190 
 21 C       -2.2560    -4.3690     0.4360 C.2   1 <1>  -0.1500 
 22 N       -3.4580    -6.0890     1.1070 N.2   1 <1>  -0.4100 
 23 C       -2.2670    -5.6100     1.0660 C.2   1 <1>   0.1080 
 24 C       -1.0500    -6.3070     1.6300 C.3   1 <1>  -0.0590 
 25 H       -3.7900     1.4300    -1.5310 H     1 <1>   0.0800 
 26 H       -2.3770     0.5350    -2.0770 H     1 <1>   0.0800 
 27 H       -1.9850    -1.4880     0.7460 H     1 <1>   0.0800 
 28 H       -3.6510    -1.1420     1.1760 H     1 <1>   0.0800 
 29 H       -4.1550    -0.9520    -2.7500 H     1 <1>   0.0800 
 30 H       -2.5400    -2.1450    -1.4170 H     1 <1>   0.0800 
 31 H        0.0290     4.2340    -2.1230 H     1 <1>   0.1500 
 32 H       -2.9330     5.7840     0.5030 H     1 <1>   0.1500 
 33 H       -4.0880     4.4200     2.0080 H     1 <1>   0.0800 
 34 H       -3.1190     3.1260     2.6610 H     1 <1>   0.0800 
 35 H       -4.3450     2.7830     1.4620 H     1 <1>   0.0800 
 36 H       -5.2740    -0.0990    -0.3110 H     1 <1>   0.4000 
 37 H       -4.6900    -3.4230    -1.5060 H     1 <1>   0.0800 
 38 H       -5.1270    -2.7570     0.0360 H     1 <1>   0.0800 
 39 H        1.5140     0.6560    -1.0930 H     1 <1>   0.0800 
 40 H        0.6030     0.9570     0.3830 H     1 <1>   0.0800 
 41 H        1.5970     2.2360    -0.3160 H     1 <1>   0.0800 
 42 H       -1.2920     6.1370    -1.2760 H     1 <1>   0.1500 
 43 H       -1.3910    -3.7560     0.2670 H     1 <1>   0.1500 
 44 H       -0.3210    -6.4540     0.8540 H     1 <1>   0.0800 
 45 H       -1.3290    -7.2650     2.0320 H     1 <1>   0.0800 
 46 H       -0.6200    -5.7130     2.4150 H     1 <1>   0.0800 
@<TRIPOS>BOND
  1   1   2  2   
  2   2   3  am  
  3   2   4  1   
  4   3   5  1   
  5   3   6  1   
  6   4   7  ar  
  7   4   8  ar  
  8   5   9  1   
  9   5  25  1   
 10   5  26  1   
 11   6  10  1   
 12   6  27  1   
 13   6  28  1   
 14   7  11  1   
 15   7  12  ar  
 16   8  13  ar  
 17   8  14  1   
 18   9  10  1   
 19   9  15  1   
 20   9  29  1   
 21  10  16  1   
 22  10  30  1   
 23  11  17  1   
 24  12  18  ar  
 25  12  31  1   
 26  13  18  ar  
 27  13  32  1   
 28  14  33  1   
 29  14  34  1   
 30  14  35  1   
 31  15  36  1   
 32  16  19  1   
 33  16  37  1   
 34  16  38  1   
 35  17  39  1   
 36  17  40  1   
 37  17  41  1   
 38  18  42  1   
 39  19  20  1   
 40  19  21  2   
 41  20  22  1   
 42  21  23  1   
 43  21  43  1   
 44  22  23  2   
 45  23  24  1   
 46  24  44  1   
 47  24  45  1   
 48  24  46  1   
@<TRIPOS>SUBSTRUCTURE
  1 ****   3 GROUP 4 **** **** 0

# MOE 2024.06 (io_trps.svl 2023.06)
