@<TRIPOS>MOLECULE
NONAME
38 40 1 0 0 
SMALL
USER_CHARGES


@<TRIPOS>ATOM
  1 CL       0.6160     1.0590    -2.4950 Cl    1 <1>  -0.1860 
  2 C        1.7740     1.4520    -1.2460 C.ar  1 <1>   0.1680 
  3 C        2.5390     0.4630    -0.6490 C.ar  1 <1>   0.1680 
  4 C        1.9190     2.7730    -0.8640 C.ar  1 <1>  -0.1590 
  5 CL       2.3720    -1.2110    -1.1230 Cl    1 <1>  -0.1860 
  6 C        3.4520     0.7900     0.3360 C.ar  1 <1>  -0.1590 
  7 C        2.8390     3.1150     0.1230 C.ar  1 <1>  -0.1530 
  8 C        3.5990     2.1150     0.7190 C.ar  1 <1>  -0.1590 
  9 C        3.0230     4.5680     0.5470 C.3   1 <1>   0.3360 
 10 O        1.7690     5.1740     0.6570 O.3   1 <1>  -0.5660 
 11 C        3.8710     5.3350    -0.4890 C.3   1 <1>   0.1580 
 12 C        1.7950     6.4950     1.1040 C.3   1 <1>   0.1100 
 13 N        3.9000     6.8140    -0.2190 N.pl3 1 <1>  -0.5970 
 14 C        2.5510     7.3810     0.0990 C.3   1 <1>   0.1580 
 15 C        5.0390     7.5510    -0.2460 C.cat 1 <1>   1.0690 
 16 N        6.2300     7.0900     0.0760 N.pl3 1 <1>  -0.7050 
 17 N        5.2060     8.8360    -0.5800 N.pl3 1 <1>  -0.4640 
 18 C        7.1030     8.1250    -0.0550 C.2   1 <1>   0.4790 
 19 N        6.5200     9.1920    -0.4490 N.2   1 <1>  -0.2680 
 20 C        4.2410     9.8180    -1.1340 C.3   1 <1>   0.2660 
 21 C        8.5770     7.9740     0.2460 C.3   1 <1>  -0.0820 
 22 H        1.3080     3.5230    -1.3330 H     1 <1>   0.1410 
 23 H        4.0370     0.0140     0.7970 H     1 <1>   0.1410 
 24 H        4.3090     2.3540     1.4930 H     1 <1>   0.1410 
 25 H        3.4920     4.6010     1.5150 H     1 <1>   0.0700 
 26 H        3.4430     5.1700    -1.4630 H     1 <1>   0.0700 
 27 H        4.8640     4.9230    -0.5010 H     1 <1>   0.0700 
 28 H        2.2550     6.5240     2.0780 H     1 <1>   0.0700 
 29 H        0.7750     6.8260     1.1990 H     1 <1>   0.0700 
 30 H        2.6430     8.3670     0.5200 H     1 <1>   0.0700 
 31 H        1.9700     7.4500    -0.8050 H     1 <1>   0.0700 
 32 H        6.4490     6.1530     0.3940 H     1 <1>   0.4430 
 33 H        3.4770     9.3160    -1.7000 H     1 <1>   0.0700 
 34 H        4.7570    10.5010    -1.7870 H     1 <1>   0.0700 
 35 H        3.7920    10.3780    -0.3330 H     1 <1>   0.0700 
 36 H        9.0110     7.2300    -0.3960 H     1 <1>   0.0700 
 37 H        8.7180     7.6840     1.2710 H     1 <1>   0.0700 
 38 H        9.0840     8.9080     0.0800 H     1 <1>   0.0700 
@<TRIPOS>BOND
  1   1   2  1   
  2   2   3  ar  
  3   2   4  ar  
  4   3   5  1   
  5   3   6  ar  
  6   4   7  ar  
  7   4  22  1   
  8   6   8  ar  
  9   6  23  1   
 10   7   8  ar  
 11   7   9  1   
 12   8  24  1   
 13   9  10  1   
 14   9  11  1   
 15   9  25  1   
 16  10  12  1   
 17  11  13  1   
 18  11  26  1   
 19  11  27  1   
 20  12  14  1   
 21  12  28  1   
 22  12  29  1   
 23  13  14  1   
 24  13  15  ar  
 25  14  30  1   
 26  14  31  1   
 27  15  16  ar  
 28  15  17  ar  
 29  16  18  1   
 30  16  32  1   
 31  17  19  1   
 32  17  20  1   
 33  18  19  2   
 34  18  21  1   
 35  20  33  1   
 36  20  34  1   
 37  20  35  1   
 38  21  36  1   
 39  21  37  1   
 40  21  38  1   
@<TRIPOS>SUBSTRUCTURE
  1 ****  11 GROUP 4 **** **** 0

# MOE 2024.06 (io_trps.svl 2023.06)
