@<TRIPOS>MOLECULE
NONAME
47 49 1 0 0 
SMALL
USER_CHARGES


@<TRIPOS>ATOM
  1 S        0.7050     0.3950    -1.6330 S.o2  1 <1>   1.3330 
  2 O        0.9830    -0.9630    -2.0430 O.2   1 <1>  -0.6500 
  3 O       -0.0240     1.2750    -2.5170 O.2   1 <1>  -0.6500 
  4 N       -0.1580     0.3300    -0.1700 N.am  1 <1>  -0.8490 
  5 C        2.2590     1.1660    -1.1730 C.3   1 <1>  -0.0550 
  6 C       -0.8330     1.5890     0.1620 C.3   1 <1>   0.1160 
  7 C       -1.1270    -0.7700    -0.1500 C.3   1 <1>   0.1160 
  8 C        3.1720     0.2770    -0.3000 C.3   1 <1>  -0.0800 
  9 C        4.5550     0.8500    -0.0320 C.3   1 <1>   0.2200 
 10 C        2.6510    -0.0170     1.1120 C.3   1 <1>   0.1200 
 11 N        4.4730     2.2890     0.3180 N.am  1 <1>  -0.7300 
 12 C        4.9380     0.0680     1.2160 C.3   1 <1>   0.1200 
 13 O        3.7620    -0.0080     1.9630 O.3   1 <1>  -0.5600 
 14 C        4.7420     3.3270    -0.5270 C.2   1 <1>   0.5440 
 15 O        4.9940     3.0560    -1.6850 O.2   1 <1>  -0.5700 
 16 C        4.7170     4.7050    -0.0650 C.ar  1 <1>   0.0860 
 17 C        5.3340     5.7100    -0.7980 C.ar  1 <1>  -0.1500 
 18 C        4.0680     5.0720     1.1380 C.ar  1 <1>  -0.1500 
 19 C        5.3170     7.0260    -0.3530 C.ar  1 <1>   0.2270 
 20 C        4.0440     6.3710     1.5900 C.ar  1 <1>  -0.1500 
 21 N        5.8610     8.1400    -0.9190 N.2   1 <1>  -0.5650 
 22 C        4.6800     7.3510     0.8280 C.ar  1 <1>  -0.1520 
 23 C        5.5610     9.0920    -0.1090 C.2   1 <1>   0.0060 
 24 N        4.8470     8.6870     0.9720 N.pl3 1 <1>   0.0330 
 25 C        5.9590    10.5360    -0.3230 C.3   1 <1>  -0.0600 
 26 H        2.7950     1.4040    -2.0730 H     1 <1>   0.0800 
 27 H        2.0610     2.0910    -0.6710 H     1 <1>   0.0800 
 28 H       -1.2840     1.5210     1.1370 H     1 <1>   0.0800 
 29 H       -1.5990     1.8090    -0.5640 H     1 <1>   0.0800 
 30 H       -0.1250     2.4000     0.1710 H     1 <1>   0.0800 
 31 H       -1.6500    -0.7910     0.7910 H     1 <1>   0.0800 
 32 H       -0.6200    -1.7120    -0.2730 H     1 <1>   0.0800 
 33 H       -1.8400    -0.6550    -0.9510 H     1 <1>   0.0800 
 34 H        3.3010    -0.6670    -0.8010 H     1 <1>   0.0800 
 35 H        5.2430     0.6910    -0.8460 H     1 <1>   0.0800 
 36 H        2.1710    -0.9800     1.1690 H     1 <1>   0.0800 
 37 H        1.9750     0.7460     1.4560 H     1 <1>   0.0800 
 38 H        4.2800     2.4560     1.3070 H     1 <1>   0.3700 
 39 H        5.7090     0.5480     1.7930 H     1 <1>   0.0800 
 40 H        5.2360    -0.9350     0.9640 H     1 <1>   0.0800 
 41 H        5.8360     5.4920    -1.7230 H     1 <1>   0.1500 
 42 H        3.5710     4.3160     1.7170 H     1 <1>   0.1500 
 43 H        3.5470     6.6380     2.5080 H     1 <1>   0.1500 
 44 H        4.5030     9.2700     1.7380 H     1 <1>   0.2700 
 45 H        6.5170    10.6260    -1.2390 H     1 <1>   0.0800 
 46 H        6.5760    10.8750     0.4890 H     1 <1>   0.0800 
 47 H        5.0840    11.1550    -0.3920 H     1 <1>   0.0800 
@<TRIPOS>BOND
  1   1   2  2   
  2   1   3  2   
  3   1   4  am  
  4   1   5  1   
  5   4   6  1   
  6   4   7  1   
  7   5   8  1   
  8   5  26  1   
  9   5  27  1   
 10   6  28  1   
 11   6  29  1   
 12   6  30  1   
 13   7  31  1   
 14   7  32  1   
 15   7  33  1   
 16   8   9  1   
 17   8  10  1   
 18   8  34  1   
 19   9  11  1   
 20   9  12  1   
 21   9  35  1   
 22  10  13  1   
 23  10  36  1   
 24  10  37  1   
 25  11  14  am  
 26  11  38  1   
 27  12  13  1   
 28  12  39  1   
 29  12  40  1   
 30  14  15  2   
 31  14  16  1   
 32  16  17  ar  
 33  16  18  ar  
 34  17  19  ar  
 35  17  41  1   
 36  18  20  ar  
 37  18  42  1   
 38  19  21  1   
 39  19  22  ar  
 40  20  22  ar  
 41  20  43  1   
 42  21  23  2   
 43  22  24  1   
 44  23  24  1   
 45  23  25  1   
 46  24  44  1   
 47  25  45  1   
 48  25  46  1   
 49  25  47  1   
@<TRIPOS>SUBSTRUCTURE
  1 ****  14 GROUP 4 **** **** 0

# MOE 2024.06 (io_trps.svl 2023.06)
