@<TRIPOS>MOLECULE
NONAME
49 52 1 0 0 
SMALL
USER_CHARGES


@<TRIPOS>ATOM
  1 O        3.5360    -1.0830     1.1600 O.2   1 <1>  -0.5700 
  2 C        2.7770    -1.3840     0.2590 C.2   1 <1>   0.5440 
  3 N        2.3320    -0.4200    -0.6190 N.am  1 <1>  -0.4940 
  4 C        2.3280    -2.7480     0.1270 C.ar  1 <1>   0.0860 
  5 C        2.5260     0.9840    -0.6590 C.2   1 <1>  -0.0880 
  6 C        2.1850    -3.5800     1.2200 C.ar  1 <1>   0.1600 
  7 C        2.0050    -3.3260    -1.0850 C.ar  1 <1>   0.1600 
  8 N        3.6410     1.7200    -0.3630 N.pl3 1 <1>   0.3140 
  9 C        1.5800     1.8760    -1.0350 C.2   1 <1>  -0.1500 
 10 N        1.7620    -4.8210     1.1340 N.ar  1 <1>  -0.6200 
 11 N        1.5760    -4.5570    -1.2040 N.ar  1 <1>  -0.6200 
 12 N        3.4080     3.0460    -0.5340 N.2   1 <1>  -0.7070 
 13 C        4.9910     1.2630     0.0620 C.3   1 <1>   0.1760 
 14 C        2.1780     3.1230    -0.9340 C.2   1 <1>   0.1390 
 15 C        1.4710    -5.2950    -0.0880 C.ar  1 <1>   0.6200 
 16 C        5.2070     1.6100     1.5440 C.3   1 <1>  -0.1600 
 17 C        6.0970     1.8950    -0.8010 C.3   1 <1>  -0.1600 
 18 C        1.0040    -6.6810    -0.1930 C.ar  1 <1>   0.3100 
 19 C        6.6010     1.2030     2.0000 C.3   1 <1>   0.3430 
 20 C        7.4800     1.4950    -0.2950 C.3   1 <1>   0.3430 
 21 N        1.3950    -7.4450    -1.2300 N.ar  1 <1>  -0.6200 
 22 C        0.1560    -7.1950     0.7940 C.ar  1 <1>  -0.1500 
 23 N        7.6190     1.8770     1.1410 N.4   1 <1>  -0.9590 
 24 C        0.9440    -8.6840    -1.2760 C.ar  1 <1>   0.1600 
 25 C       -0.3080    -8.4910     0.7360 C.ar  1 <1>  -0.1500 
 26 C        9.0020     1.6050     1.6370 C.3   1 <1>   0.2630 
 27 C        0.1030    -9.2500    -0.3360 C.ar  1 <1>  -0.1500 
 28 H        1.5580    -0.7230    -1.2130 H     1 <1>   0.3700 
 29 H        2.4280    -3.2010     2.1990 H     1 <1>   0.1500 
 30 H        2.1080    -2.7580    -1.9940 H     1 <1>   0.1500 
 31 H        0.5670     1.6980    -1.3470 H     1 <1>   0.1500 
 32 H        5.0460     0.2010    -0.0770 H     1 <1>   0.0800 
 33 H        1.6860     4.0550    -1.1590 H     1 <1>   0.1500 
 34 H        4.4810     1.0940     2.1460 H     1 <1>   0.0800 
 35 H        5.0720     2.6660     1.7020 H     1 <1>   0.0800 
 36 H        6.0210     2.9680    -0.7900 H     1 <1>   0.0800 
 37 H        5.9860     1.5660    -1.8190 H     1 <1>   0.0800 
 38 H        6.7070     0.1320     1.9290 H     1 <1>   0.0800 
 39 H        6.7370     1.4900     3.0310 H     1 <1>   0.0800 
 40 H        8.2330     1.9930    -0.8850 H     1 <1>   0.0800 
 41 H        7.6130     0.4310    -0.4040 H     1 <1>   0.0800 
 42 H       -0.1390    -6.5660     1.6140 H     1 <1>   0.1500 
 43 H        7.4440     2.8930     1.2040 H     1 <1>   0.4500 
 44 H        1.2610    -9.2860    -2.1110 H     1 <1>   0.1500 
 45 H       -0.9610    -8.8920     1.4920 H     1 <1>   0.1500 
 46 H        9.2180     0.5500     1.5890 H     1 <1>   0.0800 
 47 H        9.1020     1.9310     2.6600 H     1 <1>   0.0800 
 48 H        9.7260     2.1340     1.0380 H     1 <1>   0.0800 
 49 H       -0.2220   -10.2690    -0.4440 H     1 <1>   0.1500 
@<TRIPOS>BOND
  1   1   2  2   
  2   2   3  am  
  3   2   4  1   
  4   3   5  1   
  5   3  28  1   
  6   4   6  ar  
  7   4   7  ar  
  8   5   8  1   
  9   5   9  2   
 10   6  10  ar  
 11   6  29  1   
 12   7  11  ar  
 13   7  30  1   
 14   8  12  1   
 15   8  13  1   
 16   9  14  1   
 17   9  31  1   
 18  10  15  ar  
 19  11  15  ar  
 20  12  14  2   
 21  13  16  1   
 22  13  17  1   
 23  13  32  1   
 24  14  33  1   
 25  15  18  1   
 26  16  19  1   
 27  16  34  1   
 28  16  35  1   
 29  17  20  1   
 30  17  36  1   
 31  17  37  1   
 32  18  21  ar  
 33  18  22  ar  
 34  19  23  1   
 35  19  38  1   
 36  19  39  1   
 37  20  23  1   
 38  20  40  1   
 39  20  41  1   
 40  21  24  ar  
 41  22  25  ar  
 42  22  42  1   
 43  23  26  1   
 44  23  43  1   
 45  24  27  ar  
 46  24  44  1   
 47  25  27  ar  
 48  25  45  1   
 49  26  46  1   
 50  26  47  1   
 51  26  48  1   
 52  27  49  1   
@<TRIPOS>SUBSTRUCTURE
  1 ****   2 GROUP 4 **** **** 0

# MOE 2024.06 (io_trps.svl 2023.06)
