@<TRIPOS>MOLECULE
NONAME
48 49 1 0 0 
SMALL
USER_CHARGES


@<TRIPOS>ATOM
  1 S        0.5760    -0.9180     1.1930 S.o2  1 <1>   1.5010 
  2 O        0.4030    -0.5450     2.5800 O.2   1 <1>  -0.6500 
  3 O        1.2980    -2.1300     0.8690 O.2   1 <1>  -0.6500 
  4 N       -0.9570    -1.0390     0.4820 N.am  1 <1>  -0.8490 
  5 C        1.3160     0.4580     0.2940 C.2   1 <1>  -0.0630 
  6 C       -1.6420    -2.2910     0.8770 C.3   1 <1>   0.1960 
  7 C       -1.8240     0.1010     0.8170 C.3   1 <1>   0.1960 
  8 C        1.6330     0.4710    -1.0610 C.2   1 <1>   0.1080 
  9 C        1.6730     1.6970     0.7160 C.2   1 <1>  -0.3020 
 10 C       -2.9200    -2.4780     0.0350 C.3   1 <1>   0.2000 
 11 C       -3.1300     0.0270     0.0120 C.3   1 <1>  -0.1600 
 12 N        2.1380     1.6030    -1.4460 N.2   1 <1>  -0.7070 
 13 C        1.4290    -0.6810    -2.0230 C.3   1 <1>  -0.0590 
 14 N        2.1640     2.3640    -0.3420 N.pl3 1 <1>   0.3140 
 15 O       -2.5110    -2.4980    -1.2970 O.3   1 <1>  -0.6800 
 16 C       -3.9020    -1.3020     0.2690 C.3   1 <1>  -0.1060 
 17 C        2.6820     3.7470    -0.3560 C.3   1 <1>   0.0960 
 18 C       -4.3590    -1.3990     1.7390 C.2   1 <1>   0.9060 
 19 C       -5.1290    -1.4280    -0.6820 C.3   1 <1>  -0.1600 
 20 C        1.5360     4.7670    -0.3840 C.3   1 <1>  -0.2400 
 21 O       -4.5150    -0.3670     2.4030 O.co2 1 <1>  -0.9000 
 22 O       -4.5240    -2.5160     2.2440 O.co2 1 <1>  -0.9000 
 23 C       -6.2100    -0.3510    -0.4860 C.3   1 <1>  -0.1600 
 24 C       -7.3970    -0.5880    -1.4230 C.3   1 <1>  -0.2400 
 25 H       -1.0020    -3.1390     0.7060 H     1 <1>   0.0800 
 26 H       -1.8840    -2.2730     1.9280 H     1 <1>   0.0800 
 27 H       -2.0430     0.1050     1.8740 H     1 <1>   0.0800 
 28 H       -1.3250     1.0250     0.5790 H     1 <1>   0.0800 
 29 H        1.5970     2.1200     1.7020 H     1 <1>   0.1500 
 30 H       -3.3890    -3.4220     0.2540 H     1 <1>   0.0800 
 31 H       -3.7420     0.8620     0.3030 H     1 <1>   0.0800 
 32 H       -2.9090     0.1400    -1.0330 H     1 <1>   0.0800 
 33 H        2.0340    -1.5180    -1.7250 H     1 <1>   0.0800 
 34 H        1.7130    -0.3840    -3.0160 H     1 <1>   0.0800 
 35 H        0.3970    -0.9760    -2.0320 H     1 <1>   0.0800 
 36 H       -1.8820    -1.7520    -1.3800 H     1 <1>   0.4000 
 37 H        3.2910     3.8920     0.5170 H     1 <1>   0.0800 
 38 H        3.2990     3.8640    -1.2290 H     1 <1>   0.0800 
 39 H       -4.7970    -1.4000    -1.7050 H     1 <1>   0.0800 
 40 H       -5.5760    -2.3930    -0.5150 H     1 <1>   0.0800 
 41 H        0.9200     4.6650     0.4920 H     1 <1>   0.0800 
 42 H        0.9340     4.6190    -1.2630 H     1 <1>   0.0800 
 43 H        1.9370     5.7640    -0.4080 H     1 <1>   0.0800 
 44 H       -6.5580    -0.3670     0.5340 H     1 <1>   0.0800 
 45 H       -5.8010     0.6240    -0.6790 H     1 <1>   0.0800 
 46 H       -7.8420    -1.5470    -1.2230 H     1 <1>   0.0800 
 47 H       -7.0770    -0.5590    -2.4500 H     1 <1>   0.0800 
 48 H       -8.1410     0.1730    -1.2700 H     1 <1>   0.0800 
@<TRIPOS>BOND
  1   1   2  2   
  2   1   3  2   
  3   1   4  am  
  4   1   5  1   
  5   4   6  1   
  6   4   7  1   
  7   5   8  1   
  8   5   9  2   
  9   6  10  1   
 10   6  25  1   
 11   6  26  1   
 12   7  11  1   
 13   7  27  1   
 14   7  28  1   
 15   8  12  2   
 16   8  13  1   
 17   9  14  1   
 18   9  29  1   
 19  10  15  1   
 20  10  16  1   
 21  10  30  1   
 22  11  16  1   
 23  11  31  1   
 24  11  32  1   
 25  12  14  1   
 26  13  33  1   
 27  13  34  1   
 28  13  35  1   
 29  14  17  1   
 30  15  36  1   
 31  16  18  1   
 32  16  19  1   
 33  17  20  1   
 34  17  37  1   
 35  17  38  1   
 36  18  21  ar  
 37  18  22  ar  
 38  19  23  1   
 39  19  39  1   
 40  19  40  1   
 41  20  41  1   
 42  20  42  1   
 43  20  43  1   
 44  23  24  1   
 45  23  44  1   
 46  23  45  1   
 47  24  46  1   
 48  24  47  1   
 49  24  48  1   
@<TRIPOS>SUBSTRUCTURE
  1 ****   7 GROUP 4 **** **** 0

# MOE 2024.06 (io_trps.svl 2023.06)
