@<TRIPOS>MOLECULE
NONAME
55 57 1 0 0 
SMALL
USER_CHARGES


@<TRIPOS>ATOM
  1 O       -1.1470     0.8910    -2.1930 O.co2 1 <1>  -0.9000 
  2 C       -1.4740     1.1990    -1.0420 C.2   1 <1>   0.9060 
  3 O       -2.3150     0.5370    -0.4120 O.co2 1 <1>  -0.9000 
  4 C       -0.8630     2.4330    -0.3620 C.3   1 <1>  -0.1060 
  5 C       -2.0720     3.2620     0.1390 C.3   1 <1>   0.2000 
  6 C       -0.1120     3.2550    -1.4410 C.3   1 <1>   0.1400 
  7 C        0.1220     1.8990     0.7320 C.3   1 <1>  -0.1600 
  8 O       -2.6480     2.6480     1.2310 O.3   1 <1>  -0.6800 
  9 C       -1.7900     4.7260     0.4890 C.3   1 <1>  -0.1600 
 10 N        0.1570     4.6680    -1.0130 N.am  1 <1>  -0.6600 
 11 C        0.7010     2.8840     1.7590 C.3   1 <1>  -0.1600 
 12 C       -1.0800     5.4190    -0.6700 C.3   1 <1>   0.1400 
 13 C        1.4310     5.1760    -0.9890 C.2   1 <1>   0.5690 
 14 C        1.7720     2.2100     2.6210 C.3   1 <1>  -0.2400 
 15 O        2.3810     4.5630    -1.4150 O.2   1 <1>  -0.5700 
 16 C        1.6850     6.5530    -0.3950 C.3   1 <1>  -0.0990 
 17 C        3.1770     6.8810    -0.2310 C.3   1 <1>   0.0200 
 18 C        3.3660     8.2420     0.4070 C.2   1 <1>   0.2980 
 19 O        3.0790     8.3880     1.6740 O.3   1 <1>  -0.0190 
 20 N        3.7780     9.2860    -0.1820 N.2   1 <1>  -0.5650 
 21 N        3.3300     9.6360     1.9120 N.2   1 <1>  -0.4100 
 22 C        3.7460    10.1730     0.8190 C.2   1 <1>   0.4620 
 23 C        4.1390    11.5630     0.6520 C.ar  1 <1>   0.0540 
 24 C        4.5860    12.0580    -0.5760 C.ar  1 <1>  -0.1500 
 25 C        4.0840    12.4630     1.7180 C.ar  1 <1>  -0.1500 
 26 C        4.9600    13.3810    -0.7400 C.ar  1 <1>  -0.1430 
 27 C        4.4540    13.7860     1.5660 C.ar  1 <1>  -0.1500 
 28 C        4.8920    14.2470     0.3380 C.ar  1 <1>  -0.1500 
 29 C        5.4400    13.8870    -2.0880 C.3   1 <1>  -0.0970 
 30 H       -2.8180     3.2540    -0.6390 H     1 <1>   0.0800 
 31 H       -0.7100     3.2940    -2.3360 H     1 <1>   0.0800 
 32 H        0.8020     2.7500    -1.7010 H     1 <1>   0.0800 
 33 H       -0.3830     1.1260     1.2860 H     1 <1>   0.0800 
 34 H        0.9380     1.4160     0.2220 H     1 <1>   0.0800 
 35 H       -2.7430     1.6920     0.9610 H     1 <1>   0.4000 
 36 H       -2.7250     5.2230     0.6750 H     1 <1>   0.0800 
 37 H       -1.1910     4.8080     1.3720 H     1 <1>   0.0800 
 38 H        1.1390     3.7290     1.2650 H     1 <1>   0.0800 
 39 H       -0.0880     3.2270     2.4040 H     1 <1>   0.0800 
 40 H       -0.8670     6.4380    -0.4060 H     1 <1>   0.0800 
 41 H       -1.7260     5.4290    -1.5310 H     1 <1>   0.0800 
 42 H        2.5880     1.8740     2.0060 H     1 <1>   0.0800 
 43 H        1.3550     1.3640     3.1380 H     1 <1>   0.0800 
 44 H        2.1520     2.9060     3.3470 H     1 <1>   0.0800 
 45 H        1.2340     7.2890    -1.0340 H     1 <1>   0.0800 
 46 H        1.2140     6.5960     0.5690 H     1 <1>   0.0800 
 47 H        3.6560     6.8760    -1.1940 H     1 <1>   0.0800 
 48 H        3.6530     6.1370     0.3820 H     1 <1>   0.0800 
 49 H        4.6380    11.3890    -1.4160 H     1 <1>   0.1500 
 50 H        3.7460    12.1210     2.6800 H     1 <1>   0.1500 
 51 H        4.4010    14.4600     2.4040 H     1 <1>   0.1500 
 52 H        5.1770    15.2780     0.2250 H     1 <1>   0.1500 
 53 H        6.2780    14.5480    -1.9600 H     1 <1>   0.0800 
 54 H        4.6470    14.4220    -2.5790 H     1 <1>   0.0800 
 55 H        5.7470    13.0700    -2.7150 H     1 <1>   0.0800 
@<TRIPOS>BOND
  1   1   2  ar  
  2   2   3  ar  
  3   2   4  1   
  4   4   5  1   
  5   4   6  1   
  6   4   7  1   
  7   5   8  1   
  8   5   9  1   
  9   5  30  1   
 10   6  10  1   
 11   6  31  1   
 12   6  32  1   
 13   7  11  1   
 14   7  33  1   
 15   7  34  1   
 16   8  35  1   
 17   9  12  1   
 18   9  36  1   
 19   9  37  1   
 20  10  12  1   
 21  10  13  am  
 22  11  14  1   
 23  11  38  1   
 24  11  39  1   
 25  12  40  1   
 26  12  41  1   
 27  13  15  2   
 28  13  16  1   
 29  14  42  1   
 30  14  43  1   
 31  14  44  1   
 32  16  17  1   
 33  16  45  1   
 34  16  46  1   
 35  17  18  1   
 36  17  47  1   
 37  17  48  1   
 38  18  19  1   
 39  18  20  2   
 40  19  21  1   
 41  20  22  1   
 42  21  22  2   
 43  22  23  1   
 44  23  24  ar  
 45  23  25  ar  
 46  24  26  ar  
 47  24  49  1   
 48  25  27  ar  
 49  25  50  1   
 50  26  28  ar  
 51  26  29  1   
 52  27  28  ar  
 53  27  51  1   
 54  28  52  1   
 55  29  53  1   
 56  29  54  1   
 57  29  55  1   
@<TRIPOS>SUBSTRUCTURE
  1 ****  16 GROUP 4 **** **** 0

# MOE 2024.06 (io_trps.svl 2023.06)
