@<TRIPOS>MOLECULE
NONAME
54 56 1 0 0 
SMALL
USER_CHARGES


@<TRIPOS>ATOM
  1 O       -1.7120     1.7180     2.3500 O.2   1 <1>  -0.5700 
  2 C       -1.4920     2.7290     1.7300 C.2   1 <1>   0.5690 
  3 N       -1.9950     2.9300     0.4680 N.am  1 <1>  -0.6600 
  4 C       -0.6470     3.7840     2.4060 C.3   1 <1>  -0.1790 
  5 C       -2.7650     1.8660    -0.2190 C.3   1 <1>   0.1400 
  6 C       -1.8790     4.1830    -0.3120 C.3   1 <1>   0.1400 
  7 C       -4.1900     2.3660    -0.4470 C.3   1 <1>  -0.1600 
  8 C       -3.2860     4.7350    -0.5490 C.3   1 <1>  -0.1600 
  9 C       -4.2130     3.6990    -1.2150 C.3   1 <1>   0.4230 
 10 N       -5.6130     4.2300    -1.2750 N.4   1 <1>  -0.9590 
 11 C       -6.6210     3.3020    -1.8640 C.3   1 <1>   0.3430 
 12 C       -5.7450     5.5930    -1.8830 C.3   1 <1>   0.3430 
 13 C       -8.0400     3.7620    -1.5010 C.3   1 <1>  -0.1600 
 14 C       -7.2090     6.0610    -1.9230 C.3   1 <1>  -0.1600 
 15 C       -8.1330     5.2220    -1.0200 C.3   1 <1>   0.2800 
 16 O       -7.6130     5.2260     0.2860 O.3   1 <1>  -0.5600 
 17 C       -9.6100     5.7010    -1.0290 C.3   1 <1>  -0.1600 
 18 C       -7.6280     6.4260     1.0350 C.3   1 <1>   0.1200 
 19 C      -10.0500     6.4070     0.2630 C.3   1 <1>   0.2800 
 20 C       -8.8830     7.2730     0.7800 C.3   1 <1>   0.2000 
 21 O      -11.1020     7.2470    -0.0510 O.3   1 <1>  -0.6800 
 22 C      -10.5980     5.4130     1.2990 C.3   1 <1>  -0.2400 
 23 O       -9.2290     7.9520     1.9410 O.3   1 <1>  -0.6800 
 24 H        0.2100     4.0100     1.8020 H     1 <1>   0.0800 
 25 H       -0.3070     3.4180     3.3580 H     1 <1>   0.0800 
 26 H       -1.2290     4.6710     2.5690 H     1 <1>   0.0800 
 27 H       -2.2880     1.6320    -1.1560 H     1 <1>   0.0800 
 28 H       -2.7860     0.9640     0.3710 H     1 <1>   0.0800 
 29 H       -1.2850     4.9140     0.2070 H     1 <1>   0.0800 
 30 H       -1.3930     3.9690    -1.2500 H     1 <1>   0.0800 
 31 H       -4.6600     2.4800     0.5150 H     1 <1>   0.0800 
 32 H       -4.7050     1.6000    -0.9940 H     1 <1>   0.0800 
 33 H       -3.1830     5.6040    -1.1710 H     1 <1>   0.0800 
 34 H       -3.6920     5.0340     0.4020 H     1 <1>   0.0800 
 35 H       -3.8560     3.5200    -2.2160 H     1 <1>   0.0800 
 36 H       -5.9420     4.3570    -0.2980 H     1 <1>   0.4500 
 37 H       -6.5070     3.2850    -2.9360 H     1 <1>   0.0800 
 38 H       -6.4860     2.3000    -1.4950 H     1 <1>   0.0800 
 39 H       -5.1850     6.2970    -1.2890 H     1 <1>   0.0800 
 40 H       -5.3370     5.5980    -2.8800 H     1 <1>   0.0800 
 41 H       -8.4440     3.1150    -0.7420 H     1 <1>   0.0800 
 42 H       -8.6490     3.6290    -2.3770 H     1 <1>   0.0800 
 43 H       -7.5560     5.9870    -2.9380 H     1 <1>   0.0800 
 44 H       -7.2590     7.1040    -1.6680 H     1 <1>   0.0800 
 45 H       -9.7400     6.3740    -1.8590 H     1 <1>   0.0800 
 46 H      -10.2680     4.8710    -1.2100 H     1 <1>   0.0800 
 47 H       -7.5870     6.1440     2.0730 H     1 <1>   0.0800 
 48 H       -6.7470     6.9930     0.7960 H     1 <1>   0.0800 
 49 H       -8.6540     8.0200     0.0420 H     1 <1>   0.0800 
 50 H      -11.9090     6.7220    -0.2090 H     1 <1>   0.4000 
 51 H       -9.8350     4.7170     1.5940 H     1 <1>   0.0800 
 52 H      -11.4210     4.8500     0.8970 H     1 <1>   0.0800 
 53 H      -10.9270     5.9310     2.1820 H     1 <1>   0.0800 
 54 H      -10.1200     8.3400     1.8040 H     1 <1>   0.4000 
@<TRIPOS>BOND
  1   1   2  2   
  2   2   3  am  
  3   2   4  1   
  4   3   5  1   
  5   3   6  1   
  6   4  24  1   
  7   4  25  1   
  8   4  26  1   
  9   5   7  1   
 10   5  27  1   
 11   5  28  1   
 12   6   8  1   
 13   6  29  1   
 14   6  30  1   
 15   7   9  1   
 16   7  31  1   
 17   7  32  1   
 18   8   9  1   
 19   8  33  1   
 20   8  34  1   
 21   9  10  1   
 22   9  35  1   
 23  10  11  1   
 24  10  12  1   
 25  10  36  1   
 26  11  13  1   
 27  11  37  1   
 28  11  38  1   
 29  12  14  1   
 30  12  39  1   
 31  12  40  1   
 32  13  15  1   
 33  13  41  1   
 34  13  42  1   
 35  14  15  1   
 36  14  43  1   
 37  14  44  1   
 38  15  16  1   
 39  15  17  1   
 40  16  18  1   
 41  17  19  1   
 42  17  45  1   
 43  17  46  1   
 44  18  20  1   
 45  18  47  1   
 46  18  48  1   
 47  19  20  1   
 48  19  21  1   
 49  19  22  1   
 50  20  23  1   
 51  20  49  1   
 52  21  50  1   
 53  22  51  1   
 54  22  52  1   
 55  22  53  1   
 56  23  54  1   
@<TRIPOS>SUBSTRUCTURE
  1 ****  10 GROUP 4 **** **** 0

# MOE 2024.06 (io_trps.svl 2023.06)
