@<TRIPOS>MOLECULE
NONAME
48 50 1 0 0 
SMALL
USER_CHARGES


@<TRIPOS>ATOM
  1 S       -0.5730    -1.2750    -1.4660 S.o2  1 <1>   1.2040 
  2 O       -0.6100    -0.0180    -2.1790 O.2   1 <1>  -0.6500 
  3 O        0.5160    -1.5670    -0.5620 O.2   1 <1>  -0.6500 
  4 C       -2.1520    -1.5440    -0.6240 C.ar  1 <1>  -0.0090 
  5 C       -0.5890    -2.5670    -2.6930 C.3   1 <1>  -0.1350 
  6 C       -2.2500    -2.4150     0.4540 C.ar  1 <1>  -0.1500 
  7 C       -3.3120    -0.9100    -1.0520 C.ar  1 <1>  -0.1500 
  8 C       -3.4620    -2.6480     1.0810 C.ar  1 <1>  -0.1500 
  9 C       -4.5270    -1.1380    -0.4300 C.ar  1 <1>  -0.1500 
 10 C       -4.6110    -2.0140     0.6390 C.ar  1 <1>  -0.1430 
 11 C       -5.9490    -2.2800     1.3270 C.3   1 <1>   0.0440 
 12 C       -6.2800    -3.7620     1.4590 C.2   1 <1>   0.5690 
 13 O       -6.4730    -4.2020     2.5670 O.2   1 <1>  -0.5700 
 14 N       -6.3670    -4.5680     0.3560 N.am  1 <1>  -0.6600 
 15 C       -6.1390    -4.1750    -1.0580 C.3   1 <1>   0.1400 
 16 C       -6.6350    -6.0240     0.4490 C.3   1 <1>   0.1400 
 17 C       -6.7300    -5.3240    -1.8700 C.3   1 <1>   0.2000 
 18 C       -6.4930    -6.5520    -0.9830 C.3   1 <1>  -0.0800 
 19 O       -8.0910    -5.0990    -2.0020 O.3   1 <1>  -0.6800 
 20 C       -7.3840    -7.7710    -1.2900 C.3   1 <1>  -0.0160 
 21 C       -7.0030    -8.9550    -0.4150 C.ar  1 <1>  -0.1430 
 22 C       -5.9550    -9.7910    -0.7410 C.ar  1 <1>  -0.1500 
 23 C       -7.6810    -9.2540     0.7500 C.ar  1 <1>  -0.1500 
 24 C       -5.6410   -10.8530     0.0910 C.ar  1 <1>   0.1600 
 25 C       -7.2850   -10.3400     1.5130 C.ar  1 <1>   0.1600 
 26 N       -6.2810   -11.1470     1.2110 N.ar  1 <1>  -0.6200 
 27 H       -1.4280    -2.4490    -3.3500 H     1 <1>   0.0800 
 28 H       -0.6450    -3.5290    -2.2230 H     1 <1>   0.0800 
 29 H        0.3100    -2.5250    -3.2780 H     1 <1>   0.0800 
 30 H       -1.3660    -2.9130     0.8160 H     1 <1>   0.1500 
 31 H       -3.2620    -0.2210    -1.8790 H     1 <1>   0.1500 
 32 H       -3.5060    -3.3270     1.9180 H     1 <1>   0.1500 
 33 H       -5.4040    -0.6230    -0.7850 H     1 <1>   0.1500 
 34 H       -6.7490    -1.8050     0.7920 H     1 <1>   0.0800 
 35 H       -5.9190    -1.8470     2.3100 H     1 <1>   0.0800 
 36 H       -6.6050    -3.2360    -1.2990 H     1 <1>   0.0800 
 37 H       -5.0790    -4.1100    -1.2340 H     1 <1>   0.0800 
 38 H       -5.9370    -6.5000     1.1170 H     1 <1>   0.0800 
 39 H       -7.6350    -6.1710     0.8200 H     1 <1>   0.0800 
 40 H       -6.3010    -5.4140    -2.8530 H     1 <1>   0.0800 
 41 H       -5.4670    -6.8480    -1.1100 H     1 <1>   0.0800 
 42 H       -8.4690    -4.9170    -1.1180 H     1 <1>   0.4000 
 43 H       -7.2720    -8.0430    -2.3250 H     1 <1>   0.0800 
 44 H       -8.4200    -7.5280    -1.1330 H     1 <1>   0.0800 
 45 H       -5.3790    -9.6280    -1.6340 H     1 <1>   0.1500 
 46 H       -8.5110    -8.6540     1.0750 H     1 <1>   0.1500 
 47 H       -4.8210   -11.4950    -0.1800 H     1 <1>   0.1500 
 48 H       -7.8240   -10.5580     2.4190 H     1 <1>   0.1500 
@<TRIPOS>BOND
  1   1   2  2   
  2   1   3  2   
  3   1   4  1   
  4   1   5  1   
  5   4   6  ar  
  6   4   7  ar  
  7   5  27  1   
  8   5  28  1   
  9   5  29  1   
 10   6   8  ar  
 11   6  30  1   
 12   7   9  ar  
 13   7  31  1   
 14   8  10  ar  
 15   8  32  1   
 16   9  10  ar  
 17   9  33  1   
 18  10  11  1   
 19  11  12  1   
 20  11  34  1   
 21  11  35  1   
 22  12  13  2   
 23  12  14  am  
 24  14  15  1   
 25  14  16  1   
 26  15  17  1   
 27  15  36  1   
 28  15  37  1   
 29  16  18  1   
 30  16  38  1   
 31  16  39  1   
 32  17  18  1   
 33  17  19  1   
 34  17  40  1   
 35  18  20  1   
 36  18  41  1   
 37  19  42  1   
 38  20  21  1   
 39  20  43  1   
 40  20  44  1   
 41  21  22  ar  
 42  21  23  ar  
 43  22  24  ar  
 44  22  45  1   
 45  23  25  ar  
 46  23  46  1   
 47  24  26  ar  
 48  24  47  1   
 49  25  26  ar  
 50  25  48  1   
@<TRIPOS>SUBSTRUCTURE
  1 ****  14 GROUP 4 **** **** 0

# MOE 2024.06 (io_trps.svl 2023.06)
