@<TRIPOS>MOLECULE
NONAME
45 46 1 0 0 
SMALL
USER_CHARGES


@<TRIPOS>ATOM
  1 S       -0.5110     0.4200     1.1220 S.o2  1 <1>   1.4470 
  2 O       -1.3140     1.5020     1.6530 O.2   1 <1>  -0.6500 
  3 O       -0.1290    -0.6500     2.0190 O.2   1 <1>  -0.6500 
  4 N       -1.3250    -0.2620    -0.2020 N.am  1 <1>  -0.8490 
  5 C        0.9890     1.0980     0.3780 C.ar  1 <1>  -0.0090 
  6 C       -0.8420    -1.5820    -0.6610 C.3   1 <1>   0.1960 
  7 C       -2.7830    -0.1780    -0.1690 C.3   1 <1>   0.1960 
  8 C        0.9360     2.1420    -0.5310 C.ar  1 <1>   0.1900 
  9 C        2.2510     0.5950     0.6770 C.ar  1 <1>  -0.1500 
 10 C       -1.7510    -2.7930    -0.2950 C.3   1 <1>  -0.1060 
 11 C       -3.3690    -1.1420     0.8660 C.3   1 <1>  -0.1600 
 12 F       -0.2180     2.6580    -0.8600 F     1 <1>  -0.1900 
 13 C        2.0610     2.6830    -1.1270 C.ar  1 <1>  -0.1500 
 14 C        3.3940     1.1210     0.0930 C.ar  1 <1>  -0.1500 
 15 C       -2.6740    -3.0750    -1.4970 C.2   1 <1>   0.9060 
 16 C       -2.5730    -2.4520     0.9770 C.3   1 <1>   0.2000 
 17 C       -0.8750    -4.0670    -0.0870 C.3   1 <1>  -0.1600 
 18 C        3.3070     2.1680    -0.8110 C.ar  1 <1>  -0.1440 
 19 O       -3.8800    -3.3130    -1.3210 O.co2 1 <1>  -0.9000 
 20 O       -2.1880    -3.1000    -2.6340 O.co2 1 <1>  -0.9000 
 21 O       -3.4680    -3.4670     1.2480 O.3   1 <1>  -0.6800 
 22 C        0.0260    -4.0890     1.1630 C.3   1 <1>  -0.1600 
 23 C        4.5630     2.7360    -1.4460 C.3   1 <1>  -0.0970 
 24 C        0.9230    -5.3300     1.1650 C.3   1 <1>  -0.2400 
 25 H       -0.7190    -1.5310    -1.7300 H     1 <1>   0.0800 
 26 H        0.1460    -1.7400    -0.2740 H     1 <1>   0.0800 
 27 H       -3.0990     0.8300     0.0380 H     1 <1>   0.0800 
 28 H       -3.1620    -0.4380    -1.1450 H     1 <1>   0.0800 
 29 H        2.3430    -0.2200     1.3770 H     1 <1>   0.1500 
 30 H       -4.3860    -1.3460     0.5810 H     1 <1>   0.0800 
 31 H       -3.3840    -0.6630     1.8280 H     1 <1>   0.0800 
 32 H        1.9520     3.4920    -1.8260 H     1 <1>   0.1500 
 33 H        4.3560     0.7090     0.3470 H     1 <1>   0.1500 
 34 H       -1.9190    -2.3730     1.8260 H     1 <1>   0.0800 
 35 H       -1.5340    -4.9180    -0.0360 H     1 <1>   0.0800 
 36 H       -0.2680    -4.2020    -0.9660 H     1 <1>   0.0800 
 37 H       -3.9200    -3.6400     0.3700 H     1 <1>   0.4000 
 38 H        0.6450    -3.2120     1.2080 H     1 <1>   0.0800 
 39 H       -0.5850    -4.1080     2.0490 H     1 <1>   0.0800 
 40 H        5.3540     2.7960    -0.7190 H     1 <1>   0.0800 
 41 H        4.3830     3.7230    -1.8320 H     1 <1>   0.0800 
 42 H        4.8820     2.1020    -2.2540 H     1 <1>   0.0800 
 43 H        1.5650    -5.3300     0.3020 H     1 <1>   0.0800 
 44 H        0.3220    -6.2220     1.1510 H     1 <1>   0.0800 
 45 H        1.5340    -5.3400     2.0500 H     1 <1>   0.0800 
@<TRIPOS>BOND
  1   1   2  2   
  2   1   3  2   
  3   1   4  am  
  4   1   5  1   
  5   4   6  1   
  6   4   7  1   
  7   5   8  ar  
  8   5   9  ar  
  9   6  10  1   
 10   6  25  1   
 11   6  26  1   
 12   7  11  1   
 13   7  27  1   
 14   7  28  1   
 15   8  12  1   
 16   8  13  ar  
 17   9  14  ar  
 18   9  29  1   
 19  10  15  1   
 20  10  16  1   
 21  10  17  1   
 22  11  16  1   
 23  11  30  1   
 24  11  31  1   
 25  13  18  ar  
 26  13  32  1   
 27  14  18  ar  
 28  14  33  1   
 29  15  19  ar  
 30  15  20  ar  
 31  16  21  1   
 32  16  34  1   
 33  17  22  1   
 34  17  35  1   
 35  17  36  1   
 36  18  23  1   
 37  21  37  1   
 38  22  24  1   
 39  22  38  1   
 40  22  39  1   
 41  23  40  1   
 42  23  41  1   
 43  23  42  1   
 44  24  43  1   
 45  24  44  1   
 46  24  45  1   
@<TRIPOS>SUBSTRUCTURE
  1 ****   4 GROUP 4 **** **** 0

# MOE 2024.06 (io_trps.svl 2023.06)
