@<TRIPOS>MOLECULE
NONAME
51 53 1 0 0 
SMALL
USER_CHARGES


@<TRIPOS>ATOM
  1 CL      -0.3200    -1.4530    -1.9560 Cl    1 <1>  -0.1770 
  2 C       -1.4750    -1.8340    -0.7090 C.ar  1 <1>   0.1770 
  3 C       -1.8000    -3.1580    -0.4760 C.ar  1 <1>  -0.1500 
  4 C       -2.0500    -0.8140     0.0230 C.ar  1 <1>  -0.1500 
  5 C       -2.7280    -3.4720     0.5070 C.ar  1 <1>  -0.1440 
  6 C       -2.9680    -1.1270     1.0110 C.ar  1 <1>  -0.1500 
  7 C       -3.3040    -2.4500     1.2520 C.ar  1 <1>  -0.1500 
  8 C       -3.1060    -4.9190     0.7530 C.3   1 <1>   0.4870 
  9 N       -4.0250    -5.3400    -0.3370 N.4   1 <1>  -0.9590 
 10 C       -4.1650    -6.8310    -0.3790 C.3   1 <1>   0.5660 
 11 C       -5.3590    -4.6600    -0.2480 C.3   1 <1>   0.3430 
 12 C       -2.8070    -7.4090    -0.7560 C.ar  1 <1>  -0.1430 
 13 C       -5.2780    -7.3240    -1.3450 C.3   1 <1>   0.2000 
 14 C       -6.3380    -5.2010    -1.3050 C.3   1 <1>   0.1200 
 15 C       -2.1670    -8.2530     0.1400 C.ar  1 <1>  -0.1500 
 16 C       -2.1890    -7.1080    -1.9650 C.ar  1 <1>  -0.1500 
 17 O       -6.4640    -6.5850    -1.1730 O.3   1 <1>  -0.5600 
 18 C       -5.5870    -8.8090    -1.0920 C.3   1 <1>   0.1200 
 19 C       -0.9230    -8.7840    -0.1500 C.ar  1 <1>   0.0830 
 20 C       -0.9390    -7.6260    -2.2570 C.ar  1 <1>  -0.1500 
 21 O       -5.7250    -9.0440     0.2740 O.3   1 <1>  -0.6800 
 22 O       -0.3800    -9.6160     0.7700 O.3   1 <1>  -0.3630 
 23 C       -0.2900    -8.4480    -1.3520 C.ar  1 <1>   0.0830 
 24 C       -0.1620   -10.9530     0.3720 C.3   1 <1>   0.0400 
 25 O        0.9450    -8.8890    -1.6890 O.3   1 <1>  -0.3630 
 26 C        2.0210    -8.4420    -0.8930 C.3   1 <1>   0.0400 
 27 H       -1.3150    -3.9170    -1.0650 H     1 <1>   0.1500 
 28 H       -1.7790     0.2080    -0.1770 H     1 <1>   0.1500 
 29 H       -3.4160    -0.3370     1.5930 H     1 <1>   0.1500 
 30 H       -4.0160    -2.6670     2.0320 H     1 <1>   0.1500 
 31 H       -3.5830    -5.0270     1.7130 H     1 <1>   0.0800 
 32 H       -2.2110    -5.5210     0.7460 H     1 <1>   0.0800 
 33 H       -3.5750    -5.0620    -1.2130 H     1 <1>   0.4500 
 34 H       -4.4230    -7.1800     0.6080 H     1 <1>   0.0800 
 35 H       -5.7900    -4.8230     0.7260 H     1 <1>   0.0800 
 36 H       -5.2390    -3.5970    -0.3850 H     1 <1>   0.0800 
 37 H       -4.9710    -7.2040    -2.3680 H     1 <1>   0.0800 
 38 H       -6.0080    -4.9710    -2.3030 H     1 <1>   0.0800 
 39 H       -7.3130    -4.7700    -1.1580 H     1 <1>   0.0800 
 40 H       -2.6260    -8.5250     1.0770 H     1 <1>   0.1500 
 41 H       -2.6580    -6.4740    -2.6980 H     1 <1>   0.1500 
 42 H       -4.7850    -9.4300    -1.4530 H     1 <1>   0.0800 
 43 H       -6.5010    -9.0870    -1.5890 H     1 <1>   0.0800 
 44 H       -0.4520    -7.3970    -3.1890 H     1 <1>   0.1500 
 45 H       -6.1500    -9.9140     0.4330 H     1 <1>   0.4000 
 46 H        0.1510   -11.5140     1.2350 H     1 <1>   0.0800 
 47 H        0.6070   -10.9840    -0.3790 H     1 <1>   0.0800 
 48 H       -1.0800   -11.3560    -0.0160 H     1 <1>   0.0800 
 49 H        2.9340    -8.8090    -1.3270 H     1 <1>   0.0800 
 50 H        1.9130    -8.8250     0.1050 H     1 <1>   0.0800 
 51 H        2.0240    -7.3670    -0.8840 H     1 <1>   0.0800 
@<TRIPOS>BOND
  1   1   2  1   
  2   2   3  ar  
  3   2   4  ar  
  4   3   5  ar  
  5   3  27  1   
  6   4   6  ar  
  7   4  28  1   
  8   5   7  ar  
  9   5   8  1   
 10   6   7  ar  
 11   6  29  1   
 12   7  30  1   
 13   8   9  1   
 14   8  31  1   
 15   8  32  1   
 16   9  10  1   
 17   9  11  1   
 18   9  33  1   
 19  10  12  1   
 20  10  13  1   
 21  10  34  1   
 22  11  14  1   
 23  11  35  1   
 24  11  36  1   
 25  12  15  ar  
 26  12  16  ar  
 27  13  17  1   
 28  13  18  1   
 29  13  37  1   
 30  14  17  1   
 31  14  38  1   
 32  14  39  1   
 33  15  19  ar  
 34  15  40  1   
 35  16  20  ar  
 36  16  41  1   
 37  18  21  1   
 38  18  42  1   
 39  18  43  1   
 40  19  22  1   
 41  19  23  ar  
 42  20  23  ar  
 43  20  44  1   
 44  21  45  1   
 45  22  24  1   
 46  23  25  1   
 47  24  46  1   
 48  24  47  1   
 49  24  48  1   
 50  25  26  1   
 51  26  49  1   
 52  26  50  1   
 53  26  51  1   
@<TRIPOS>SUBSTRUCTURE
  1 ****  12 GROUP 4 **** **** 0

# MOE 2024.06 (io_trps.svl 2023.06)
