@<TRIPOS>MOLECULE
NONAME
49 53 1 0 0 
SMALL
USER_CHARGES


@<TRIPOS>ATOM
  1 O       -0.4400     0.2470    -0.1390 O.2   1 <1>  -0.5700 
  2 C       -1.4890     0.8760    -0.1640 C.2   1 <1>   0.7160 
  3 N       -2.6510     0.1390    -0.3260 N.am  1 <1>  -0.6600 
  4 C       -1.4640     2.3350    -0.0270 C.2   1 <1>   0.2030 
  5 C       -4.0280     0.6880    -0.3770 C.3   1 <1>   0.1400 
  6 C       -2.6730    -1.3390    -0.4230 C.3   1 <1>   0.1400 
  7 N       -2.4930     3.1810     0.0060 N.2   1 <1>  -0.7070 
  8 C       -0.2780     3.0740     0.0970 C.2   1 <1>  -0.1810 
  9 C       -4.9390    -0.5300    -0.5430 C.3   1 <1>   0.2000 
 10 C       -4.1130    -1.7310    -0.0870 C.3   1 <1>  -0.0800 
 11 N       -1.9610     4.4110     0.1450 N.pl3 1 <1>   0.3000 
 12 C       -0.6230     4.3490     0.2010 C.2   1 <1>  -0.3320 
 13 C        1.2110     2.8790     0.1510 C.3   1 <1>   0.0210 
 14 O       -6.0830    -0.4240     0.2350 O.3   1 <1>  -0.6800 
 15 C       -4.5670    -3.0480    -0.7370 C.3   1 <1>  -0.0170 
 16 C        0.5350     5.2950     0.3450 C.3   1 <1>   0.0200 
 17 C        1.7450     4.3310     0.2560 C.3   1 <1>  -0.1600 
 18 C       -3.7060    -4.2120    -0.2800 C.ar  1 <1>   0.1670 
 19 N       -2.6420    -4.4780    -0.9740 N.ar  1 <1>  -0.6200 
 20 C       -4.0880    -4.9300     0.8650 C.ar  1 <1>  -0.1500 
 21 C       -1.8550    -5.5030    -0.5580 C.ar  1 <1>   0.3100 
 22 C       -3.3200    -5.9660     1.3020 C.ar  1 <1>  -0.1500 
 23 C       -2.1560    -6.2810     0.5820 C.ar  1 <1>   0.0000 
 24 C       -0.6920    -5.8030    -1.2840 C.ar  1 <1>  -0.1500 
 25 C       -1.2840    -7.3260     0.9460 C.ar  1 <1>  -0.1500 
 26 C        0.1430    -6.8240    -0.9130 C.ar  1 <1>  -0.1500 
 27 C       -0.1580    -7.5930     0.2150 C.ar  1 <1>  -0.1500 
 28 H       -4.2370     1.2090     0.5410 H     1 <1>   0.0800 
 29 H       -4.1290     1.3590    -1.2120 H     1 <1>   0.0800 
 30 H       -2.4180    -1.6280    -1.4290 H     1 <1>   0.0800 
 31 H       -1.9720    -1.7880     0.2620 H     1 <1>   0.0800 
 32 H       -5.2350    -0.6250    -1.5740 H     1 <1>   0.0800 
 33 H       -4.1720    -1.8220     0.9830 H     1 <1>   0.0800 
 34 H       -2.5310     5.2640     0.2000 H     1 <1>   0.2700 
 35 H        1.4770     2.2960     1.0150 H     1 <1>   0.0800 
 36 H        1.5610     2.3900    -0.7420 H     1 <1>   0.0800 
 37 H       -5.8390    -0.2570     1.1660 H     1 <1>   0.4000 
 38 H       -4.5060    -2.9670    -1.8090 H     1 <1>   0.0800 
 39 H       -5.5950    -3.2370    -0.4850 H     1 <1>   0.0800 
 40 H        0.5490     6.0160    -0.4530 H     1 <1>   0.0800 
 41 H        0.5030     5.7930     1.2990 H     1 <1>   0.0800 
 42 H        2.3270     4.5630    -0.6180 H     1 <1>   0.0800 
 43 H        2.3710     4.4350     1.1250 H     1 <1>   0.0800 
 44 H       -4.9850    -4.6490     1.3860 H     1 <1>   0.1500 
 45 H       -3.5790    -6.5390     2.1740 H     1 <1>   0.1500 
 46 H       -0.4790    -5.1990    -2.1470 H     1 <1>   0.1500 
 47 H       -1.5200    -7.9130     1.8150 H     1 <1>   0.1500 
 48 H        1.0320    -7.0430    -1.4790 H     1 <1>   0.1500 
 49 H        0.5070    -8.3920     0.4960 H     1 <1>   0.1500 
@<TRIPOS>BOND
  1   1   2  2   
  2   2   3  am  
  3   2   4  1   
  4   3   5  1   
  5   3   6  1   
  6   4   7  2   
  7   4   8  1   
  8   5   9  1   
  9   5  28  1   
 10   5  29  1   
 11   6  10  1   
 12   6  30  1   
 13   6  31  1   
 14   7  11  1   
 15   8  12  2   
 16   8  13  1   
 17   9  10  1   
 18   9  14  1   
 19   9  32  1   
 20  10  15  1   
 21  10  33  1   
 22  11  12  1   
 23  11  34  1   
 24  12  16  1   
 25  13  17  1   
 26  13  35  1   
 27  13  36  1   
 28  14  37  1   
 29  15  18  1   
 30  15  38  1   
 31  15  39  1   
 32  16  17  1   
 33  16  40  1   
 34  16  41  1   
 35  17  42  1   
 36  17  43  1   
 37  18  19  ar  
 38  18  20  ar  
 39  19  21  ar  
 40  20  22  ar  
 41  20  44  1   
 42  21  23  ar  
 43  21  24  ar  
 44  22  23  ar  
 45  22  45  1   
 46  23  25  ar  
 47  24  26  ar  
 48  24  46  1   
 49  25  27  ar  
 50  25  47  1   
 51  26  27  ar  
 52  26  48  1   
 53  27  49  1   
@<TRIPOS>SUBSTRUCTURE
  1 ****   6 GROUP 4 **** **** 0

# MOE 2024.06 (io_trps.svl 2023.06)
