@<TRIPOS>MOLECULE
NONAME
36 37 1 0 0 
SMALL
USER_CHARGES


@<TRIPOS>ATOM
  1 O       -0.1410    -0.1940     0.4080 O.3   1 <1>  -0.5600 
  2 C       -1.5020     0.0120     0.1740 C.3   1 <1>   0.1200 
  3 C        0.5570     1.0250     0.4050 C.3   1 <1>   0.1200 
  4 C       -1.7650     1.4850     0.4600 C.3   1 <1>   0.2000 
  5 C       -0.4460     2.1320     0.0740 C.3   1 <1>   0.2890 
  6 O       -2.8190     1.9960    -0.3100 O.3   1 <1>  -0.5600 
  7 N       -0.2050     3.3930     0.8240 N.pl3 1 <1>  -0.8690 
  8 C       -4.0870     1.7010     0.1720 C.3   1 <1>   0.1200 
  9 C        0.7770     4.2560     0.4860 C.ar  1 <1>   0.7200 
 10 C       -5.0950     2.3280    -0.7830 C.3   1 <1>  -0.2400 
 11 N        0.5090     5.5180     0.7800 N.ar  1 <1>  -0.6200 
 12 N        1.8690     3.7750    -0.0960 N.ar  1 <1>  -0.6200 
 13 C        1.4380     6.3840     0.4660 C.ar  1 <1>   0.1660 
 14 C        2.7850     4.6590    -0.4010 C.ar  1 <1>   0.1670 
 15 C        2.6140     5.9990    -0.1360 C.ar  1 <1>  -0.1500 
 16 C        1.1610     7.8360     0.7940 C.3   1 <1>  -0.0970 
 17 C        4.0450     4.1420    -1.0610 C.3   1 <1>  -0.0970 
 18 H       -1.6940    -0.2160    -0.8610 H     1 <1>   0.0800 
 19 H       -2.0660    -0.6360     0.8190 H     1 <1>   0.0800 
 20 H        0.9740     1.1690     1.3860 H     1 <1>   0.0800 
 21 H        1.3420     0.9760    -0.3280 H     1 <1>   0.0800 
 22 H       -1.9630     1.6360     1.5070 H     1 <1>   0.0800 
 23 H       -0.4240     2.3200    -0.9860 H     1 <1>   0.0800 
 24 H       -1.0590     3.9080     1.0270 H     1 <1>   0.4000 
 25 H       -4.2130     0.6320     0.2060 H     1 <1>   0.0800 
 26 H       -4.1920     2.1190     1.1600 H     1 <1>   0.0800 
 27 H       -4.9740     1.9160    -1.7690 H     1 <1>   0.0800 
 28 H       -4.9530     3.3930    -0.8200 H     1 <1>   0.0800 
 29 H       -6.0940     2.1250    -0.4450 H     1 <1>   0.0800 
 30 H        3.3690     6.7160    -0.3890 H     1 <1>   0.1500 
 31 H        1.9840     8.4630     0.5030 H     1 <1>   0.0800 
 32 H        1.0000     7.9390     1.8520 H     1 <1>   0.0800 
 33 H        0.2760     8.1580     0.2770 H     1 <1>   0.0800 
 34 H        4.7310     4.9430    -1.2680 H     1 <1>   0.0800 
 35 H        3.7910     3.6520    -1.9840 H     1 <1>   0.0800 
 36 H        4.5230     3.4310    -0.4120 H     1 <1>   0.0800 
@<TRIPOS>BOND
  1   1   2  1   
  2   1   3  1   
  3   2   4  1   
  4   2  18  1   
  5   2  19  1   
  6   3   5  1   
  7   3  20  1   
  8   3  21  1   
  9   4   5  1   
 10   4   6  1   
 11   4  22  1   
 12   5   7  1   
 13   5  23  1   
 14   6   8  1   
 15   7   9  1   
 16   7  24  1   
 17   8  10  1   
 18   8  25  1   
 19   8  26  1   
 20   9  11  ar  
 21   9  12  ar  
 22  10  27  1   
 23  10  28  1   
 24  10  29  1   
 25  11  13  ar  
 26  12  14  ar  
 27  13  15  ar  
 28  13  16  1   
 29  14  15  ar  
 30  14  17  1   
 31  15  30  1   
 32  16  31  1   
 33  16  32  1   
 34  16  33  1   
 35  17  34  1   
 36  17  35  1   
 37  17  36  1   
@<TRIPOS>SUBSTRUCTURE
  1 ****   7 GROUP 4 **** **** 0

# MOE 2024.06 (io_trps.svl 2023.06)
