@<TRIPOS>MOLECULE
NONAME
45 48 1 0 0 
SMALL
USER_CHARGES


@<TRIPOS>ATOM
  1 N        1.1450     0.6770     1.5900 N.ar  1 <1>  -0.6200 
  2 C        0.4510     1.6310     2.1960 C.ar  1 <1>   0.7200 
  3 C        1.4830     0.9760     0.3610 C.ar  1 <1>   0.1660 
  4 N        0.0620     2.8020     1.7140 N.ar  1 <1>  -0.6200 
  5 N        0.0800     1.3750     3.4510 N.pl3 1 <1>  -0.9000 
  6 C        1.1580     2.1500    -0.2480 C.ar  1 <1>  -0.1430 
  7 C        2.2970     0.0790    -0.5390 C.3   1 <1>   0.1430 
  8 C        0.4260     3.0590     0.4770 C.ar  1 <1>   0.1600 
  9 C        1.6970     2.2160    -1.6550 C.3   1 <1>  -0.0170 
 10 C        3.5140    -0.4110     0.2620 C.3   1 <1>   0.3430 
 11 C        1.4480    -1.1180    -1.0150 C.3   1 <1>  -0.1600 
 12 C        2.6820     1.0300    -1.7060 C.3   1 <1>  -0.1600 
 13 N        4.3240    -1.4320    -0.4970 N.4   1 <1>  -0.9590 
 14 C        2.3040    -2.1990    -1.7000 C.3   1 <1>  -0.1600 
 15 C        3.4930    -2.6260    -0.8330 C.3   1 <1>   0.3430 
 16 C        5.5600    -1.8110     0.2460 C.3   1 <1>   0.4860 
 17 C        6.4580    -0.6010     0.3430 C.ar  1 <1>  -0.1430 
 18 C        7.2210    -0.1850    -0.7260 C.ar  1 <1>   0.1600 
 19 C        6.5410     0.1480     1.4970 C.ar  1 <1>   0.1600 
 20 N        7.9620     0.8920    -0.6750 N.ar  1 <1>  -0.6200 
 21 N        7.2750     1.2280     1.5720 N.ar  1 <1>  -0.6200 
 22 C        7.9360     1.5470     0.4730 C.ar  1 <1>   0.7200 
 23 N        8.6740     2.6540     0.5320 N.pl3 1 <1>  -0.9000 
 24 H       -0.6330     2.0020     3.8150 H     1 <1>   0.4000 
 25 H       -0.0170     0.3960     3.7010 H     1 <1>   0.4000 
 26 H        0.1390     4.0030     0.0450 H     1 <1>   0.1500 
 27 H        2.1910     3.1530    -1.8490 H     1 <1>   0.0800 
 28 H        0.8920     2.0780    -2.3570 H     1 <1>   0.0800 
 29 H        3.1600    -0.8430     1.1840 H     1 <1>   0.0800 
 30 H        4.1220     0.4430     0.5120 H     1 <1>   0.0800 
 31 H        0.6720    -0.7810    -1.6820 H     1 <1>   0.0800 
 32 H        0.9590    -1.5580    -0.1610 H     1 <1>   0.0800 
 33 H        2.6540     0.5500    -2.6680 H     1 <1>   0.0800 
 34 H        3.6730     1.4200    -1.5460 H     1 <1>   0.0800 
 35 H        4.6110    -0.9900    -1.3790 H     1 <1>   0.4500 
 36 H        2.6610    -1.8480    -2.6520 H     1 <1>   0.0800 
 37 H        1.6890    -3.0610    -1.8930 H     1 <1>   0.0800 
 38 H        3.1280    -3.0860     0.0720 H     1 <1>   0.0800 
 39 H        4.0830    -3.3530    -1.3690 H     1 <1>   0.0800 
 40 H        6.0790    -2.5990    -0.2750 H     1 <1>   0.0800 
 41 H        5.3070    -2.1660     1.2330 H     1 <1>   0.0800 
 42 H        7.2280    -0.7370    -1.6510 H     1 <1>   0.1500 
 43 H        5.9910    -0.1310     2.3810 H     1 <1>   0.1500 
 44 H        8.8950     2.9940     1.4650 H     1 <1>   0.4000 
 45 H        9.4020     2.7450    -0.1710 H     1 <1>   0.4000 
@<TRIPOS>BOND
  1   1   2  ar  
  2   1   3  ar  
  3   2   4  ar  
  4   2   5  1   
  5   3   6  ar  
  6   3   7  1   
  7   4   8  ar  
  8   5  24  1   
  9   5  25  1   
 10   6   8  ar  
 11   6   9  1   
 12   7  10  1   
 13   7  11  1   
 14   7  12  1   
 15   8  26  1   
 16   9  12  1   
 17   9  27  1   
 18   9  28  1   
 19  10  13  1   
 20  10  29  1   
 21  10  30  1   
 22  11  14  1   
 23  11  31  1   
 24  11  32  1   
 25  12  33  1   
 26  12  34  1   
 27  13  15  1   
 28  13  16  1   
 29  13  35  1   
 30  14  15  1   
 31  14  36  1   
 32  14  37  1   
 33  15  38  1   
 34  15  39  1   
 35  16  17  1   
 36  16  40  1   
 37  16  41  1   
 38  17  18  ar  
 39  17  19  ar  
 40  18  20  ar  
 41  18  42  1   
 42  19  21  ar  
 43  19  43  1   
 44  20  22  ar  
 45  21  22  ar  
 46  22  23  1   
 47  23  44  1   
 48  23  45  1   
@<TRIPOS>SUBSTRUCTURE
  1 ****  10 GROUP 4 **** **** 0

# MOE 2024.06 (io_trps.svl 2023.06)
