@<TRIPOS>MOLECULE
NONAME
47 48 1 0 0 
SMALL
USER_CHARGES


@<TRIPOS>ATOM
  1 S        0.9360    -0.0670    -0.7740 S.o2  1 <1>   1.0900 
  2 O        0.5410    -0.1540     0.6120 O.2   1 <1>  -0.6500 
  3 O        1.9550    -0.9450    -1.2940 O.2   1 <1>  -0.6500 
  4 C        1.4600     1.6160    -1.0880 C.3   1 <1>  -0.0550 
  5 C       -0.5220    -0.2700    -1.7810 C.3   1 <1>  -0.1350 
  6 C        0.5200     2.6740    -0.4900 C.3   1 <1>  -0.0990 
  7 C        1.0420     4.0590    -0.7850 C.2   1 <1>   0.5690 
  8 O        0.9530     4.4660    -1.9160 O.2   1 <1>  -0.5700 
  9 N        1.6030     4.7730     0.2320 N.am  1 <1>  -0.4940 
 10 C        1.9740     6.1320     0.2080 C.2   1 <1>  -0.0880 
 11 N        3.2090     6.6550    -0.0580 N.pl3 1 <1>   0.3140 
 12 C        1.1400     7.1720     0.4880 C.2   1 <1>  -0.0540 
 13 N        3.1760     8.0120     0.0710 N.2   1 <1>  -0.7070 
 14 C        4.4900     5.9210    -0.4200 C.3   1 <1>   0.2560 
 15 C       -0.2610     7.1430     0.8160 C.ar  1 <1>   0.0540 
 16 C        1.9540     8.2970     0.3840 C.2   1 <1>   0.1390 
 17 C        4.8480     4.8930     0.6690 C.3   1 <1>  -0.2400 
 18 C        4.3320     5.2100    -1.7740 C.3   1 <1>  -0.2400 
 19 C        5.6770     6.9010    -0.5420 C.3   1 <1>  -0.2400 
 20 C       -1.1940     6.6500    -0.0910 C.ar  1 <1>  -0.1500 
 21 C       -0.7210     7.5980     2.0480 C.ar  1 <1>  -0.1500 
 22 C       -2.5400     6.6030     0.2220 C.ar  1 <1>  -0.1500 
 23 C       -2.0660     7.5520     2.3680 C.ar  1 <1>  -0.1500 
 24 C       -2.9780     7.0530     1.4550 C.ar  1 <1>  -0.1500 
 25 H        1.5500     1.7770    -2.1460 H     1 <1>   0.0800 
 26 H        2.4360     1.7540    -0.6620 H     1 <1>   0.0800 
 27 H       -0.8940    -1.2720    -1.6830 H     1 <1>   0.0800 
 28 H       -0.2940    -0.0950    -2.8150 H     1 <1>   0.0800 
 29 H       -1.2960     0.4060    -1.4740 H     1 <1>   0.0800 
 30 H        0.4320     2.5320     0.5730 H     1 <1>   0.0800 
 31 H       -0.4610     2.5880    -0.9200 H     1 <1>   0.0800 
 32 H        1.5160     4.3680     1.1650 H     1 <1>   0.3700 
 33 H        1.6030     9.3020     0.5460 H     1 <1>   0.1500 
 34 H        4.1140     4.1120     0.7260 H     1 <1>   0.0800 
 35 H        4.9210     5.3790     1.6260 H     1 <1>   0.0800 
 36 H        5.7950     4.4340     0.4510 H     1 <1>   0.0800 
 37 H        3.6080     4.4220    -1.7160 H     1 <1>   0.0800 
 38 H        5.2660     4.7750    -2.0830 H     1 <1>   0.0800 
 39 H        4.0200     5.9140    -2.5260 H     1 <1>   0.0800 
 40 H        5.8330     7.4190     0.3880 H     1 <1>   0.0800 
 41 H        5.4840     7.6270    -1.3120 H     1 <1>   0.0800 
 42 H        6.5820     6.3780    -0.7930 H     1 <1>   0.0800 
 43 H       -0.8520     6.3070    -1.0530 H     1 <1>   0.1500 
 44 H       -0.0140     7.9860     2.7600 H     1 <1>   0.1500 
 45 H       -3.2460     6.2190    -0.4940 H     1 <1>   0.1500 
 46 H       -2.4040     7.9060     3.3270 H     1 <1>   0.1500 
 47 H       -4.0250     7.0170     1.7020 H     1 <1>   0.1500 
@<TRIPOS>BOND
  1   1   2  2   
  2   1   3  2   
  3   1   4  1   
  4   1   5  1   
  5   4   6  1   
  6   4  25  1   
  7   4  26  1   
  8   5  27  1   
  9   5  28  1   
 10   5  29  1   
 11   6   7  1   
 12   6  30  1   
 13   6  31  1   
 14   7   8  2   
 15   7   9  am  
 16   9  10  1   
 17   9  32  1   
 18  10  11  1   
 19  10  12  2   
 20  11  13  1   
 21  11  14  1   
 22  12  15  1   
 23  12  16  1   
 24  13  16  2   
 25  14  17  1   
 26  14  18  1   
 27  14  19  1   
 28  15  20  ar  
 29  15  21  ar  
 30  16  33  1   
 31  17  34  1   
 32  17  35  1   
 33  17  36  1   
 34  18  37  1   
 35  18  38  1   
 36  18  39  1   
 37  19  40  1   
 38  19  41  1   
 39  19  42  1   
 40  20  22  ar  
 41  20  43  1   
 42  21  23  ar  
 43  21  44  1   
 44  22  24  ar  
 45  22  45  1   
 46  23  24  ar  
 47  23  46  1   
 48  24  47  1   
@<TRIPOS>SUBSTRUCTURE
  1 ****   9 GROUP 4 **** **** 0

# MOE 2024.06 (io_trps.svl 2023.06)
