@<TRIPOS>MOLECULE
NONAME
54 56 1 0 0 
SMALL
USER_CHARGES


@<TRIPOS>ATOM
  1 F       -0.7830    -0.8840    -1.6510 F     1 <1>  -0.1900 
  2 C       -1.5670    -1.3130    -0.6930 C.ar  1 <1>   0.1900 
  3 C       -1.7560    -2.6800    -0.5050 C.ar  1 <1>   0.0830 
  4 C       -2.1850    -0.3690     0.1020 C.ar  1 <1>  -0.1500 
  5 O       -1.1390    -3.5960    -1.2920 O.3   1 <1>  -0.3630 
  6 C       -2.6130    -3.1030     0.5090 C.ar  1 <1>  -0.1440 
  7 C       -3.0240    -0.7990     1.1170 C.ar  1 <1>  -0.1500 
  8 C        0.2470    -3.7700    -1.1070 C.3   1 <1>   0.0400 
  9 C       -3.2330    -2.1550     1.3150 C.ar  1 <1>  -0.1500 
 10 C       -2.8610    -4.5870     0.7510 C.3   1 <1>   0.2540 
 11 N       -3.8400    -5.1340    -0.2100 N.3   1 <1>  -0.8100 
 12 C       -3.9190    -6.6150    -0.1550 C.3   1 <1>   0.3330 
 13 C       -5.1770    -4.5310    -0.0420 C.3   1 <1>   0.1100 
 14 C       -2.5550    -7.2340    -0.4680 C.ar  1 <1>  -0.1430 
 15 C       -5.0040    -7.1520    -1.1310 C.3   1 <1>   0.2000 
 16 C       -6.1970    -5.1460    -1.0140 C.3   1 <1>   0.1200 
 17 C       -2.0230    -8.2070     0.3670 C.ar  1 <1>  -0.1500 
 18 C       -1.8390    -6.8430    -1.5910 C.ar  1 <1>  -0.1500 
 19 O       -6.2360    -6.5350    -0.8610 O.3   1 <1>  -0.5600 
 20 C       -5.2250    -8.6710    -1.0310 C.3   1 <1>   0.1200 
 21 C       -0.8010    -8.7910     0.0820 C.ar  1 <1>   0.0830 
 22 C       -0.6090    -7.4090    -1.8750 C.ar  1 <1>  -0.1500 
 23 O       -4.1850    -9.3760    -1.6330 O.3   1 <1>  -0.6800 
 24 O       -0.3720    -9.7700     0.9140 O.3   1 <1>  -0.3630 
 25 C       -0.0730    -8.3710    -1.0370 C.ar  1 <1>   0.0830 
 26 C       -0.3230   -11.0700     0.3650 C.3   1 <1>   0.0400 
 27 O        1.1520    -8.8610    -1.3510 O.3   1 <1>  -0.3630 
 28 C        2.1870    -8.6150    -0.4240 C.3   1 <1>   0.0400 
 29 H       -2.0130     0.6780    -0.0720 H     1 <1>   0.1500 
 30 H       -3.5150    -0.0790     1.7500 H     1 <1>   0.1500 
 31 H        0.5650    -4.5930    -1.7200 H     1 <1>   0.0800 
 32 H        0.4330    -3.9910    -0.0710 H     1 <1>   0.0800 
 33 H        0.7590    -2.8730    -1.4010 H     1 <1>   0.0800 
 34 H       -3.8900    -2.4730     2.1060 H     1 <1>   0.1500 
 35 H       -3.2110    -4.7460     1.7560 H     1 <1>   0.0800 
 36 H       -1.9190    -5.0960     0.6530 H     1 <1>   0.0800 
 37 H       -4.2080    -6.9040     0.8410 H     1 <1>   0.0800 
 38 H       -5.5240    -4.6730     0.9670 H     1 <1>   0.0800 
 39 H       -5.1210    -3.4740    -0.2360 H     1 <1>   0.0800 
 40 H       -4.7360    -6.9110    -2.1450 H     1 <1>   0.0800 
 41 H       -5.9360    -4.9140    -2.0320 H     1 <1>   0.0800 
 42 H       -7.1820    -4.7640    -0.8120 H     1 <1>   0.0800 
 43 H       -2.5540    -8.5330     1.2440 H     1 <1>   0.1500 
 44 H       -2.2390    -6.0800    -2.2400 H     1 <1>   0.1500 
 45 H       -6.1310    -8.9440    -1.5430 H     1 <1>   0.0800 
 46 H       -5.2890    -8.9780    -0.0020 H     1 <1>   0.0800 
 47 H       -0.0580    -7.0990    -2.7440 H     1 <1>   0.1500 
 48 H       -3.3130    -9.0230    -1.3480 H     1 <1>   0.4000 
 49 H       -0.0510   -11.7550     1.1470 H     1 <1>   0.0800 
 50 H        0.4110   -11.0980    -0.4200 H     1 <1>   0.0800 
 51 H       -1.2950   -11.3200    -0.0240 H     1 <1>   0.0800 
 52 H        3.1160    -8.9240    -0.8690 H     1 <1>   0.0800 
 53 H        2.0070    -9.1800     0.4720 H     1 <1>   0.0800 
 54 H        2.2150    -7.5630    -0.2050 H     1 <1>   0.0800 
@<TRIPOS>BOND
  1   1   2  1   
  2   2   3  ar  
  3   2   4  ar  
  4   3   5  1   
  5   3   6  ar  
  6   4   7  ar  
  7   4  29  1   
  8   5   8  1   
  9   6   9  ar  
 10   6  10  1   
 11   7   9  ar  
 12   7  30  1   
 13   8  31  1   
 14   8  32  1   
 15   8  33  1   
 16   9  34  1   
 17  10  11  1   
 18  10  35  1   
 19  10  36  1   
 20  11  12  1   
 21  11  13  1   
 22  12  14  1   
 23  12  15  1   
 24  12  37  1   
 25  13  16  1   
 26  13  38  1   
 27  13  39  1   
 28  14  17  ar  
 29  14  18  ar  
 30  15  19  1   
 31  15  20  1   
 32  15  40  1   
 33  16  19  1   
 34  16  41  1   
 35  16  42  1   
 36  17  21  ar  
 37  17  43  1   
 38  18  22  ar  
 39  18  44  1   
 40  20  23  1   
 41  20  45  1   
 42  20  46  1   
 43  21  24  1   
 44  21  25  ar  
 45  22  25  ar  
 46  22  47  1   
 47  23  48  1   
 48  24  26  1   
 49  25  27  1   
 50  26  49  1   
 51  26  50  1   
 52  26  51  1   
 53  27  28  1   
 54  28  52  1   
 55  28  53  1   
 56  28  54  1   
@<TRIPOS>SUBSTRUCTURE
  1 ****  14 GROUP 4 **** **** 0

# MOE 2024.06 (io_trps.svl 2023.06)
