@<TRIPOS>MOLECULE
NONAME
45 46 1 0 0 
SMALL
USER_CHARGES


@<TRIPOS>ATOM
  1 S        0.3700     1.0100    -0.5780 S.3   1 <1>  -0.0800 
  2 C       -1.1640     1.5070     0.1350 C.2   1 <1>  -0.1400 
  3 C       -0.0910    -0.6800    -0.5100 C.2   1 <1>  -0.1100 
  4 C       -1.9290     0.4270     0.3880 C.2   1 <1>  -0.1500 
  5 C       -1.4200     2.9930     0.3670 C.3   1 <1>   0.6030 
  6 C       -1.3190    -0.8150     0.0210 C.2   1 <1>  -0.1500 
  7 N       -1.5850     3.7490    -0.9250 N.4   1 <1>  -0.9590 
  8 C       -0.3080     3.6000     1.2740 C.3   1 <1>   0.2090 
  9 C       -2.5430     4.8830    -0.7760 C.3   1 <1>   0.2630 
 10 C       -1.9100     2.9320    -2.1350 C.3   1 <1>   0.2630 
 11 N       -0.2150     5.1020     1.2350 N.pl3 1 <1>  -0.8690 
 12 C        0.7150     5.7100     0.4220 C.ar  1 <1>   0.4100 
 13 N        0.9380     5.1450    -0.7560 N.ar  1 <1>  -0.6200 
 14 C        1.3560     6.8600     0.8570 C.ar  1 <1>  -0.1500 
 15 C        1.8590     5.7340    -1.5020 C.ar  1 <1>   0.1600 
 16 C        2.3070     7.4900     0.0760 C.ar  1 <1>   0.0860 
 17 C        2.5540     6.8720    -1.1450 C.ar  1 <1>  -0.1500 
 18 C        2.9870     8.6930     0.5240 C.2   1 <1>   0.5440 
 19 O        2.9990     8.9810     1.7030 O.2   1 <1>  -0.5700 
 20 N        3.6090     9.5280    -0.3630 N.am  1 <1>  -0.7300 
 21 C        4.3520    10.7490     0.0060 C.3   1 <1>   0.1400 
 22 C        5.5580    10.8810    -0.9160 C.3   1 <1>  -0.2400 
 23 H        0.6170    -1.4040    -0.8770 H     1 <1>   0.1500 
 24 H       -2.9140     0.4310     0.8250 H     1 <1>   0.1500 
 25 H       -2.3480     3.0640     0.9090 H     1 <1>   0.0800 
 26 H       -1.8310    -1.7510     0.1740 H     1 <1>   0.1500 
 27 H       -0.6450     4.1890    -1.0480 H     1 <1>   0.4500 
 28 H        0.6470     3.1940     0.9890 H     1 <1>   0.0800 
 29 H       -0.4840     3.2810     2.2860 H     1 <1>   0.0800 
 30 H       -3.5400     4.5130    -0.6000 H     1 <1>   0.0800 
 31 H       -2.5480     5.4830    -1.6720 H     1 <1>   0.0800 
 32 H       -2.2540     5.5130     0.0490 H     1 <1>   0.0800 
 33 H       -2.8360     2.4000    -1.9900 H     1 <1>   0.0800 
 34 H       -1.1280     2.2170    -2.3290 H     1 <1>   0.0800 
 35 H       -2.0050     3.5690    -2.9990 H     1 <1>   0.0800 
 36 H       -0.2340     5.5140     2.1760 H     1 <1>   0.4000 
 37 H        1.1150     7.2690     1.8200 H     1 <1>   0.1500 
 38 H        2.0780     5.2820    -2.4560 H     1 <1>   0.1500 
 39 H        3.2930     7.2720    -1.8140 H     1 <1>   0.1500 
 40 H        3.5000     9.3800    -1.3650 H     1 <1>   0.3700 
 41 H        4.6770    10.6880     1.0320 H     1 <1>   0.0800 
 42 H        3.7060    11.6050    -0.0970 H     1 <1>   0.0800 
 43 H        6.2020    10.0260    -0.8090 H     1 <1>   0.0800 
 44 H        6.1170    11.7600    -0.6510 H     1 <1>   0.0800 
 45 H        5.2440    10.9740    -1.9400 H     1 <1>   0.0800 
@<TRIPOS>BOND
  1   1   2  1   
  2   1   3  1   
  3   2   4  2   
  4   2   5  1   
  5   3   6  2   
  6   3  23  1   
  7   4   6  1   
  8   4  24  1   
  9   5   7  1   
 10   5   8  1   
 11   5  25  1   
 12   6  26  1   
 13   7   9  1   
 14   7  10  1   
 15   7  27  1   
 16   8  11  1   
 17   8  28  1   
 18   8  29  1   
 19   9  30  1   
 20   9  31  1   
 21   9  32  1   
 22  10  33  1   
 23  10  34  1   
 24  10  35  1   
 25  11  12  1   
 26  11  36  1   
 27  12  13  ar  
 28  12  14  ar  
 29  13  15  ar  
 30  14  16  ar  
 31  14  37  1   
 32  15  17  ar  
 33  15  38  1   
 34  16  17  ar  
 35  16  18  1   
 36  17  39  1   
 37  18  19  2   
 38  18  20  am  
 39  20  21  1   
 40  20  40  1   
 41  21  22  1   
 42  21  41  1   
 43  21  42  1   
 44  22  43  1   
 45  22  44  1   
 46  22  45  1   
@<TRIPOS>SUBSTRUCTURE
  1 ****  13 GROUP 4 **** **** 0

# MOE 2024.06 (io_trps.svl 2023.06)
