@<TRIPOS>MOLECULE
NONAME
65 67 1 0 0 
SMALL
USER_CHARGES


@<TRIPOS>ATOM
  1 O       -0.9150     0.5210    -0.5110 O.2   1 <1>  -0.5700 
  2 C       -1.8860     1.1830    -0.2310 C.2   1 <1>   0.5690 
  3 N       -3.1450     0.6900    -0.4610 N.am  1 <1>  -0.6600 
  4 C       -1.6930     2.5500     0.4160 C.3   1 <1>  -0.0990 
  5 C       -3.3200    -0.5660    -1.2390 C.3   1 <1>   0.1400 
  6 C       -4.3630     1.1050     0.2870 C.3   1 <1>   0.1400 
  7 C       -0.3130     3.1820     0.1510 C.3   1 <1>  -0.1600 
  8 C       -3.6550    -1.7160    -0.2660 C.3   1 <1>   0.4230 
  9 C       -4.7180    -0.0190     1.2720 C.3   1 <1>  -0.1600 
 10 C       -0.1940     4.5700     0.7910 C.3   1 <1>  -0.0170 
 11 N       -3.6650    -3.0930    -0.9150 N.4   1 <1>  -0.9590 
 12 C       -4.9210    -1.4060     0.5910 C.3   1 <1>   0.0000 
 13 C        1.1660     5.1810     0.4970 C.ar  1 <1>  -0.1430 
 14 C       -4.3760    -4.1420    -0.1140 C.3   1 <1>   0.3430 
 15 C       -4.1300    -3.1340    -2.3400 C.3   1 <1>   0.2630 
 16 C       -5.0670    -2.4900     1.6990 C.3   1 <1>  -0.1600 
 17 C       -6.1880    -1.3820    -0.3130 C.3   1 <1>   0.1200 
 18 C        2.2310     4.9710     1.3580 C.ar  1 <1>  -0.1500 
 19 C        1.3550     5.9530    -0.6380 C.ar  1 <1>  -0.1500 
 20 C       -4.3410    -3.8110     1.3780 C.3   1 <1>  -0.1600 
 21 O       -7.2940    -0.9020     0.3670 O.3   1 <1>  -0.6800 
 22 C        3.4750     5.5250     1.1010 C.ar  1 <1>  -0.1430 
 23 C        2.5910     6.5120    -0.9060 C.ar  1 <1>  -0.1500 
 24 C        3.6600     6.3030    -0.0380 C.ar  1 <1>   0.0820 
 25 C        4.6270     5.2790     2.0640 C.3   1 <1>  -0.0970 
 26 O        4.8970     6.8280    -0.2490 O.3   1 <1>  -0.3630 
 27 C        5.1850     7.6130    -1.3810 C.3   1 <1>   0.1200 
 28 C        6.6520     8.0250    -1.3090 C.3   1 <1>  -0.2400 
 29 H       -2.4460     3.2150     0.0360 H     1 <1>   0.0800 
 30 H       -1.8340     2.4430     1.4750 H     1 <1>   0.0800 
 31 H       -4.1020    -0.4150    -1.9600 H     1 <1>   0.0800 
 32 H       -2.4150    -0.7960    -1.7740 H     1 <1>   0.0800 
 33 H       -4.1960     2.0170     0.8330 H     1 <1>   0.0800 
 34 H       -5.1740     1.2780    -0.4010 H     1 <1>   0.0800 
 35 H        0.4590     2.5440     0.5450 H     1 <1>   0.0800 
 36 H       -0.1560     3.2650    -0.9110 H     1 <1>   0.0800 
 37 H       -2.8370    -1.7230     0.4370 H     1 <1>   0.0800 
 38 H       -3.9170    -0.0780     1.9890 H     1 <1>   0.0800 
 39 H       -5.5980     0.2680     1.8210 H     1 <1>   0.0800 
 40 H       -0.3280     4.4940     1.8560 H     1 <1>   0.0800 
 41 H       -0.9640     5.2170     0.4100 H     1 <1>   0.0800 
 42 H       -2.6710    -3.3710    -0.9230 H     1 <1>   0.4500 
 43 H       -5.4060    -4.2030    -0.4250 H     1 <1>   0.0800 
 44 H       -3.9210    -5.1050    -0.2850 H     1 <1>   0.0800 
 45 H       -5.1540    -2.8080    -2.4140 H     1 <1>   0.0800 
 46 H       -4.0610    -4.1380    -2.7270 H     1 <1>   0.0800 
 47 H       -3.5180    -2.4950    -2.9570 H     1 <1>   0.0800 
 48 H       -4.6740    -2.1300     2.6360 H     1 <1>   0.0800 
 49 H       -6.1080    -2.6990     1.8770 H     1 <1>   0.0800 
 50 H       -6.4350    -2.3640    -0.6750 H     1 <1>   0.0800 
 51 H       -6.0540    -0.7330    -1.1600 H     1 <1>   0.0800 
 52 H        2.0880     4.3680     2.2370 H     1 <1>   0.1500 
 53 H        0.5390     6.1210    -1.3180 H     1 <1>   0.1500 
 54 H       -4.8060    -4.6110     1.9290 H     1 <1>   0.0800 
 55 H       -3.3160    -3.7610     1.7030 H     1 <1>   0.0800 
 56 H       -7.5500    -1.4790     1.1140 H     1 <1>   0.4000 
 57 H        2.6990     7.1030    -1.7940 H     1 <1>   0.1500 
 58 H        4.3240     4.6510     2.8820 H     1 <1>   0.0800 
 59 H        4.9760     6.2160     2.4590 H     1 <1>   0.0800 
 60 H        5.4370     4.8010     1.5440 H     1 <1>   0.0800 
 61 H        4.9980     7.0220    -2.2620 H     1 <1>   0.0800 
 62 H        4.5450     8.4780    -1.3660 H     1 <1>   0.0800 
 63 H        7.2800     7.1520    -1.3060 H     1 <1>   0.0800 
 64 H        6.8290     8.5990    -0.4170 H     1 <1>   0.0800 
 65 H        6.9030     8.6280    -2.1620 H     1 <1>   0.0800 
@<TRIPOS>BOND
  1   1   2  2   
  2   2   3  am  
  3   2   4  1   
  4   3   5  1   
  5   3   6  1   
  6   4   7  1   
  7   4  29  1   
  8   4  30  1   
  9   5   8  1   
 10   5  31  1   
 11   5  32  1   
 12   6   9  1   
 13   6  33  1   
 14   6  34  1   
 15   7  10  1   
 16   7  35  1   
 17   7  36  1   
 18   8  11  1   
 19   8  12  1   
 20   8  37  1   
 21   9  12  1   
 22   9  38  1   
 23   9  39  1   
 24  10  13  1   
 25  10  40  1   
 26  10  41  1   
 27  11  14  1   
 28  11  15  1   
 29  11  42  1   
 30  12  16  1   
 31  12  17  1   
 32  13  18  ar  
 33  13  19  ar  
 34  14  20  1   
 35  14  43  1   
 36  14  44  1   
 37  15  45  1   
 38  15  46  1   
 39  15  47  1   
 40  16  20  1   
 41  16  48  1   
 42  16  49  1   
 43  17  21  1   
 44  17  50  1   
 45  17  51  1   
 46  18  22  ar  
 47  18  52  1   
 48  19  23  ar  
 49  19  53  1   
 50  20  54  1   
 51  20  55  1   
 52  21  56  1   
 53  22  24  ar  
 54  22  25  1   
 55  23  24  ar  
 56  23  57  1   
 57  24  26  1   
 58  25  58  1   
 59  25  59  1   
 60  25  60  1   
 61  26  27  1   
 62  27  28  1   
 63  27  61  1   
 64  27  62  1   
 65  28  63  1   
 66  28  64  1   
 67  28  65  1   
@<TRIPOS>SUBSTRUCTURE
  1 ****   4 GROUP 4 **** **** 0

# MOE 2024.06 (io_trps.svl 2023.06)
