@<TRIPOS>MOLECULE
NONAME
42 44 1 0 0 
SMALL
USER_CHARGES


@<TRIPOS>ATOM
  1 S       -0.7160    -0.0110     0.0500 S.3   1 <1>  -0.0800 
  2 C       -1.3860    -0.4010     1.6330 C.2   1 <1>  -0.0450 
  3 C       -0.0830     1.5490     0.5780 C.2   1 <1>  -0.0450 
  4 C       -2.0520    -1.6600     1.8640 C.2   1 <1>   0.7150 
  5 C       -1.1070     0.6280     2.4740 C.2   1 <1>  -0.1500 
  6 C        0.6230     2.4010    -0.3350 C.2   1 <1>   0.5940 
  7 C       -0.3940     1.7050     1.8910 C.2   1 <1>  -0.1500 
  8 O       -2.0290    -2.1390     2.9840 O.2   1 <1>  -0.5700 
  9 N       -2.7100    -2.3670     0.8770 N.am  1 <1>  -0.6600 
 10 O        1.0580     3.4780    -0.0140 O.2   1 <1>  -0.5700 
 11 C        0.8470     1.9660    -1.7690 C.3   1 <1>  -0.1790 
 12 C       -3.5640    -1.7210    -0.1690 C.3   1 <1>   0.2200 
 13 C       -2.5730    -3.8540     0.8530 C.3   1 <1>   0.0600 
 14 C       -4.6970    -2.6210    -0.6670 C.3   1 <1>  -0.1600 
 15 C       -4.3190    -0.4960     0.3530 C.3   1 <1>  -0.1600 
 16 C       -5.7140    -1.6690    -1.3060 C.3   1 <1>  -0.0800 
 17 C       -5.5020    -0.3070    -0.6060 C.3   1 <1>  -0.0800 
 18 C       -7.1530    -2.2240    -1.2760 C.3   1 <1>   0.1400 
 19 C       -6.7610     0.2540     0.0880 C.3   1 <1>  -0.0990 
 20 N       -8.1190    -1.1160    -1.4200 N.am  1 <1>  -0.7300 
 21 C       -7.9810     0.0690    -0.7890 C.2   1 <1>   0.5690 
 22 O       -8.7960     0.9460    -0.9090 O.2   1 <1>  -0.5700 
 23 H       -1.3910     0.6420     3.5130 H     1 <1>   0.1500 
 24 H       -0.1240     2.5740     2.4690 H     1 <1>   0.1500 
 25 H        1.4100     1.0520    -1.7890 H     1 <1>   0.0800 
 26 H        1.3970     2.7220    -2.2980 H     1 <1>   0.0800 
 27 H       -0.0980     1.8200    -2.2580 H     1 <1>   0.0800 
 28 H       -2.9520    -1.4380    -1.0100 H     1 <1>   0.0800 
 29 H       -2.3860    -4.1940    -0.1510 H     1 <1>   0.0800 
 30 H       -3.4700    -4.3120     1.2310 H     1 <1>   0.0800 
 31 H       -1.7490    -4.1620     1.4740 H     1 <1>   0.0800 
 32 H       -4.3490    -3.3520    -1.3750 H     1 <1>   0.0800 
 33 H       -5.1540    -3.1110     0.1750 H     1 <1>   0.0800 
 34 H       -4.6810    -0.7030     1.3450 H     1 <1>   0.0800 
 35 H       -3.7040     0.3860     0.3720 H     1 <1>   0.0800 
 36 H       -5.4410    -1.5420    -2.3410 H     1 <1>   0.0800 
 37 H       -5.2130     0.3990    -1.3670 H     1 <1>   0.0800 
 38 H       -7.3440    -2.7160    -0.3370 H     1 <1>   0.0800 
 39 H       -7.2910    -2.9370    -2.0700 H     1 <1>   0.0800 
 40 H       -6.6300     1.2970     0.3080 H     1 <1>   0.0800 
 41 H       -6.9450    -0.2650     1.0110 H     1 <1>   0.0800 
 42 H       -8.9610    -1.2580    -1.9820 H     1 <1>   0.3700 
@<TRIPOS>BOND
  1   1   2  1   
  2   1   3  1   
  3   2   4  1   
  4   2   5  2   
  5   3   6  1   
  6   3   7  2   
  7   4   8  2   
  8   4   9  am  
  9   5   7  1   
 10   5  23  1   
 11   6  10  2   
 12   6  11  1   
 13   7  24  1   
 14   9  12  1   
 15   9  13  1   
 16  11  25  1   
 17  11  26  1   
 18  11  27  1   
 19  12  14  1   
 20  12  15  1   
 21  12  28  1   
 22  13  29  1   
 23  13  30  1   
 24  13  31  1   
 25  14  16  1   
 26  14  32  1   
 27  14  33  1   
 28  15  17  1   
 29  15  34  1   
 30  15  35  1   
 31  16  17  1   
 32  16  18  1   
 33  16  36  1   
 34  17  19  1   
 35  17  37  1   
 36  18  20  1   
 37  18  38  1   
 38  18  39  1   
 39  19  21  1   
 40  19  40  1   
 41  19  41  1   
 42  20  21  am  
 43  20  42  1   
 44  21  22  2   
@<TRIPOS>SUBSTRUCTURE
  1 ****  15 GROUP 4 **** **** 0

# MOE 2024.06 (io_trps.svl 2023.06)
