@<TRIPOS>MOLECULE
NONAME
47 49 1 0 0 
SMALL
USER_CHARGES


@<TRIPOS>ATOM
  1 CL      -1.0180     0.2800    -1.4340 Cl    1 <1>  -0.1230 
  2 C       -1.0500     1.7150    -0.4240 C.2   1 <1>   0.1230 
  3 C       -2.1360     2.1350     0.3260 C.2   1 <1>   0.1080 
  4 C       -0.0660     2.6110    -0.2180 C.2   1 <1>  -0.3320 
  5 N       -1.8690     3.2380     0.9710 N.2   1 <1>  -0.7070 
  6 C       -3.4710     1.4090     0.3920 C.3   1 <1>   0.5240 
  7 N       -0.5830     3.5270     0.6350 N.pl3 1 <1>   0.3000 
  8 C        1.3470     2.6620    -0.7760 C.3   1 <1>  -0.0600 
  9 N       -4.5130     2.4010     0.7750 N.4   1 <1>  -0.9590 
 10 C       -5.6520     1.7870     1.5000 C.3   1 <1>   0.3430 
 11 C       -4.9390     3.2060    -0.4000 C.3   1 <1>   0.3430 
 12 C       -6.5790     2.8890     1.9950 C.3   1 <1>  -0.1600 
 13 C       -5.9490     4.2750     0.0150 C.3   1 <1>  -0.1600 
 14 C       -7.1410     3.7170     0.8320 C.3   1 <1>   0.2800 
 15 O       -7.7630     4.7990     1.4560 O.3   1 <1>  -0.5600 
 16 C       -8.2100     2.8820     0.0370 C.3   1 <1>   0.2000 
 17 C       -8.4220     5.7690     0.6860 C.3   1 <1>   0.1200 
 18 O       -7.6020     2.1670    -1.0080 O.3   1 <1>  -0.6800 
 19 C       -9.4330     3.7170    -0.4610 C.3   1 <1>   0.2800 
 20 C       -9.0780     5.2000    -0.5820 C.3   1 <1>  -0.1600 
 21 O      -10.4260     3.6050     0.4910 O.3   1 <1>  -0.6800 
 22 C      -10.0760     3.2030    -1.7570 C.3   1 <1>  -0.2400 
 23 H       -3.4000     0.6390     1.1410 H     1 <1>   0.0800 
 24 H       -3.7030     0.9550    -0.5570 H     1 <1>   0.0800 
 25 H       -0.0850     4.3500     1.0040 H     1 <1>   0.2700 
 26 H        1.5210     1.8250    -1.4290 H     1 <1>   0.0800 
 27 H        2.0670     2.6230     0.0230 H     1 <1>   0.0800 
 28 H        1.4970     3.5670    -1.3380 H     1 <1>   0.0800 
 29 H       -3.9940     3.0460     1.3990 H     1 <1>   0.4500 
 30 H       -6.1940     1.1260     0.8420 H     1 <1>   0.0800 
 31 H       -5.2920     1.2190     2.3420 H     1 <1>   0.0800 
 32 H       -4.0800     3.6840    -0.8440 H     1 <1>   0.0800 
 33 H       -5.3790     2.5600    -1.1420 H     1 <1>   0.0800 
 34 H       -6.0360     3.5260     2.6700 H     1 <1>   0.0800 
 35 H       -7.3890     2.4480     2.5490 H     1 <1>   0.0800 
 36 H       -6.2960     4.7550    -0.8780 H     1 <1>   0.0800 
 37 H       -5.4310     5.0120     0.6030 H     1 <1>   0.0800 
 38 H       -8.6080     2.1280     0.6940 H     1 <1>   0.0800 
 39 H       -9.1760     6.1990     1.3230 H     1 <1>   0.0800 
 40 H       -7.7140     6.5410     0.4360 H     1 <1>   0.0800 
 41 H       -8.2970     1.6970    -1.5150 H     1 <1>   0.4000 
 42 H       -8.4010     5.3280    -1.4060 H     1 <1>   0.0800 
 43 H       -9.9510     5.7800    -0.8220 H     1 <1>   0.0800 
 44 H      -11.1900     4.1600     0.2470 H     1 <1>   0.4000 
 45 H       -9.3870     3.2880    -2.5790 H     1 <1>   0.0800 
 46 H      -10.9480     3.7830    -2.0030 H     1 <1>   0.0800 
 47 H      -10.3650     2.1720    -1.6530 H     1 <1>   0.0800 
@<TRIPOS>BOND
  1   1   2  1   
  2   2   3  1   
  3   2   4  2   
  4   3   5  2   
  5   3   6  1   
  6   4   7  1   
  7   4   8  1   
  8   5   7  1   
  9   6   9  1   
 10   6  23  1   
 11   6  24  1   
 12   7  25  1   
 13   8  26  1   
 14   8  27  1   
 15   8  28  1   
 16   9  10  1   
 17   9  11  1   
 18   9  29  1   
 19  10  12  1   
 20  10  30  1   
 21  10  31  1   
 22  11  13  1   
 23  11  32  1   
 24  11  33  1   
 25  12  14  1   
 26  12  34  1   
 27  12  35  1   
 28  13  14  1   
 29  13  36  1   
 30  13  37  1   
 31  14  15  1   
 32  14  16  1   
 33  15  17  1   
 34  16  18  1   
 35  16  19  1   
 36  16  38  1   
 37  17  20  1   
 38  17  39  1   
 39  17  40  1   
 40  18  41  1   
 41  19  20  1   
 42  19  21  1   
 43  19  22  1   
 44  20  42  1   
 45  20  43  1   
 46  21  44  1   
 47  22  45  1   
 48  22  46  1   
 49  22  47  1   
@<TRIPOS>SUBSTRUCTURE
  1 ****  11 GROUP 4 **** **** 0

# MOE 2024.06 (io_trps.svl 2023.06)
