@<TRIPOS>MOLECULE
NONAME
54 55 1 0 0 
SMALL
USER_CHARGES


@<TRIPOS>ATOM
  1 S        0.6670     0.0950    -0.4880 S.o2  1 <1>   1.3330 
  2 O        0.5390    -0.6560     0.7410 O.2   1 <1>  -0.6500 
  3 O       -0.2290    -0.1820    -1.5880 O.2   1 <1>  -0.6500 
  4 N        0.5110     1.7430    -0.1080 N.am  1 <1>  -0.8490 
  5 C        2.3600    -0.0610    -1.0560 C.3   1 <1>  -0.0550 
  6 C        0.4650     2.6100    -1.2910 C.3   1 <1>   0.1160 
  7 C       -0.6570     1.9930     0.7390 C.3   1 <1>   0.1160 
  8 C        3.4040     0.3860    -0.0180 C.3   1 <1>  -0.0800 
  9 C        4.7850     0.5730    -0.6370 C.3   1 <1>   0.2200 
 10 C        3.6370    -0.6180     1.1100 C.3   1 <1>   0.1200 
 11 N        5.1270     2.0100    -0.6210 N.am  1 <1>  -0.7300 
 12 C        5.7080    -0.2470     0.2650 C.3   1 <1>   0.1200 
 13 O        4.9860    -0.4980     1.4270 O.3   1 <1>  -0.5600 
 14 C        4.6380     2.9350    -1.4930 C.2   1 <1>   0.5690 
 15 O        3.9670     2.5870    -2.4420 O.2   1 <1>  -0.5700 
 16 C        4.9050     4.4450    -1.2460 C.3   1 <1>   0.3410 
 17 O        5.6890     4.5660    -0.0520 O.3   1 <1>  -0.3630 
 18 C        5.6910     5.0460    -2.4240 C.3   1 <1>  -0.2400 
 19 C        3.5680     5.1870    -1.0590 C.3   1 <1>  -0.2400 
 20 C        5.9910     5.7680     0.4900 C.ar  1 <1>   0.0820 
 21 C        7.1330     6.4470     0.0930 C.ar  1 <1>  -0.1500 
 22 C        5.1820     6.2970     1.4830 C.ar  1 <1>  -0.1500 
 23 C        7.4420     7.6700     0.6630 C.ar  1 <1>  -0.1500 
 24 C        5.4950     7.5200     2.0510 C.ar  1 <1>  -0.1500 
 25 C        6.6230     8.2140     1.6400 C.ar  1 <1>  -0.1440 
 26 C        6.9640     9.5550     2.2650 C.3   1 <1>  -0.0970 
 27 H        2.5480    -1.0780    -1.3390 H     1 <1>   0.0800 
 28 H        2.4740     0.5390    -1.9370 H     1 <1>   0.0800 
 29 H        0.4140     3.6420    -0.9900 H     1 <1>   0.0800 
 30 H       -0.3960     2.3790    -1.8970 H     1 <1>   0.0800 
 31 H        1.3520     2.4800    -1.8870 H     1 <1>   0.0800 
 32 H       -0.7190     3.0380     0.9900 H     1 <1>   0.0800 
 33 H       -0.5750     1.4310     1.6540 H     1 <1>   0.0800 
 34 H       -1.5590     1.6950     0.2300 H     1 <1>   0.0800 
 35 H        3.0820     1.3080     0.4350 H     1 <1>   0.0800 
 36 H        4.8370     0.2050    -1.6480 H     1 <1>   0.0800 
 37 H        3.4590    -1.6310     0.7910 H     1 <1>   0.0800 
 38 H        3.0460    -0.4010     1.9830 H     1 <1>   0.0800 
 39 H        5.5950     2.3550     0.2240 H     1 <1>   0.3700 
 40 H        6.6180     0.2690     0.5140 H     1 <1>   0.0800 
 41 H        5.9340    -1.1960    -0.1890 H     1 <1>   0.0800 
 42 H        5.1530     4.8800    -3.3400 H     1 <1>   0.0800 
 43 H        6.6510     4.5700    -2.5080 H     1 <1>   0.0800 
 44 H        5.8180     6.1060    -2.3040 H     1 <1>   0.0800 
 45 H        2.9530     5.0500    -1.9300 H     1 <1>   0.0800 
 46 H        3.7250     6.2430    -0.9300 H     1 <1>   0.0800 
 47 H        3.0420     4.7900    -0.2100 H     1 <1>   0.0800 
 48 H        7.7750     6.0200    -0.6530 H     1 <1>   0.1500 
 49 H        4.3150     5.7530     1.8100 H     1 <1>   0.1500 
 50 H        8.3260     8.1950     0.3460 H     1 <1>   0.1500 
 51 H        4.8590     7.9260     2.8180 H     1 <1>   0.1500 
 52 H        7.4850    10.1770     1.5590 H     1 <1>   0.0800 
 53 H        7.5910     9.4060     3.1260 H     1 <1>   0.0800 
 54 H        6.0690    10.0670     2.5710 H     1 <1>   0.0800 
@<TRIPOS>BOND
  1   1   2  2   
  2   1   3  2   
  3   1   4  am  
  4   1   5  1   
  5   4   6  1   
  6   4   7  1   
  7   5   8  1   
  8   5  27  1   
  9   5  28  1   
 10   6  29  1   
 11   6  30  1   
 12   6  31  1   
 13   7  32  1   
 14   7  33  1   
 15   7  34  1   
 16   8   9  1   
 17   8  10  1   
 18   8  35  1   
 19   9  11  1   
 20   9  12  1   
 21   9  36  1   
 22  10  13  1   
 23  10  37  1   
 24  10  38  1   
 25  11  14  am  
 26  11  39  1   
 27  12  13  1   
 28  12  40  1   
 29  12  41  1   
 30  14  15  2   
 31  14  16  1   
 32  16  17  1   
 33  16  18  1   
 34  16  19  1   
 35  17  20  1   
 36  18  42  1   
 37  18  43  1   
 38  18  44  1   
 39  19  45  1   
 40  19  46  1   
 41  19  47  1   
 42  20  21  ar  
 43  20  22  ar  
 44  21  23  ar  
 45  21  48  1   
 46  22  24  ar  
 47  22  49  1   
 48  23  25  ar  
 49  23  50  1   
 50  24  25  ar  
 51  24  51  1   
 52  25  26  1   
 53  26  52  1   
 54  26  53  1   
 55  26  54  1   
@<TRIPOS>SUBSTRUCTURE
  1 ****  14 GROUP 4 **** **** 0

# MOE 2024.06 (io_trps.svl 2023.06)
