@<TRIPOS>MOLECULE
NONAME
40 42 1 0 0 
SMALL
USER_CHARGES


@<TRIPOS>ATOM
  1 O        1.0270    -0.3160    -1.8490 O.2   1 <1>  -0.5700 
  2 C        1.6780    -0.8600    -0.9710 C.2   1 <1>   0.5440 
  3 N        2.4920    -0.0710    -0.1880 N.am  1 <1>  -0.6600 
  4 C        1.5340    -2.3010    -0.7470 C.ar  1 <1>   0.3960 
  5 C        2.6370     1.3960    -0.4000 C.3   1 <1>   0.3580 
  6 C        3.5670    -0.6000     0.6980 C.3   1 <1>   0.2780 
  7 N        2.5950    -3.0880    -0.8990 N.ar  1 <1>  -0.6200 
  8 C        0.3060    -2.8430    -0.3740 C.ar  1 <1>  -0.1440 
  9 C        3.9120     1.6960     0.3490 C.2   1 <1>  -0.2880 
 10 C        1.4340     2.1370     0.2020 C.3   1 <1>  -0.1600 
 11 C        4.4090     0.6210     0.9490 C.2   1 <1>  -0.2880 
 12 C        2.3980    -4.3640    -0.6810 C.ar  1 <1>   0.7200 
 13 C        0.2390    -4.2100    -0.1920 C.ar  1 <1>   0.1660 
 14 C       -0.9280    -1.9540    -0.1880 C.3   1 <1>  -0.0170 
 15 C        1.5090     3.6610     0.0260 C.3   1 <1>  -0.2400 
 16 N        1.2870    -4.9800    -0.3430 N.ar  1 <1>  -0.6200 
 17 N        3.4620    -5.1500    -0.8430 N.pl3 1 <1>  -0.9000 
 18 C       -1.0470    -4.9180     0.2120 C.3   1 <1>  -0.0170 
 19 C       -2.0570    -2.6470     0.5830 C.3   1 <1>  -0.1600 
 20 C       -2.2990    -4.0510     0.0280 C.3   1 <1>  -0.1600 
 21 H        2.7430     1.6090    -1.4510 H     1 <1>   0.0800 
 22 H        4.1440    -1.3560     0.1950 H     1 <1>   0.0800 
 23 H        3.1500    -0.9850     1.6120 H     1 <1>   0.0800 
 24 H        4.2920     2.7010     0.3370 H     1 <1>   0.1500 
 25 H        1.3650     1.9040     1.2500 H     1 <1>   0.0800 
 26 H        0.5390     1.7850    -0.2800 H     1 <1>   0.0800 
 27 H        5.2940     0.5240     1.5540 H     1 <1>   0.1500 
 28 H       -1.2910    -1.6710    -1.1620 H     1 <1>   0.0800 
 29 H       -0.6630    -1.0510     0.3350 H     1 <1>   0.0800 
 30 H        2.3500     4.0680     0.5590 H     1 <1>   0.0800 
 31 H        0.6140     4.1180     0.4100 H     1 <1>   0.0800 
 32 H        1.6000     3.9140    -1.0160 H     1 <1>   0.0800 
 33 H        3.2470    -6.1360    -0.9600 H     1 <1>   0.4000 
 34 H        4.1940    -4.7730    -1.4380 H     1 <1>   0.4000 
 35 H       -0.9580    -5.2010     1.2460 H     1 <1>   0.0800 
 36 H       -1.1530    -5.8190    -0.3650 H     1 <1>   0.0800 
 37 H       -2.9570    -2.0610     0.5050 H     1 <1>   0.0800 
 38 H       -1.7930    -2.7130     1.6250 H     1 <1>   0.0800 
 39 H       -3.1330    -4.5110     0.5300 H     1 <1>   0.0800 
 40 H       -2.5360    -3.9860    -1.0210 H     1 <1>   0.0800 
@<TRIPOS>BOND
  1   1   2  2   
  2   2   3  am  
  3   2   4  1   
  4   3   5  1   
  5   3   6  1   
  6   4   7  ar  
  7   4   8  ar  
  8   5   9  1   
  9   5  10  1   
 10   5  21  1   
 11   6  11  1   
 12   6  22  1   
 13   6  23  1   
 14   7  12  ar  
 15   8  13  ar  
 16   8  14  1   
 17   9  11  2   
 18   9  24  1   
 19  10  15  1   
 20  10  25  1   
 21  10  26  1   
 22  11  27  1   
 23  12  16  ar  
 24  12  17  1   
 25  13  16  ar  
 26  13  18  1   
 27  14  19  1   
 28  14  28  1   
 29  14  29  1   
 30  15  30  1   
 31  15  31  1   
 32  15  32  1   
 33  17  33  1   
 34  17  34  1   
 35  18  20  1   
 36  18  35  1   
 37  18  36  1   
 38  19  20  1   
 39  19  37  1   
 40  19  38  1   
 41  20  39  1   
 42  20  40  1   
@<TRIPOS>SUBSTRUCTURE
  1 ****   4 GROUP 4 **** **** 0

# MOE 2024.06 (io_trps.svl 2023.06)
