@<TRIPOS>MOLECULE
NONAME
50 53 1 0 0 
SMALL
USER_CHARGES


@<TRIPOS>ATOM
  1 N        0.2140     0.3210     0.5710 N.ar  1 <1>  -0.6200 
  2 C       -1.0150     0.7850     0.8230 C.ar  1 <1>   0.7200 
  3 C        0.8710     0.9820    -0.3470 C.ar  1 <1>   0.1660 
  4 N       -1.5960     1.8360     0.2370 N.ar  1 <1>  -0.6200 
  5 N       -1.7420     0.1200     1.7860 N.pl3 1 <1>  -0.8380 
  6 C        0.3710     2.0630    -1.0030 C.ar  1 <1>  -0.1440 
  7 C        2.2770     0.6560    -0.7850 C.3   1 <1>   0.1430 
  8 C       -0.8990     2.4680    -0.6770 C.ar  1 <1>   0.1600 
  9 C       -1.5500    -1.3280     2.0710 C.3   1 <1>   0.1290 
 10 C       -2.9480     0.7330     2.4100 C.3   1 <1>   0.1290 
 11 C        1.3630     2.6230    -1.9910 C.3   1 <1>  -0.0160 
 12 C        3.1330     0.4430     0.4760 C.3   1 <1>   0.3430 
 13 C        2.2850    -0.6150    -1.6600 C.3   1 <1>  -0.1600 
 14 C        2.6770     1.9220    -1.5920 C.3   1 <1>  -0.1600 
 15 N        4.5260    -0.0180     0.1460 N.4   1 <1>  -0.9590 
 16 C        3.7140    -1.1250    -1.9180 C.3   1 <1>  -0.1600 
 17 C        4.5070    -1.3020    -0.6200 C.3   1 <1>   0.3430 
 18 C        5.3580    -0.1200     1.3770 C.3   1 <1>   0.4860 
 19 C        6.8000    -0.3440     0.9750 C.ar  1 <1>  -0.1440 
 20 C        7.3800    -1.5930     1.1420 C.ar  1 <1>   0.1600 
 21 C        7.5600     0.6770     0.4340 C.ar  1 <1>  -0.1500 
 22 N        8.6160    -1.9010     0.7970 N.ar  1 <1>  -0.6200 
 23 C        8.8570     0.3700     0.0800 C.ar  1 <1>  -0.1500 
 24 C        9.3290    -0.9160     0.2770 C.ar  1 <1>   0.1600 
 25 H       -1.3470     3.3160    -1.1660 H     1 <1>   0.1500 
 26 H       -0.9430    -1.7920     1.3130 H     1 <1>   0.0800 
 27 H       -2.5030    -1.8270     2.0900 H     1 <1>   0.0800 
 28 H       -1.0710    -1.4460     3.0270 H     1 <1>   0.0800 
 29 H       -2.8360     1.8020     2.4740 H     1 <1>   0.0800 
 30 H       -3.0870     0.3470     3.4040 H     1 <1>   0.0800 
 31 H       -3.8160     0.5090     1.8150 H     1 <1>   0.0800 
 32 H        1.4410     3.6950    -1.9150 H     1 <1>   0.0800 
 33 H        1.0680     2.3500    -2.9900 H     1 <1>   0.0800 
 34 H        2.6450    -0.2970     1.0910 H     1 <1>   0.0800 
 35 H        3.1640     1.3640     1.0350 H     1 <1>   0.0800 
 36 H        1.7830    -0.4250    -2.5940 H     1 <1>   0.0800 
 37 H        1.7280    -1.3870    -1.1540 H     1 <1>   0.0800 
 38 H        3.2730     1.7010    -2.4600 H     1 <1>   0.0800 
 39 H        3.2300     2.5960    -0.9600 H     1 <1>   0.0800 
 40 H        4.9700     0.6840    -0.4580 H     1 <1>   0.4500 
 41 H        4.2430    -0.4540    -2.5710 H     1 <1>   0.0800 
 42 H        3.6600    -2.0760    -2.4220 H     1 <1>   0.0800 
 43 H        4.0490    -2.0760    -0.0250 H     1 <1>   0.0800 
 44 H        5.5140    -1.6090    -0.8590 H     1 <1>   0.0800 
 45 H        5.0130    -0.9340     1.9950 H     1 <1>   0.0800 
 46 H        5.2900     0.7920     1.9480 H     1 <1>   0.0800 
 47 H        6.8060    -2.3930     1.5800 H     1 <1>   0.1500 
 48 H        7.1810     1.6750     0.2920 H     1 <1>   0.1500 
 49 H        9.5050     1.1170    -0.3440 H     1 <1>   0.1500 
 50 H       10.3440    -1.1450    -0.0040 H     1 <1>   0.1500 
@<TRIPOS>BOND
  1   1   2  ar  
  2   1   3  ar  
  3   2   4  ar  
  4   2   5  1   
  5   3   6  ar  
  6   3   7  1   
  7   4   8  ar  
  8   5   9  1   
  9   5  10  1   
 10   6   8  ar  
 11   6  11  1   
 12   7  12  1   
 13   7  13  1   
 14   7  14  1   
 15   8  25  1   
 16   9  26  1   
 17   9  27  1   
 18   9  28  1   
 19  10  29  1   
 20  10  30  1   
 21  10  31  1   
 22  11  14  1   
 23  11  32  1   
 24  11  33  1   
 25  12  15  1   
 26  12  34  1   
 27  12  35  1   
 28  13  16  1   
 29  13  36  1   
 30  13  37  1   
 31  14  38  1   
 32  14  39  1   
 33  15  17  1   
 34  15  18  1   
 35  15  40  1   
 36  16  17  1   
 37  16  41  1   
 38  16  42  1   
 39  17  43  1   
 40  17  44  1   
 41  18  19  1   
 42  18  45  1   
 43  18  46  1   
 44  19  20  ar  
 45  19  21  ar  
 46  20  22  ar  
 47  20  47  1   
 48  21  23  ar  
 49  21  48  1   
 50  22  24  ar  
 51  23  24  ar  
 52  23  49  1   
 53  24  50  1   
@<TRIPOS>SUBSTRUCTURE
  1 ****  12 GROUP 4 **** **** 0

# MOE 2024.06 (io_trps.svl 2023.06)
