@<TRIPOS>MOLECULE
NONAME
42 43 1 0 0 
SMALL
USER_CHARGES


@<TRIPOS>ATOM
  1 F       -1.9060    -1.8930    -2.8760 F     1 <1>  -0.3400 
  2 C       -2.6220    -2.2770    -1.8260 C.3   1 <1>   1.1640 
  3 F       -3.6560    -2.9410    -2.3200 F     1 <1>  -0.3400 
  4 F       -1.8670    -3.1570    -1.1840 F     1 <1>  -0.3400 
  5 C       -3.0740    -1.0870    -0.9580 C.ar  1 <1>  -0.1440 
  6 C       -3.5210    -1.2880     0.3550 C.ar  1 <1>   0.0860 
  7 C       -3.0470     0.2060    -1.4790 C.ar  1 <1>  -0.1500 
  8 C       -3.6180    -2.5910     0.9850 C.2   1 <1>   0.5440 
  9 C       -3.8930    -0.1720     1.1010 C.ar  1 <1>  -0.1500 
 10 C       -3.4370     1.3120    -0.7320 C.ar  1 <1>  -0.1440 
 11 O       -2.8440    -2.8680     1.8780 O.2   1 <1>  -0.5700 
 12 N       -4.5800    -3.5050     0.6220 N.am  1 <1>  -0.6600 
 13 C       -3.8560     1.1030     0.5750 C.ar  1 <1>  -0.1500 
 14 C       -3.3880     2.7230    -1.3470 C.3   1 <1>   1.1640 
 15 C       -4.4380    -4.9340     1.0350 C.3   1 <1>   0.3200 
 16 C       -5.8400    -3.1200    -0.0840 C.3   1 <1>   0.1400 
 17 F       -2.1490     3.1880    -1.4210 F     1 <1>  -0.3400 
 18 F       -4.0860     3.6180    -0.6580 F     1 <1>  -0.3400 
 19 F       -3.8720     2.7460    -2.5820 F     1 <1>  -0.3400 
 20 C       -4.6590    -5.8640    -0.1450 C.2   1 <1>  -0.3320 
 21 C       -6.9910    -2.9820     0.9190 C.3   1 <1>   0.1200 
 22 N       -5.8080    -6.5040    -0.4540 N.pl3 1 <1>   0.0480 
 23 C       -3.7550    -6.2300    -1.0810 C.2   1 <1>   0.0770 
 24 O       -8.1990    -2.9570     0.2380 O.3   1 <1>  -0.6800 
 25 C       -5.5130    -7.2140    -1.5660 C.2   1 <1>   0.0360 
 26 C       -7.1150    -6.4690     0.2300 C.3   1 <1>   0.0160 
 27 N       -4.2940    -7.0800    -1.9740 N.2   1 <1>  -0.5650 
 28 H       -2.7130     0.3680    -2.4940 H     1 <1>   0.1500 
 29 H       -4.2130    -0.3160     2.1200 H     1 <1>   0.1500 
 30 H       -4.1550     1.9330     1.1970 H     1 <1>   0.1500 
 31 H       -5.1250    -5.1540     1.8320 H     1 <1>   0.0800 
 32 H       -3.4450    -5.1100     1.4110 H     1 <1>   0.0800 
 33 H       -6.0810    -3.8630    -0.8230 H     1 <1>   0.0800 
 34 H       -5.7120    -2.1860    -0.5990 H     1 <1>   0.0800 
 35 H       -6.8990    -2.0750     1.4920 H     1 <1>   0.0800 
 36 H       -7.0180    -3.8250     1.5850 H     1 <1>   0.0800 
 37 H       -2.7260    -5.9200    -1.1590 H     1 <1>   0.1500 
 38 H       -8.3050    -2.1260    -0.2680 H     1 <1>   0.4000 
 39 H       -6.2430    -7.8320    -2.0570 H     1 <1>   0.1500 
 40 H       -6.9690    -6.3890     1.2910 H     1 <1>   0.0800 
 41 H       -7.6540    -7.3740     0.0160 H     1 <1>   0.0800 
 42 H       -7.6810    -5.6270    -0.1240 H     1 <1>   0.0800 
@<TRIPOS>BOND
  1   1   2  1   
  2   2   3  1   
  3   2   4  1   
  4   2   5  1   
  5   5   6  ar  
  6   5   7  ar  
  7   6   8  1   
  8   6   9  ar  
  9   7  10  ar  
 10   7  28  1   
 11   8  11  2   
 12   8  12  am  
 13   9  13  ar  
 14   9  29  1   
 15  10  13  ar  
 16  10  14  1   
 17  12  15  1   
 18  12  16  1   
 19  13  30  1   
 20  14  17  1   
 21  14  18  1   
 22  14  19  1   
 23  15  20  1   
 24  15  31  1   
 25  15  32  1   
 26  16  21  1   
 27  16  33  1   
 28  16  34  1   
 29  20  22  1   
 30  20  23  2   
 31  21  24  1   
 32  21  35  1   
 33  21  36  1   
 34  22  25  1   
 35  22  26  1   
 36  23  27  1   
 37  23  37  1   
 38  24  38  1   
 39  25  27  2   
 40  25  39  1   
 41  26  40  1   
 42  26  41  1   
 43  26  42  1   
@<TRIPOS>SUBSTRUCTURE
  1 ****   6 GROUP 4 **** **** 0

# MOE 2024.06 (io_trps.svl 2023.06)
