@<TRIPOS>MOLECULE
NONAME
47 49 1 0 0 
SMALL
USER_CHARGES


@<TRIPOS>ATOM
  1 CL      -0.5600     0.1550     1.2090 Cl    1 <1>  -0.1770 
  2 C       -0.3350    -1.5500     0.9180 C.ar  1 <1>   0.1770 
  3 C       -0.5200    -2.0510    -0.3550 C.ar  1 <1>  -0.1500 
  4 C        0.0270    -2.3720     1.9660 C.ar  1 <1>  -0.1500 
  5 C       -0.3470    -3.4060    -0.5970 C.ar  1 <1>  -0.1440 
  6 C        0.1990    -3.7250     1.7310 C.ar  1 <1>  -0.1500 
  7 C        0.0040    -4.2480     0.4580 C.ar  1 <1>  -0.1430 
  8 C       -0.5370    -3.9260    -2.0210 C.3   1 <1>  -0.0960 
  9 C        0.1740    -5.7440     0.2310 C.3   1 <1>   0.4870 
 10 N       -0.9170    -6.4850     0.9420 N.4   1 <1>  -0.9590 
 11 C       -0.6540    -7.9730     0.8460 C.3   1 <1>   0.3430 
 12 C       -2.2400    -6.0520     0.3780 C.3   1 <1>   0.3430 
 13 C       -1.4430    -8.6680    -0.2680 C.3   1 <1>  -0.1060 
 14 C       -3.3030    -7.0970     0.6720 C.3   1 <1>  -0.1600 
 15 C       -0.9140    -8.0200    -1.5480 C.2   1 <1>   0.9060 
 16 C       -2.9580    -8.4410     0.0140 C.3   1 <1>   0.2000 
 17 C       -1.1740   -10.1990    -0.2840 C.3   1 <1>  -0.0650 
 18 O       -1.6870    -7.4250    -2.3070 O.co2 1 <1>  -0.9000 
 19 O        0.3080    -7.9220    -1.6930 O.co2 1 <1>  -0.9000 
 20 O       -3.6760    -8.5500    -1.1530 O.3   1 <1>  -0.6800 
 21 C        0.2920   -10.6050    -0.0730 C.3   1 <1>  -0.1950 
 22 C        0.6230   -11.9880     0.3880 C.3   1 <1>  -0.2000 
 23 C        0.8600   -10.8160     1.2960 C.3   1 <1>  -0.2000 
 24 H       -0.7940    -1.3750    -1.1460 H     1 <1>   0.1500 
 25 H        0.1740    -1.9520     2.9450 H     1 <1>   0.1500 
 26 H        0.4910    -4.3600     2.5500 H     1 <1>   0.1500 
 27 H       -0.7170    -3.1190    -2.7070 H     1 <1>   0.0800 
 28 H       -1.3720    -4.6020    -2.0800 H     1 <1>   0.0800 
 29 H        0.3440    -4.4480    -2.3530 H     1 <1>   0.0800 
 30 H        1.1380    -6.0610     0.5920 H     1 <1>   0.0800 
 31 H        0.1370    -5.9490    -0.8240 H     1 <1>   0.0800 
 32 H       -0.8750    -6.1980     1.9220 H     1 <1>   0.4500 
 33 H        0.3990    -8.1450     0.6810 H     1 <1>   0.0800 
 34 H       -0.9170    -8.4390     1.7800 H     1 <1>   0.0800 
 35 H       -2.5240    -5.0980     0.7920 H     1 <1>   0.0800 
 36 H       -2.1640    -5.9370    -0.6910 H     1 <1>   0.0800 
 37 H       -4.2610    -6.7510     0.3260 H     1 <1>   0.0800 
 38 H       -3.3730    -7.2250     1.7370 H     1 <1>   0.0800 
 39 H       -3.3370    -9.2130     0.6620 H     1 <1>   0.0800 
 40 H       -1.7600   -10.6830     0.4770 H     1 <1>   0.0800 
 41 H       -1.5070   -10.5930    -1.2310 H     1 <1>   0.0800 
 42 H       -3.1360    -8.0970    -1.8710 H     1 <1>   0.4000 
 43 H        0.9450   -10.2050    -0.8330 H     1 <1>   0.1000 
 44 H       -0.1780   -12.6700     0.6160 H     1 <1>   0.1000 
 45 H        1.4700   -12.4840    -0.0550 H     1 <1>   0.1000 
 46 H        1.8770   -10.5170     1.4860 H     1 <1>   0.1000 
 47 H        0.2330   -10.7300     2.1660 H     1 <1>   0.1000 
@<TRIPOS>BOND
  1   1   2  1   
  2   2   3  ar  
  3   2   4  ar  
  4   3   5  ar  
  5   3  24  1   
  6   4   6  ar  
  7   4  25  1   
  8   5   7  ar  
  9   5   8  1   
 10   6   7  ar  
 11   6  26  1   
 12   7   9  1   
 13   8  27  1   
 14   8  28  1   
 15   8  29  1   
 16   9  10  1   
 17   9  30  1   
 18   9  31  1   
 19  10  11  1   
 20  10  12  1   
 21  10  32  1   
 22  11  13  1   
 23  11  33  1   
 24  11  34  1   
 25  12  14  1   
 26  12  35  1   
 27  12  36  1   
 28  13  15  1   
 29  13  16  1   
 30  13  17  1   
 31  14  16  1   
 32  14  37  1   
 33  14  38  1   
 34  15  18  ar  
 35  15  19  ar  
 36  16  20  1   
 37  16  39  1   
 38  17  21  1   
 39  17  40  1   
 40  17  41  1   
 41  20  42  1   
 42  21  22  1   
 43  21  23  1   
 44  21  43  1   
 45  22  23  1   
 46  22  44  1   
 47  22  45  1   
 48  23  46  1   
 49  23  47  1   
@<TRIPOS>SUBSTRUCTURE
  1 ****  10 GROUP 4 **** **** 0

# MOE 2024.06 (io_trps.svl 2023.06)
