@<TRIPOS>MOLECULE
NONAME
37 38 1 0 0 
SMALL
USER_CHARGES


@<TRIPOS>ATOM
  1 O        0.8420    -0.9870     1.4830 O.co2 1 <1>  -0.9000 
  2 C        1.5020    -0.7080     0.4850 C.2   1 <1>   0.9060 
  3 O        1.2270    -1.0910    -0.6580 O.co2 1 <1>  -0.9000 
  4 C        2.7470     0.1300     0.6640 C.3   1 <1>  -0.1860 
  5 C        3.9490    -0.6010     0.0590 C.3   1 <1>   0.2000 
  6 C        2.5870     1.5590     0.0840 C.3   1 <1>  -0.1600 
  7 O        3.7390    -0.7290    -1.3040 O.3   1 <1>  -0.6800 
  8 C        5.2430     0.2080     0.2730 C.3   1 <1>   0.3430 
  9 C        3.8660     2.0960    -0.5660 C.3   1 <1>   0.3430 
 10 N        5.0480     1.7150     0.2700 N.4   1 <1>  -0.9590 
 11 C        6.2990     2.3960    -0.1500 C.3   1 <1>   0.3430 
 12 C        6.2490     3.8810     0.2100 C.3   1 <1>  -0.1600 
 13 C        7.5780     4.5770    -0.1190 C.3   1 <1>   0.0960 
 14 N        7.4880     6.0060     0.2290 N.pl3 1 <1>   0.0480 
 15 C        7.8040     6.5940     1.4050 C.2   1 <1>   0.0360 
 16 C        7.0300     7.0070    -0.5420 C.2   1 <1>  -0.3020 
 17 N        7.5790     7.8660     1.4310 N.2   1 <1>  -0.5650 
 18 C        7.0940     8.1310     0.2050 C.2   1 <1>   0.0770 
 19 H        2.9110     0.2080     1.7230 H     1 <1>   0.0800 
 20 H        4.0410    -1.5960     0.4650 H     1 <1>   0.0800 
 21 H        2.2480     2.2260     0.8570 H     1 <1>   0.0800 
 22 H        1.8210     1.5490    -0.6750 H     1 <1>   0.0800 
 23 H        2.7750    -1.0090    -1.4040 H     1 <1>   0.4000 
 24 H        5.9340    -0.0810    -0.5010 H     1 <1>   0.0800 
 25 H        5.6690    -0.0820     1.2190 H     1 <1>   0.0800 
 26 H        3.7890     3.1650    -0.6710 H     1 <1>   0.0800 
 27 H        3.9680     1.6630    -1.5490 H     1 <1>   0.0800 
 28 H        4.8050     1.9830     1.2320 H     1 <1>   0.4500 
 29 H        7.1370     1.9420     0.3550 H     1 <1>   0.0800 
 30 H        6.4400     2.2740    -1.2120 H     1 <1>   0.0800 
 31 H        6.0550     3.9880     1.2640 H     1 <1>   0.0800 
 32 H        5.4670     4.3680    -0.3440 H     1 <1>   0.0800 
 33 H        7.8000     4.4970    -1.1700 H     1 <1>   0.0800 
 34 H        8.3880     4.1390     0.4380 H     1 <1>   0.0800 
 35 H        8.2030     6.0410     2.2370 H     1 <1>   0.1500 
 36 H        6.6920     6.8820    -1.5550 H     1 <1>   0.1500 
 37 H        6.8130     9.1330    -0.0790 H     1 <1>   0.1500 
@<TRIPOS>BOND
  1   1   2  ar  
  2   2   3  ar  
  3   2   4  1   
  4   4   5  1   
  5   4   6  1   
  6   4  19  1   
  7   5   7  1   
  8   5   8  1   
  9   5  20  1   
 10   6   9  1   
 11   6  21  1   
 12   6  22  1   
 13   7  23  1   
 14   8  10  1   
 15   8  24  1   
 16   8  25  1   
 17   9  10  1   
 18   9  26  1   
 19   9  27  1   
 20  10  11  1   
 21  10  28  1   
 22  11  12  1   
 23  11  29  1   
 24  11  30  1   
 25  12  13  1   
 26  12  31  1   
 27  12  32  1   
 28  13  14  1   
 29  13  33  1   
 30  13  34  1   
 31  14  15  1   
 32  14  16  1   
 33  15  17  2   
 34  15  35  1   
 35  16  18  2   
 36  16  36  1   
 37  17  18  1   
 38  18  37  1   
@<TRIPOS>SUBSTRUCTURE
  1 ****  10 GROUP 4 **** **** 0

# MOE 2024.06 (io_trps.svl 2023.06)
