@<TRIPOS>MOLECULE
NONAME
47 49 1 0 0 
SMALL
USER_CHARGES


@<TRIPOS>ATOM
  1 O       -0.5160    -0.2160     0.3320 O.2   1 <1>  -0.5700 
  2 C       -1.7170    -0.0030     0.3270 C.2   1 <1>   0.7150 
  3 N       -2.1530     1.2790     0.0250 N.am  1 <1>  -0.6600 
  4 C       -2.6480    -1.0700     0.6400 C.2   1 <1>   0.0550 
  5 C       -1.2080     2.4300    -0.0130 C.3   1 <1>   0.0600 
  6 C       -3.5180     1.5810    -0.4830 C.3   1 <1>   0.0600 
  7 O       -2.3930    -2.3260     0.2830 O.3   1 <1>  -0.2800 
  8 C       -3.8440    -1.0520     1.2940 C.2   1 <1>  -0.1500 
  9 C       -3.3800    -3.0990     0.6780 C.2   1 <1>  -0.0400 
 10 C       -4.3160    -2.3640     1.3160 C.2   1 <1>  -0.1500 
 11 C       -3.2950    -4.5880     0.3790 C.3   1 <1>   0.2900 
 12 N       -4.6030    -5.2550     0.5300 N.3   1 <1>  -0.8100 
 13 C       -5.5660    -4.8760    -0.5140 C.3   1 <1>   0.1100 
 14 C       -4.5070    -6.7220     0.4810 C.3   1 <1>   0.1100 
 15 C       -6.6240    -5.9670    -0.4350 C.3   1 <1>   0.2000 
 16 C       -5.7730    -7.2240    -0.2370 C.3   1 <1>  -0.0800 
 17 O       -7.3660    -5.7260     0.7060 O.3   1 <1>  -0.6800 
 18 C       -6.4790    -8.3840     0.4910 C.3   1 <1>   0.0200 
 19 C       -5.6500    -9.6580     0.5250 C.2   1 <1>  -0.0400 
 20 O       -6.0690   -10.6610     1.2490 O.3   1 <1>  -0.0190 
 21 C       -4.4990   -10.0310    -0.0600 C.2   1 <1>  -0.1500 
 22 N       -5.2630   -11.6810     1.1840 N.2   1 <1>  -0.4100 
 23 C       -4.3080   -11.3310     0.4010 C.2   1 <1>   0.1080 
 24 C       -3.1400   -12.2200     0.0370 C.3   1 <1>  -0.0590 
 25 H       -1.6720     3.3010     0.4150 H     1 <1>   0.0800 
 26 H       -0.9310     2.6370    -1.0320 H     1 <1>   0.0800 
 27 H       -0.3160     2.2080     0.5480 H     1 <1>   0.0800 
 28 H       -3.4560     2.2570    -1.3190 H     1 <1>   0.0800 
 29 H       -4.1020     2.0390     0.2960 H     1 <1>   0.0800 
 30 H       -4.0100     0.6830    -0.8150 H     1 <1>   0.0800 
 31 H       -4.3440    -0.2050     1.7280 H     1 <1>   0.1500 
 32 H       -5.2350    -2.7040     1.7600 H     1 <1>   0.1500 
 33 H       -2.5870    -5.0250     1.0610 H     1 <1>   0.0800 
 34 H       -2.9270    -4.7270    -0.6230 H     1 <1>   0.0800 
 35 H       -5.9860    -3.8990    -0.3420 H     1 <1>   0.0800 
 36 H       -5.0960    -4.8970    -1.4820 H     1 <1>   0.0800 
 37 H       -3.6310    -7.0340    -0.0640 H     1 <1>   0.0800 
 38 H       -4.4470    -7.1050     1.4860 H     1 <1>   0.0800 
 39 H       -7.2830    -6.0090    -1.2850 H     1 <1>   0.0800 
 40 H       -5.4810    -7.5680    -1.2140 H     1 <1>   0.0800 
 41 H       -6.7200    -5.4680     1.3990 H     1 <1>   0.4000 
 42 H       -7.4130    -8.5970     0.0040 H     1 <1>   0.0800 
 43 H       -6.7000    -8.0980     1.5050 H     1 <1>   0.0800 
 44 H       -3.8510    -9.4980    -0.7280 H     1 <1>   0.1500 
 45 H       -3.1040   -12.3580    -1.0270 H     1 <1>   0.0800 
 46 H       -3.2500   -13.1800     0.5090 H     1 <1>   0.0800 
 47 H       -2.2230   -11.7730     0.3710 H     1 <1>   0.0800 
@<TRIPOS>BOND
  1   1   2  2   
  2   2   3  am  
  3   2   4  1   
  4   3   5  1   
  5   3   6  1   
  6   4   7  1   
  7   4   8  2   
  8   5  25  1   
  9   5  26  1   
 10   5  27  1   
 11   6  28  1   
 12   6  29  1   
 13   6  30  1   
 14   7   9  1   
 15   8  10  1   
 16   8  31  1   
 17   9  10  2   
 18   9  11  1   
 19  10  32  1   
 20  11  12  1   
 21  11  33  1   
 22  11  34  1   
 23  12  13  1   
 24  12  14  1   
 25  13  15  1   
 26  13  35  1   
 27  13  36  1   
 28  14  16  1   
 29  14  37  1   
 30  14  38  1   
 31  15  16  1   
 32  15  17  1   
 33  15  39  1   
 34  16  18  1   
 35  16  40  1   
 36  17  41  1   
 37  18  19  1   
 38  18  42  1   
 39  18  43  1   
 40  19  20  1   
 41  19  21  2   
 42  20  22  1   
 43  21  23  1   
 44  21  44  1   
 45  22  23  2   
 46  23  24  1   
 47  24  45  1   
 48  24  46  1   
 49  24  47  1   
@<TRIPOS>SUBSTRUCTURE
  1 ****  12 GROUP 4 **** **** 0

# MOE 2024.06 (io_trps.svl 2023.06)
