@<TRIPOS>MOLECULE
NONAME
56 59 1 0 0 
SMALL
USER_CHARGES


@<TRIPOS>ATOM
  1 S        2.5480    -2.4210     1.2880 S.3   1 <1>  -0.3320 
  2 C        1.2890    -3.3050     0.3830 C.ar  1 <1>   0.7220 
  3 C        2.2700    -0.6360     0.8940 C.3   1 <1>  -0.0100 
  4 N        0.4410    -2.5680    -0.3190 N.ar  1 <1>  -0.6200 
  5 N        1.3300    -4.6200     0.5110 N.ar  1 <1>  -0.6200 
  6 C       -0.4740    -3.2470    -0.9660 C.ar  1 <1>   0.1600 
  7 C        0.4050    -5.2700    -0.1500 C.ar  1 <1>   0.1600 
  8 C       -0.5490    -4.6220    -0.9050 C.ar  1 <1>  -0.1430 
  9 C       -1.6290    -5.3930    -1.6280 C.3   1 <1>   0.4870 
 10 N       -2.9180    -5.2940    -0.8730 N.4   1 <1>  -0.9590 
 11 C       -2.8360    -5.8130     0.5360 C.3   1 <1>   0.3430 
 12 C       -4.0600    -5.9300    -1.6070 C.3   1 <1>   0.3430 
 13 C       -2.6940    -7.3320     0.5570 C.3   1 <1>  -0.1600 
 14 C       -3.9380    -7.4530    -1.6140 C.3   1 <1>  -0.1600 
 15 C       -3.8590    -7.9910    -0.1820 C.3   1 <1>   0.4240 
 16 O       -5.0090    -7.5430     0.4900 O.3   1 <1>  -0.5600 
 17 C       -3.7030    -9.5200    -0.1520 C.ar  1 <1>  -0.1440 
 18 C       -6.1510    -8.3480     0.4280 C.3   1 <1>   0.1200 
 19 C       -4.6480   -10.3270     0.4630 C.ar  1 <1>  -0.1440 
 20 C       -2.6040   -10.1280    -0.7450 C.ar  1 <1>  -0.1500 
 21 C       -5.8640    -9.6870     1.1020 C.3   1 <1>  -0.0170 
 22 C       -4.4850   -11.7020     0.4930 C.ar  1 <1>  -0.1500 
 23 C       -2.4260   -11.5000    -0.7340 C.ar  1 <1>   0.0830 
 24 C       -3.3790   -12.3120    -0.0950 C.ar  1 <1>   0.0830 
 25 O       -1.2910   -11.9060    -1.3760 O.3   1 <1>  -0.3620 
 26 O       -3.2150   -13.6660    -0.0490 O.3   1 <1>  -0.3620 
 27 C       -1.0130   -13.2560    -1.6750 C.3   1 <1>   0.0400 
 28 C       -4.0700   -14.5090     0.6930 C.3   1 <1>   0.0400 
 29 H        3.0160    -0.0650     1.4160 H     1 <1>   0.0800 
 30 H        1.2820    -0.3730     1.2260 H     1 <1>   0.0800 
 31 H        2.3650    -0.5140    -0.1700 H     1 <1>   0.0800 
 32 H       -1.1760    -2.6800    -1.5560 H     1 <1>   0.1500 
 33 H        0.4200    -6.3450    -0.0740 H     1 <1>   0.1500 
 34 H       -1.3350    -6.4260    -1.7230 H     1 <1>   0.0800 
 35 H       -1.7530    -4.9880    -2.6200 H     1 <1>   0.0800 
 36 H       -3.1370    -4.2920    -0.7890 H     1 <1>   0.4500 
 37 H       -3.7400    -5.5510     1.0650 H     1 <1>   0.0800 
 38 H       -2.0080    -5.3600     1.0590 H     1 <1>   0.0800 
 39 H       -4.1050    -5.5620    -2.6200 H     1 <1>   0.0800 
 40 H       -4.9850    -5.6670    -1.1170 H     1 <1>   0.0800 
 41 H       -2.6970    -7.6760     1.5770 H     1 <1>   0.0800 
 42 H       -1.7540    -7.6250     0.1320 H     1 <1>   0.0800 
 43 H       -3.0760    -7.7520    -2.1780 H     1 <1>   0.0800 
 44 H       -4.7920    -7.8810    -2.1080 H     1 <1>   0.0800 
 45 H       -6.4300    -8.4910    -0.6020 H     1 <1>   0.0800 
 46 H       -6.9480    -7.8360     0.9400 H     1 <1>   0.0800 
 47 H       -1.8490    -9.5450    -1.2370 H     1 <1>   0.1500 
 48 H       -6.7210   -10.3280     0.9950 H     1 <1>   0.0800 
 49 H       -5.6870    -9.5340     2.1520 H     1 <1>   0.0800 
 50 H       -5.2390   -12.2870     0.9830 H     1 <1>   0.1500 
 51 H       -0.1330   -13.2890    -2.2900 H     1 <1>   0.0800 
 52 H       -1.8490   -13.6750    -2.2070 H     1 <1>   0.0800 
 53 H       -0.8360   -13.7860    -0.7570 H     1 <1>   0.0800 
 54 H       -3.6950   -15.5140     0.6170 H     1 <1>   0.0800 
 55 H       -5.0600   -14.4580     0.2750 H     1 <1>   0.0800 
 56 H       -4.0650   -14.1960     1.7220 H     1 <1>   0.0800 
@<TRIPOS>BOND
  1   1   2  1   
  2   1   3  1   
  3   2   4  ar  
  4   2   5  ar  
  5   3  29  1   
  6   3  30  1   
  7   3  31  1   
  8   4   6  ar  
  9   5   7  ar  
 10   6   8  ar  
 11   6  32  1   
 12   7   8  ar  
 13   7  33  1   
 14   8   9  1   
 15   9  10  1   
 16   9  34  1   
 17   9  35  1   
 18  10  11  1   
 19  10  12  1   
 20  10  36  1   
 21  11  13  1   
 22  11  37  1   
 23  11  38  1   
 24  12  14  1   
 25  12  39  1   
 26  12  40  1   
 27  13  15  1   
 28  13  41  1   
 29  13  42  1   
 30  14  15  1   
 31  14  43  1   
 32  14  44  1   
 33  15  16  1   
 34  15  17  1   
 35  16  18  1   
 36  17  19  ar  
 37  17  20  ar  
 38  18  21  1   
 39  18  45  1   
 40  18  46  1   
 41  19  21  1   
 42  19  22  ar  
 43  20  23  ar  
 44  20  47  1   
 45  21  48  1   
 46  21  49  1   
 47  22  24  ar  
 48  22  50  1   
 49  23  24  ar  
 50  23  25  1   
 51  24  26  1   
 52  25  27  1   
 53  26  28  1   
 54  27  51  1   
 55  27  52  1   
 56  27  53  1   
 57  28  54  1   
 58  28  55  1   
 59  28  56  1   
@<TRIPOS>SUBSTRUCTURE
  1 ****  13 GROUP 4 **** **** 0

# MOE 2024.06 (io_trps.svl 2023.06)
