@<TRIPOS>MOLECULE
NONAME
60 62 1 0 0 
SMALL
USER_CHARGES


@<TRIPOS>ATOM
  1 O       -0.3810    -0.2590     0.2770 O.2   1 <1>  -0.5700 
  2 C       -0.3740    -1.3780    -0.1860 C.2   1 <1>   0.5690 
  3 N        0.7840    -1.9690    -0.6300 N.am  1 <1>  -0.6600 
  4 C       -1.7000    -2.1240    -0.2710 C.3   1 <1>  -0.0990 
  5 C        0.8430    -3.3600    -1.1740 C.3   1 <1>   0.1400 
  6 C        2.0550    -1.1920    -0.6210 C.3   1 <1>   0.1400 
  7 C       -2.9310    -1.2540     0.0580 C.3   1 <1>  -0.0990 
  8 C        2.1430    -4.1130    -0.8520 C.3   1 <1>  -0.1600 
  9 C        2.7910    -1.4040     0.7060 C.3   1 <1>  -0.1600 
 10 C       -4.2600    -1.9830    -0.0850 C.2   1 <1>   0.5690 
 11 C        2.6130    -3.9810     0.6070 C.3   1 <1>  -0.1600 
 12 C        3.5120    -2.7550     0.8290 C.3   1 <1>  -0.1600 
 13 O       -4.2450    -3.1830    -0.2430 O.2   1 <1>  -0.5700 
 14 N       -5.4360    -1.2790    -0.0330 N.am  1 <1>  -0.6600 
 15 C       -6.7340    -1.9730    -0.2840 C.3   1 <1>   0.1400 
 16 C       -5.5040     0.1860     0.2540 C.3   1 <1>   0.1400 
 17 C       -7.7250    -1.0280    -0.9700 C.3   1 <1>  -0.1600 
 18 C       -6.8680     0.5430     0.8420 C.3   1 <1>  -0.1600 
 19 C       -8.0030     0.2670    -0.1660 C.3   1 <1>   0.2800 
 20 O       -7.9990     1.2960    -1.1260 O.3   1 <1>  -0.5600 
 21 C       -9.3780     0.2040     0.5500 C.3   1 <1>  -0.1600 
 22 C       -8.6390     2.5010    -0.8110 C.3   1 <1>   0.1200 
 23 C      -10.5050     0.8350    -0.2740 C.3   1 <1>   0.2800 
 24 C      -10.1470     2.2870    -0.6050 C.3   1 <1>  -0.1600 
 25 O      -10.5890     0.1620    -1.4640 O.3   1 <1>  -0.6800 
 26 C      -11.8680     0.7090     0.4000 C.3   1 <1>  -0.2400 
 27 H       -1.6670    -2.9510     0.4150 H     1 <1>   0.0800 
 28 H       -1.8130    -2.5110    -1.2660 H     1 <1>   0.0800 
 29 H        0.7120    -3.3210    -2.2410 H     1 <1>   0.0800 
 30 H        0.0320    -3.9380    -0.7670 H     1 <1>   0.0800 
 31 H        1.8290    -0.1450    -0.7300 H     1 <1>   0.0800 
 32 H        2.6760    -1.4740    -1.4540 H     1 <1>   0.0800 
 33 H       -2.9330    -0.4040    -0.6000 H     1 <1>   0.0800 
 34 H       -2.8450    -0.9000     1.0690 H     1 <1>   0.0800 
 35 H        2.9210    -3.8020    -1.5250 H     1 <1>   0.0800 
 36 H        1.9630    -5.1540    -1.0560 H     1 <1>   0.0800 
 37 H        2.0920    -1.2840     1.5150 H     1 <1>   0.0800 
 38 H        3.5260    -0.6250     0.8070 H     1 <1>   0.0800 
 39 H        3.1880    -4.8570     0.8560 H     1 <1>   0.0800 
 40 H        1.7680    -3.9490     1.2730 H     1 <1>   0.0800 
 41 H        3.9360    -2.8180     1.8160 H     1 <1>   0.0800 
 42 H        4.3310    -2.7850     0.1310 H     1 <1>   0.0800 
 43 H       -7.1370    -2.3140     0.6540 H     1 <1>   0.0800 
 44 H       -6.5750    -2.8340    -0.9110 H     1 <1>   0.0800 
 45 H       -5.3480     0.7350    -0.6600 H     1 <1>   0.0800 
 46 H       -4.7360     0.4620     0.9560 H     1 <1>   0.0800 
 47 H       -8.6360    -1.5690    -1.1490 H     1 <1>   0.0800 
 48 H       -7.3110    -0.7800    -1.9320 H     1 <1>   0.0800 
 49 H       -6.8710     1.5700     1.1510 H     1 <1>   0.0800 
 50 H       -7.0110    -0.0510     1.7270 H     1 <1>   0.0800 
 51 H       -9.3150     0.7400     1.4790 H     1 <1>   0.0800 
 52 H       -9.6250    -0.8100     0.8080 H     1 <1>   0.0800 
 53 H       -8.4670     3.1860    -1.6230 H     1 <1>   0.0800 
 54 H       -8.1890     2.9090     0.0760 H     1 <1>   0.0800 
 55 H      -10.6900     2.6100    -1.4760 H     1 <1>   0.0800 
 56 H      -10.4540     2.9240     0.2040 H     1 <1>   0.0800 
 57 H       -9.7380     0.3100    -1.9300 H     1 <1>   0.4000 
 58 H      -11.8640     1.2130     1.3480 H     1 <1>   0.0800 
 59 H      -12.1070    -0.3260     0.5640 H     1 <1>   0.0800 
 60 H      -12.6290     1.1510    -0.2190 H     1 <1>   0.0800 
@<TRIPOS>BOND
  1   1   2  2   
  2   2   3  am  
  3   2   4  1   
  4   3   5  1   
  5   3   6  1   
  6   4   7  1   
  7   4  27  1   
  8   4  28  1   
  9   5   8  1   
 10   5  29  1   
 11   5  30  1   
 12   6   9  1   
 13   6  31  1   
 14   6  32  1   
 15   7  10  1   
 16   7  33  1   
 17   7  34  1   
 18   8  11  1   
 19   8  35  1   
 20   8  36  1   
 21   9  12  1   
 22   9  37  1   
 23   9  38  1   
 24  10  13  2   
 25  10  14  am  
 26  11  12  1   
 27  11  39  1   
 28  11  40  1   
 29  12  41  1   
 30  12  42  1   
 31  14  15  1   
 32  14  16  1   
 33  15  17  1   
 34  15  43  1   
 35  15  44  1   
 36  16  18  1   
 37  16  45  1   
 38  16  46  1   
 39  17  19  1   
 40  17  47  1   
 41  17  48  1   
 42  18  19  1   
 43  18  49  1   
 44  18  50  1   
 45  19  20  1   
 46  19  21  1   
 47  20  22  1   
 48  21  23  1   
 49  21  51  1   
 50  21  52  1   
 51  22  24  1   
 52  22  53  1   
 53  22  54  1   
 54  23  24  1   
 55  23  25  1   
 56  23  26  1   
 57  24  55  1   
 58  24  56  1   
 59  25  57  1   
 60  26  58  1   
 61  26  59  1   
 62  26  60  1   
@<TRIPOS>SUBSTRUCTURE
  1 ****  10 GROUP 4 **** **** 0

# MOE 2024.06 (io_trps.svl 2023.06)
