@<TRIPOS>MOLECULE
NONAME
43 45 1 0 0 
SMALL
USER_CHARGES


@<TRIPOS>ATOM
  1 CL      -0.7200    -0.7740     1.8730 Cl    1 <1>  -0.1770 
  2 C       -2.0450    -1.3780     0.9040 C.ar  1 <1>   0.1770 
  3 C       -2.6600    -2.5730     1.2340 C.ar  1 <1>   0.1600 
  4 C       -2.4720    -0.6590    -0.1900 C.ar  1 <1>  -0.1500 
  5 N       -3.6720    -3.1090     0.5610 N.ar  1 <1>  -0.6200 
  6 C       -3.5190    -1.2040    -0.8980 C.ar  1 <1>  -0.1500 
  7 C       -4.0880    -2.4120    -0.4960 C.ar  1 <1>   0.4100 
  8 N       -5.1520    -2.9360    -1.2090 N.pl3 1 <1>  -0.8380 
  9 C       -5.2840    -4.4160    -1.2870 C.3   1 <1>   0.2090 
 10 C       -6.4470    -2.2060    -1.1340 C.3   1 <1>   0.2090 
 11 C       -6.0940    -4.9500    -0.0780 C.3   1 <1>   0.4230 
 12 C       -7.2410    -2.7180     0.0740 C.3   1 <1>  -0.1600 
 13 N       -6.1510    -6.4730     0.0130 N.4   1 <1>  -0.9590 
 14 C       -7.4810    -4.2550     0.0570 C.3   1 <1>   0.0000 
 15 C       -7.2390    -6.9930     0.9030 C.3   1 <1>   0.3430 
 16 C       -6.1710    -7.1970    -1.3000 C.3   1 <1>   0.2630 
 17 C       -8.1380    -4.6680     1.4070 C.3   1 <1>  -0.1600 
 18 C       -8.3960    -4.6470    -1.1380 C.3   1 <1>   0.1200 
 19 C       -7.5850    -5.9810     1.9930 C.3   1 <1>  -0.1600 
 20 O       -9.5540    -3.8870    -1.1680 O.3   1 <1>  -0.6800 
 21 H       -2.2960    -3.1050     2.0950 H     1 <1>   0.1500 
 22 H       -2.0050     0.2700    -0.4660 H     1 <1>   0.1500 
 23 H       -3.9080    -0.7110    -1.7690 H     1 <1>   0.1500 
 24 H       -5.7590    -4.6640    -2.2180 H     1 <1>   0.0800 
 25 H       -4.3000    -4.8520    -1.2830 H     1 <1>   0.0800 
 26 H       -6.2690    -1.1490    -1.0250 H     1 <1>   0.0800 
 27 H       -7.0020    -2.3520    -2.0460 H     1 <1>   0.0800 
 28 H       -5.5390    -4.6230     0.7850 H     1 <1>   0.0800 
 29 H       -6.6870    -2.4440     0.9560 H     1 <1>   0.0800 
 30 H       -8.1760    -2.1870     0.1200 H     1 <1>   0.0800 
 31 H       -5.2650    -6.7210     0.4770 H     1 <1>   0.4500 
 32 H       -8.1260    -7.1830     0.3210 H     1 <1>   0.0800 
 33 H       -6.9310    -7.9230     1.3530 H     1 <1>   0.0800 
 34 H       -7.0550    -6.9400    -1.8600 H     1 <1>   0.0800 
 35 H       -6.1660    -8.2630    -1.1380 H     1 <1>   0.0800 
 36 H       -5.3030    -6.9420    -1.8860 H     1 <1>   0.0800 
 37 H       -7.9910    -3.9010     2.1500 H     1 <1>   0.0800 
 38 H       -9.2030    -4.7620     1.2870 H     1 <1>   0.0800 
 39 H       -8.6910    -5.6790    -1.0860 H     1 <1>   0.0800 
 40 H       -7.9040    -4.4820    -2.0800 H     1 <1>   0.0800 
 41 H       -8.3180    -6.4080     2.6550 H     1 <1>   0.0800 
 42 H       -6.7050    -5.7830     2.5830 H     1 <1>   0.0800 
 43 H      -10.0960    -4.0080    -0.3640 H     1 <1>   0.4000 
@<TRIPOS>BOND
  1   1   2  1   
  2   2   3  ar  
  3   2   4  ar  
  4   3   5  ar  
  5   3  21  1   
  6   4   6  ar  
  7   4  22  1   
  8   5   7  ar  
  9   6   7  ar  
 10   6  23  1   
 11   7   8  1   
 12   8   9  1   
 13   8  10  1   
 14   9  11  1   
 15   9  24  1   
 16   9  25  1   
 17  10  12  1   
 18  10  26  1   
 19  10  27  1   
 20  11  13  1   
 21  11  14  1   
 22  11  28  1   
 23  12  14  1   
 24  12  29  1   
 25  12  30  1   
 26  13  15  1   
 27  13  16  1   
 28  13  31  1   
 29  14  17  1   
 30  14  18  1   
 31  15  19  1   
 32  15  32  1   
 33  15  33  1   
 34  16  34  1   
 35  16  35  1   
 36  16  36  1   
 37  17  19  1   
 38  17  37  1   
 39  17  38  1   
 40  18  20  1   
 41  18  39  1   
 42  18  40  1   
 43  19  41  1   
 44  19  42  1   
 45  20  43  1   
@<TRIPOS>SUBSTRUCTURE
  1 ****  11 GROUP 4 **** **** 0

# MOE 2024.06 (io_trps.svl 2023.06)
