@<TRIPOS>MOLECULE
NONAME
49 52 1 0 0 
SMALL
USER_CHARGES


@<TRIPOS>ATOM
  1 O        0.1070     3.3530     2.4180 O.3   1 <1>  -0.3630 
  2 C       -0.2010     3.4600     1.1030 C.ar  1 <1>   0.0830 
  3 C        1.2760     2.6920     2.8470 C.3   1 <1>   0.0400 
  4 C       -1.3990     4.0830     0.7990 C.ar  1 <1>  -0.1500 
  5 C        0.6110     2.9940     0.0740 C.ar  1 <1>  -0.1500 
  6 C       -1.7930     4.2700    -0.5200 C.ar  1 <1>  -0.1430 
  7 C        0.2190     3.1640    -1.2410 C.ar  1 <1>  -0.1500 
  8 C       -0.9740     3.8000    -1.5380 C.ar  1 <1>  -0.1500 
  9 C       -3.0890     4.9890    -0.8760 C.3   1 <1>   0.5660 
 10 N       -3.1750     6.2930    -0.1750 N.4   1 <1>  -0.9590 
 11 C       -4.3130     4.1400    -0.5180 C.3   1 <1>  -0.1600 
 12 C       -4.3940     7.0770    -0.4880 C.3   1 <1>   0.3430 
 13 C       -1.9320     7.1090    -0.2190 C.3   1 <1>   0.5230 
 14 C       -5.6270     4.8760    -0.8160 C.3   1 <1>  -0.1600 
 15 C       -5.6340     6.2530    -0.1360 C.3   1 <1>  -0.1600 
 16 C       -1.5380     7.3630     1.2260 C.2   1 <1>   0.0060 
 17 N       -2.3620     7.2450     2.2260 N.2   1 <1>  -0.5650 
 18 N       -0.2790     7.7090     1.5880 N.pl3 1 <1>   0.2940 
 19 C       -1.6000     7.5370     3.2970 C.2   1 <1>   0.0770 
 20 C       -0.3340     7.8220     2.9250 C.2   1 <1>  -0.3020 
 21 C        0.9140     7.9290     0.7370 C.3   1 <1>  -0.0910 
 22 C        1.4130     6.8420    -0.1720 C.3   1 <1>  -0.2000 
 23 C        2.1800     7.1940     1.0620 C.3   1 <1>  -0.2000 
 24 H        1.2970     2.7150     3.9220 H     1 <1>   0.0800 
 25 H        2.1350     3.2070     2.4550 H     1 <1>   0.0800 
 26 H        1.2480     1.6730     2.5050 H     1 <1>   0.0800 
 27 H       -2.0050     4.4190     1.6230 H     1 <1>   0.1500 
 28 H        1.5420     2.5000     0.2780 H     1 <1>   0.1500 
 29 H        0.8480     2.7980    -2.0360 H     1 <1>   0.1500 
 30 H       -1.2520     3.9170    -2.5730 H     1 <1>   0.1500 
 31 H       -3.0990     5.1660    -1.9390 H     1 <1>   0.0800 
 32 H       -3.2320     6.0780     0.8370 H     1 <1>   0.4500 
 33 H       -4.2740     3.8740     0.5250 H     1 <1>   0.0800 
 34 H       -4.2800     3.2240    -1.0810 H     1 <1>   0.0800 
 35 H       -4.4110     7.3300    -1.5360 H     1 <1>   0.0800 
 36 H       -4.4000     7.9910     0.0880 H     1 <1>   0.0800 
 37 H       -2.1030     8.0430    -0.7260 H     1 <1>   0.0800 
 38 H       -1.1410     6.5770    -0.7210 H     1 <1>   0.0800 
 39 H       -6.4610     4.2910    -0.4640 H     1 <1>   0.0800 
 40 H       -5.7400     4.9990    -1.8800 H     1 <1>   0.0800 
 41 H       -6.5140     6.7950    -0.4350 H     1 <1>   0.0800 
 42 H       -5.6830     6.1310     0.9330 H     1 <1>   0.0800 
 43 H       -2.0040     7.5260     4.2990 H     1 <1>   0.1500 
 44 H        0.5170     8.0910     3.5240 H     1 <1>   0.1500 
 45 H        1.0030     8.9560     0.4290 H     1 <1>   0.1000 
 46 H        1.8610     7.0980    -1.1170 H     1 <1>   0.1000 
 47 H        0.9480     5.8720    -0.1870 H     1 <1>   0.1000 
 48 H        2.1880     6.4890     1.8770 H     1 <1>   0.1000 
 49 H        3.1250     7.6960     0.9420 H     1 <1>   0.1000 
@<TRIPOS>BOND
  1   1   2  1   
  2   1   3  1   
  3   2   4  ar  
  4   2   5  ar  
  5   3  24  1   
  6   3  25  1   
  7   3  26  1   
  8   4   6  ar  
  9   4  27  1   
 10   5   7  ar  
 11   5  28  1   
 12   6   8  ar  
 13   6   9  1   
 14   7   8  ar  
 15   7  29  1   
 16   8  30  1   
 17   9  10  1   
 18   9  11  1   
 19   9  31  1   
 20  10  12  1   
 21  10  13  1   
 22  10  32  1   
 23  11  14  1   
 24  11  33  1   
 25  11  34  1   
 26  12  15  1   
 27  12  35  1   
 28  12  36  1   
 29  13  16  1   
 30  13  37  1   
 31  13  38  1   
 32  14  15  1   
 33  14  39  1   
 34  14  40  1   
 35  15  41  1   
 36  15  42  1   
 37  16  17  2   
 38  16  18  1   
 39  17  19  1   
 40  18  20  1   
 41  18  21  1   
 42  19  20  2   
 43  19  43  1   
 44  20  44  1   
 45  21  22  1   
 46  21  23  1   
 47  21  45  1   
 48  22  23  1   
 49  22  46  1   
 50  22  47  1   
 51  23  48  1   
 52  23  49  1   
@<TRIPOS>SUBSTRUCTURE
  1 ****   4 GROUP 4 **** **** 0

# MOE 2024.06 (io_trps.svl 2023.06)
