@<TRIPOS>MOLECULE
NONAME
45 47 1 0 0 
SMALL
USER_CHARGES


@<TRIPOS>ATOM
  1 S        1.3060    -0.9560    -1.0680 S.3   1 <1>  -0.0800 
  2 C       -0.1190    -1.2960    -0.1540 C.2   1 <1>   0.1980 
  3 C        1.2450     0.6380    -0.3990 C.2   1 <1>   0.1980 
  4 N       -0.5220    -0.3040     0.5330 N.2   1 <1>  -0.3380 
  5 C       -0.7370    -2.6830    -0.2430 C.3   1 <1>   0.5230 
  6 N        0.2610     0.8050     0.3890 N.2   1 <1>  -0.3380 
  7 C        2.3180     1.6260    -0.8000 C.3   1 <1>  -0.0600 
  8 N       -2.0920    -2.6900     0.4080 N.4   1 <1>  -0.9590 
  9 C       -2.4890    -4.0710     0.8580 C.3   1 <1>   0.3430 
 10 C       -3.0880    -1.9890    -0.4680 C.3   1 <1>   0.3430 
 11 C       -3.8560    -4.1510     1.5740 C.3   1 <1>   0.1400 
 12 C       -4.1800    -1.3570     0.3940 C.3   1 <1>  -0.1600 
 13 N       -4.9560    -3.7330     0.6590 N.am  1 <1>  -0.6600 
 14 C       -5.3460    -2.2960     0.7220 C.3   1 <1>   0.1400 
 15 C       -5.4480    -4.5290    -0.3420 C.2   1 <1>   0.5690 
 16 O       -5.7520    -4.0590    -1.4090 O.2   1 <1>  -0.5700 
 17 C       -5.5910    -6.0280    -0.1510 C.3   1 <1>  -0.0990 
 18 C       -6.7910    -6.5760    -0.9390 C.3   1 <1>   0.0960 
 19 N       -6.9490    -8.0220    -0.6930 N.pl3 1 <1>   0.0480 
 20 C       -7.5830    -8.6310     0.3100 C.2   1 <1>   0.0370 
 21 C       -6.4760    -9.0470    -1.4030 C.2   1 <1>   0.0370 
 22 N       -7.4960    -9.9130     0.2240 N.2   1 <1>  -0.3380 
 23 N       -6.7860   -10.1790    -0.8750 N.2   1 <1>  -0.3380 
 24 H       -0.0820    -3.3740     0.2610 H     1 <1>   0.0800 
 25 H       -0.8190    -2.9790    -1.2750 H     1 <1>   0.0800 
 26 H        2.2970     1.7810    -1.8630 H     1 <1>   0.0800 
 27 H        3.2850     1.2530    -0.5160 H     1 <1>   0.0800 
 28 H        2.1500     2.5670    -0.3080 H     1 <1>   0.0800 
 29 H       -1.9810    -2.0780     1.2330 H     1 <1>   0.4500 
 30 H       -1.7380    -4.4490     1.5310 H     1 <1>   0.0800 
 31 H       -2.5200    -4.7290     0.0050 H     1 <1>   0.0800 
 32 H       -3.5210    -2.6670    -1.1880 H     1 <1>   0.0800 
 33 H       -2.5940    -1.1950    -1.0060 H     1 <1>   0.0800 
 34 H       -3.8500    -3.5290     2.4520 H     1 <1>   0.0800 
 35 H       -4.0200    -5.1620     1.9010 H     1 <1>   0.0800 
 36 H       -4.5900    -0.5230    -0.1480 H     1 <1>   0.0800 
 37 H       -3.7610    -0.9500     1.2970 H     1 <1>   0.0800 
 38 H       -6.1450    -2.1150     0.0200 H     1 <1>   0.0800 
 39 H       -5.7350    -2.0710     1.7010 H     1 <1>   0.0800 
 40 H       -5.7390    -6.2380     0.8920 H     1 <1>   0.0800 
 41 H       -4.6900    -6.5070    -0.4870 H     1 <1>   0.0800 
 42 H       -6.6510    -6.4170    -1.9940 H     1 <1>   0.0800 
 43 H       -7.6940    -6.0730    -0.6400 H     1 <1>   0.0800 
 44 H       -8.1010    -8.1060     1.0920 H     1 <1>   0.1500 
 45 H       -5.9040    -8.9300    -2.3060 H     1 <1>   0.1500 
@<TRIPOS>BOND
  1   1   2  1   
  2   1   3  1   
  3   2   4  2   
  4   2   5  1   
  5   3   6  2   
  6   3   7  1   
  7   4   6  1   
  8   5   8  1   
  9   5  24  1   
 10   5  25  1   
 11   7  26  1   
 12   7  27  1   
 13   7  28  1   
 14   8   9  1   
 15   8  10  1   
 16   8  29  1   
 17   9  11  1   
 18   9  30  1   
 19   9  31  1   
 20  10  12  1   
 21  10  32  1   
 22  10  33  1   
 23  11  13  1   
 24  11  34  1   
 25  11  35  1   
 26  12  14  1   
 27  12  36  1   
 28  12  37  1   
 29  13  14  1   
 30  13  15  am  
 31  14  38  1   
 32  14  39  1   
 33  15  16  2   
 34  15  17  1   
 35  17  18  1   
 36  17  40  1   
 37  17  41  1   
 38  18  19  1   
 39  18  42  1   
 40  18  43  1   
 41  19  20  1   
 42  19  21  1   
 43  20  22  2   
 44  20  44  1   
 45  21  23  2   
 46  21  45  1   
 47  22  23  1   
@<TRIPOS>SUBSTRUCTURE
  1 ****   9 GROUP 4 **** **** 0

# MOE 2024.06 (io_trps.svl 2023.06)
