@<TRIPOS>MOLECULE
Untitled Document
41 43 1 0 0 
SMALL
USER_CHARGES


@<TRIPOS>ATOM
  1 N       -0.7920     4.7430    -0.3490 N.4   1 <1>  -0.7990 
  2 C        0.2590     5.7820    -0.3580 C.3   1 <1>   0.4230 
  3 C       -2.1510     5.2830    -0.1450 C.3   1 <1>   0.2960 
  4 C        1.5700     5.1640    -0.8690 C.3   1 <1>  -0.1600 
  5 C        0.4660     6.3650     1.0520 C.3   1 <1>  -0.1600 
  6 C       -3.3200     4.5130    -0.6620 C.3   1 <1>  -0.0680 
  7 C       -2.8960     5.7930    -1.3280 C.3   1 <1>  -0.2000 
  8 C        2.7490     6.1610    -0.8150 C.3   1 <1>  -0.1600 
  9 C        1.6480     7.3590     1.1080 C.3   1 <1>  -0.1600 
 10 C       -4.5810     4.4680     0.1780 C.ar  1 <1>  -0.0320 
 11 C        2.9530     6.7340     0.5950 C.3   1 <1>   0.4230 
 12 C       -4.5530     3.9290     1.4560 C.ar  1 <1>  -0.1500 
 13 C       -5.7740     4.9610    -0.3260 C.ar  1 <1>  -0.1500 
 14 N        4.0130     7.7550     0.5660 N.4   1 <1>  -0.8530 
 15 C       -5.7030     3.8960     2.2250 C.ar  1 <1>  -0.1500 
 16 C       -6.9250     4.9280     0.4420 C.ar  1 <1>  -0.1500 
 17 C       -6.8890     4.3970     1.7190 C.ar  1 <1>  -0.1500 
 18 H       -0.6010     4.0390     0.3730 H     1 <1>   0.4500 
 19 H       -0.7900     4.2480    -1.2490 H     1 <1>   0.4500 
 20 H       -0.0340     6.5760    -1.0290 H     1 <1>   0.0800 
 21 H       -2.2820     5.7910     0.8000 H     1 <1>   0.1000 
 22 H        1.8220     4.3000    -0.2760 H     1 <1>   0.0800 
 23 H        1.4420     4.8430    -1.8900 H     1 <1>   0.0800 
 24 H       -0.4240     6.8850     1.3660 H     1 <1>   0.0800 
 25 H        0.6510     5.5670     1.7520 H     1 <1>   0.0800 
 26 H       -3.1550     3.5980    -1.2040 H     1 <1>   0.1000 
 27 H       -3.5350     6.6520    -1.2100 H     1 <1>   0.1000 
 28 H       -2.4810     5.7260    -2.3180 H     1 <1>   0.1000 
 29 H        2.5560     6.9610    -1.5110 H     1 <1>   0.0800 
 30 H        3.6450     5.6510    -1.1310 H     1 <1>   0.0800 
 31 H        1.7780     7.6790     2.1290 H     1 <1>   0.0800 
 32 H        1.3980     8.2230     0.5160 H     1 <1>   0.0800 
 33 H        3.2450     5.9340     1.2600 H     1 <1>   0.0800 
 34 H       -3.6440     3.5280     1.8650 H     1 <1>   0.1500 
 35 H       -5.8180     5.3710    -1.3200 H     1 <1>   0.1500 
 36 H        3.7730     8.5350    -0.0570 H     1 <1>   0.4500 
 37 H        4.9010     7.3560     0.2390 H     1 <1>   0.4500 
 38 H        4.1790     8.1430     1.5020 H     1 <1>   0.4500 
 39 H       -5.6810     3.4790     3.2180 H     1 <1>   0.1500 
 40 H       -7.8500     5.3130     0.0470 H     1 <1>   0.1500 
 41 H       -7.7850     4.3720     2.3170 H     1 <1>   0.1500 
@<TRIPOS>BOND
  1   1   2  1   
  2   1   3  1   
  3   1  18  1   
  4   1  19  1   
  5   2   4  1   
  6   2   5  1   
  7   2  20  1   
  8   3   6  1   
  9   3   7  1   
 10   3  21  1   
 11   4   8  1   
 12   4  22  1   
 13   4  23  1   
 14   5   9  1   
 15   5  24  1   
 16   5  25  1   
 17   6   7  1   
 18   6  10  1   
 19   6  26  1   
 20   7  27  1   
 21   7  28  1   
 22   8  11  1   
 23   8  29  1   
 24   8  30  1   
 25   9  11  1   
 26   9  31  1   
 27   9  32  1   
 28  10  12  ar  
 29  10  13  ar  
 30  11  14  1   
 31  11  33  1   
 32  12  15  ar  
 33  12  34  1   
 34  13  16  ar  
 35  13  35  1   
 36  14  36  1   
 37  14  37  1   
 38  14  38  1   
 39  15  17  ar  
 40  15  39  1   
 41  16  17  ar  
 42  16  40  1   
 43  17  41  1   
@<TRIPOS>SUBSTRUCTURE
  1 ****   3 GROUP 4 **** **** 0

# MOE 2024.06 (io_trps.svl 2023.06)
