@<TRIPOS>MOLECULE
NONAME
61 64 1 0 0 
SMALL
USER_CHARGES


@<TRIPOS>ATOM
  1 O        3.5680    -1.9790    -1.3140 O.2   1 <1>  -0.5700 
  2 C        3.0690    -1.8250    -0.2190 C.2   1 <1>   0.6900 
  3 N        3.7460    -1.3530     0.8680 N.am  1 <1>  -0.4200 
  4 N        1.7600    -2.0520     0.0810 N.am  1 <1>  -0.6600 
  5 C        2.8870    -1.1780     1.9060 C.2   1 <1>   0.5690 
  6 C        5.1670    -0.9200     0.8430 C.3   1 <1>   0.2010 
  7 C        1.5120    -1.6840     1.5000 C.3   1 <1>   0.2010 
  8 C        0.7160    -2.6220    -0.8040 C.3   1 <1>   0.0600 
  9 O        3.1540    -0.6540     2.9590 O.2   1 <1>  -0.5700 
 10 C        5.4060     0.2220    -0.1420 C.2   1 <1>   0.5690 
 11 O        6.4720     0.3070    -0.7090 O.2   1 <1>  -0.5700 
 12 N        4.4520     1.1790    -0.3630 N.am  1 <1>  -0.6600 
 13 C        4.1450     1.6210    -1.7580 C.3   1 <1>   0.1400 
 14 C        4.0110     2.0910     0.7160 C.3   1 <1>   0.1400 
 15 C        5.2500     2.5100    -2.3630 C.3   1 <1>   0.3430 
 16 C        5.0540     3.1990     0.9170 C.3   1 <1>  -0.1600 
 17 N        6.1440     3.1070    -1.3240 N.4   1 <1>  -0.9590 
 18 C        5.4400     3.9850    -0.3440 C.3   1 <1>   0.3430 
 19 C        7.3380     3.7370    -1.9320 C.3   1 <1>   0.4810 
 20 C        8.3170     4.1070    -0.8380 C.2   1 <1>  -0.2540 
 21 C        8.6580     5.3480    -0.4660 C.2   1 <1>  -0.2880 
 22 C        8.9860     2.9360    -0.1090 C.3   1 <1>   0.1160 
 23 C        9.7040     5.5410     0.6370 C.3   1 <1>  -0.0220 
 24 C       10.5430     3.1210     0.0160 C.3   1 <1>   0.0000 
 25 C        8.9430     3.2420     1.4250 C.3   1 <1>   0.0000 
 26 C       10.1830     4.1540     1.1480 C.3   1 <1>   0.0000 
 27 C       11.3140     1.8700     0.5020 C.3   1 <1>  -0.2400 
 28 C       11.2770     3.6740    -1.2260 C.3   1 <1>  -0.2400 
 29 H        5.4700    -0.6080     1.8250 H     1 <1>   0.0800 
 30 H        5.7750    -1.7570     0.5500 H     1 <1>   0.0800 
 31 H        0.7760    -0.9050     1.5760 H     1 <1>   0.0800 
 32 H        1.2330    -2.5450     2.0800 H     1 <1>   0.0800 
 33 H       -0.0920    -1.9200    -0.9160 H     1 <1>   0.0800 
 34 H        0.3390    -3.5370    -0.3830 H     1 <1>   0.0800 
 35 H        1.1330    -2.8320    -1.7750 H     1 <1>   0.0800 
 36 H        4.0200     0.7500    -2.3810 H     1 <1>   0.0800 
 37 H        3.2090     2.1520    -1.7700 H     1 <1>   0.0800 
 38 H        3.0530     2.5150     0.4660 H     1 <1>   0.0800 
 39 H        3.8940     1.5410     1.6360 H     1 <1>   0.0800 
 40 H        4.8030     3.2810    -2.9680 H     1 <1>   0.0800 
 41 H        5.8440     1.8880    -3.0140 H     1 <1>   0.0800 
 42 H        5.9380     2.7770     1.3600 H     1 <1>   0.0800 
 43 H        4.6570     3.8960     1.6330 H     1 <1>   0.0800 
 44 H        6.4870     2.2790    -0.7980 H     1 <1>   0.4500 
 45 H        6.0930     4.7900    -0.0470 H     1 <1>   0.0800 
 46 H        4.5640     4.4190    -0.7950 H     1 <1>   0.0800 
 47 H        7.8120     3.0530    -2.6170 H     1 <1>   0.0800 
 48 H        7.0500     4.6230    -2.4730 H     1 <1>   0.0800 
 49 H        8.2750     6.2650    -0.8840 H     1 <1>   0.1500 
 50 H        8.6560     1.9490    -0.3800 H     1 <1>   0.0000 
 51 H        9.2760     6.0950     1.4530 H     1 <1>   0.0800 
 52 H       10.5440     6.0960     0.2580 H     1 <1>   0.0800 
 53 H        8.0690     3.7800     1.7480 H     1 <1>   0.0000 
 54 H        9.1380     2.3940     2.0570 H     1 <1>   0.0000 
 55 H       10.8870     4.1970     1.9600 H     1 <1>   0.0000 
 56 H       12.3290     2.1380     0.7390 H     1 <1>   0.0800 
 57 H       11.3370     1.1290    -0.2770 H     1 <1>   0.0800 
 58 H       10.8910     1.4100     1.3750 H     1 <1>   0.0800 
 59 H       12.2850     3.9420    -0.9610 H     1 <1>   0.0800 
 60 H       10.8130     4.5410    -1.6520 H     1 <1>   0.0800 
 61 H       11.3220     2.9180    -1.9900 H     1 <1>   0.0800 
@<TRIPOS>BOND
  1   1   2  2   
  2   2   3  am  
  3   2   4  am  
  4   3   5  am  
  5   3   6  1   
  6   4   7  1   
  7   4   8  1   
  8   5   7  1   
  9   5   9  2   
 10   6  10  1   
 11   6  29  1   
 12   6  30  1   
 13   7  31  1   
 14   7  32  1   
 15   8  33  1   
 16   8  34  1   
 17   8  35  1   
 18  10  11  2   
 19  10  12  am  
 20  12  13  1   
 21  12  14  1   
 22  13  15  1   
 23  13  36  1   
 24  13  37  1   
 25  14  16  1   
 26  14  38  1   
 27  14  39  1   
 28  15  17  1   
 29  15  40  1   
 30  15  41  1   
 31  16  18  1   
 32  16  42  1   
 33  16  43  1   
 34  17  18  1   
 35  17  19  1   
 36  17  44  1   
 37  18  45  1   
 38  18  46  1   
 39  19  20  1   
 40  19  47  1   
 41  19  48  1   
 42  20  21  2   
 43  20  22  1   
 44  21  23  1   
 45  21  49  1   
 46  22  24  1   
 47  22  25  1   
 48  22  50  1   
 49  23  26  1   
 50  23  51  1   
 51  23  52  1   
 52  24  26  1   
 53  24  27  1   
 54  24  28  1   
 55  25  26  1   
 56  25  53  1   
 57  25  54  1   
 58  26  55  1   
 59  27  56  1   
 60  27  57  1   
 61  27  58  1   
 62  28  59  1   
 63  28  60  1   
 64  28  61  1   
@<TRIPOS>SUBSTRUCTURE
  1 ****  10 GROUP 4 **** **** 0

# MOE 2024.06 (io_trps.svl 2023.06)
