@<TRIPOS>MOLECULE
NONAME
48 50 1 0 0 
SMALL
USER_CHARGES


@<TRIPOS>ATOM
  1 O       -2.1450    -2.1270     3.3000 O.co2 1 <1>  -0.9000 
  2 C       -2.3030    -1.6790     2.1510 C.2   1 <1>   0.9790 
  3 O       -1.8730    -0.5440     1.8810 O.co2 1 <1>  -0.9000 
  4 C       -2.9930    -2.4680     1.1370 C.ar  1 <1>  -0.1790 
  5 C       -3.1440    -2.0010    -0.1680 C.ar  1 <1>  -0.1500 
  6 C       -3.5300    -3.7220     1.4290 C.ar  1 <1>  -0.1500 
  7 C       -3.8070    -2.7370    -1.1310 C.ar  1 <1>  -0.1500 
  8 C       -4.1950    -4.4680     0.4740 C.ar  1 <1>  -0.1500 
  9 C       -4.3470    -3.9740    -0.8130 C.ar  1 <1>  -0.1430 
 10 C       -5.1090    -4.7540    -1.8600 C.3   1 <1>   0.4870 
 11 N       -6.5480    -4.8160    -1.4760 N.4   1 <1>  -0.9590 
 12 C       -7.3590    -5.6410    -2.4240 C.3   1 <1>   0.3430 
 13 C       -7.1470    -3.4690    -1.2550 C.3   1 <1>   0.3430 
 14 C       -8.3470    -6.5530    -1.6760 C.3   1 <1>   0.1400 
 15 C       -8.2580    -3.5400    -0.2070 C.3   1 <1>  -0.1600 
 16 N       -8.8580    -5.9440    -0.4060 N.am  1 <1>  -0.6600 
 17 C       -9.3730    -4.5480    -0.5030 C.3   1 <1>   0.1400 
 18 C       -9.0260    -6.6450     0.7750 C.2   1 <1>   0.5690 
 19 O       -9.1850    -6.0320     1.8060 O.2   1 <1>  -0.5700 
 20 C       -8.9800    -8.1930     0.8690 C.3   1 <1>   0.2610 
 21 O       -9.3800    -8.8570    -0.3100 O.3   1 <1>  -0.5600 
 22 C       -9.8680    -8.7800     1.9650 C.3   1 <1>  -0.1600 
 23 C      -10.1080   -10.0180    -0.0410 C.3   1 <1>   0.1200 
 24 C      -10.1230   -10.1880     1.4710 C.3   1 <1>  -0.1600 
 25 H       -2.7250    -1.0370    -0.4130 H     1 <1>   0.1500 
 26 H       -3.4140    -4.1030     2.4320 H     1 <1>   0.1500 
 27 H       -3.8910    -2.3260    -2.1210 H     1 <1>   0.1500 
 28 H       -4.5870    -5.4280     0.7580 H     1 <1>   0.1500 
 29 H       -4.6990    -5.7480    -1.9260 H     1 <1>   0.0800 
 30 H       -5.0010    -4.2730    -2.8180 H     1 <1>   0.0800 
 31 H       -6.6030    -5.2720    -0.5520 H     1 <1>   0.4500 
 32 H       -7.9090    -4.9950    -3.0890 H     1 <1>   0.0800 
 33 H       -6.7180    -6.2600    -3.0300 H     1 <1>   0.0800 
 34 H       -6.3990    -2.7810    -0.8940 H     1 <1>   0.0800 
 35 H       -7.5350    -3.0790    -2.1820 H     1 <1>   0.0800 
 36 H       -7.8260    -7.4670    -1.4550 H     1 <1>   0.0800 
 37 H       -9.1770    -6.8020    -2.3150 H     1 <1>   0.0800 
 38 H       -7.8330    -3.7500     0.7600 H     1 <1>   0.0800 
 39 H       -8.7030    -2.5630    -0.1370 H     1 <1>   0.0800 
 40 H       -9.7990    -4.3750    -1.4770 H     1 <1>   0.0800 
 41 H      -10.1640    -4.4130     0.2180 H     1 <1>   0.0800 
 42 H       -7.9640    -8.4890     1.0570 H     1 <1>   0.0800 
 43 H       -9.3910    -8.7520     2.9280 H     1 <1>   0.0800 
 44 H      -10.7920    -8.2290     2.0140 H     1 <1>   0.0800 
 45 H      -11.1060    -9.8730    -0.4210 H     1 <1>   0.0800 
 46 H       -9.6440   -10.8520    -0.5400 H     1 <1>   0.0800 
 47 H      -11.0560   -10.5900     1.8230 H     1 <1>   0.0800 
 48 H       -9.3210   -10.8430     1.7660 H     1 <1>   0.0800 
@<TRIPOS>BOND
  1   1   2  ar  
  2   2   3  ar  
  3   2   4  1   
  4   4   5  ar  
  5   4   6  ar  
  6   5   7  ar  
  7   5  25  1   
  8   6   8  ar  
  9   6  26  1   
 10   7   9  ar  
 11   7  27  1   
 12   8   9  ar  
 13   8  28  1   
 14   9  10  1   
 15  10  11  1   
 16  10  29  1   
 17  10  30  1   
 18  11  12  1   
 19  11  13  1   
 20  11  31  1   
 21  12  14  1   
 22  12  32  1   
 23  12  33  1   
 24  13  15  1   
 25  13  34  1   
 26  13  35  1   
 27  14  16  1   
 28  14  36  1   
 29  14  37  1   
 30  15  17  1   
 31  15  38  1   
 32  15  39  1   
 33  16  17  1   
 34  16  18  am  
 35  17  40  1   
 36  17  41  1   
 37  18  19  2   
 38  18  20  1   
 39  20  21  1   
 40  20  22  1   
 41  20  42  1   
 42  21  23  1   
 43  22  24  1   
 44  22  43  1   
 45  22  44  1   
 46  23  24  1   
 47  23  45  1   
 48  23  46  1   
 49  24  47  1   
 50  24  48  1   
@<TRIPOS>SUBSTRUCTURE
  1 ****  11 GROUP 4 **** **** 0

# MOE 2024.06 (io_trps.svl 2023.06)
