@<TRIPOS>MOLECULE
NONAME
46 49 1 0 0 
SMALL
USER_CHARGES


@<TRIPOS>ATOM
  1 O        0.6810     0.0600    -0.6200 O.3   1 <1>  -0.6800 
  2 C        2.0640     0.0360    -0.4820 C.3   1 <1>   0.2000 
  3 C        2.5150    -1.2690     0.1640 C.3   1 <1>  -0.0800 
  4 C        2.5540     1.1160     0.4750 C.3   1 <1>   0.2090 
  5 C        3.8190    -0.9010     0.8780 C.3   1 <1>   0.2090 
  6 C        2.6760    -2.4170    -0.8440 C.3   1 <1>  -0.0170 
  7 N        3.8160     0.5770     1.0550 N.pl3 1 <1>  -0.8380 
  8 C        3.1990    -3.6740    -0.1670 C.ar  1 <1>  -0.1440 
  9 C        4.9680     1.2310     0.6780 C.ar  1 <1>   0.4100 
 10 C        4.5070    -4.0940    -0.3100 C.ar  1 <1>  -0.1500 
 11 C        2.3910    -4.4590     0.6310 C.ar  1 <1>  -0.1500 
 12 N        5.2860     1.2040    -0.6120 N.ar  1 <1>  -0.6200 
 13 C        5.7320     1.8780     1.6420 C.ar  1 <1>  -0.1500 
 14 C        4.9310    -5.2440     0.3350 C.ar  1 <1>   0.1600 
 15 C        2.9150    -5.5920     1.2320 C.ar  1 <1>   0.1600 
 16 C        6.3940     1.8440    -0.9420 C.ar  1 <1>   0.1600 
 17 C        6.8840     2.5370     1.2830 C.ar  1 <1>  -0.1500 
 18 N        4.1660    -6.0020     1.1040 N.ar  1 <1>  -0.6200 
 19 C        7.2250     2.5160    -0.0570 C.ar  1 <1>  -0.1440 
 20 C        8.4850     3.2100    -0.5510 C.3   1 <1>   0.2390 
 21 N        8.4530     4.6560    -0.2520 N.pl3 1 <1>   0.0480 
 22 C        9.3780     5.3770     0.4220 C.2   1 <1>   0.0360 
 23 C        7.5140     5.5550    -0.6040 C.2   1 <1>  -0.3020 
 24 N        9.0980     6.6360     0.5190 N.2   1 <1>  -0.5650 
 25 C        7.9230     6.7500    -0.1260 C.2   1 <1>   0.0770 
 26 H        0.3920    -0.5960    -1.2810 H     1 <1>   0.4000 
 27 H        2.5200     0.1830    -1.4470 H     1 <1>   0.0800 
 28 H        1.8050    -1.5470     0.9230 H     1 <1>   0.0800 
 29 H        1.8420     1.2660     1.2670 H     1 <1>   0.0800 
 30 H        2.7250     2.0420    -0.0460 H     1 <1>   0.0800 
 31 H        4.6710    -1.1960     0.2890 H     1 <1>   0.0800 
 32 H        3.8790    -1.3880     1.8370 H     1 <1>   0.0800 
 33 H        3.3540    -2.1200    -1.6260 H     1 <1>   0.0800 
 34 H        1.7270    -2.6340    -1.3000 H     1 <1>   0.0800 
 35 H        5.2010    -3.5400    -0.9150 H     1 <1>   0.1500 
 36 H        1.3610    -4.2000     0.7920 H     1 <1>   0.1500 
 37 H        5.3970     1.8510     2.6610 H     1 <1>   0.1500 
 38 H        5.9540    -5.5560     0.2130 H     1 <1>   0.1500 
 39 H        2.2710    -6.1910     1.8520 H     1 <1>   0.1500 
 40 H        6.6530     1.8280    -1.9870 H     1 <1>   0.1500 
 41 H        7.4830     3.0470     2.0180 H     1 <1>   0.1500 
 42 H        8.5920     3.0880    -1.6130 H     1 <1>   0.0800 
 43 H        9.3440     2.7750    -0.0720 H     1 <1>   0.0800 
 44 H       10.2650     4.9280     0.8340 H     1 <1>   0.1500 
 45 H        6.6260     5.3040    -1.1550 H     1 <1>   0.1500 
 46 H        7.4240     7.7020    -0.2120 H     1 <1>   0.1500 
@<TRIPOS>BOND
  1   1   2  1   
  2   1  26  1   
  3   2   3  1   
  4   2   4  1   
  5   2  27  1   
  6   3   5  1   
  7   3   6  1   
  8   3  28  1   
  9   4   7  1   
 10   4  29  1   
 11   4  30  1   
 12   5   7  1   
 13   5  31  1   
 14   5  32  1   
 15   6   8  1   
 16   6  33  1   
 17   6  34  1   
 18   7   9  1   
 19   8  10  ar  
 20   8  11  ar  
 21   9  12  ar  
 22   9  13  ar  
 23  10  14  ar  
 24  10  35  1   
 25  11  15  ar  
 26  11  36  1   
 27  12  16  ar  
 28  13  17  ar  
 29  13  37  1   
 30  14  18  ar  
 31  14  38  1   
 32  15  18  ar  
 33  15  39  1   
 34  16  19  ar  
 35  16  40  1   
 36  17  19  ar  
 37  17  41  1   
 38  19  20  1   
 39  20  21  1   
 40  20  42  1   
 41  20  43  1   
 42  21  22  1   
 43  21  23  1   
 44  22  24  2   
 45  22  44  1   
 46  23  25  2   
 47  23  45  1   
 48  24  25  1   
 49  25  46  1   
@<TRIPOS>SUBSTRUCTURE
  1 ****   9 GROUP 4 **** **** 0

# MOE 2024.06 (io_trps.svl 2023.06)
