@<TRIPOS>MOLECULE
NONAME
38 39 1 0 0 
SMALL
USER_CHARGES


@<TRIPOS>ATOM
  1 O       -0.1510    -0.4080    -0.9130 O.2   1 <1>  -0.5700 
  2 C        0.6100    -1.3340    -0.7710 C.2   1 <1>   0.5690 
  3 N        1.8650    -1.1570    -0.2780 N.am  1 <1>  -0.7300 
  4 C        0.1590    -2.7280    -1.1850 C.3   1 <1>  -0.0190 
  5 C        2.4250     0.1300     0.1750 C.3   1 <1>   0.1400 
  6 C       -1.3040    -2.9800    -0.8400 C.3   1 <1>   0.2090 
  7 C        0.8900    -3.9030    -0.5220 C.3   1 <1>  -0.1600 
  8 C        3.0730    -0.0760     1.5390 C.3   1 <1>  -0.2400 
  9 N       -1.4170    -4.4580    -0.7080 N.pl3 1 <1>  -0.8380 
 10 C       -0.0760    -5.0760    -0.6450 C.3   1 <1>   0.2090 
 11 C       -2.5730    -5.0690    -0.2680 C.ar  1 <1>   0.4100 
 12 N       -3.5680    -4.2740     0.1160 N.ar  1 <1>  -0.6200 
 13 C       -2.6920    -6.4580    -0.2380 C.ar  1 <1>  -0.1500 
 14 C       -4.6710    -4.8600     0.5380 C.ar  1 <1>   0.1600 
 15 C       -3.8480    -7.0510     0.2060 C.ar  1 <1>  -0.1500 
 16 C       -4.9000    -6.2360     0.6190 C.ar  1 <1>   0.0860 
 17 C       -6.1370    -6.8050     1.0960 C.2   1 <1>   0.4230 
 18 O       -6.3260    -7.9930     1.1750 O.2   1 <1>  -0.5700 
 19 C       -7.2850    -5.9130     1.5290 C.3   1 <1>  -0.1790 
 20 H        2.4870    -1.9600    -0.1900 H     1 <1>   0.3700 
 21 H        0.2590    -2.8040    -2.2520 H     1 <1>   0.0800 
 22 H        1.6440     0.8690     0.2460 H     1 <1>   0.0800 
 23 H        3.1560     0.4730    -0.5390 H     1 <1>   0.0800 
 24 H       -1.9630    -2.6090    -1.6060 H     1 <1>   0.0800 
 25 H       -1.5560    -2.5180     0.1010 H     1 <1>   0.0800 
 26 H        1.0430    -3.7010     0.5240 H     1 <1>   0.0800 
 27 H        1.8340    -4.1170    -0.9880 H     1 <1>   0.0800 
 28 H        2.3390    -0.4150     2.2490 H     1 <1>   0.0800 
 29 H        3.4780     0.8560     1.8890 H     1 <1>   0.0800 
 30 H        3.8730    -0.7920     1.4750 H     1 <1>   0.0800 
 31 H        0.0070    -5.7410     0.1990 H     1 <1>   0.0800 
 32 H        0.1030    -5.6190    -1.5580 H     1 <1>   0.0800 
 33 H       -1.8740    -7.0650    -0.5740 H     1 <1>   0.1500 
 34 H       -5.4540    -4.1910     0.8420 H     1 <1>   0.1500 
 35 H       -3.9510    -8.1230     0.2340 H     1 <1>   0.1500 
 36 H       -6.9840    -5.2980     2.3570 H     1 <1>   0.0800 
 37 H       -8.1190    -6.5170     1.8390 H     1 <1>   0.0800 
 38 H       -7.6020    -5.2930     0.7100 H     1 <1>   0.0800 
@<TRIPOS>BOND
  1   1   2  2   
  2   2   3  am  
  3   2   4  1   
  4   3   5  1   
  5   3  20  1   
  6   4   6  1   
  7   4   7  1   
  8   4  21  1   
  9   5   8  1   
 10   5  22  1   
 11   5  23  1   
 12   6   9  1   
 13   6  24  1   
 14   6  25  1   
 15   7  10  1   
 16   7  26  1   
 17   7  27  1   
 18   8  28  1   
 19   8  29  1   
 20   8  30  1   
 21   9  10  1   
 22   9  11  1   
 23  10  31  1   
 24  10  32  1   
 25  11  12  ar  
 26  11  13  ar  
 27  12  14  ar  
 28  13  15  ar  
 29  13  33  1   
 30  14  16  ar  
 31  14  34  1   
 32  15  16  ar  
 33  15  35  1   
 34  16  17  1   
 35  17  18  2   
 36  17  19  1   
 37  19  36  1   
 38  19  37  1   
 39  19  38  1   
@<TRIPOS>SUBSTRUCTURE
  1 ****   9 GROUP 4 **** **** 0

# MOE 2024.06 (io_trps.svl 2023.06)
