@<TRIPOS>MOLECULE
NONAME
41 44 1 0 0 
SMALL
USER_CHARGES


@<TRIPOS>ATOM
  1 S       -0.2630     0.1970     0.2610 S.3   1 <1>  -0.0800 
  2 C        1.0270    -1.0200     0.1450 C.ar  1 <1>   0.0400 
  3 C        0.8930     1.5110     0.4140 C.2   1 <1>  -0.1100 
  4 C        0.9510    -2.4160    -0.0030 C.ar  1 <1>   0.4100 
  5 C        2.2350    -0.3790     0.2310 C.ar  1 <1>   0.3070 
  6 C        2.1540     1.0420     0.3800 C.2   1 <1>  -0.1500 
  7 N        2.1030    -3.1110    -0.0520 N.ar  1 <1>  -0.6200 
  8 N       -0.1870    -3.1470    -0.1090 N.pl3 1 <1>  -0.8380 
  9 N        3.3490    -1.1450     0.1680 N.ar  1 <1>  -0.1250 
 10 C        3.2400    -2.4830     0.0300 C.ar  1 <1>   0.5280 
 11 C       -1.5870    -2.6360    -0.1700 C.3   1 <1>   0.2090 
 12 C       -0.2020    -4.6350    -0.2330 C.3   1 <1>   0.2090 
 13 C        4.5110    -3.3060    -0.0330 C.3   1 <1>  -0.0970 
 14 C       -2.4660    -3.8640    -0.4190 C.3   1 <1>   0.2000 
 15 C       -1.6430    -5.0590     0.0470 C.3   1 <1>  -0.0800 
 16 O       -3.6570    -3.8040     0.2900 O.3   1 <1>  -0.6800 
 17 C       -2.0590    -6.3700    -0.6430 C.3   1 <1>  -0.0160 
 18 C       -1.2670    -7.5610    -0.1260 C.ar  1 <1>   0.1670 
 19 N       -0.0420    -7.7130    -0.6060 N.ar  1 <1>  -0.6200 
 20 C       -1.8420    -8.4260     0.8040 C.ar  1 <1>   0.1600 
 21 C        0.5590    -8.7790    -0.1020 C.ar  1 <1>   0.1600 
 22 N       -1.2400    -9.4880     1.3130 N.ar  1 <1>  -0.6200 
 23 C       -0.0200    -9.6360     0.8260 C.ar  1 <1>   0.1600 
 24 H        0.4940     2.5080     0.5150 H     1 <1>   0.1500 
 25 H        3.0330     1.6600     0.4560 H     1 <1>   0.1500 
 26 H        4.2690    -0.7130     0.2260 H     1 <1>   0.4570 
 27 H       -1.8410    -2.1760     0.7690 H     1 <1>   0.0800 
 28 H       -1.6990    -1.9340    -0.9770 H     1 <1>   0.0800 
 29 H        0.0880    -4.9080    -1.2350 H     1 <1>   0.0800 
 30 H        0.4760    -5.0960     0.4660 H     1 <1>   0.0800 
 31 H        4.2680    -4.3490    -0.1510 H     1 <1>   0.0800 
 32 H        5.0770    -3.1960     0.8740 H     1 <1>   0.0800 
 33 H        5.1120    -3.0070    -0.8720 H     1 <1>   0.0800 
 34 H       -2.6990    -3.9340    -1.4680 H     1 <1>   0.0800 
 35 H       -1.7390    -5.1670     1.1130 H     1 <1>   0.0800 
 36 H       -3.4850    -3.7620     1.2510 H     1 <1>   0.4000 
 37 H       -1.9130    -6.2890    -1.7060 H     1 <1>   0.0800 
 38 H       -3.1080    -6.5370    -0.4760 H     1 <1>   0.0800 
 39 H       -2.8430    -8.2310     1.1440 H     1 <1>   0.1500 
 40 H        1.5590    -8.9860    -0.4400 H     1 <1>   0.1500 
 41 H        0.5500   -10.4770     1.1780 H     1 <1>   0.1500 
@<TRIPOS>BOND
  1   1   2  1   
  2   1   3  1   
  3   2   4  ar  
  4   2   5  ar  
  5   3   6  2   
  6   3  24  1   
  7   4   7  ar  
  8   4   8  1   
  9   5   6  1   
 10   5   9  ar  
 11   6  25  1   
 12   7  10  ar  
 13   8  11  1   
 14   8  12  1   
 15   9  10  ar  
 16   9  26  1   
 17  10  13  1   
 18  11  14  1   
 19  11  27  1   
 20  11  28  1   
 21  12  15  1   
 22  12  29  1   
 23  12  30  1   
 24  13  31  1   
 25  13  32  1   
 26  13  33  1   
 27  14  15  1   
 28  14  16  1   
 29  14  34  1   
 30  15  17  1   
 31  15  35  1   
 32  16  36  1   
 33  17  18  1   
 34  17  37  1   
 35  17  38  1   
 36  18  19  ar  
 37  18  20  ar  
 38  19  21  ar  
 39  20  22  ar  
 40  20  39  1   
 41  21  23  ar  
 42  21  40  1   
 43  22  23  ar  
 44  23  41  1   
@<TRIPOS>SUBSTRUCTURE
  1 ****  12 GROUP 4 **** **** 0

# MOE 2024.06 (io_trps.svl 2023.06)
