@<TRIPOS>MOLECULE
NONAME
60 63 1 0 0 
SMALL
USER_CHARGES


@<TRIPOS>ATOM
  1 O       -1.5550     1.7550    -1.7640 O.2   1 <1>  -0.5700 
  2 C       -1.7080     1.2750    -0.6610 C.2   1 <1>   0.5690 
  3 N       -2.3370     0.0720    -0.4730 N.am  1 <1>  -0.6600 
  4 C       -1.1430     2.0880     0.5180 C.3   1 <1>   0.4040 
  5 C       -2.9170    -0.6300    -1.6640 C.3   1 <1>   0.1400 
  6 C       -2.5820    -0.5730     0.8540 C.3   1 <1>   0.1400 
  7 N       -0.1330     3.1320     0.0940 N.4   1 <1>  -0.9590 
  8 C       -3.5870    -1.9550    -1.2870 C.3   1 <1>  -0.1600 
  9 C       -4.0640    -0.9240     1.0090 C.3   1 <1>  -0.1600 
 10 C        1.1340     2.4820    -0.3470 C.3   1 <1>   0.3430 
 11 C        0.0160     4.2070     1.1120 C.3   1 <1>   0.3430 
 12 C       -4.6220    -1.7620    -0.1670 C.3   1 <1>   0.4240 
 13 C        2.0870     3.4650    -1.0300 C.3   1 <1>  -0.1600 
 14 C        0.4040     5.5170     0.4290 C.3   1 <1>  -0.1600 
 15 O       -5.6120    -0.9670    -0.7780 O.3   1 <1>  -0.5600 
 16 C       -5.1780    -3.1340     0.3010 C.ar  1 <1>  -0.1440 
 17 C        2.7400     4.4540    -0.0530 C.3   1 <1>  -0.1600 
 18 C        1.9130     5.7190     0.2150 C.3   1 <1>  -0.1600 
 19 C       -6.9030    -1.0330    -0.2650 C.3   1 <1>   0.1200 
 20 C       -4.3600    -4.0820     0.9300 C.ar  1 <1>   0.0820 
 21 C       -6.5200    -3.4470     0.1000 C.ar  1 <1>  -0.1440 
 22 C       -7.4470    -2.4290    -0.5310 C.3   1 <1>  -0.0170 
 23 O       -3.0570    -3.7680     1.1670 O.3   1 <1>  -0.3620 
 24 C       -4.8880    -5.3140     1.3120 C.ar  1 <1>  -0.1500 
 25 C       -7.0330    -4.6750     0.4820 C.ar  1 <1>  -0.1500 
 26 C       -2.1350    -4.7170     1.6610 C.3   1 <1>   0.0400 
 27 C       -6.2160    -5.6100     1.0850 C.ar  1 <1>  -0.1500 
 28 H       -0.6930     1.4130     1.2230 H     1 <1>   0.0800 
 29 H       -1.9760     2.5710     0.9970 H     1 <1>   0.0800 
 30 H       -2.1380    -0.8130    -2.3850 H     1 <1>   0.0800 
 31 H       -3.6460     0.0160    -2.1240 H     1 <1>   0.0800 
 32 H       -2.2910     0.0690     1.6650 H     1 <1>   0.0800 
 33 H       -1.9890    -1.4700     0.9170 H     1 <1>   0.0800 
 34 H       -0.5390     3.5420    -0.7640 H     1 <1>   0.4500 
 35 H       -2.8250    -2.6520    -1.0010 H     1 <1>   0.0800 
 36 H       -4.0780    -2.3710    -2.1480 H     1 <1>   0.0800 
 37 H       -4.6190    -0.0100     1.1120 H     1 <1>   0.0800 
 38 H       -4.1860    -1.4690     1.9260 H     1 <1>   0.0800 
 39 H        0.8990     1.7010    -1.0540 H     1 <1>   0.0800 
 40 H        1.6300     2.0280     0.4960 H     1 <1>   0.0800 
 41 H        0.7470     3.9360     1.8560 H     1 <1>   0.0800 
 42 H       -0.9300     4.3570     1.6060 H     1 <1>   0.0800 
 43 H        1.5970     3.9780    -1.8390 H     1 <1>   0.0800 
 44 H        2.8760     2.8770    -1.4680 H     1 <1>   0.0800 
 45 H        0.0560     6.3300     1.0430 H     1 <1>   0.0800 
 46 H       -0.1140     5.6030    -0.5110 H     1 <1>   0.0800 
 47 H        3.6870     4.7670    -0.4630 H     1 <1>   0.0800 
 48 H        2.9600     3.9560     0.8770 H     1 <1>   0.0800 
 49 H        2.3280     6.2040     1.0830 H     1 <1>   0.0800 
 50 H        2.0460     6.4020    -0.6080 H     1 <1>   0.0800 
 51 H       -7.4980    -0.2910    -0.7680 H     1 <1>   0.0800 
 52 H       -6.8780    -0.8180     0.7900 H     1 <1>   0.0800 
 53 H       -7.5120    -2.5970    -1.5910 H     1 <1>   0.0800 
 54 H       -8.4340    -2.5100    -0.1110 H     1 <1>   0.0800 
 55 H       -4.2850    -6.0610     1.7910 H     1 <1>   0.1500 
 56 H       -8.0700    -4.9080     0.3140 H     1 <1>   0.1500 
 57 H       -1.1650    -4.2570     1.6950 H     1 <1>   0.0800 
 58 H       -2.1140    -5.5630     0.9960 H     1 <1>   0.0800 
 59 H       -2.4340    -5.0120     2.6520 H     1 <1>   0.0800 
 60 H       -6.6170    -6.5640     1.3800 H     1 <1>   0.1500 
@<TRIPOS>BOND
  1   1   2  2   
  2   2   3  am  
  3   2   4  1   
  4   3   5  1   
  5   3   6  1   
  6   4   7  1   
  7   4  28  1   
  8   4  29  1   
  9   5   8  1   
 10   5  30  1   
 11   5  31  1   
 12   6   9  1   
 13   6  32  1   
 14   6  33  1   
 15   7  10  1   
 16   7  11  1   
 17   7  34  1   
 18   8  12  1   
 19   8  35  1   
 20   8  36  1   
 21   9  12  1   
 22   9  37  1   
 23   9  38  1   
 24  10  13  1   
 25  10  39  1   
 26  10  40  1   
 27  11  14  1   
 28  11  41  1   
 29  11  42  1   
 30  12  15  1   
 31  12  16  1   
 32  13  17  1   
 33  13  43  1   
 34  13  44  1   
 35  14  18  1   
 36  14  45  1   
 37  14  46  1   
 38  15  19  1   
 39  16  20  ar  
 40  16  21  ar  
 41  17  18  1   
 42  17  47  1   
 43  17  48  1   
 44  18  49  1   
 45  18  50  1   
 46  19  22  1   
 47  19  51  1   
 48  19  52  1   
 49  20  23  1   
 50  20  24  ar  
 51  21  22  1   
 52  21  25  ar  
 53  22  53  1   
 54  22  54  1   
 55  23  26  1   
 56  24  27  ar  
 57  24  55  1   
 58  25  27  ar  
 59  25  56  1   
 60  26  57  1   
 61  26  58  1   
 62  26  59  1   
 63  27  60  1   
@<TRIPOS>SUBSTRUCTURE
  1 ****   6 GROUP 4 **** **** 0

# MOE 2024.06 (io_trps.svl 2023.06)
