@<TRIPOS>MOLECULE
NONAME
48 51 1 0 0 
SMALL
USER_CHARGES


@<TRIPOS>ATOM
  1 S       -1.6390     2.0850    -1.6740 S.3   1 <1>  -0.0800 
  2 C       -0.8000     2.9890    -0.4310 C.2   1 <1>  -0.1400 
  3 C       -0.2530     2.2370    -2.7450 C.2   1 <1>  -0.1100 
  4 C        0.4290     3.3510    -0.8180 C.2   1 <1>  -0.1810 
  5 C       -1.4230     3.3050     0.9020 C.3   1 <1>   0.0200 
  6 C        0.7430     2.9250    -2.1530 C.2   1 <1>  -0.1500 
  7 C        1.3500     4.1380     0.1180 C.3   1 <1>   0.4610 
  8 C       -0.6060     4.4480     1.5260 C.3   1 <1>   0.1200 
  9 O        0.7770     4.2070     1.4120 O.3   1 <1>  -0.5600 
 10 C        2.6880     3.4100     0.2880 C.3   1 <1>  -0.1600 
 11 C        1.5820     5.5630    -0.4050 C.3   1 <1>  -0.1600 
 12 C        3.6590     4.2070     1.1600 C.3   1 <1>   0.1400 
 13 C        2.5610     6.3370     0.4800 C.3   1 <1>   0.1400 
 14 N        3.8340     5.5700     0.5840 N.am  1 <1>  -0.6600 
 15 C        5.0800     6.0570     0.2560 C.2   1 <1>   0.5690 
 16 O        6.0710     5.3670     0.3470 O.2   1 <1>  -0.5700 
 17 C        5.2750     7.4720    -0.2850 C.3   1 <1>   0.1810 
 18 O        4.8370     8.4530     0.6440 O.3   1 <1>  -0.3630 
 19 C        4.7740     9.7630     0.2990 C.ar  1 <1>   0.0820 
 20 C        5.2690    10.2750    -0.8970 C.ar  1 <1>  -0.1500 
 21 C        4.1720    10.6180     1.2070 C.ar  1 <1>  -0.1500 
 22 C        5.1490    11.6260    -1.1730 C.ar  1 <1>  -0.1500 
 23 C        4.0540    11.9680     0.9280 C.ar  1 <1>  -0.1500 
 24 C        4.5400    12.4790    -0.2660 C.ar  1 <1>  -0.1430 
 25 C        4.4120    13.9600    -0.5720 C.3   1 <1>  -0.0970 
 26 H       -0.3330     1.7880    -3.7190 H     1 <1>   0.1500 
 27 H       -1.3960     2.4370     1.5350 H     1 <1>   0.0800 
 28 H       -2.4450     3.6130     0.7770 H     1 <1>   0.0800 
 29 H        1.6930     3.1490    -2.6040 H     1 <1>   0.1500 
 30 H       -0.8380     4.5410     2.5720 H     1 <1>   0.0800 
 31 H       -0.8320     5.3790     1.0390 H     1 <1>   0.0800 
 32 H        3.1460     3.2550    -0.6710 H     1 <1>   0.0800 
 33 H        2.5120     2.4440     0.7240 H     1 <1>   0.0800 
 34 H        0.6500     6.0890    -0.4740 H     1 <1>   0.0800 
 35 H        1.9890     5.5110    -1.3980 H     1 <1>   0.0800 
 36 H        4.6020     3.6900     1.2170 H     1 <1>   0.0800 
 37 H        3.2690     4.2960     2.1600 H     1 <1>   0.0800 
 38 H        2.1460     6.4610     1.4660 H     1 <1>   0.0800 
 39 H        2.7190     7.3130     0.0610 H     1 <1>   0.0800 
 40 H        4.7130     7.5820    -1.1930 H     1 <1>   0.0800 
 41 H        6.3180     7.6400    -0.4780 H     1 <1>   0.0800 
 42 H        5.7520     9.6470    -1.6200 H     1 <1>   0.1500 
 43 H        3.7980    10.2210     2.1330 H     1 <1>   0.1500 
 44 H        5.5350    12.0150    -2.0990 H     1 <1>   0.1500 
 45 H        3.5850    12.6190     1.6440 H     1 <1>   0.1500 
 46 H        4.3320    14.1200    -1.6320 H     1 <1>   0.0800 
 47 H        5.2770    14.4830    -0.2060 H     1 <1>   0.0800 
 48 H        3.5350    14.3680    -0.1020 H     1 <1>   0.0800 
@<TRIPOS>BOND
  1   1   2  1   
  2   1   3  1   
  3   2   4  2   
  4   2   5  1   
  5   3   6  2   
  6   3  26  1   
  7   4   6  1   
  8   4   7  1   
  9   5   8  1   
 10   5  27  1   
 11   5  28  1   
 12   6  29  1   
 13   7   9  1   
 14   7  10  1   
 15   7  11  1   
 16   8   9  1   
 17   8  30  1   
 18   8  31  1   
 19  10  12  1   
 20  10  32  1   
 21  10  33  1   
 22  11  13  1   
 23  11  34  1   
 24  11  35  1   
 25  12  14  1   
 26  12  36  1   
 27  12  37  1   
 28  13  14  1   
 29  13  38  1   
 30  13  39  1   
 31  14  15  am  
 32  15  16  2   
 33  15  17  1   
 34  17  18  1   
 35  17  40  1   
 36  17  41  1   
 37  18  19  1   
 38  19  20  ar  
 39  19  21  ar  
 40  20  22  ar  
 41  20  42  1   
 42  21  23  ar  
 43  21  43  1   
 44  22  24  ar  
 45  22  44  1   
 46  23  24  ar  
 47  23  45  1   
 48  24  25  1   
 49  25  46  1   
 50  25  47  1   
 51  25  48  1   
@<TRIPOS>SUBSTRUCTURE
  1 ****  13 GROUP 4 **** **** 0

# MOE 2024.06 (io_trps.svl 2023.06)
