@<TRIPOS>MOLECULE
NONAME
44 46 1 0 0 
SMALL
USER_CHARGES


@<TRIPOS>ATOM
  1 S       -2.2010    -0.2840     1.0490 S.3   1 <1>  -0.0800 
  2 C       -1.1350     0.9140     0.4190 C.2   1 <1>   0.4340 
  3 C       -1.7040    -1.2740    -0.2890 C.2   1 <1>   0.4420 
  4 S       -1.0310     2.4540     1.3160 S.3   1 <1>  -0.2860 
  5 N       -0.5210     0.5760    -0.6400 N.2   1 <1>  -0.3380 
  6 N       -0.8480    -0.6890    -1.0500 N.2   1 <1>  -0.3380 
  7 N       -2.2690    -2.5290    -0.3680 N.am  1 <1>  -0.4940 
  8 C        0.1860     3.4290     0.3310 C.3   1 <1>   0.0700 
  9 C       -2.1140    -3.5120    -1.2990 C.2   1 <1>   0.5690 
 10 C        0.3620     4.7870     1.0070 C.3   1 <1>  -0.2400 
 11 O       -1.4260    -3.4190    -2.2830 O.2   1 <1>  -0.5700 
 12 C       -2.8870    -4.8070    -1.0500 C.3   1 <1>   0.1710 
 13 N       -4.1400    -4.6070    -0.2590 N.3   1 <1>  -0.8100 
 14 C       -4.7270    -5.8920     0.2040 C.3   1 <1>   0.1100 
 15 C       -5.1880    -3.9010    -1.0230 C.3   1 <1>   0.1100 
 16 C       -6.0660    -6.0880    -0.5170 C.3   1 <1>   0.4240 
 17 C       -6.4920    -4.6450    -0.7450 C.3   1 <1>  -0.1600 
 18 O       -5.8080    -6.6380    -1.7610 O.3   1 <1>  -0.6800 
 19 C       -7.0470    -7.0050     0.2270 C.ar  1 <1>  -0.1440 
 20 C       -8.3500    -6.6210     0.5290 C.ar  1 <1>  -0.1500 
 21 C       -6.6270    -8.2720     0.6150 C.ar  1 <1>  -0.1500 
 22 C       -9.1980    -7.4720     1.2160 C.ar  1 <1>  -0.1500 
 23 C       -7.4730    -9.1250     1.3020 C.ar  1 <1>  -0.1500 
 24 C       -8.7600    -8.7240     1.6070 C.ar  1 <1>  -0.1500 
 25 H       -2.9490    -2.7790     0.3510 H     1 <1>   0.3700 
 26 H       -0.2100     3.5250    -0.6650 H     1 <1>   0.0800 
 27 H        1.1050     2.8690     0.3100 H     1 <1>   0.0800 
 28 H       -0.5770     5.3090     1.0400 H     1 <1>   0.0800 
 29 H        1.0680     5.3810     0.4540 H     1 <1>   0.0800 
 30 H        0.7300     4.6580     2.0090 H     1 <1>   0.0800 
 31 H       -2.2310    -5.4660    -0.5110 H     1 <1>   0.0800 
 32 H       -3.1110    -5.2670    -1.9960 H     1 <1>   0.0800 
 33 H       -4.9220    -5.8070     1.2590 H     1 <1>   0.0800 
 34 H       -4.0730    -6.7320     0.0480 H     1 <1>   0.0800 
 35 H       -4.9760    -3.9330    -2.0800 H     1 <1>   0.0800 
 36 H       -5.2560    -2.8710    -0.7160 H     1 <1>   0.0800 
 37 H       -7.2090    -4.5460    -1.5400 H     1 <1>   0.0800 
 38 H       -6.9140    -4.2450     0.1590 H     1 <1>   0.0800 
 39 H       -5.1610    -6.0700    -2.2130 H     1 <1>   0.4000 
 40 H       -8.7300    -5.6610     0.2320 H     1 <1>   0.1500 
 41 H       -5.6340    -8.6080     0.3740 H     1 <1>   0.1500 
 42 H      -10.2030    -7.1610     1.4450 H     1 <1>   0.1500 
 43 H       -7.1310   -10.1020     1.5960 H     1 <1>   0.1500 
 44 H       -9.4200    -9.3850     2.1410 H     1 <1>   0.1500 
@<TRIPOS>BOND
  1   1   2  1   
  2   1   3  1   
  3   2   4  1   
  4   2   5  2   
  5   3   6  2   
  6   3   7  1   
  7   4   8  1   
  8   5   6  1   
  9   7   9  am  
 10   7  25  1   
 11   8  10  1   
 12   8  26  1   
 13   8  27  1   
 14   9  11  2   
 15   9  12  1   
 16  10  28  1   
 17  10  29  1   
 18  10  30  1   
 19  12  13  1   
 20  12  31  1   
 21  12  32  1   
 22  13  14  1   
 23  13  15  1   
 24  14  16  1   
 25  14  33  1   
 26  14  34  1   
 27  15  17  1   
 28  15  35  1   
 29  15  36  1   
 30  16  17  1   
 31  16  18  1   
 32  16  19  1   
 33  17  37  1   
 34  17  38  1   
 35  18  39  1   
 36  19  20  ar  
 37  19  21  ar  
 38  20  22  ar  
 39  20  40  1   
 40  21  23  ar  
 41  21  41  1   
 42  22  24  ar  
 43  22  42  1   
 44  23  24  ar  
 45  23  43  1   
 46  24  44  1   
@<TRIPOS>SUBSTRUCTURE
  1 ****  13 GROUP 4 **** **** 0

# MOE 2024.06 (io_trps.svl 2023.06)
