@<TRIPOS>MOLECULE
NONAME
46 48 1 0 0 
SMALL
USER_CHARGES


@<TRIPOS>ATOM
  1 F       -2.6440     1.1310    -2.0960 F     1 <1>  -0.3400 
  2 C       -2.7480     0.6070    -0.8810 C.3   1 <1>   1.1640 
  3 F       -3.1860    -0.6350    -1.0470 F     1 <1>  -0.3400 
  4 F       -1.5100     0.5040    -0.4130 F     1 <1>  -0.3400 
  5 C       -3.6530     1.4550     0.0280 C.ar  1 <1>  -0.1440 
  6 C       -4.9830     1.1100     0.2490 C.ar  1 <1>  -0.1500 
  7 C       -3.1540     2.5960     0.6470 C.ar  1 <1>  -0.1500 
  8 C       -5.8200     1.8700     1.0630 C.ar  1 <1>   0.0860 
  9 C       -3.9610     3.3620     1.4680 C.ar  1 <1>  -0.1500 
 10 C       -7.2040     1.4860     1.2670 C.2   1 <1>   0.5440 
 11 C       -5.2780     2.9980     1.6750 C.ar  1 <1>  -0.1500 
 12 O       -7.4460     0.3560     1.6500 O.2   1 <1>  -0.5700 
 13 N       -8.2480     2.3560     1.0240 N.am  1 <1>  -0.6600 
 14 C       -9.6510     2.0380     1.4390 C.3   1 <1>   0.1400 
 15 C       -8.1330     3.5920     0.2040 C.3   1 <1>   0.1400 
 16 C      -10.5780     1.8810     0.2070 C.3   1 <1>   0.0000 
 17 C       -9.0230     3.4750    -1.0390 C.3   1 <1>  -0.1600 
 18 C      -12.0290     1.5990     0.6320 C.3   1 <1>   0.2000 
 19 C      -10.4800     3.1450    -0.6740 C.3   1 <1>  -0.1600 
 20 C      -10.2290     0.5970    -0.5670 C.3   1 <1>  -0.1600 
 21 O      -12.4050     2.3780     1.7290 O.3   1 <1>  -0.5600 
 22 C      -12.0830     0.1040     0.9600 C.3   1 <1>  -0.1600 
 23 C      -10.9210    -0.5400     0.1910 C.3   1 <1>  -0.1600 
 24 C      -13.7730     2.4080     1.9880 C.3   1 <1>   0.0400 
 25 H       -5.4040     0.2310    -0.2110 H     1 <1>   0.1500 
 26 H       -2.1290     2.8950     0.4940 H     1 <1>   0.1500 
 27 H       -3.5620     4.2390     1.9480 H     1 <1>   0.1500 
 28 H       -5.9030     3.5900     2.3220 H     1 <1>   0.1500 
 29 H       -9.6750     1.1460     2.0400 H     1 <1>   0.0800 
 30 H      -10.0080     2.8440     2.0560 H     1 <1>   0.0800 
 31 H       -8.4470     4.4330     0.7980 H     1 <1>   0.0800 
 32 H       -7.1170     3.7580    -0.1070 H     1 <1>   0.0800 
 33 H       -8.9920     4.4030    -1.5830 H     1 <1>   0.0800 
 34 H       -8.6240     2.7100    -1.6810 H     1 <1>   0.0800 
 35 H      -12.6860     1.8160    -0.1950 H     1 <1>   0.0800 
 36 H      -11.0580     3.0190    -1.5720 H     1 <1>   0.0800 
 37 H      -10.8990     3.9750    -0.1310 H     1 <1>   0.0800 
 38 H      -10.6390     0.6510    -1.5610 H     1 <1>   0.0800 
 39 H       -9.1690     0.4300    -0.6440 H     1 <1>   0.0800 
 40 H      -11.9410    -0.0510     2.0160 H     1 <1>   0.0800 
 41 H      -13.0240    -0.3170     0.6550 H     1 <1>   0.0800 
 42 H      -10.2270    -0.9800     0.8880 H     1 <1>   0.0800 
 43 H      -11.2640    -1.3040    -0.4860 H     1 <1>   0.0800 
 44 H      -13.9380     3.0520     2.8340 H     1 <1>   0.0800 
 45 H      -14.1160     1.4150     2.2200 H     1 <1>   0.0800 
 46 H      -14.2900     2.7990     1.1290 H     1 <1>   0.0800 
@<TRIPOS>BOND
  1   1   2  1   
  2   2   3  1   
  3   2   4  1   
  4   2   5  1   
  5   5   6  ar  
  6   5   7  ar  
  7   6   8  ar  
  8   6  25  1   
  9   7   9  ar  
 10   7  26  1   
 11   8  10  1   
 12   8  11  ar  
 13   9  11  ar  
 14   9  27  1   
 15  10  12  2   
 16  10  13  am  
 17  11  28  1   
 18  13  14  1   
 19  13  15  1   
 20  14  16  1   
 21  14  29  1   
 22  14  30  1   
 23  15  17  1   
 24  15  31  1   
 25  15  32  1   
 26  16  18  1   
 27  16  19  1   
 28  16  20  1   
 29  17  19  1   
 30  17  33  1   
 31  17  34  1   
 32  18  21  1   
 33  18  22  1   
 34  18  35  1   
 35  19  36  1   
 36  19  37  1   
 37  20  23  1   
 38  20  38  1   
 39  20  39  1   
 40  21  24  1   
 41  22  23  1   
 42  22  40  1   
 43  22  41  1   
 44  23  42  1   
 45  23  43  1   
 46  24  44  1   
 47  24  45  1   
 48  24  46  1   
@<TRIPOS>SUBSTRUCTURE
  1 ****  10 GROUP 4 **** **** 0

# MOE 2024.06 (io_trps.svl 2023.06)
