@<TRIPOS>MOLECULE
NONAME
35 37 1 0 0 
SMALL
USER_CHARGES


@<TRIPOS>ATOM
  1 O        0.2610    -0.3750     0.9560 O.2   1 <1>  -0.5700 
  2 C        1.1480     0.2500     0.4030 C.2   1 <1>   0.5440 
  3 N        0.8840     1.5300    -0.0090 N.am  1 <1>  -0.7300 
  4 C        2.4530    -0.3300     0.1820 C.ar  1 <1>   0.0860 
  5 C       -0.4100     2.2410     0.1580 C.3   1 <1>   0.0600 
  6 C        2.6040    -1.6680    -0.2340 C.ar  1 <1>   0.4100 
  7 C        3.6080     0.4190     0.3700 C.ar  1 <1>  -0.1500 
  8 N        3.7800    -2.2490    -0.4610 N.ar  1 <1>  -0.6200 
  9 N        1.5080    -2.4660    -0.4400 N.pl3 1 <1>  -0.8690 
 10 C        4.8230    -0.1830     0.1350 C.ar  1 <1>  -0.1500 
 11 C        4.8510    -1.5030    -0.2760 C.ar  1 <1>   0.1600 
 12 C        1.5910    -3.9510    -0.4990 C.3   1 <1>   0.3890 
 13 C        0.2180    -4.5960    -0.6460 C.2   1 <1>   0.2980 
 14 O       -0.4460    -4.4010    -1.7590 O.3   1 <1>  -0.0190 
 15 N       -0.3660    -5.3280     0.2190 N.2   1 <1>  -0.5650 
 16 N       -1.5510    -5.0610    -1.5850 N.2   1 <1>  -0.4100 
 17 C       -1.4920    -5.5920    -0.4290 C.2   1 <1>   0.4300 
 18 C       -2.5740    -6.4500     0.2070 C.3   1 <1>  -0.0140 
 19 C       -2.4460    -7.9440     0.2210 C.3   1 <1>  -0.2000 
 20 C       -3.5020    -7.2910    -0.6190 C.3   1 <1>  -0.2000 
 21 H        1.5800     2.0110    -0.5820 H     1 <1>   0.3700 
 22 H       -1.0730     1.6760     0.7920 H     1 <1>   0.0800 
 23 H       -0.8790     2.3740    -0.8010 H     1 <1>   0.0800 
 24 H       -0.2420     3.2040     0.6080 H     1 <1>   0.0800 
 25 H        3.5550     1.4420     0.7000 H     1 <1>   0.1500 
 26 H        0.6410    -2.1160     0.0010 H     1 <1>   0.4000 
 27 H        5.7420     0.3590     0.2680 H     1 <1>   0.1500 
 28 H        5.8060    -1.9670    -0.4580 H     1 <1>   0.1500 
 29 H        2.0530    -4.3130     0.4030 H     1 <1>   0.0800 
 30 H        2.2060    -4.2400    -1.3330 H     1 <1>   0.0800 
 31 H       -2.9800    -5.9810     1.0850 H     1 <1>   0.1000 
 32 H       -2.7360    -8.4720     1.1120 H     1 <1>   0.1000 
 33 H       -1.5940    -8.3870    -0.2650 H     1 <1>   0.1000 
 34 H       -3.3840    -7.2860    -1.6890 H     1 <1>   0.1000 
 35 H       -4.5310    -7.3640    -0.3170 H     1 <1>   0.1000 
@<TRIPOS>BOND
  1   1   2  2   
  2   2   3  am  
  3   2   4  1   
  4   3   5  1   
  5   3  21  1   
  6   4   6  ar  
  7   4   7  ar  
  8   5  22  1   
  9   5  23  1   
 10   5  24  1   
 11   6   8  ar  
 12   6   9  1   
 13   7  10  ar  
 14   7  25  1   
 15   8  11  ar  
 16   9  12  1   
 17   9  26  1   
 18  10  11  ar  
 19  10  27  1   
 20  11  28  1   
 21  12  13  1   
 22  12  29  1   
 23  12  30  1   
 24  13  14  1   
 25  13  15  2   
 26  14  16  1   
 27  15  17  1   
 28  16  17  2   
 29  17  18  1   
 30  18  19  1   
 31  18  20  1   
 32  18  31  1   
 33  19  20  1   
 34  19  32  1   
 35  19  33  1   
 36  20  34  1   
 37  20  35  1   
@<TRIPOS>SUBSTRUCTURE
  1 ****   9 GROUP 4 **** **** 0

# MOE 2024.06 (io_trps.svl 2023.06)
