@<TRIPOS>MOLECULE
NONAME
57 60 1 0 0 
SMALL
USER_CHARGES


@<TRIPOS>ATOM
  1 F       -1.3530    -0.2570    -0.1050 F     1 <1>  -0.1900 
  2 C       -2.5820     0.1770     0.0120 C.ar  1 <1>   0.1900 
  3 C       -3.1010     1.1720    -0.8230 C.ar  1 <1>   0.0820 
  4 C       -3.3450    -0.4030     1.0070 C.ar  1 <1>  -0.1500 
  5 O       -2.4500     1.8190    -1.8320 O.3   1 <1>  -0.3630 
  6 C       -4.4160     1.5570    -0.6240 C.ar  1 <1>  -0.1500 
  7 C       -4.6550     0.0040     1.1800 C.ar  1 <1>  -0.1500 
  8 C       -1.0830     1.6200    -2.1190 C.3   1 <1>   0.0400 
  9 C       -5.2210     0.9870     0.3640 C.ar  1 <1>   0.0530 
 10 C       -6.5910     1.3990     0.5290 C.2   1 <1>   0.0870 
 11 O       -6.9660     2.6220     0.2570 O.3   1 <1>  -0.0190 
 12 C       -7.7020     0.7270     0.9220 C.2   1 <1>  -0.0860 
 13 N       -8.2460     2.8130     0.4470 N.2   1 <1>  -0.4100 
 14 C       -8.7140     1.6880     0.8590 C.2   1 <1>   0.3720 
 15 C       -7.8630    -0.6560     1.2180 C.2   1 <1>   0.7160 
 16 N      -10.0670     1.4760     1.1950 N.pl3 1 <1>  -0.8210 
 17 O       -8.1690    -1.0370     2.3320 O.2   1 <1>  -0.5700 
 18 N       -7.7230    -1.5790     0.2160 N.am  1 <1>  -0.6600 
 19 C      -10.9860     2.4640     0.5390 C.3   1 <1>   0.1290 
 20 C      -10.2310     1.5560     2.6800 C.3   1 <1>   0.1290 
 21 C       -7.7540    -3.0510     0.4350 C.3   1 <1>   0.2350 
 22 C       -8.1480    -1.2720    -1.1710 C.3   1 <1>   0.2350 
 23 C       -8.8120    -3.5340    -0.5570 C.3   1 <1>  -0.1950 
 24 C       -9.0760    -2.4300    -1.5170 C.3   1 <1>  -0.1950 
 25 C      -10.1930    -2.9460    -0.6460 C.3   1 <1>  -0.1950 
 26 C      -10.7730    -2.3100     0.6300 C.3   1 <1>   0.4380 
 27 N      -11.4760    -1.0120     0.3900 N.4   1 <1>  -0.9590 
 28 C      -12.4780    -0.7900     1.4690 C.3   1 <1>   0.2630 
 29 C      -12.1080    -0.8860    -0.9580 C.3   1 <1>   0.2630 
 30 H       -2.9160    -1.1620     1.6370 H     1 <1>   0.1500 
 31 H       -4.8230     2.3230    -1.2600 H     1 <1>   0.1500 
 32 H       -5.2400    -0.4440     1.9650 H     1 <1>   0.1500 
 33 H       -0.8100     2.2810    -2.9210 H     1 <1>   0.0800 
 34 H       -0.9340     0.5990    -2.4230 H     1 <1>   0.0800 
 35 H       -0.5030     1.8510    -1.2430 H     1 <1>   0.0800 
 36 H      -12.0130     2.2000     0.7190 H     1 <1>   0.0800 
 37 H      -10.8120     2.4810    -0.5230 H     1 <1>   0.0800 
 38 H      -10.8090     3.4540     0.9280 H     1 <1>   0.0800 
 39 H      -11.2730     1.5550     2.9490 H     1 <1>   0.0800 
 40 H       -9.7810     2.4620     3.0530 H     1 <1>   0.0800 
 41 H       -9.7520     0.7190     3.1560 H     1 <1>   0.0800 
 42 H       -6.7900    -3.4660     0.1900 H     1 <1>   0.0800 
 43 H       -8.0070    -3.3100     1.4500 H     1 <1>   0.0800 
 44 H       -8.6610    -0.3290    -1.2460 H     1 <1>   0.0800 
 45 H       -7.2860    -1.2690    -1.8180 H     1 <1>   0.0800 
 46 H       -8.6640    -4.5410    -0.9120 H     1 <1>   0.1000 
 47 H       -9.1190    -2.6490    -2.5710 H     1 <1>   0.1000 
 48 H      -10.9310    -3.5600    -1.1350 H     1 <1>   0.1000 
 49 H       -9.9840    -2.1470     1.3440 H     1 <1>   0.0800 
 50 H      -11.4570    -3.0170     1.0710 H     1 <1>   0.0800 
 51 H      -10.7660    -0.2500     0.4970 H     1 <1>   0.4500 
 52 H      -13.2460    -1.5450     1.4310 H     1 <1>   0.0800 
 53 H      -12.9370     0.1790     1.3550 H     1 <1>   0.0800 
 54 H      -11.9980    -0.8290     2.4330 H     1 <1>   0.0800 
 55 H      -12.8330    -1.6690    -1.1070 H     1 <1>   0.0800 
 56 H      -11.3580    -0.9580    -1.7290 H     1 <1>   0.0800 
 57 H      -12.6010     0.0680    -1.0510 H     1 <1>   0.0800 
@<TRIPOS>BOND
  1   1   2  1   
  2   2   3  ar  
  3   2   4  ar  
  4   3   5  1   
  5   3   6  ar  
  6   4   7  ar  
  7   4  30  1   
  8   5   8  1   
  9   6   9  ar  
 10   6  31  1   
 11   7   9  ar  
 12   7  32  1   
 13   8  33  1   
 14   8  34  1   
 15   8  35  1   
 16   9  10  1   
 17  10  11  1   
 18  10  12  2   
 19  11  13  1   
 20  12  14  1   
 21  12  15  1   
 22  13  14  2   
 23  14  16  1   
 24  15  17  2   
 25  15  18  am  
 26  16  19  1   
 27  16  20  1   
 28  18  21  1   
 29  18  22  1   
 30  19  36  1   
 31  19  37  1   
 32  19  38  1   
 33  20  39  1   
 34  20  40  1   
 35  20  41  1   
 36  21  23  1   
 37  21  42  1   
 38  21  43  1   
 39  22  24  1   
 40  22  44  1   
 41  22  45  1   
 42  23  24  1   
 43  23  25  1   
 44  23  46  1   
 45  24  25  1   
 46  24  47  1   
 47  25  26  1   
 48  25  48  1   
 49  26  27  1   
 50  26  49  1   
 51  26  50  1   
 52  27  28  1   
 53  27  29  1   
 54  27  51  1   
 55  28  52  1   
 56  28  53  1   
 57  28  54  1   
 58  29  55  1   
 59  29  56  1   
 60  29  57  1   
@<TRIPOS>SUBSTRUCTURE
  1 ****  12 GROUP 4 **** **** 0

# MOE 2024.06 (io_trps.svl 2023.06)
