@<TRIPOS>MOLECULE
NONAME
45 46 1 0 0 
SMALL
USER_CHARGES


@<TRIPOS>ATOM
  1 F       -0.9880     2.9280     2.0970 F     1 <1>  -0.3400 
  2 C       -1.5280     2.0610     1.2530 C.3   1 <1>   1.2000 
  3 F       -0.5220     1.5050     0.5920 F     1 <1>  -0.3400 
  4 F       -2.0660     1.1020     1.9940 F     1 <1>  -0.3400 
  5 C       -2.5310     2.7080     0.3220 C.2   1 <1>  -0.3320 
  6 N       -2.2210     3.7090    -0.5320 N.pl3 1 <1>   0.3140 
  7 C       -3.8460     2.4350     0.1500 C.2   1 <1>  -0.1500 
  8 N       -3.2990     4.0670    -1.2540 N.2   1 <1>  -0.7070 
  9 C       -0.9180     4.3810    -0.7750 C.3   1 <1>   0.0960 
 10 C       -4.2630     3.3110    -0.8390 C.2   1 <1>   0.1080 
 11 C       -0.9340     5.8730    -0.3830 C.3   1 <1>  -0.0800 
 12 C       -5.6630     3.4050    -1.3990 C.3   1 <1>  -0.0590 
 13 C        0.4050     6.4980    -0.8050 C.3   1 <1>   0.2090 
 14 C       -1.2060     6.0690     1.1230 C.3   1 <1>  -0.2400 
 15 N        0.4080     7.9550    -0.5660 N.pl3 1 <1>  -0.8690 
 16 C        1.5440     8.7290    -0.6120 C.ar  1 <1>   0.4100 
 17 N        2.5920     8.1720    -1.2190 N.ar  1 <1>  -0.6200 
 18 C        1.5580    10.0230    -0.0530 C.ar  1 <1>   0.0860 
 19 C        3.6930     8.8920    -1.2780 C.ar  1 <1>   0.1600 
 20 C        0.3890    10.5910     0.5800 C.2   1 <1>   0.5440 
 21 C        2.7420    10.7460    -0.1330 C.ar  1 <1>  -0.1500 
 22 C        3.8220    10.1660    -0.7580 C.ar  1 <1>  -0.1500 
 23 O       -0.3300     9.9270     1.3060 O.2   1 <1>  -0.5700 
 24 N        0.0680    11.9080     0.3750 N.am  1 <1>  -0.7300 
 25 C       -1.0980    12.6150     0.9650 C.3   1 <1>   0.0600 
 26 H       -4.4600     1.7040     0.6490 H     1 <1>   0.1500 
 27 H       -0.7100     4.2940    -1.8260 H     1 <1>   0.0800 
 28 H       -0.1400     3.8730    -0.2390 H     1 <1>   0.0800 
 29 H       -1.7120     6.3560    -0.9500 H     1 <1>   0.0800 
 30 H       -6.3090     2.6920    -0.9210 H     1 <1>   0.0800 
 31 H       -5.6400     3.2080    -2.4550 H     1 <1>   0.0800 
 32 H       -6.0470     4.3950    -1.2370 H     1 <1>   0.0800 
 33 H        0.5790     6.3270    -1.8550 H     1 <1>   0.0800 
 34 H        1.2130     6.0480    -0.2520 H     1 <1>   0.0800 
 35 H       -0.4260     5.6230     1.7140 H     1 <1>   0.0800 
 36 H       -2.1470     5.6290     1.3990 H     1 <1>   0.0800 
 37 H       -1.2570     7.1160     1.3680 H     1 <1>   0.0800 
 38 H       -0.2940     8.2760     0.1190 H     1 <1>   0.4000 
 39 H        4.5420     8.4440    -1.7670 H     1 <1>   0.1500 
 40 H        2.8160    11.7320     0.2910 H     1 <1>   0.1500 
 41 H        4.7580    10.6900    -0.8420 H     1 <1>   0.1500 
 42 H        0.5930    12.4330    -0.3270 H     1 <1>   0.3700 
 43 H       -1.5780    11.9990     1.7070 H     1 <1>   0.0800 
 44 H       -1.8110    12.8450     0.1930 H     1 <1>   0.0800 
 45 H       -0.7720    13.5270     1.4330 H     1 <1>   0.0800 
@<TRIPOS>BOND
  1   1   2  1   
  2   2   3  1   
  3   2   4  1   
  4   2   5  1   
  5   5   6  1   
  6   5   7  2   
  7   6   8  1   
  8   6   9  1   
  9   7  10  1   
 10   7  26  1   
 11   8  10  2   
 12   9  11  1   
 13   9  27  1   
 14   9  28  1   
 15  10  12  1   
 16  11  13  1   
 17  11  14  1   
 18  11  29  1   
 19  12  30  1   
 20  12  31  1   
 21  12  32  1   
 22  13  15  1   
 23  13  33  1   
 24  13  34  1   
 25  14  35  1   
 26  14  36  1   
 27  14  37  1   
 28  15  16  1   
 29  15  38  1   
 30  16  17  ar  
 31  16  18  ar  
 32  17  19  ar  
 33  18  20  1   
 34  18  21  ar  
 35  19  22  ar  
 36  19  39  1   
 37  20  23  2   
 38  20  24  am  
 39  21  22  ar  
 40  21  40  1   
 41  22  41  1   
 42  24  25  1   
 43  24  42  1   
 44  25  43  1   
 45  25  44  1   
 46  25  45  1   
@<TRIPOS>SUBSTRUCTURE
  1 ****  11 GROUP 4 **** **** 0

# MOE 2024.06 (io_trps.svl 2023.06)
