@<TRIPOS>MOLECULE
NONAME
47 48 1 0 0 
SMALL
USER_CHARGES


@<TRIPOS>ATOM
  1 CL       1.3820    -0.6660     1.1280 Cl    1 <1>  -0.1770 
  2 C        0.7270    -2.2030     0.6100 C.ar  1 <1>   0.1770 
  3 C        1.4840    -3.0610    -0.1750 C.ar  1 <1>  -0.1440 
  4 C       -0.5550    -2.5350     1.0030 C.ar  1 <1>  -0.1500 
  5 C        0.9250    -4.2690    -0.5620 C.ar  1 <1>  -0.1500 
  6 C        2.8960    -2.6880    -0.6040 C.3   1 <1>  -0.0960 
  7 C       -1.0980    -3.7450     0.6080 C.ar  1 <1>  -0.1500 
  8 C       -0.3660    -4.6290    -0.1820 C.ar  1 <1>   0.1170 
  9 N       -0.8610    -5.8760    -0.5990 N.am  1 <1>  -0.5470 
 10 C       -2.1580    -6.2980    -0.7650 C.2   1 <1>   0.5690 
 11 O       -3.1150    -5.5860    -0.5920 O.2   1 <1>  -0.5700 
 12 C       -2.4330    -7.7570    -1.1800 C.3   1 <1>   0.4040 
 13 N       -3.1530    -8.6070    -0.1420 N.4   1 <1>  -0.9590 
 14 C       -3.1600   -10.0480    -0.5590 C.3   1 <1>   0.3430 
 15 C       -4.5440    -8.0820     0.0930 C.3   1 <1>   0.2630 
 16 C       -3.6420   -10.9860     0.5500 C.3   1 <1>   0.0210 
 17 C       -3.4730   -12.4060     0.0560 C.2   1 <1>  -0.1810 
 18 C       -2.3480   -13.2140     0.2180 C.2   1 <1>   0.1080 
 19 C       -4.3470   -13.1650    -0.6410 C.2   1 <1>  -0.3320 
 20 N       -2.4970   -14.3700    -0.3380 N.2   1 <1>  -0.7070 
 21 C       -1.0740   -12.8560     0.9510 C.3   1 <1>  -0.0590 
 22 N       -3.7340   -14.3490    -0.8610 N.pl3 1 <1>   0.3000 
 23 C       -5.7570   -12.8780    -1.1330 C.3   1 <1>  -0.0600 
 24 H       -1.1190    -1.8500     1.6100 H     1 <1>   0.1500 
 25 H        1.5020    -4.9380    -1.1730 H     1 <1>   0.1500 
 26 H        2.8760    -1.7790    -1.1790 H     1 <1>   0.0800 
 27 H        3.3380    -3.4610    -1.2050 H     1 <1>   0.0800 
 28 H        3.5140    -2.5340     0.2620 H     1 <1>   0.0800 
 29 H       -2.0940    -3.9890     0.9270 H     1 <1>   0.1500 
 30 H       -0.1180    -6.5160    -0.8780 H     1 <1>   0.3700 
 31 H       -1.4910    -8.2160    -1.4210 H     1 <1>   0.0800 
 32 H       -3.0210    -7.7300    -2.0820 H     1 <1>   0.0800 
 33 H       -2.6370    -8.5200     0.7470 H     1 <1>   0.4500 
 34 H       -2.1620   -10.3480    -0.8340 H     1 <1>   0.0800 
 35 H       -3.7890   -10.1800    -1.4240 H     1 <1>   0.0800 
 36 H       -5.1160    -8.1080    -0.8200 H     1 <1>   0.0800 
 37 H       -4.5110    -7.0630     0.4440 H     1 <1>   0.0800 
 38 H       -5.0530    -8.6730     0.8370 H     1 <1>   0.0800 
 39 H       -4.6790   -10.8160     0.7730 H     1 <1>   0.0800 
 40 H       -3.0650   -10.8480     1.4460 H     1 <1>   0.0800 
 41 H       -0.6700   -11.9360     0.5760 H     1 <1>   0.0800 
 42 H       -0.3450   -13.6350     0.8100 H     1 <1>   0.0800 
 43 H       -1.2740   -12.7640     2.0030 H     1 <1>   0.0800 
 44 H       -4.1280   -15.1580    -1.3570 H     1 <1>   0.2700 
 45 H       -6.0660   -11.8850    -0.8670 H     1 <1>   0.0800 
 46 H       -6.4480   -13.5760    -0.6930 H     1 <1>   0.0800 
 47 H       -5.8040   -12.9760    -2.2030 H     1 <1>   0.0800 
@<TRIPOS>BOND
  1   1   2  1   
  2   2   3  ar  
  3   2   4  ar  
  4   3   5  ar  
  5   3   6  1   
  6   4   7  ar  
  7   4  24  1   
  8   5   8  ar  
  9   5  25  1   
 10   6  26  1   
 11   6  27  1   
 12   6  28  1   
 13   7   8  ar  
 14   7  29  1   
 15   8   9  1   
 16   9  10  am  
 17   9  30  1   
 18  10  11  2   
 19  10  12  1   
 20  12  13  1   
 21  12  31  1   
 22  12  32  1   
 23  13  14  1   
 24  13  15  1   
 25  13  33  1   
 26  14  16  1   
 27  14  34  1   
 28  14  35  1   
 29  15  36  1   
 30  15  37  1   
 31  15  38  1   
 32  16  17  1   
 33  16  39  1   
 34  16  40  1   
 35  17  18  1   
 36  17  19  2   
 37  18  20  2   
 38  18  21  1   
 39  19  22  1   
 40  19  23  1   
 41  20  22  1   
 42  21  41  1   
 43  21  42  1   
 44  21  43  1   
 45  22  44  1   
 46  23  45  1   
 47  23  46  1   
 48  23  47  1   
@<TRIPOS>SUBSTRUCTURE
  1 ****  12 GROUP 4 **** **** 0

# MOE 2024.06 (io_trps.svl 2023.06)
