@<TRIPOS>MOLECULE
NONAME
54 56 1 0 0 
SMALL
USER_CHARGES


@<TRIPOS>ATOM
  1 O       -0.4340     0.2850     0.1220 O.2   1 <1>  -0.5700 
  2 C       -1.3650     0.9390    -0.3190 C.2   1 <1>   0.7160 
  3 N       -2.5460     0.2740    -0.5980 N.am  1 <1>  -0.6600 
  4 C       -1.1740     2.3700    -0.5050 C.2   1 <1>   0.1410 
  5 C       -3.8870     0.9330    -0.6800 C.3   1 <1>   0.1400 
  6 C       -2.6040    -1.2130    -0.7500 C.3   1 <1>   0.1400 
  7 N       -1.8920     3.1500    -1.3450 N.2   1 <1>  -0.2270 
  8 C       -0.2550     3.1670     0.0870 C.2   1 <1>  -0.3020 
  9 C       -4.9440     0.1900     0.1670 C.3   1 <1>   0.2000 
 10 C       -3.7210    -1.8220     0.1220 C.3   1 <1>   0.2000 
 11 N       -1.4560     4.3540    -1.2680 N.2   1 <1>  -0.4180 
 12 N       -0.4320     4.3990    -0.3940 N.pl3 1 <1>   0.5930 
 13 O       -4.9290    -1.1750    -0.1480 O.3   1 <1>  -0.5600 
 14 C       -6.3810     0.7200    -0.0520 C.3   1 <1>  -0.0800 
 15 C       -3.9510    -3.3150    -0.1440 C.3   1 <1>  -0.1600 
 16 C        0.2920     5.5810    -0.0610 C.ar  1 <1>  -0.0230 
 17 C       -6.5090     2.2170     0.2780 C.3   1 <1>  -0.2400 
 18 C       -7.4030    -0.0590     0.7940 C.3   1 <1>  -0.2400 
 19 C       -2.7470    -4.1900     0.2440 C.3   1 <1>  -0.1600 
 20 C       -0.3320     6.8270    -0.0840 C.ar  1 <1>  -0.1500 
 21 C        1.6380     5.5220     0.2950 C.ar  1 <1>  -0.1500 
 22 C       -3.0650    -5.6770     0.0490 C.3   1 <1>  -0.1600 
 23 C        0.3640     7.9760     0.2450 C.ar  1 <1>  -0.1500 
 24 C        2.3350     6.6710     0.6260 C.ar  1 <1>  -0.1500 
 25 C       -1.8670    -6.5500     0.4320 C.3   1 <1>  -0.2400 
 26 C        1.6990     7.8990     0.6020 C.ar  1 <1>  -0.1500 
 27 H       -3.8240     1.9430    -0.3210 H     1 <1>   0.0800 
 28 H       -4.2060     0.9610    -1.7080 H     1 <1>   0.0800 
 29 H       -2.7960    -1.4510    -1.7820 H     1 <1>   0.0800 
 30 H       -1.6620    -1.6570    -0.4830 H     1 <1>   0.0800 
 31 H        0.4950     2.9100     0.8100 H     1 <1>   0.1500 
 32 H       -4.6940     0.2900     1.2090 H     1 <1>   0.0800 
 33 H       -3.4870    -1.6780     1.1630 H     1 <1>   0.0800 
 34 H       -6.6310     0.5850    -1.0910 H     1 <1>   0.0800 
 35 H       -4.8050    -3.6270     0.4320 H     1 <1>   0.0800 
 36 H       -4.1790    -3.4570    -1.1860 H     1 <1>   0.0800 
 37 H       -6.2020     2.4100     1.2910 H     1 <1>   0.0800 
 38 H       -7.5300     2.5360     0.1670 H     1 <1>   0.0800 
 39 H       -5.9100     2.8140    -0.3860 H     1 <1>   0.0800 
 40 H       -7.1760     0.0310     1.8420 H     1 <1>   0.0800 
 41 H       -7.3920    -1.1020     0.5310 H     1 <1>   0.0800 
 42 H       -8.3970     0.3150     0.6230 H     1 <1>   0.0800 
 43 H       -1.8950    -3.9330    -0.3610 H     1 <1>   0.0800 
 44 H       -2.4930    -4.0120     1.2750 H     1 <1>   0.0800 
 45 H       -1.3700     6.9010    -0.3630 H     1 <1>   0.1500 
 46 H        2.1550     4.5780     0.3130 H     1 <1>   0.1500 
 47 H       -3.9100    -5.9500     0.6580 H     1 <1>   0.0800 
 48 H       -3.3230    -5.8610    -0.9800 H     1 <1>   0.0800 
 49 H       -0.1320     8.9310     0.2230 H     1 <1>   0.1500 
 50 H        3.3740     6.6110     0.9010 H     1 <1>   0.1500 
 51 H       -1.6050    -6.3980     1.4640 H     1 <1>   0.0800 
 52 H       -1.0150    -6.3110    -0.1810 H     1 <1>   0.0800 
 53 H       -2.1090    -7.5890     0.2900 H     1 <1>   0.0800 
 54 H        2.2400     8.7930     0.8590 H     1 <1>   0.1500 
@<TRIPOS>BOND
  1   1   2  2   
  2   2   3  am  
  3   2   4  1   
  4   3   5  1   
  5   3   6  1   
  6   4   7  1   
  7   4   8  2   
  8   5   9  1   
  9   5  27  1   
 10   5  28  1   
 11   6  10  1   
 12   6  29  1   
 13   6  30  1   
 14   7  11  2   
 15   8  12  1   
 16   8  31  1   
 17   9  13  1   
 18   9  14  1   
 19   9  32  1   
 20  10  13  1   
 21  10  15  1   
 22  10  33  1   
 23  11  12  1   
 24  12  16  1   
 25  14  17  1   
 26  14  18  1   
 27  14  34  1   
 28  15  19  1   
 29  15  35  1   
 30  15  36  1   
 31  16  20  ar  
 32  16  21  ar  
 33  17  37  1   
 34  17  38  1   
 35  17  39  1   
 36  18  40  1   
 37  18  41  1   
 38  18  42  1   
 39  19  22  1   
 40  19  43  1   
 41  19  44  1   
 42  20  23  ar  
 43  20  45  1   
 44  21  24  ar  
 45  21  46  1   
 46  22  25  1   
 47  22  47  1   
 48  22  48  1   
 49  23  26  ar  
 50  23  49  1   
 51  24  26  ar  
 52  24  50  1   
 53  25  51  1   
 54  25  52  1   
 55  25  53  1   
 56  26  54  1   
@<TRIPOS>SUBSTRUCTURE
  1 ****   2 GROUP 4 **** **** 0

# MOE 2024.06 (io_trps.svl 2023.06)
