@<TRIPOS>MOLECULE
NONAME
44 46 1 0 0 
SMALL
USER_CHARGES


@<TRIPOS>ATOM
  1 F       -1.8120     0.9850    -0.5450 F     1 <1>  -0.3400 
  2 C       -2.6060    -0.0700    -0.6880 C.3   1 <1>   0.8800 
  3 F       -2.0900    -0.7710    -1.6890 F     1 <1>  -0.3400 
  4 O       -3.8780     0.3870    -1.0960 O.3   1 <1>  -0.3630 
  5 C       -4.6420     0.9960    -0.1680 C.ar  1 <1>   0.0830 
  6 C       -5.3690     0.2580     0.7720 C.ar  1 <1>   0.0860 
  7 C       -4.7150     2.3800    -0.1970 C.ar  1 <1>  -0.1500 
  8 C       -5.3290    -1.1850     0.8000 C.2   1 <1>   0.5440 
  9 C       -6.1470     0.9630     1.6910 C.ar  1 <1>  -0.1500 
 10 C       -5.4980     3.0550     0.7210 C.ar  1 <1>  -0.1500 
 11 O       -4.3290    -1.7530     1.1970 O.2   1 <1>  -0.5700 
 12 N       -6.3990    -1.9370     0.3840 N.am  1 <1>  -0.6600 
 13 C       -6.2140     2.3430     1.6680 C.ar  1 <1>  -0.1500 
 14 C       -7.6090    -1.4070    -0.2950 C.3   1 <1>   0.1400 
 15 C       -6.3730    -3.4200     0.3000 C.3   1 <1>   0.1400 
 16 C       -8.5670    -2.5960    -0.3290 C.3   1 <1>   0.2000 
 17 C       -7.6330    -3.8000    -0.4870 C.3   1 <1>  -0.0800 
 18 O       -9.2060    -2.6610     0.9010 O.3   1 <1>  -0.6800 
 19 C       -8.2300    -5.1610    -0.0860 C.3   1 <1>   0.0210 
 20 C       -7.2170    -6.2710    -0.2830 C.2   1 <1>   0.1080 
 21 N       -6.7450    -6.5940    -1.4470 N.2   1 <1>  -0.7070 
 22 C       -6.6780    -7.0480     0.7370 C.2   1 <1>  -0.1500 
 23 N       -5.8850    -7.5990    -1.1980 N.pl3 1 <1>   0.3000 
 24 C       -5.8250    -7.8910     0.1180 C.2   1 <1>  -0.3320 
 25 C       -4.9430    -8.9730     0.7120 C.3   1 <1>  -0.0600 
 26 H       -2.6130    -0.6560     0.2120 H     1 <1>   0.0800 
 27 H       -4.1560     2.9250    -0.9380 H     1 <1>   0.1500 
 28 H       -6.7040     0.4130     2.4300 H     1 <1>   0.1500 
 29 H       -5.5500     4.1310     0.7000 H     1 <1>   0.1500 
 30 H       -6.8210     2.8690     2.3860 H     1 <1>   0.1500 
 31 H       -8.0360    -0.5680     0.2260 H     1 <1>   0.0800 
 32 H       -7.3480    -1.1170    -1.2980 H     1 <1>   0.0800 
 33 H       -5.4830    -3.7620    -0.2020 H     1 <1>   0.0800 
 34 H       -6.3970    -3.8290     1.2960 H     1 <1>   0.0800 
 35 H       -9.3120    -2.5230    -1.1030 H     1 <1>   0.0800 
 36 H       -7.3510    -3.8580    -1.5240 H     1 <1>   0.0800 
 37 H       -8.5260    -2.6060     1.6030 H     1 <1>   0.4000 
 38 H       -9.0910    -5.3690    -0.6940 H     1 <1>   0.0800 
 39 H       -8.5440    -5.1510     0.9420 H     1 <1>   0.0800 
 40 H       -6.9090    -6.9720     1.7840 H     1 <1>   0.1500 
 41 H       -5.3570    -8.0640    -1.9460 H     1 <1>   0.2700 
 42 H       -5.0700    -9.0090     1.7800 H     1 <1>   0.0800 
 43 H       -3.9080    -8.7700     0.4980 H     1 <1>   0.0800 
 44 H       -5.2050    -9.9330     0.3040 H     1 <1>   0.0800 
@<TRIPOS>BOND
  1   1   2  1   
  2   2   3  1   
  3   2   4  1   
  4   2  26  1   
  5   4   5  1   
  6   5   6  ar  
  7   5   7  ar  
  8   6   8  1   
  9   6   9  ar  
 10   7  10  ar  
 11   7  27  1   
 12   8  11  2   
 13   8  12  am  
 14   9  13  ar  
 15   9  28  1   
 16  10  13  ar  
 17  10  29  1   
 18  12  14  1   
 19  12  15  1   
 20  13  30  1   
 21  14  16  1   
 22  14  31  1   
 23  14  32  1   
 24  15  17  1   
 25  15  33  1   
 26  15  34  1   
 27  16  17  1   
 28  16  18  1   
 29  16  35  1   
 30  17  19  1   
 31  17  36  1   
 32  18  37  1   
 33  19  20  1   
 34  19  38  1   
 35  19  39  1   
 36  20  21  2   
 37  20  22  1   
 38  21  23  1   
 39  22  24  2   
 40  22  40  1   
 41  23  24  1   
 42  23  41  1   
 43  24  25  1   
 44  25  42  1   
 45  25  43  1   
 46  25  44  1   
@<TRIPOS>SUBSTRUCTURE
  1 ****  12 GROUP 4 **** **** 0

# MOE 2024.06 (io_trps.svl 2023.06)
