@<TRIPOS>MOLECULE
NONAME
47 49 1 0 0 
SMALL
USER_CHARGES


@<TRIPOS>ATOM
  1 S        0.4830     0.0840    -0.5020 S.o2  1 <1>   1.3330 
  2 O        1.8760     0.1610    -0.1210 O.2   1 <1>  -0.6500 
  3 O        0.1370     0.0210    -1.9050 O.2   1 <1>  -0.6500 
  4 N       -0.1930    -1.2660     0.2720 N.am  1 <1>  -0.8490 
  5 C       -0.4110     1.4590     0.2160 C.3   1 <1>  -0.0550 
  6 C        0.3550    -1.5050     1.6120 C.3   1 <1>   0.1160 
  7 C       -0.0790    -2.4830    -0.5370 C.3   1 <1>   0.1160 
  8 C       -0.0180     2.8170    -0.3990 C.3   1 <1>  -0.0800 
  9 C       -0.8720     3.9960     0.0650 C.3   1 <1>   0.2000 
 10 C        1.4290     3.2430    -0.0940 C.3   1 <1>   0.1100 
 11 O       -1.1020     3.8820     1.4240 O.3   1 <1>  -0.6800 
 12 C        0.0750     5.1720    -0.1320 C.3   1 <1>   0.1100 
 13 N        1.3720     4.6510     0.3270 N.3   1 <1>  -0.8100 
 14 C        2.5370     5.4450    -0.1330 C.3   1 <1>   0.2900 
 15 C        2.5940     6.8900     0.3750 C.2   1 <1>   0.2980 
 16 O        3.4880     7.6740    -0.1560 O.3   1 <1>  -0.2800 
 17 N        1.8690     7.4410     1.2700 N.2   1 <1>  -0.3380 
 18 C        3.2500     8.7880     0.4970 C.2   1 <1>   0.4250 
 19 N        2.2910     8.6810     1.3510 N.2   1 <1>  -0.3380 
 20 C        4.0370     9.9730     0.2190 C.ar  1 <1>   0.0530 
 21 C        5.0610     9.9710    -0.7320 C.ar  1 <1>  -0.1500 
 22 C        3.8010    11.1720     0.8960 C.ar  1 <1>  -0.1500 
 23 C        5.8080    11.1050    -0.9940 C.ar  1 <1>  -0.1500 
 24 C        4.5440    12.3090     0.6380 C.ar  1 <1>  -0.1500 
 25 C        5.5510    12.2780    -0.3090 C.ar  1 <1>  -0.1500 
 26 H       -1.4610     1.3060     0.0610 H     1 <1>   0.0800 
 27 H       -0.2390     1.4840     1.2740 H     1 <1>   0.0800 
 28 H       -0.1690    -2.3180     2.0860 H     1 <1>   0.0800 
 29 H        0.2390    -0.6270     2.2230 H     1 <1>   0.0800 
 30 H        1.4030    -1.7500     1.5530 H     1 <1>   0.0800 
 31 H       -0.5330    -3.3150    -0.0270 H     1 <1>   0.0800 
 32 H        0.9570    -2.7070    -0.7320 H     1 <1>   0.0800 
 33 H       -0.5860    -2.3490    -1.4780 H     1 <1>   0.0800 
 34 H       -0.1160     2.7450    -1.4690 H     1 <1>   0.0800 
 35 H       -1.8120     4.0910    -0.4490 H     1 <1>   0.0800 
 36 H        2.0400     3.1190    -0.9740 H     1 <1>   0.0800 
 37 H        1.8530     2.6600     0.7070 H     1 <1>   0.0800 
 38 H       -0.2590     4.1330     1.8640 H     1 <1>   0.4000 
 39 H       -0.2390     6.0330     0.4350 H     1 <1>   0.0800 
 40 H        0.1230     5.4270    -1.1770 H     1 <1>   0.0800 
 41 H        3.4350     4.9530     0.1940 H     1 <1>   0.0800 
 42 H        2.5470     5.4660    -1.2080 H     1 <1>   0.0800 
 43 H        5.2790     9.0700    -1.2770 H     1 <1>   0.1500 
 44 H        3.0200    11.2130     1.6370 H     1 <1>   0.1500 
 45 H        6.5910    11.0770    -1.7320 H     1 <1>   0.1500 
 46 H        4.3390    13.2190     1.1760 H     1 <1>   0.1500 
 47 H        6.1310    13.1630    -0.5110 H     1 <1>   0.1500 
@<TRIPOS>BOND
  1   1   2  2   
  2   1   3  2   
  3   1   4  am  
  4   1   5  1   
  5   4   6  1   
  6   4   7  1   
  7   5   8  1   
  8   5  26  1   
  9   5  27  1   
 10   6  28  1   
 11   6  29  1   
 12   6  30  1   
 13   7  31  1   
 14   7  32  1   
 15   7  33  1   
 16   8   9  1   
 17   8  10  1   
 18   8  34  1   
 19   9  11  1   
 20   9  12  1   
 21   9  35  1   
 22  10  13  1   
 23  10  36  1   
 24  10  37  1   
 25  11  38  1   
 26  12  13  1   
 27  12  39  1   
 28  12  40  1   
 29  13  14  1   
 30  14  15  1   
 31  14  41  1   
 32  14  42  1   
 33  15  16  1   
 34  15  17  2   
 35  16  18  1   
 36  17  19  1   
 37  18  19  2   
 38  18  20  1   
 39  20  21  ar  
 40  20  22  ar  
 41  21  23  ar  
 42  21  43  1   
 43  22  24  ar  
 44  22  44  1   
 45  23  25  ar  
 46  23  45  1   
 47  24  25  ar  
 48  24  46  1   
 49  25  47  1   
@<TRIPOS>SUBSTRUCTURE
  1 ****  14 GROUP 4 **** **** 0

# MOE 2024.06 (io_trps.svl 2023.06)
