@<TRIPOS>MOLECULE
NONAME
51 54 1 0 0 
SMALL
USER_CHARGES


@<TRIPOS>ATOM
  1 O       -0.7050     0.0340    -0.6390 O.2   1 <1>  -0.5700 
  2 C       -1.6900     0.7470    -0.6270 C.2   1 <1>   0.5440 
  3 N       -2.9250     0.1870    -0.8720 N.am  1 <1>  -0.6600 
  4 C       -1.5370     2.1590    -0.3370 C.ar  1 <1>   0.0860 
  5 C       -4.2110     0.7580    -0.3630 C.3   1 <1>   0.1400 
  6 C       -3.0730    -1.2080    -1.3910 C.3   1 <1>   0.1400 
  7 C       -2.1270     3.1530    -1.1040 C.ar  1 <1>  -0.1500 
  8 C       -0.7820     2.6130     0.7320 C.ar  1 <1>  -0.1500 
  9 C       -4.8700    -0.1950     0.6540 C.3   1 <1>   0.1900 
 10 C       -3.7680    -2.1080    -0.3580 C.3   1 <1>   0.1100 
 11 C       -1.9660     4.4840    -0.7690 C.ar  1 <1>   0.1660 
 12 C       -0.6780     3.9670     0.9910 C.ar  1 <1>   0.1660 
 13 N       -5.0700    -1.5420     0.0650 N.3   1 <1>  -0.8100 
 14 C       -6.2110     0.3860     1.1450 C.3   1 <1>   0.1200 
 15 N       -1.2620     4.9040     0.2670 N.ar  1 <1>  -0.6200 
 16 C       -2.6120     5.5670    -1.6050 C.3   1 <1>  -0.0970 
 17 C        0.1430     4.4580     2.1640 C.3   1 <1>  -0.0970 
 18 C       -5.7590    -2.4200     1.0410 C.3   1 <1>   0.3330 
 19 O       -6.8090    -0.4760     2.0700 O.3   1 <1>  -0.5600 
 20 C       -6.0960    -3.7750     0.4210 C.ar  1 <1>  -0.1430 
 21 C       -7.0560    -1.7570     1.5530 C.3   1 <1>   0.1200 
 22 C       -5.8060    -4.9460     1.1070 C.ar  1 <1>  -0.1500 
 23 C       -6.6970    -3.8580    -0.8280 C.ar  1 <1>  -0.1500 
 24 C       -6.1140    -6.1780     0.5550 C.ar  1 <1>  -0.1500 
 25 C       -7.0060    -5.0880    -1.3810 C.ar  1 <1>  -0.1500 
 26 C       -6.7140    -6.2500    -0.6890 C.ar  1 <1>  -0.1500 
 27 H       -4.0420     1.7060     0.1140 H     1 <1>   0.0800 
 28 H       -4.8800     0.9110    -1.1910 H     1 <1>   0.0800 
 29 H       -3.6620    -1.1880    -2.2910 H     1 <1>   0.0800 
 30 H       -2.1120    -1.6260    -1.6380 H     1 <1>   0.0800 
 31 H       -2.7070     2.8740    -1.9640 H     1 <1>   0.1500 
 32 H       -0.2790     1.8960     1.3540 H     1 <1>   0.1500 
 33 H       -4.2150    -0.2700     1.5060 H     1 <1>   0.0800 
 34 H       -3.1210    -2.2290     0.4940 H     1 <1>   0.0800 
 35 H       -3.9180    -3.0770    -0.8020 H     1 <1>   0.0800 
 36 H       -6.8880     0.5280     0.3200 H     1 <1>   0.0800 
 37 H       -6.0540     1.3290     1.6360 H     1 <1>   0.0800 
 38 H       -3.1600     5.1500    -2.4290 H     1 <1>   0.0800 
 39 H       -1.8520     6.2230    -1.9900 H     1 <1>   0.0800 
 40 H       -3.2840     6.1410    -0.9930 H     1 <1>   0.0800 
 41 H        0.5930     3.6400     2.6940 H     1 <1>   0.0800 
 42 H       -0.4880     5.0070     2.8380 H     1 <1>   0.0800 
 43 H        0.9200     5.1110     1.8080 H     1 <1>   0.0800 
 44 H       -5.1130    -2.5750     1.8880 H     1 <1>   0.0800 
 45 H       -7.4870    -2.3520     2.3370 H     1 <1>   0.0800 
 46 H       -7.7720    -1.6720     0.7540 H     1 <1>   0.0800 
 47 H       -5.3400    -4.9070     2.0760 H     1 <1>   0.1500 
 48 H       -6.9200    -2.9560    -1.3720 H     1 <1>   0.1500 
 49 H       -5.8860    -7.0810     1.0940 H     1 <1>   0.1500 
 50 H       -7.4710    -5.1400    -2.3500 H     1 <1>   0.1500 
 51 H       -6.9540    -7.2070    -1.1180 H     1 <1>   0.1500 
@<TRIPOS>BOND
  1   1   2  2   
  2   2   3  am  
  3   2   4  1   
  4   3   5  1   
  5   3   6  1   
  6   4   7  ar  
  7   4   8  ar  
  8   5   9  1   
  9   5  27  1   
 10   5  28  1   
 11   6  10  1   
 12   6  29  1   
 13   6  30  1   
 14   7  11  ar  
 15   7  31  1   
 16   8  12  ar  
 17   8  32  1   
 18   9  13  1   
 19   9  14  1   
 20   9  33  1   
 21  10  13  1   
 22  10  34  1   
 23  10  35  1   
 24  11  15  ar  
 25  11  16  1   
 26  12  15  ar  
 27  12  17  1   
 28  13  18  1   
 29  14  19  1   
 30  14  36  1   
 31  14  37  1   
 32  16  38  1   
 33  16  39  1   
 34  16  40  1   
 35  17  41  1   
 36  17  42  1   
 37  17  43  1   
 38  18  20  1   
 39  18  21  1   
 40  18  44  1   
 41  19  21  1   
 42  20  22  ar  
 43  20  23  ar  
 44  21  45  1   
 45  21  46  1   
 46  22  24  ar  
 47  22  47  1   
 48  23  25  ar  
 49  23  48  1   
 50  24  26  ar  
 51  24  49  1   
 52  25  26  ar  
 53  25  50  1   
 54  26  51  1   
@<TRIPOS>SUBSTRUCTURE
  1 ****   9 GROUP 4 **** **** 0

# MOE 2024.06 (io_trps.svl 2023.06)
