@<TRIPOS>MOLECULE
NONAME
44 46 1 0 0 
SMALL
USER_CHARGES


@<TRIPOS>ATOM
  1 F       -0.7410     0.2180    -0.3600 F     1 <1>  -0.1900 
  2 C       -1.9920     0.5870    -0.2530 C.ar  1 <1>   0.1900 
  3 C       -2.4070     1.5420     0.6810 C.ar  1 <1>   0.0830 
  4 C       -2.8870    -0.0180    -1.1140 C.ar  1 <1>  -0.1500 
  5 O       -1.6250     2.2090     1.5780 O.3   1 <1>  -0.3630 
  6 C       -3.7550     1.8610     0.7180 C.ar  1 <1>  -0.1500 
  7 C       -4.2250     0.3240    -1.0520 C.ar  1 <1>  -0.1500 
  8 C       -0.2280     2.0290     1.6640 C.3   1 <1>   0.0400 
  9 C       -4.6900     1.2660    -0.1310 C.ar  1 <1>   0.0530 
 10 C       -6.0850     1.6180    -0.0510 C.2   1 <1>   0.0870 
 11 O       -6.4530     2.8210     0.3110 O.3   1 <1>  -0.0190 
 12 C       -7.2230     0.9130    -0.2760 C.2   1 <1>  -0.0860 
 13 N       -7.7520     2.9710     0.3380 N.2   1 <1>  -0.4100 
 14 C       -8.2400     1.8340    -0.0190 C.2   1 <1>   0.3720 
 15 C       -7.4150    -0.4510    -0.6380 C.2   1 <1>   0.7160 
 16 N       -9.6110     1.5590    -0.1250 N.pl3 1 <1>  -0.8210 
 17 O       -7.4050    -0.7820    -1.8120 O.2   1 <1>  -0.5700 
 18 N       -7.5620    -1.4090     0.3260 N.am  1 <1>  -0.5100 
 19 C      -10.5020     2.4250     0.6960 C.3   1 <1>   0.1290 
 20 C      -10.0990     1.4260    -1.5250 C.3   1 <1>   0.1290 
 21 C       -8.3090    -2.6890     0.1350 C.3   1 <1>   0.2250 
 22 C       -8.2770    -1.1920     1.6270 C.3   1 <1>   0.2250 
 23 C       -8.5630    -2.7070     1.6580 C.3   1 <1>   0.0000 
 24 C       -7.4050    -3.8060    -0.3800 C.3   1 <1>  -0.2400 
 25 H       -2.5380    -0.7460    -1.8250 H     1 <1>   0.1500 
 26 H       -4.0850     2.5930     1.4330 H     1 <1>   0.1500 
 27 H       -4.9130    -0.1440    -1.7350 H     1 <1>   0.1500 
 28 H        0.1450     2.6780     2.4360 H     1 <1>   0.0800 
 29 H        0.2180     2.2900     0.7210 H     1 <1>   0.0800 
 30 H       -0.0220     1.0040     1.9190 H     1 <1>   0.0800 
 31 H      -10.1240     2.4860     1.7030 H     1 <1>   0.0800 
 32 H      -11.4940     2.0110     0.7240 H     1 <1>   0.0800 
 33 H      -10.5400     3.4180     0.2800 H     1 <1>   0.0800 
 34 H       -9.3990     0.8650    -2.1200 H     1 <1>   0.0800 
 35 H      -10.2220     2.4000    -1.9670 H     1 <1>   0.0800 
 36 H      -11.0440     0.9100    -1.5340 H     1 <1>   0.0800 
 37 H       -9.2020    -2.5360    -0.4460 H     1 <1>   0.0000 
 38 H       -9.1600    -0.5920     1.5040 H     1 <1>   0.0000 
 39 H       -7.6130    -0.8580     2.4040 H     1 <1>   0.0000 
 40 H       -7.8270    -3.2580     2.2180 H     1 <1>   0.0000 
 41 H       -9.5740    -2.9540     1.9290 H     1 <1>   0.0000 
 42 H       -6.5070    -3.8740     0.2080 H     1 <1>   0.0800 
 43 H       -7.1440    -3.6140    -1.4050 H     1 <1>   0.0800 
 44 H       -7.9250    -4.7450    -0.3310 H     1 <1>   0.0800 
@<TRIPOS>BOND
  1   1   2  1   
  2   2   3  ar  
  3   2   4  ar  
  4   3   5  1   
  5   3   6  ar  
  6   4   7  ar  
  7   4  25  1   
  8   5   8  1   
  9   6   9  ar  
 10   6  26  1   
 11   7   9  ar  
 12   7  27  1   
 13   8  28  1   
 14   8  29  1   
 15   8  30  1   
 16   9  10  1   
 17  10  11  1   
 18  10  12  2   
 19  11  13  1   
 20  12  14  1   
 21  12  15  1   
 22  13  14  2   
 23  14  16  1   
 24  15  17  2   
 25  15  18  am  
 26  16  19  1   
 27  16  20  1   
 28  18  21  1   
 29  18  22  1   
 30  19  31  1   
 31  19  32  1   
 32  19  33  1   
 33  20  34  1   
 34  20  35  1   
 35  20  36  1   
 36  21  23  1   
 37  21  24  1   
 38  21  37  1   
 39  22  23  1   
 40  22  38  1   
 41  22  39  1   
 42  23  40  1   
 43  23  41  1   
 44  24  42  1   
 45  24  43  1   
 46  24  44  1   
@<TRIPOS>SUBSTRUCTURE
  1 ****  10 GROUP 4 **** **** 0

# MOE 2024.06 (io_trps.svl 2023.06)
