@<TRIPOS>MOLECULE
NONAME
40 41 1 0 0 
SMALL
USER_CHARGES


@<TRIPOS>ATOM
  1 O        0.0000    -0.1870    -0.4450 O.2   1 <1>  -0.5700 
  2 C        1.1220    -0.6460    -0.3710 C.2   1 <1>   0.5440 
  3 N        2.2150     0.1840    -0.3050 N.am  1 <1>  -0.4940 
  4 C        1.3360    -2.0750    -0.3410 C.ar  1 <1>   0.0860 
  5 C        2.3350     1.5950    -0.3060 C.2   1 <1>  -0.0880 
  6 C        0.7350    -2.9130     0.6080 C.ar  1 <1>   0.1670 
  7 C        2.1760    -2.6690    -1.2760 C.ar  1 <1>  -0.1500 
  8 N        1.5680     2.5070    -0.9690 N.pl3 1 <1>   0.3140 
  9 C        3.2870     2.3050     0.3470 C.2   1 <1>  -0.1810 
 10 N        0.9180    -4.2230     0.6790 N.ar  1 <1>  -0.6200 
 11 C       -0.1990    -2.3470     1.6660 C.3   1 <1>  -0.0970 
 12 C        2.3680    -4.0310    -1.2100 C.ar  1 <1>  -0.1500 
 13 N        2.0120     3.7660    -0.7600 N.2   1 <1>  -0.7070 
 14 C        0.4510     2.2800    -1.8940 C.3   1 <1>   0.0160 
 15 C        3.0320     3.6360     0.0270 C.2   1 <1>   0.1080 
 16 C        4.3950     1.7740     1.2430 C.3   1 <1>   0.0210 
 17 C        1.7230    -4.7540    -0.2250 C.ar  1 <1>   0.1600 
 18 C        3.8190     4.8410     0.5120 C.3   1 <1>   0.0210 
 19 C        5.6560     1.4880     0.4250 C.3   1 <1>  -0.2400 
 20 C        3.2530     5.3760     1.8310 C.3   1 <1>  -0.2400 
 21 H        3.0890    -0.2950    -0.0900 H     1 <1>   0.3700 
 22 H        2.6590    -2.0800    -2.0370 H     1 <1>   0.1500 
 23 H        0.1950    -1.4380     2.0800 H     1 <1>   0.0800 
 24 H       -0.3320    -3.0520     2.4670 H     1 <1>   0.0800 
 25 H       -1.1590    -2.1440     1.2260 H     1 <1>   0.0800 
 26 H        3.0070    -4.5330    -1.9140 H     1 <1>   0.1500 
 27 H        0.6300     1.3860    -2.4580 H     1 <1>   0.0800 
 28 H        0.3700     3.1180    -2.5610 H     1 <1>   0.0800 
 29 H       -0.4550     2.1810    -1.3280 H     1 <1>   0.0800 
 30 H        4.0640     0.8720     1.7260 H     1 <1>   0.0800 
 31 H        4.6130     2.4910     2.0140 H     1 <1>   0.0800 
 32 H        1.8740    -5.8200    -0.1760 H     1 <1>   0.1500 
 33 H        3.7660     5.6100    -0.2380 H     1 <1>   0.0800 
 34 H        4.8520     4.5740     0.6360 H     1 <1>   0.0800 
 35 H        5.4480     0.7620    -0.3390 H     1 <1>   0.0800 
 36 H        6.4340     1.1100     1.0630 H     1 <1>   0.0800 
 37 H        6.0030     2.3900    -0.0470 H     1 <1>   0.0800 
 38 H        2.2240     5.6600     1.6930 H     1 <1>   0.0800 
 39 H        3.8110     6.2370     2.1540 H     1 <1>   0.0800 
 40 H        3.3010     4.6200     2.5930 H     1 <1>   0.0800 
@<TRIPOS>BOND
  1   1   2  2   
  2   2   3  am  
  3   2   4  1   
  4   3   5  1   
  5   3  21  1   
  6   4   6  ar  
  7   4   7  ar  
  8   5   8  1   
  9   5   9  2   
 10   6  10  ar  
 11   6  11  1   
 12   7  12  ar  
 13   7  22  1   
 14   8  13  1   
 15   8  14  1   
 16   9  15  1   
 17   9  16  1   
 18  10  17  ar  
 19  11  23  1   
 20  11  24  1   
 21  11  25  1   
 22  12  17  ar  
 23  12  26  1   
 24  13  15  2   
 25  14  27  1   
 26  14  28  1   
 27  14  29  1   
 28  15  18  1   
 29  16  19  1   
 30  16  30  1   
 31  16  31  1   
 32  17  32  1   
 33  18  20  1   
 34  18  33  1   
 35  18  34  1   
 36  19  35  1   
 37  19  36  1   
 38  19  37  1   
 39  20  38  1   
 40  20  39  1   
 41  20  40  1   
@<TRIPOS>SUBSTRUCTURE
  1 ****   3 GROUP 4 **** **** 0

# MOE 2024.06 (io_trps.svl 2023.06)
