@<TRIPOS>MOLECULE
NONAME
54 58 1 0 0 
SMALL
USER_CHARGES


@<TRIPOS>ATOM
  1 O       -0.8670     4.4600    -2.2330 O.2   1 <1>  -0.5700 
  2 C       -0.6060     3.9200    -1.1730 C.2   1 <1>   0.7160 
  3 N       -1.6460     3.5350    -0.3520 N.am  1 <1>  -0.6600 
  4 C        0.7740     3.6970    -0.8160 C.2   1 <1>  -0.0860 
  5 C       -3.0510     3.9630    -0.6720 C.3   1 <1>   0.1400 
  6 C       -1.4790     2.5270     0.7400 C.3   1 <1>   0.1400 
  7 C        1.3560     3.8680     0.4430 C.2   1 <1>   0.1390 
  8 C        1.8260     3.2980    -1.5840 C.2   1 <1>  -0.3020 
  9 C       -3.9620     3.9380     0.5700 C.3   1 <1>   0.1440 
 10 C       -2.7420     1.6740     0.8950 C.3   1 <1>  -0.1600 
 11 N        2.6190     3.5860     0.4630 N.2   1 <1>  -0.7070 
 12 N        2.9130     3.2360    -0.8010 N.pl3 1 <1>   0.3140 
 13 C       -5.3390     4.4450     0.1660 C.ar  1 <1>   0.1660 
 14 C       -4.0100     2.5070     1.1730 C.3   1 <1>  -0.1600 
 15 C       -3.5130     5.0080     1.6090 C.3   1 <1>  -0.1600 
 16 C        4.2800     2.8550    -1.2100 C.3   1 <1>   0.0960 
 17 N       -6.2170     3.7820    -0.5470 N.ar  1 <1>  -0.6200 
 18 C       -5.5640     5.7080     0.6190 C.ar  1 <1>  -0.1440 
 19 C       -4.3870     6.2540     1.3850 C.3   1 <1>  -0.0170 
 20 C        4.4440     1.3300    -1.2370 C.3   1 <1>  -0.2400 
 21 C       -7.3720     4.4140    -0.7960 C.ar  1 <1>   0.6200 
 22 C       -6.7690     6.2900     0.3230 C.ar  1 <1>   0.1600 
 23 N       -7.6780     5.6510    -0.3790 N.ar  1 <1>  -0.6200 
 24 C       -8.3710     3.7010    -1.5820 C.ar  1 <1>   0.0000 
 25 C       -9.7390     3.9440    -1.4230 C.ar  1 <1>  -0.1500 
 26 C       -8.0090     2.7410    -2.5320 C.ar  1 <1>  -0.1500 
 27 C      -10.6900     3.2690    -2.1660 C.ar  1 <1>  -0.1500 
 28 C       -8.9540     2.0620    -3.2790 C.ar  1 <1>  -0.1500 
 29 C      -10.2990     2.3250    -3.0980 C.ar  1 <1>  -0.1500 
 30 H       -3.4530     3.3010    -1.4200 H     1 <1>   0.0800 
 31 H       -3.0400     4.9560    -1.0890 H     1 <1>   0.0800 
 32 H       -1.2750     3.0380     1.6650 H     1 <1>   0.0800 
 33 H       -0.6450     1.8810     0.5180 H     1 <1>   0.0800 
 34 H        0.8170     4.2050     1.3110 H     1 <1>   0.1500 
 35 H        1.8320     3.0670    -2.6330 H     1 <1>   0.1500 
 36 H       -2.6000     0.9600     1.6870 H     1 <1>   0.0800 
 37 H       -2.8780     1.1160    -0.0160 H     1 <1>   0.0800 
 38 H       -4.8410     1.9680     0.7540 H     1 <1>   0.0800 
 39 H       -4.1880     2.5560     2.2320 H     1 <1>   0.0800 
 40 H       -2.4680     5.2520     1.5300 H     1 <1>   0.0800 
 41 H       -3.6980     4.6550     2.6070 H     1 <1>   0.0800 
 42 H        4.9710     3.2870    -0.5090 H     1 <1>   0.0800 
 43 H        4.4730     3.2700    -2.1820 H     1 <1>   0.0800 
 44 H       -3.8670     6.9780     0.7810 H     1 <1>   0.0800 
 45 H       -4.6880     6.7000     2.3160 H     1 <1>   0.0800 
 46 H        4.2540     0.9230    -0.2600 H     1 <1>   0.0800 
 47 H        5.4490     1.0770    -1.5240 H     1 <1>   0.0800 
 48 H        3.7640     0.8920    -1.9450 H     1 <1>   0.0800 
 49 H       -6.9930     7.2870     0.6610 H     1 <1>   0.1500 
 50 H      -10.0610     4.6750    -0.7020 H     1 <1>   0.1500 
 51 H       -6.9660     2.5240    -2.6880 H     1 <1>   0.1500 
 52 H      -11.7350     3.4790    -2.0200 H     1 <1>   0.1500 
 53 H       -8.6420     1.3290    -4.0020 H     1 <1>   0.1500 
 54 H      -11.0370     1.7980    -3.6780 H     1 <1>   0.1500 
@<TRIPOS>BOND
  1   1   2  2   
  2   2   3  am  
  3   2   4  1   
  4   3   5  1   
  5   3   6  1   
  6   4   7  1   
  7   4   8  2   
  8   5   9  1   
  9   5  30  1   
 10   5  31  1   
 11   6  10  1   
 12   6  32  1   
 13   6  33  1   
 14   7  11  2   
 15   7  34  1   
 16   8  12  1   
 17   8  35  1   
 18   9  13  1   
 19   9  14  1   
 20   9  15  1   
 21  10  14  1   
 22  10  36  1   
 23  10  37  1   
 24  11  12  1   
 25  12  16  1   
 26  13  17  ar  
 27  13  18  ar  
 28  14  38  1   
 29  14  39  1   
 30  15  19  1   
 31  15  40  1   
 32  15  41  1   
 33  16  20  1   
 34  16  42  1   
 35  16  43  1   
 36  17  21  ar  
 37  18  19  1   
 38  18  22  ar  
 39  19  44  1   
 40  19  45  1   
 41  20  46  1   
 42  20  47  1   
 43  20  48  1   
 44  21  23  ar  
 45  21  24  1   
 46  22  23  ar  
 47  22  49  1   
 48  24  25  ar  
 49  24  26  ar  
 50  25  27  ar  
 51  25  50  1   
 52  26  28  ar  
 53  26  51  1   
 54  27  29  ar  
 55  27  52  1   
 56  28  29  ar  
 57  28  53  1   
 58  29  54  1   
@<TRIPOS>SUBSTRUCTURE
  1 ****   5 GROUP 4 **** **** 0

# MOE 2024.06 (io_trps.svl 2023.06)
