@<TRIPOS>MOLECULE
NONAME
53 55 1 0 0 
SMALL
USER_CHARGES


@<TRIPOS>ATOM
  1 O       -0.1790     0.3600     1.2330 O.3   1 <1>  -0.5600 
  2 C        0.5670     0.6550     0.1010 C.3   1 <1>   0.1200 
  3 C       -1.5180     0.2200     0.8540 C.3   1 <1>   0.1200 
  4 C       -0.2940     1.7190    -0.5710 C.3   1 <1>   0.4230 
  5 C       -1.6610     1.0420    -0.4400 C.3   1 <1>  -0.0800 
  6 N       -0.2510     2.9460     0.2840 N.4   1 <1>  -0.9060 
  7 C       -2.9110     1.9460    -0.4770 C.3   1 <1>  -0.0170 
  8 C        1.0020     3.7350     0.2530 C.3   1 <1>   0.4230 
  9 C       -4.1730     1.1030    -0.4230 C.ar  1 <1>  -0.1440 
 10 C        1.0100     4.6880     1.4470 C.3   1 <1>  -0.1600 
 11 C        1.1120     4.5200    -1.0560 C.3   1 <1>  -0.1600 
 12 C       -4.6620     0.4570    -1.5410 C.ar  1 <1>  -0.1500 
 13 C       -4.8980     0.9370     0.7410 C.ar  1 <1>  -0.1500 
 14 C        2.2510     5.5820     1.4300 C.3   1 <1>   0.3430 
 15 C        2.3500     5.4210    -1.0530 C.3   1 <1>   0.3430 
 16 C       -5.8120    -0.3090    -1.4430 C.ar  1 <1>   0.1600 
 17 C       -6.0370     0.1490     0.7320 C.ar  1 <1>   0.1600 
 18 N        2.3310     6.3230     0.1350 N.4   1 <1>  -0.9590 
 19 N       -6.5070    -0.4800    -0.3310 N.ar  1 <1>  -0.6200 
 20 C        3.5270     7.2210     0.0980 C.3   1 <1>   0.3430 
 21 C        3.3320     8.4160     1.0350 C.3   1 <1>  -0.1600 
 22 C        4.5000     9.4000     0.9100 C.3   1 <1>  -0.2400 
 23 H        1.5490     0.9860     0.3860 H     1 <1>   0.0800 
 24 H        0.6450    -0.2370    -0.5010 H     1 <1>   0.0800 
 25 H       -1.7260    -0.8250     0.6860 H     1 <1>   0.0800 
 26 H       -2.1370     0.5830     1.6570 H     1 <1>   0.0800 
 27 H       -0.0180     1.9170    -1.5940 H     1 <1>   0.0800 
 28 H       -1.7510     0.3350    -1.2480 H     1 <1>   0.0800 
 29 H       -1.0700     3.5320     0.0970 H     1 <1>   0.4500 
 30 H       -0.3740     2.5540     1.2360 H     1 <1>   0.4500 
 31 H       -2.9230     2.5210    -1.3870 H     1 <1>   0.0800 
 32 H       -2.9220     2.6300     0.3530 H     1 <1>   0.0800 
 33 H        1.8490     3.0700     0.3410 H     1 <1>   0.0800 
 34 H        0.1330     5.3130     1.4460 H     1 <1>   0.0800 
 35 H        1.0180     4.1220     2.3630 H     1 <1>   0.0800 
 36 H        1.1980     3.8420    -1.8870 H     1 <1>   0.0800 
 37 H        0.2390     5.1310    -1.2090 H     1 <1>   0.0800 
 38 H       -4.1690     0.5350    -2.4930 H     1 <1>   0.1500 
 39 H       -4.6010     1.4080     1.6600 H     1 <1>   0.1500 
 40 H        3.1380     4.9800     1.5610 H     1 <1>   0.0800 
 41 H        2.2000     6.2780     2.2530 H     1 <1>   0.0800 
 42 H        2.3700     6.0090    -1.9590 H     1 <1>   0.0800 
 43 H        3.2420     4.8150    -1.0330 H     1 <1>   0.0800 
 44 H       -6.1810    -0.8070    -2.3240 H     1 <1>   0.1500 
 45 H       -6.5920     0.0290     1.6480 H     1 <1>   0.1500 
 46 H        1.5150     6.9500     0.0610 H     1 <1>   0.4500 
 47 H        4.4160     6.6780     0.3770 H     1 <1>   0.0800 
 48 H        3.6670     7.5970    -0.9040 H     1 <1>   0.0800 
 49 H        2.4230     8.9360     0.7850 H     1 <1>   0.0800 
 50 H        3.2770     8.0920     2.0590 H     1 <1>   0.0800 
 51 H        4.5780     9.7800    -0.0950 H     1 <1>   0.0800 
 52 H        5.4310     8.9290     1.1750 H     1 <1>   0.0800 
 53 H        4.3490    10.2360     1.5720 H     1 <1>   0.0800 
@<TRIPOS>BOND
  1   1   2  1   
  2   1   3  1   
  3   2   4  1   
  4   2  23  1   
  5   2  24  1   
  6   3   5  1   
  7   3  25  1   
  8   3  26  1   
  9   4   5  1   
 10   4   6  1   
 11   4  27  1   
 12   5   7  1   
 13   5  28  1   
 14   6   8  1   
 15   6  29  1   
 16   6  30  1   
 17   7   9  1   
 18   7  31  1   
 19   7  32  1   
 20   8  10  1   
 21   8  11  1   
 22   8  33  1   
 23   9  12  ar  
 24   9  13  ar  
 25  10  14  1   
 26  10  34  1   
 27  10  35  1   
 28  11  15  1   
 29  11  36  1   
 30  11  37  1   
 31  12  16  ar  
 32  12  38  1   
 33  13  17  ar  
 34  13  39  1   
 35  14  18  1   
 36  14  40  1   
 37  14  41  1   
 38  15  18  1   
 39  15  42  1   
 40  15  43  1   
 41  16  19  ar  
 42  16  44  1   
 43  17  19  ar  
 44  17  45  1   
 45  18  20  1   
 46  18  46  1   
 47  20  21  1   
 48  20  47  1   
 49  20  48  1   
 50  21  22  1   
 51  21  49  1   
 52  21  50  1   
 53  22  51  1   
 54  22  52  1   
 55  22  53  1   
@<TRIPOS>SUBSTRUCTURE
  1 ****   6 GROUP 4 **** **** 0

# MOE 2024.06 (io_trps.svl 2023.06)
