@<TRIPOS>MOLECULE
NONAME
44 45 1 0 0 
SMALL
USER_CHARGES


@<TRIPOS>ATOM
  1 O        1.1990     2.1770     2.3810 O.3   1 <1>  -0.3630 
  2 C        2.2260     2.1850     1.4830 C.ar  1 <1>   0.0830 
  3 C        0.5090     0.9770     2.6650 C.3   1 <1>   0.0400 
  4 C        2.6830     1.0850     0.7820 C.ar  1 <1>   0.1600 
  5 C        2.8740     3.3740     1.2400 C.ar  1 <1>   0.1600 
  6 N        3.6790     1.1610    -0.0700 N.ar  1 <1>  -0.6200 
  7 N        3.8760     3.4850     0.3920 N.ar  1 <1>  -0.6200 
  8 C        4.2350     2.3590    -0.2300 C.ar  1 <1>   0.7200 
  9 N        5.2910     2.4510    -1.1230 N.pl3 1 <1>  -0.8380 
 10 C        5.6740     3.7640    -1.7060 C.3   1 <1>   0.2090 
 11 C        5.7830     1.2410    -1.8520 C.3   1 <1>   0.1290 
 12 C        6.5530     4.5340    -0.7000 C.3   1 <1>   0.3430 
 13 N        6.3420     6.0250    -0.7140 N.4   1 <1>  -0.9590 
 14 C        7.4670     6.7110    -0.0050 C.3   1 <1>   0.4230 
 15 C        4.9800     6.3590    -0.1690 C.3   1 <1>   0.2630 
 16 C        7.4960     6.4230     1.5060 C.3   1 <1>  -0.1600 
 17 C        7.3540     8.2320    -0.1390 C.3   1 <1>  -0.1600 
 18 C        7.3260     7.7640     2.2310 C.3   1 <1>  -0.1600 
 19 C        6.7990     8.7460     1.1900 C.3   1 <1>  -0.1600 
 20 H       -0.2520     1.1940     3.3930 H     1 <1>   0.0800 
 21 H        1.2020     0.2600     3.0670 H     1 <1>   0.0800 
 22 H        0.0540     0.6110     1.7610 H     1 <1>   0.0800 
 23 H        2.2280     0.1210     0.9170 H     1 <1>   0.1500 
 24 H        2.5450     4.2510     1.7700 H     1 <1>   0.1500 
 25 H        4.7750     4.3100    -1.9310 H     1 <1>   0.0800 
 26 H        6.2150     3.6190    -2.6240 H     1 <1>   0.0800 
 27 H        5.8300     0.3960    -1.1850 H     1 <1>   0.0800 
 28 H        6.7690     1.4090    -2.2470 H     1 <1>   0.0800 
 29 H        5.1110     1.0050    -2.6590 H     1 <1>   0.0800 
 30 H        7.5850     4.3070    -0.9100 H     1 <1>   0.0800 
 31 H        6.3290     4.1620     0.2860 H     1 <1>   0.0800 
 32 H        6.3770     6.3430    -1.6900 H     1 <1>   0.4500 
 33 H        8.4000     6.3970    -0.4450 H     1 <1>   0.0800 
 34 H        4.8980     6.0450     0.8590 H     1 <1>   0.0800 
 35 H        4.2110     5.8550    -0.7310 H     1 <1>   0.0800 
 36 H        4.8010     7.4200    -0.2230 H     1 <1>   0.0800 
 37 H        8.4460     5.9960     1.7740 H     1 <1>   0.0800 
 38 H        6.7260     5.7390     1.8130 H     1 <1>   0.0800 
 39 H        6.7640     8.5490    -0.9810 H     1 <1>   0.0800 
 40 H        8.3480     8.6280    -0.2570 H     1 <1>   0.0800 
 41 H        8.2870     8.1050     2.5810 H     1 <1>   0.0800 
 42 H        6.6640     7.6870     3.0770 H     1 <1>   0.0800 
 43 H        5.7230     8.7270     1.1840 H     1 <1>   0.0800 
 44 H        7.1200     9.7540     1.3950 H     1 <1>   0.0800 
@<TRIPOS>BOND
  1   1   2  1   
  2   1   3  1   
  3   2   4  ar  
  4   2   5  ar  
  5   3  20  1   
  6   3  21  1   
  7   3  22  1   
  8   4   6  ar  
  9   4  23  1   
 10   5   7  ar  
 11   5  24  1   
 12   6   8  ar  
 13   7   8  ar  
 14   8   9  1   
 15   9  10  1   
 16   9  11  1   
 17  10  12  1   
 18  10  25  1   
 19  10  26  1   
 20  11  27  1   
 21  11  28  1   
 22  11  29  1   
 23  12  13  1   
 24  12  30  1   
 25  12  31  1   
 26  13  14  1   
 27  13  15  1   
 28  13  32  1   
 29  14  16  1   
 30  14  17  1   
 31  14  33  1   
 32  15  34  1   
 33  15  35  1   
 34  15  36  1   
 35  16  18  1   
 36  16  37  1   
 37  16  38  1   
 38  17  19  1   
 39  17  39  1   
 40  17  40  1   
 41  18  19  1   
 42  18  41  1   
 43  18  42  1   
 44  19  43  1   
 45  19  44  1   
@<TRIPOS>SUBSTRUCTURE
  1 ****   7 GROUP 4 **** **** 0

# MOE 2024.06 (io_trps.svl 2023.06)
