@<TRIPOS>MOLECULE
NONAME
50 53 1 0 0 
SMALL
USER_CHARGES


@<TRIPOS>ATOM
  1 O        3.4710    -1.8290    -1.4990 O.2   1 <1>  -0.5700 
  2 C        2.5940    -1.6330    -0.6770 C.2   1 <1>   0.5440 
  3 N        2.4440    -0.3270    -0.2880 N.am  1 <1>  -0.6600 
  4 C        1.8810    -2.7380    -0.0810 C.ar  1 <1>   0.0860 
  5 C        2.9960     0.0770     1.0510 C.3   1 <1>   0.2200 
  6 C        2.2770     0.7260    -1.3420 C.3   1 <1>   0.1400 
  7 C        0.6160    -2.6640     0.5140 C.ar  1 <1>   0.3100 
  8 C        2.4720    -3.9900    -0.0570 C.ar  1 <1>   0.1600 
  9 C        2.3620     1.3650     1.6020 C.3   1 <1>   0.1200 
 10 C        4.5420     0.2070     0.9830 C.3   1 <1>   0.3430 
 11 C        3.2080     1.9450    -1.2020 C.3   1 <1>  -0.0800 
 12 N        0.0810    -3.7080     1.1210 N.ar  1 <1>  -0.6200 
 13 C       -0.1820    -1.4590     0.5030 C.ar  1 <1>   0.0000 
 14 N        1.9420    -5.0350     0.5230 N.ar  1 <1>  -0.6200 
 15 O        3.0560     2.4880     1.1470 O.3   1 <1>  -0.5600 
 16 N        5.0540     0.3340    -0.4290 N.4   1 <1>  -0.9590 
 17 C        2.7170     2.9260    -0.1250 C.3   1 <1>   0.1200 
 18 C        4.7170     1.6410    -1.0760 C.3   1 <1>   0.3430 
 19 C        0.7730    -4.8260     1.0950 C.ar  1 <1>   0.7200 
 20 C       -0.6770    -0.9260    -0.6870 C.ar  1 <1>  -0.1500 
 21 C       -0.4900    -0.7960     1.6900 C.ar  1 <1>  -0.1500 
 22 C        6.5100     0.0330    -0.5200 C.3   1 <1>   0.2630 
 23 N        0.2270    -5.8720     1.7060 N.pl3 1 <1>  -0.9000 
 24 C       -1.4210     0.2400    -0.6950 C.ar  1 <1>  -0.1500 
 25 C       -1.2340     0.3700     1.6880 C.ar  1 <1>  -0.1500 
 26 C       -1.6950     0.8940     0.4930 C.ar  1 <1>  -0.1500 
 27 H        2.7580    -0.7020     1.7550 H     1 <1>   0.0800 
 28 H        2.4350     0.2820    -2.3110 H     1 <1>   0.0800 
 29 H        1.2540     1.0630    -1.3220 H     1 <1>   0.0800 
 30 H        3.4290    -4.1280    -0.5340 H     1 <1>   0.1500 
 31 H        2.4460     1.3700     2.6750 H     1 <1>   0.0800 
 32 H        1.3190     1.4420     1.3470 H     1 <1>   0.0800 
 33 H        4.9650    -0.6770     1.4300 H     1 <1>   0.0800 
 34 H        4.8610     1.0510     1.5730 H     1 <1>   0.0800 
 35 H        3.0990     2.4920    -2.1210 H     1 <1>   0.0800 
 36 H        4.5300    -0.3950    -0.9640 H     1 <1>   0.4500 
 37 H        1.6500     3.0730    -0.1740 H     1 <1>   0.0800 
 38 H        3.1910     3.8840    -0.2590 H     1 <1>   0.0800 
 39 H        5.1890     2.4440    -0.5320 H     1 <1>   0.0800 
 40 H        5.1340     1.6380    -2.0700 H     1 <1>   0.0800 
 41 H       -0.4820    -1.4340    -1.6160 H     1 <1>   0.1500 
 42 H       -0.1510    -1.2090     2.6240 H     1 <1>   0.1500 
 43 H        7.0790     0.7620     0.0340 H     1 <1>   0.0800 
 44 H        6.8290     0.0520    -1.5500 H     1 <1>   0.0800 
 45 H        6.7130    -0.9470    -0.1190 H     1 <1>   0.0800 
 46 H       -0.7560    -5.8180     1.9610 H     1 <1>   0.4000 
 47 H        0.6230    -6.7900     1.5260 H     1 <1>   0.4000 
 48 H       -1.7970     0.6370    -1.6230 H     1 <1>   0.1500 
 49 H       -1.4640     0.8670     2.6150 H     1 <1>   0.1500 
 50 H       -2.2780     1.8000     0.4900 H     1 <1>   0.1500 
@<TRIPOS>BOND
  1   1   2  2   
  2   2   3  am  
  3   2   4  1   
  4   3   5  1   
  5   3   6  1   
  6   4   7  ar  
  7   4   8  ar  
  8   5   9  1   
  9   5  10  1   
 10   5  27  1   
 11   6  11  1   
 12   6  28  1   
 13   6  29  1   
 14   7  12  ar  
 15   7  13  1   
 16   8  14  ar  
 17   8  30  1   
 18   9  15  1   
 19   9  31  1   
 20   9  32  1   
 21  10  16  1   
 22  10  33  1   
 23  10  34  1   
 24  11  17  1   
 25  11  18  1   
 26  11  35  1   
 27  12  19  ar  
 28  13  20  ar  
 29  13  21  ar  
 30  14  19  ar  
 31  15  17  1   
 32  16  18  1   
 33  16  22  1   
 34  16  36  1   
 35  17  37  1   
 36  17  38  1   
 37  18  39  1   
 38  18  40  1   
 39  19  23  1   
 40  20  24  ar  
 41  20  41  1   
 42  21  25  ar  
 43  21  42  1   
 44  22  43  1   
 45  22  44  1   
 46  22  45  1   
 47  23  46  1   
 48  23  47  1   
 49  24  26  ar  
 50  24  48  1   
 51  25  26  ar  
 52  25  49  1   
 53  26  50  1   
@<TRIPOS>SUBSTRUCTURE
  1 ****   3 GROUP 4 **** **** 0

# MOE 2024.06 (io_trps.svl 2023.06)
