@<TRIPOS>MOLECULE
NONAME
48 50 1 0 0 
SMALL
USER_CHARGES


@<TRIPOS>ATOM
  1 O        1.4290    -0.0800     0.3760 O.co2 1 <1>  -0.9000 
  2 C        2.3870    -0.5100    -0.2940 C.2   1 <1>   0.9790 
  3 O        2.2950    -1.6450    -0.7990 O.co2 1 <1>  -0.9000 
  4 C        3.5870     0.2950    -0.4820 C.ar  1 <1>  -0.1790 
  5 C        4.6640    -0.1610    -1.2460 C.ar  1 <1>  -0.1500 
  6 C        3.7190     1.5620     0.0930 C.ar  1 <1>  -0.1500 
  7 C        5.8030     0.6010    -1.4220 C.ar  1 <1>  -0.1500 
  8 C        4.8580     2.3250    -0.0800 C.ar  1 <1>  -0.1500 
  9 C        5.9250     1.8580    -0.8410 C.ar  1 <1>   0.1000 
 10 N        7.0950     2.5940    -1.0240 N.pl3 1 <1>  -0.8380 
 11 C        7.0570     4.0770    -1.1800 C.3   1 <1>   0.2090 
 12 C        8.3540     2.0750    -0.4170 C.3   1 <1>   0.2090 
 13 C        7.5040     4.8000     0.1080 C.3   1 <1>   0.1100 
 14 C        8.7330     2.8630     0.8530 C.3   1 <1>   0.1100 
 15 N        8.8200     4.3210     0.6040 N.3   1 <1>  -0.8100 
 16 C        9.2150     5.0480     1.8490 C.3   1 <1>   0.1710 
 17 C        9.6800     6.4820     1.5940 C.2   1 <1>   0.5690 
 18 O        9.6210     7.2920     2.4920 O.2   1 <1>  -0.5700 
 19 N       10.1350     6.7520     0.3410 N.am  1 <1>  -0.4930 
 20 C       10.5910     7.9620    -0.2350 C.2   1 <1>   0.0630 
 21 C       10.9680     8.1710    -1.5630 C.2   1 <1>   0.1080 
 22 C       10.7590     9.1620     0.3540 C.2   1 <1>  -0.3020 
 23 N       11.3370     9.3950    -1.7830 N.2   1 <1>  -0.7070 
 24 C       10.9620     7.1190    -2.6490 C.3   1 <1>  -0.0590 
 25 N       11.2070    10.0090    -0.5940 N.pl3 1 <1>   0.3140 
 26 C       11.5360    11.4250    -0.4110 C.3   1 <1>   0.0160 
 27 H        4.5880    -1.1320    -1.7040 H     1 <1>   0.1500 
 28 H        2.9020     1.9370     0.6860 H     1 <1>   0.1500 
 29 H        6.6100     0.2260    -2.0210 H     1 <1>   0.1500 
 30 H        4.9170     3.2860     0.3870 H     1 <1>   0.1500 
 31 H        6.0620     4.3880    -1.4460 H     1 <1>   0.0800 
 32 H        7.7130     4.3560    -1.9850 H     1 <1>   0.0800 
 33 H        9.1490     2.1540    -1.1360 H     1 <1>   0.0800 
 34 H        8.2330     1.0360    -0.1650 H     1 <1>   0.0800 
 35 H        6.7540     4.6450     0.8640 H     1 <1>   0.0800 
 36 H        7.5500     5.8560    -0.0950 H     1 <1>   0.0800 
 37 H        9.6820     2.5010     1.2080 H     1 <1>   0.0800 
 38 H        7.9940     2.6630     1.6110 H     1 <1>   0.0800 
 39 H       10.0340     4.5320     2.3180 H     1 <1>   0.0800 
 40 H        8.3940     5.0650     2.5450 H     1 <1>   0.0800 
 41 H       10.0580     5.9430    -0.2820 H     1 <1>   0.3700 
 42 H       10.5850     9.4450     1.3750 H     1 <1>   0.1500 
 43 H       11.6620     6.3420    -2.4050 H     1 <1>   0.0800 
 44 H       11.2470     7.5620    -3.5860 H     1 <1>   0.0800 
 45 H        9.9790     6.7000    -2.7470 H     1 <1>   0.0800 
 46 H       10.7690    11.8940     0.1750 H     1 <1>   0.0800 
 47 H       11.5980    11.8980    -1.3730 H     1 <1>   0.0800 
 48 H       12.4820    11.5020     0.0910 H     1 <1>   0.0800 
@<TRIPOS>BOND
  1   1   2  ar  
  2   2   3  ar  
  3   2   4  1   
  4   4   5  ar  
  5   4   6  ar  
  6   5   7  ar  
  7   5  27  1   
  8   6   8  ar  
  9   6  28  1   
 10   7   9  ar  
 11   7  29  1   
 12   8   9  ar  
 13   8  30  1   
 14   9  10  1   
 15  10  11  1   
 16  10  12  1   
 17  11  13  1   
 18  11  31  1   
 19  11  32  1   
 20  12  14  1   
 21  12  33  1   
 22  12  34  1   
 23  13  15  1   
 24  13  35  1   
 25  13  36  1   
 26  14  15  1   
 27  14  37  1   
 28  14  38  1   
 29  15  16  1   
 30  16  17  1   
 31  16  39  1   
 32  16  40  1   
 33  17  18  2   
 34  17  19  am  
 35  19  20  1   
 36  19  41  1   
 37  20  21  1   
 38  20  22  2   
 39  21  23  2   
 40  21  24  1   
 41  22  25  1   
 42  22  42  1   
 43  23  25  1   
 44  24  43  1   
 45  24  44  1   
 46  24  45  1   
 47  25  26  1   
 48  26  46  1   
 49  26  47  1   
 50  26  48  1   
@<TRIPOS>SUBSTRUCTURE
  1 ****  13 GROUP 4 **** **** 0

# MOE 2024.06 (io_trps.svl 2023.06)
