@<TRIPOS>MOLECULE
NONAME
43 46 1 0 0 
SMALL
USER_CHARGES


@<TRIPOS>ATOM
  1 S        0.8640    -0.3820     0.0060 S.3   1 <1>  -0.0800 
  2 C        1.2600     1.1170     0.7740 C.2   1 <1>   0.4620 
  3 C       -0.8200    -0.0320     0.2870 C.2   1 <1>   0.3250 
  4 N        0.2070     1.7460     1.1610 N.2   1 <1>  -0.3380 
  5 N        2.5690     1.5410     0.8860 N.pl3 1 <1>  -0.8220 
  6 N       -0.9550     1.1040     0.8790 N.2   1 <1>  -0.3380 
  7 C       -1.8410    -0.9610    -0.1440 C.ar  1 <1>   0.0530 
  8 C        2.9090     2.6970     1.7810 C.3   1 <1>   0.2090 
  9 C        3.7070     0.9960     0.0890 C.3   1 <1>   0.2090 
 10 C       -3.1900    -0.6420     0.0280 C.ar  1 <1>  -0.1500 
 11 C       -1.5550    -2.1940    -0.7410 C.ar  1 <1>  -0.1500 
 12 C        3.3810     3.9880     1.0470 C.3   1 <1>   0.4230 
 13 C        4.1660     2.0160    -0.9750 C.3   1 <1>  -0.0800 
 14 C       -4.1990    -1.4960    -0.3740 C.ar  1 <1>  -0.1500 
 15 C       -2.5600    -3.0530    -1.1460 C.ar  1 <1>  -0.1500 
 16 N        2.8700     4.1810    -0.3740 N.4   1 <1>  -0.9590 
 17 C        4.9160     4.1460     1.1100 C.3   1 <1>   0.1200 
 18 C        5.5200     2.6690    -0.6540 C.3   1 <1>   0.1200 
 19 C        3.0630     3.0300    -1.3280 C.3   1 <1>   0.3430 
 20 C       -3.8860    -2.7060    -0.9640 C.ar  1 <1>  -0.1500 
 21 C        1.4170     4.5390    -0.3470 C.3   1 <1>   0.2630 
 22 O        5.6030     3.0090     0.6910 O.3   1 <1>  -0.5600 
 23 H        2.0510     2.9510     2.3790 H     1 <1>   0.0800 
 24 H        3.6690     2.3820     2.4770 H     1 <1>   0.0800 
 25 H        4.5190     0.7390     0.7500 H     1 <1>   0.0800 
 26 H        3.4130     0.0870    -0.4050 H     1 <1>   0.0800 
 27 H       -3.4560     0.2950     0.4880 H     1 <1>   0.1500 
 28 H       -0.5380    -2.5020    -0.8960 H     1 <1>   0.1500 
 29 H        3.0010     4.8100     1.6300 H     1 <1>   0.0800 
 30 H        4.3300     1.4470    -1.8720 H     1 <1>   0.0800 
 31 H       -5.2300    -1.2210    -0.2280 H     1 <1>   0.1500 
 32 H       -2.3130    -3.9960    -1.6030 H     1 <1>   0.1500 
 33 H        3.3850     4.9810    -0.7620 H     1 <1>   0.4500 
 34 H        5.2060     4.3100     2.1340 H     1 <1>   0.0800 
 35 H        5.2510     4.9910     0.5350 H     1 <1>   0.0800 
 36 H        5.7130     3.5380    -1.2600 H     1 <1>   0.0800 
 37 H        6.3080     1.9560    -0.8340 H     1 <1>   0.0800 
 38 H        2.1380     2.4800    -1.4000 H     1 <1>   0.0800 
 39 H        3.2660     3.4280    -2.3090 H     1 <1>   0.0800 
 40 H       -4.6690    -3.3740    -1.2790 H     1 <1>   0.1500 
 41 H        0.8360     3.7200     0.0420 H     1 <1>   0.0800 
 42 H        1.0650     4.7610    -1.3420 H     1 <1>   0.0800 
 43 H        1.2500     5.4030     0.2760 H     1 <1>   0.0800 
@<TRIPOS>BOND
  1   1   2  1   
  2   1   3  1   
  3   2   4  2   
  4   2   5  1   
  5   3   6  2   
  6   3   7  1   
  7   4   6  1   
  8   5   8  1   
  9   5   9  1   
 10   7  10  ar  
 11   7  11  ar  
 12   8  12  1   
 13   8  23  1   
 14   8  24  1   
 15   9  13  1   
 16   9  25  1   
 17   9  26  1   
 18  10  14  ar  
 19  10  27  1   
 20  11  15  ar  
 21  11  28  1   
 22  12  16  1   
 23  12  17  1   
 24  12  29  1   
 25  13  18  1   
 26  13  19  1   
 27  13  30  1   
 28  14  20  ar  
 29  14  31  1   
 30  15  20  ar  
 31  15  32  1   
 32  16  19  1   
 33  16  21  1   
 34  16  33  1   
 35  17  22  1   
 36  17  34  1   
 37  17  35  1   
 38  18  22  1   
 39  18  36  1   
 40  18  37  1   
 41  19  38  1   
 42  19  39  1   
 43  20  40  1   
 44  21  41  1   
 45  21  42  1   
 46  21  43  1   
@<TRIPOS>SUBSTRUCTURE
  1 ****   2 GROUP 4 **** **** 0

# MOE 2024.06 (io_trps.svl 2023.06)
