@<TRIPOS>MOLECULE
NONAME
47 49 1 0 0 
SMALL
USER_CHARGES


@<TRIPOS>ATOM
  1 S       -1.6000    -0.2030    -0.4950 S.3   1 <1>  -0.0800 
  2 C       -0.5620     1.0920    -0.0160 C.2   1 <1>   0.1980 
  3 C       -0.8570    -1.1410     0.7540 C.2   1 <1>   0.1980 
  4 N        0.2040     0.7870     0.9530 N.2   1 <1>  -0.3380 
  5 C       -0.6540     2.4150    -0.7600 C.3   1 <1>   0.5230 
  6 N        0.0350    -0.4950     1.3910 N.2   1 <1>  -0.3380 
  7 C       -1.3210    -2.5670     0.9530 C.3   1 <1>  -0.0600 
  8 N        0.4810     3.3210    -0.3810 N.4   1 <1>  -0.9590 
  9 C        0.2190     4.7620    -0.6980 C.3   1 <1>   0.3430 
 10 C        1.7870     2.8410    -0.9170 C.3   1 <1>   0.3430 
 11 C        1.4990     5.6190    -0.6550 C.3   1 <1>  -0.0800 
 12 C        2.9240     3.5660    -0.1880 C.3   1 <1>  -0.1600 
 13 C        2.5730     4.9980     0.2600 C.3   1 <1>  -0.1600 
 14 C        1.1520     7.0560    -0.2370 C.3   1 <1>   0.1200 
 15 O        2.3130     7.8420    -0.3470 O.3   1 <1>  -0.3630 
 16 C        2.3110     9.1590    -0.0190 C.ar  1 <1>   0.0820 
 17 C        3.5110     9.8350    -0.1550 C.ar  1 <1>  -0.1500 
 18 C        1.1870     9.8430     0.4360 C.ar  1 <1>  -0.1500 
 19 C        3.6080    11.1800     0.1560 C.ar  1 <1>   0.0820 
 20 C        1.2770    11.1890     0.7490 C.ar  1 <1>  -0.1500 
 21 O        4.8230    11.7600    -0.0080 O.3   1 <1>  -0.3620 
 22 C        2.4810    11.8600     0.6110 C.ar  1 <1>  -0.1500 
 23 C        5.0290    13.1240     0.2800 C.3   1 <1>   0.0400 
 24 H       -1.5930     2.8790    -0.5040 H     1 <1>   0.0800 
 25 H       -0.6430     2.2330    -1.8210 H     1 <1>   0.0800 
 26 H       -1.1550    -3.1360     0.0570 H     1 <1>   0.0800 
 27 H       -2.3670    -2.5830     1.1940 H     1 <1>   0.0800 
 28 H       -0.7710    -3.0200     1.7590 H     1 <1>   0.0800 
 29 H        0.5780     3.2260     0.6440 H     1 <1>   0.4500 
 30 H       -0.4890     5.1500     0.0160 H     1 <1>   0.0800 
 31 H       -0.2180     4.8520    -1.6800 H     1 <1>   0.0800 
 32 H        1.8430     3.0500    -1.9730 H     1 <1>   0.0800 
 33 H        1.8950     1.7760    -0.7720 H     1 <1>   0.0800 
 34 H        1.8890     5.6690    -1.6570 H     1 <1>   0.0800 
 35 H        3.7720     3.5980    -0.8500 H     1 <1>   0.0800 
 36 H        3.2230     2.9890     0.6700 H     1 <1>   0.0800 
 37 H        2.2090     4.9780     1.2740 H     1 <1>   0.0800 
 38 H        3.4680     5.6000     0.2560 H     1 <1>   0.0800 
 39 H        0.8180     7.0920     0.7860 H     1 <1>   0.0800 
 40 H        0.4060     7.4790    -0.8870 H     1 <1>   0.0800 
 41 H        4.3810     9.3130    -0.5060 H     1 <1>   0.1500 
 42 H        0.2390     9.3560     0.5550 H     1 <1>   0.1500 
 43 H        0.4080    11.7170     1.1010 H     1 <1>   0.1500 
 44 H        2.5210    12.9030     0.8610 H     1 <1>   0.1500 
 45 H        6.0590    13.3560     0.0760 H     1 <1>   0.0800 
 46 H        4.8140    13.2980     1.3190 H     1 <1>   0.0800 
 47 H        4.3900    13.7150    -0.3520 H     1 <1>   0.0800 
@<TRIPOS>BOND
  1   1   2  1   
  2   1   3  1   
  3   2   4  2   
  4   2   5  1   
  5   3   6  2   
  6   3   7  1   
  7   4   6  1   
  8   5   8  1   
  9   5  24  1   
 10   5  25  1   
 11   7  26  1   
 12   7  27  1   
 13   7  28  1   
 14   8   9  1   
 15   8  10  1   
 16   8  29  1   
 17   9  11  1   
 18   9  30  1   
 19   9  31  1   
 20  10  12  1   
 21  10  32  1   
 22  10  33  1   
 23  11  13  1   
 24  11  14  1   
 25  11  34  1   
 26  12  13  1   
 27  12  35  1   
 28  12  36  1   
 29  13  37  1   
 30  13  38  1   
 31  14  15  1   
 32  14  39  1   
 33  14  40  1   
 34  15  16  1   
 35  16  17  ar  
 36  16  18  ar  
 37  17  19  ar  
 38  17  41  1   
 39  18  20  ar  
 40  18  42  1   
 41  19  21  1   
 42  19  22  ar  
 43  20  22  ar  
 44  20  43  1   
 45  21  23  1   
 46  22  44  1   
 47  23  45  1   
 48  23  46  1   
 49  23  47  1   
@<TRIPOS>SUBSTRUCTURE
  1 ****  11 GROUP 4 **** **** 0

# MOE 2024.06 (io_trps.svl 2023.06)
