@<TRIPOS>MOLECULE
NONAME
52 56 1 0 0 
SMALL
USER_CHARGES


@<TRIPOS>ATOM
  1 CL      -0.1880    -1.9170    -1.8150 Cl    1 <1>  -0.1770 
  2 C       -1.5290    -1.9150    -0.6920 C.ar  1 <1>   0.1770 
  3 C       -1.5110    -2.6810     0.4790 C.ar  1 <1>   0.0860 
  4 C       -2.6000    -1.1060    -1.0260 C.ar  1 <1>  -0.1500 
  5 C       -0.4210    -3.5560     0.8730 C.2   1 <1>   0.5440 
  6 C       -2.6330    -2.5740     1.3060 C.ar  1 <1>  -0.1500 
  7 C       -3.6970    -1.0290    -0.1880 C.ar  1 <1>  -0.1500 
  8 O       -0.1780    -3.7340     2.0510 O.2   1 <1>  -0.5700 
  9 N        0.3320    -4.2380    -0.0420 N.am  1 <1>  -0.7300 
 10 C       -3.7090    -1.7660     0.9830 C.ar  1 <1>  -0.1500 
 11 C        1.5010    -5.0880     0.2820 C.3   1 <1>   0.1400 
 12 C        1.0400    -6.5080     0.6400 C.3   1 <1>  -0.0800 
 13 C        0.4710    -7.2440    -0.5830 C.3   1 <1>   0.2000 
 14 C        2.1640    -7.4840     1.0530 C.3   1 <1>  -0.0800 
 15 O        1.6150    -7.8090    -1.1040 O.3   1 <1>  -0.5600 
 16 C       -0.3120    -8.4970    -0.1660 C.3   1 <1>  -0.1600 
 17 C        2.0380    -8.5610    -0.0210 C.3   1 <1>   0.2800 
 18 C        3.6360    -7.0500     0.9680 C.3   1 <1>   0.2090 
 19 C        0.8220    -9.4580     0.2120 C.3   1 <1>  -0.1600 
 20 C        3.4280    -9.1760    -0.2070 C.3   1 <1>   0.2090 
 21 N        4.3620    -8.2380     0.4710 N.pl3 1 <1>  -0.8220 
 22 C        5.7150    -8.1940     0.2400 C.2   1 <1>   0.4620 
 23 S        6.4950    -9.5440    -0.5740 S.3   1 <1>  -0.0800 
 24 N        6.5260    -7.2520     0.5610 N.2   1 <1>  -0.5650 
 25 C        8.0260    -8.7210    -0.4470 C.2   1 <1>  -0.1400 
 26 C        7.8190    -7.5470     0.1750 C.2   1 <1>   0.0460 
 27 C        9.2310    -9.4360    -1.0250 C.3   1 <1>  -0.0600 
 28 C        8.8570    -6.4960     0.5070 C.3   1 <1>  -0.0590 
 29 H       -2.5730    -0.5350    -1.9370 H     1 <1>   0.1500 
 30 H       -2.6580    -3.1380     2.2240 H     1 <1>   0.1500 
 31 H       -4.5340    -0.4000    -0.4410 H     1 <1>   0.1500 
 32 H        0.2160    -4.0160    -1.0340 H     1 <1>   0.3700 
 33 H       -4.5580    -1.7100     1.6440 H     1 <1>   0.1500 
 34 H        2.1630    -5.1110    -0.5670 H     1 <1>   0.0800 
 35 H        2.0280    -4.6570     1.1170 H     1 <1>   0.0800 
 36 H        0.3030    -6.4410     1.4210 H     1 <1>   0.0800 
 37 H       -0.0270    -6.6230    -1.3080 H     1 <1>   0.0800 
 38 H        1.9850    -7.9010     2.0280 H     1 <1>   0.0800 
 39 H       -0.9800    -8.2960     0.6530 H     1 <1>   0.0800 
 40 H       -0.8730    -8.8750    -1.0020 H     1 <1>   0.0800 
 41 H        4.0170    -6.7490     1.9290 H     1 <1>   0.0800 
 42 H        3.7880    -6.2560     0.2600 H     1 <1>   0.0800 
 43 H        0.8500   -10.3030    -0.4530 H     1 <1>   0.0800 
 44 H        0.7610    -9.7980     1.2310 H     1 <1>   0.0800 
 45 H        3.6620    -9.2780    -1.2520 H     1 <1>   0.0800 
 46 H        3.4820   -10.1320     0.2810 H     1 <1>   0.0800 
 47 H       10.1210    -8.8500    -0.8980 H     1 <1>   0.0800 
 48 H        9.0800    -9.6120    -2.0750 H     1 <1>   0.0800 
 49 H        9.3650   -10.3810    -0.5300 H     1 <1>   0.0800 
 50 H        9.8330    -6.7980     0.1780 H     1 <1>   0.0800 
 51 H        8.8790    -6.3390     1.5700 H     1 <1>   0.0800 
 52 H        8.5960    -5.5720     0.0260 H     1 <1>   0.0800 
@<TRIPOS>BOND
  1   1   2  1   
  2   2   3  ar  
  3   2   4  ar  
  4   3   5  1   
  5   3   6  ar  
  6   4   7  ar  
  7   4  29  1   
  8   5   8  2   
  9   5   9  am  
 10   6  10  ar  
 11   6  30  1   
 12   7  10  ar  
 13   7  31  1   
 14   9  11  1   
 15   9  32  1   
 16  10  33  1   
 17  11  12  1   
 18  11  34  1   
 19  11  35  1   
 20  12  13  1   
 21  12  14  1   
 22  12  36  1   
 23  13  15  1   
 24  13  16  1   
 25  13  37  1   
 26  14  17  1   
 27  14  18  1   
 28  14  38  1   
 29  15  17  1   
 30  16  19  1   
 31  16  39  1   
 32  16  40  1   
 33  17  19  1   
 34  17  20  1   
 35  18  21  1   
 36  18  41  1   
 37  18  42  1   
 38  19  43  1   
 39  19  44  1   
 40  20  21  1   
 41  20  45  1   
 42  20  46  1   
 43  21  22  1   
 44  22  23  1   
 45  22  24  2   
 46  23  25  1   
 47  24  26  1   
 48  25  26  2   
 49  25  27  1   
 50  26  28  1   
 51  27  47  1   
 52  27  48  1   
 53  27  49  1   
 54  28  50  1   
 55  28  51  1   
 56  28  52  1   
@<TRIPOS>SUBSTRUCTURE
  1 ****  11 GROUP 4 **** **** 0

# MOE 2024.06 (io_trps.svl 2023.06)
