@<TRIPOS>MOLECULE
NONAME
43 45 1 0 0 
SMALL
USER_CHARGES


@<TRIPOS>ATOM
  1 CL       1.5010    -3.9180    -0.7530 Cl    1 <1>  -0.1770 
  2 C        0.1410    -3.5040     0.2570 C.ar  1 <1>   0.1770 
  3 C       -1.1290    -3.4950    -0.2890 C.ar  1 <1>  -0.1500 
  4 C        0.3540    -3.1970     1.5860 C.ar  1 <1>  -0.1500 
  5 C       -2.2300    -3.1750     0.4980 C.ar  1 <1>  -0.0090 
  6 C       -0.7310    -2.8780     2.3820 C.ar  1 <1>  -0.1500 
  7 S       -3.9110    -3.2010    -0.1900 S.o2  1 <1>   1.4470 
  8 C       -2.0060    -2.8720     1.8380 C.ar  1 <1>  -0.1500 
  9 O       -3.8400    -3.1450    -1.6330 O.2   1 <1>  -0.6500 
 10 O       -4.7130    -2.2230     0.5140 O.2   1 <1>  -0.6500 
 11 N       -4.4800    -4.7300     0.2640 N.am  1 <1>  -0.8490 
 12 C       -3.6790    -5.8380    -0.3050 C.3   1 <1>   0.1960 
 13 C       -5.8840    -4.9280    -0.0900 C.3   1 <1>   0.1960 
 14 C       -4.2650    -7.2550    -0.0310 C.3   1 <1>  -0.1060 
 15 C       -6.4390    -6.1320     0.6850 C.3   1 <1>  -0.1600 
 16 C       -4.9300    -7.8350    -1.2890 C.2   1 <1>   0.9060 
 17 C       -5.3330    -7.1210     1.0780 C.3   1 <1>   0.2000 
 18 C       -3.1340    -8.2120     0.4360 C.3   1 <1>  -0.0650 
 19 O       -5.6260    -8.8570    -1.1750 O.co2 1 <1>  -0.9000 
 20 O       -4.7890    -7.2880    -2.3870 O.co2 1 <1>  -0.9000 
 21 O       -5.9160    -8.3420     1.3550 O.3   1 <1>  -0.6800 
 22 C       -1.9410    -8.2910    -0.5320 C.3   1 <1>  -0.1950 
 23 C       -0.6620    -8.9280    -0.0900 C.3   1 <1>  -0.2000 
 24 C       -0.7140    -7.4500    -0.3500 C.3   1 <1>  -0.2000 
 25 H       -1.2600    -3.7410    -1.3290 H     1 <1>   0.1500 
 26 H        1.3520    -3.2090     1.9870 H     1 <1>   0.1500 
 27 H       -0.5870    -2.6360     3.4220 H     1 <1>   0.1500 
 28 H       -2.8500    -2.6290     2.4640 H     1 <1>   0.1500 
 29 H       -3.5240    -5.6790    -1.3590 H     1 <1>   0.0800 
 30 H       -2.7110    -5.7840     0.1550 H     1 <1>   0.0800 
 31 H       -6.4640    -4.0530     0.1540 H     1 <1>   0.0800 
 32 H       -5.9660    -5.0990    -1.1530 H     1 <1>   0.0800 
 33 H       -7.1740    -6.6190     0.0670 H     1 <1>   0.0800 
 34 H       -6.9260    -5.7850     1.5770 H     1 <1>   0.0800 
 35 H       -4.8660    -6.7770     1.9860 H     1 <1>   0.0800 
 36 H       -2.7870    -7.9130     1.4080 H     1 <1>   0.0800 
 37 H       -3.5430    -9.2040     0.5370 H     1 <1>   0.0800 
 38 H       -6.0160    -8.7970     0.4640 H     1 <1>   0.4000 
 39 H       -2.2520    -8.5060    -1.5430 H     1 <1>   0.1000 
 40 H       -0.5810    -9.2750     0.9250 H     1 <1>   0.1000 
 41 H       -0.1440    -9.5630    -0.7870 H     1 <1>   0.1000 
 42 H       -0.2330    -7.0570    -1.2280 H     1 <1>   0.1000 
 43 H       -0.6340    -6.7890     0.4950 H     1 <1>   0.1000 
@<TRIPOS>BOND
  1   1   2  1   
  2   2   3  ar  
  3   2   4  ar  
  4   3   5  ar  
  5   3  25  1   
  6   4   6  ar  
  7   4  26  1   
  8   5   7  1   
  9   5   8  ar  
 10   6   8  ar  
 11   6  27  1   
 12   7   9  2   
 13   7  10  2   
 14   7  11  am  
 15   8  28  1   
 16  11  12  1   
 17  11  13  1   
 18  12  14  1   
 19  12  29  1   
 20  12  30  1   
 21  13  15  1   
 22  13  31  1   
 23  13  32  1   
 24  14  16  1   
 25  14  17  1   
 26  14  18  1   
 27  15  17  1   
 28  15  33  1   
 29  15  34  1   
 30  16  19  ar  
 31  16  20  ar  
 32  17  21  1   
 33  17  35  1   
 34  18  22  1   
 35  18  36  1   
 36  18  37  1   
 37  21  38  1   
 38  22  23  1   
 39  22  24  1   
 40  22  39  1   
 41  23  24  1   
 42  23  40  1   
 43  23  41  1   
 44  24  42  1   
 45  24  43  1   
@<TRIPOS>SUBSTRUCTURE
  1 ****  12 GROUP 4 **** **** 0

# MOE 2024.06 (io_trps.svl 2023.06)
