@<TRIPOS>MOLECULE
NONAME
48 50 1 0 0 
SMALL
USER_CHARGES


@<TRIPOS>ATOM
  1 O        0.2750     0.2300    -1.3810 O.3   1 <1>  -0.6800 
  2 C        1.4220    -0.3420    -1.9190 C.3   1 <1>   0.2000 
  3 C        1.6120    -1.7110    -1.2670 C.3   1 <1>  -0.0800 
  4 C        2.6400     0.4630    -1.4330 C.3   1 <1>   0.3430 
  5 C        2.1610    -1.3020     0.1020 C.3   1 <1>   0.3430 
  6 C        2.5890    -2.5870    -2.0960 C.3   1 <1>   0.0210 
  7 N        3.1480    -0.2450    -0.2120 N.4   1 <1>  -0.9590 
  8 C        3.6760    -3.2610    -1.2760 C.2   1 <1>   0.1080 
  9 C        3.4720     0.6460     0.9300 C.3   1 <1>   0.4860 
 10 N        4.7170    -2.6260    -0.8210 N.2   1 <1>  -0.7070 
 11 C        3.6870    -4.6080    -0.9340 C.2   1 <1>  -0.1500 
 12 C        4.2910     1.8360     0.4480 C.ar  1 <1>  -0.1440 
 13 N        5.4430    -3.5810    -0.1930 N.pl3 1 <1>   0.3000 
 14 C        4.8300    -4.7810    -0.2390 C.2   1 <1>  -0.3320 
 15 C        5.6150     1.6720     0.0390 C.ar  1 <1>  -0.1440 
 16 C        3.7050     3.1020     0.4070 C.ar  1 <1>  -0.1440 
 17 C        5.3890    -6.0480     0.3830 C.3   1 <1>  -0.0600 
 18 C        6.3280     2.7660    -0.4230 C.ar  1 <1>  -0.1500 
 19 C        6.3380     0.3300     0.0690 C.3   1 <1>  -0.0970 
 20 C        4.4390     4.1810    -0.0560 C.ar  1 <1>  -0.1500 
 21 C        2.2720     3.3580     0.8650 C.3   1 <1>  -0.0970 
 22 C        5.7440     4.0160    -0.4720 C.ar  1 <1>  -0.1500 
 23 H       -0.5340    -0.1190    -1.8120 H     1 <1>   0.4000 
 24 H        1.3320    -0.3580    -2.9920 H     1 <1>   0.0800 
 25 H        0.6800    -2.2360    -1.1520 H     1 <1>   0.0800 
 26 H        2.3490     1.4780    -1.2190 H     1 <1>   0.0800 
 27 H        3.4100     0.4700    -2.1850 H     1 <1>   0.0800 
 28 H        2.6140    -2.1290     0.6260 H     1 <1>   0.0800 
 29 H        1.3610    -0.8910     0.6960 H     1 <1>   0.0800 
 30 H        3.0880    -2.0000    -2.8470 H     1 <1>   0.0800 
 31 H        2.0290    -3.3410    -2.6200 H     1 <1>   0.0800 
 32 H        4.0100    -0.7590    -0.4840 H     1 <1>   0.4500 
 33 H        2.5610     0.9920     1.3850 H     1 <1>   0.0800 
 34 H        4.0290     0.1010     1.6740 H     1 <1>   0.0800 
 35 H        2.9400    -5.3410    -1.1870 H     1 <1>   0.1500 
 36 H        6.3540    -3.3970     0.2470 H     1 <1>   0.2700 
 37 H        4.7220    -6.8730     0.2070 H     1 <1>   0.0800 
 38 H        5.5070    -5.9250     1.4450 H     1 <1>   0.0800 
 39 H        6.3450    -6.2860    -0.0500 H     1 <1>   0.0800 
 40 H        7.3480     2.6560    -0.7480 H     1 <1>   0.1500 
 41 H        7.4010     0.4810     0.1450 H     1 <1>   0.0800 
 42 H        6.1430    -0.2130    -0.8380 H     1 <1>   0.0800 
 43 H        6.0380    -0.2630     0.9130 H     1 <1>   0.0800 
 44 H        4.0030     5.1650    -0.0950 H     1 <1>   0.1500 
 45 H        1.9920     4.3830     0.6960 H     1 <1>   0.0800 
 46 H        2.1800     3.1620     1.9180 H     1 <1>   0.0800 
 47 H        1.5770     2.7380     0.3280 H     1 <1>   0.0800 
 48 H        6.3070     4.8600    -0.8310 H     1 <1>   0.1500 
@<TRIPOS>BOND
  1   1   2  1   
  2   1  23  1   
  3   2   3  1   
  4   2   4  1   
  5   2  24  1   
  6   3   5  1   
  7   3   6  1   
  8   3  25  1   
  9   4   7  1   
 10   4  26  1   
 11   4  27  1   
 12   5   7  1   
 13   5  28  1   
 14   5  29  1   
 15   6   8  1   
 16   6  30  1   
 17   6  31  1   
 18   7   9  1   
 19   7  32  1   
 20   8  10  2   
 21   8  11  1   
 22   9  12  1   
 23   9  33  1   
 24   9  34  1   
 25  10  13  1   
 26  11  14  2   
 27  11  35  1   
 28  12  15  ar  
 29  12  16  ar  
 30  13  14  1   
 31  13  36  1   
 32  14  17  1   
 33  15  18  ar  
 34  15  19  1   
 35  16  20  ar  
 36  16  21  1   
 37  17  37  1   
 38  17  38  1   
 39  17  39  1   
 40  18  22  ar  
 41  18  40  1   
 42  19  41  1   
 43  19  42  1   
 44  19  43  1   
 45  20  22  ar  
 46  20  44  1   
 47  21  45  1   
 48  21  46  1   
 49  21  47  1   
 50  22  48  1   
@<TRIPOS>SUBSTRUCTURE
  1 ****   7 GROUP 4 **** **** 0

# MOE 2024.06 (io_trps.svl 2023.06)
