@<TRIPOS>MOLECULE
NONAME
13 12 1 0 0 
SMALL
USER_CHARGES


@<TRIPOS>ATOM
  1 O       -3.8440    -1.1640     0.0040 O.3   1 <1>  -0.3570 
  2 C       -3.1550    -0.0050     0.0010 C.2   1 <1>  -0.0730 
  3 C       -5.2490    -1.0830     0.0010 C.3   1 <1>   0.1200 
  4 C       -1.8190     0.0250     0.0030 C.2   1 <1>  -0.3000 
  5 C       -5.8060    -2.5030     0.0050 C.3   1 <1>  -0.2400 
  6 H       -3.7710     0.8800    -0.0020 H     1 <1>   0.1500 
  7 H       -5.5560    -0.5530    -0.8840 H     1 <1>   0.0800 
  8 H       -5.5600    -0.5460     0.8810 H     1 <1>   0.0800 
  9 H       -1.2350     0.9270     0.0010 H     1 <1>   0.1500 
 10 H       -1.2110    -0.8620     0.0070 H     1 <1>   0.1500 
 11 H       -5.4740    -3.0320    -0.8700 H     1 <1>   0.0800 
 12 H       -6.8800    -2.4740     0.0030 H     1 <1>   0.0800 
 13 H       -5.4770    -3.0250     0.8860 H     1 <1>   0.0800 
@<TRIPOS>BOND
  1   1   2  1   
  2   1   3  1   
  3   2   4  2   
  4   2   6  1   
  5   3   5  1   
  6   3   7  1   
  7   3   8  1   
  8   4   9  1   
  9   4  10  1   
 10   5  11  1   
 11   5  12  1   
 12   5  13  1   
@<TRIPOS>SUBSTRUCTURE
  1 ****   1 GROUP 4 **** **** 0

# MOE 2024.06 (io_trps.svl 2023.06)
