@<TRIPOS>MOLECULE
NONAME
51 52 1 0 0 
SMALL
USER_CHARGES


@<TRIPOS>ATOM
  1 S        1.1000     0.5340     0.1180 S.o2  1 <1>   1.3330 
  2 O        0.9360    -0.7270    -0.5710 O.2   1 <1>  -0.6500 
  3 O       -0.0680     1.2590     0.5660 O.2   1 <1>  -0.6500 
  4 N        2.0630     0.2520     1.4900 N.am  1 <1>  -0.8490 
  5 C        2.1150     1.6030    -0.9030 C.3   1 <1>  -0.0550 
  6 C        2.0300     1.3570     2.4550 C.3   1 <1>   0.1160 
  7 C        1.7090    -1.0020     2.1620 C.3   1 <1>   0.1160 
  8 C        3.2990     0.8890    -1.5920 C.3   1 <1>  -0.0800 
  9 C        4.1280     1.7670    -2.5190 C.3   1 <1>   0.2200 
 10 C        4.3520     0.3100    -0.6410 C.3   1 <1>   0.1200 
 11 N        4.3710     3.0920    -1.9100 N.am  1 <1>  -0.7300 
 12 C        5.4380     0.9920    -2.5420 C.3   1 <1>   0.1200 
 13 O        5.5990     0.5050    -1.2440 O.3   1 <1>  -0.5600 
 14 C        3.6500     4.2290    -2.1210 C.2   1 <1>   0.5440 
 15 O        2.7650     4.1850    -2.9550 O.2   1 <1>  -0.5700 
 16 C        3.9210     5.4510    -1.3800 C.ar  1 <1>   0.0860 
 17 C        4.4880     5.4750    -0.0920 C.ar  1 <1>   0.0820 
 18 C        3.6120     6.6800    -1.9690 C.ar  1 <1>  -0.1500 
 19 O        4.7800     4.2960     0.5170 O.3   1 <1>  -0.3630 
 20 C        4.7350     6.6910     0.5440 C.ar  1 <1>  -0.1500 
 21 C        3.8570     7.8810    -1.3330 C.ar  1 <1>  -0.1500 
 22 C        5.5730     4.2070     1.6800 C.3   1 <1>   0.1200 
 23 C        4.4230     7.8860    -0.0720 C.ar  1 <1>  -0.1500 
 24 C        5.8340     2.7280     1.9640 C.3   1 <1>  -0.1600 
 25 C        6.7050     2.5440     3.2110 C.3   1 <1>  -0.2400 
 26 H        1.4950     2.0260    -1.6710 H     1 <1>   0.0800 
 27 H        2.4740     2.4170    -0.3050 H     1 <1>   0.0800 
 28 H        2.7190     1.1660     3.2590 H     1 <1>   0.0800 
 29 H        1.0390     1.4720     2.8630 H     1 <1>   0.0800 
 30 H        2.3140     2.2790     1.9770 H     1 <1>   0.0800 
 31 H        2.3410    -1.1590     3.0190 H     1 <1>   0.0800 
 32 H        1.8430    -1.8320     1.4890 H     1 <1>   0.0800 
 33 H        0.6790    -0.9780     2.4790 H     1 <1>   0.0800 
 34 H        2.9080     0.0730    -2.1740 H     1 <1>   0.0800 
 35 H        3.6940     1.8730    -3.5000 H     1 <1>   0.0800 
 36 H        4.2030    -0.7430    -0.4710 H     1 <1>   0.0800 
 37 H        4.3660     0.8300     0.3000 H     1 <1>   0.0800 
 38 H        5.0080     3.0790    -1.1050 H     1 <1>   0.3700 
 39 H        6.2800     1.6060    -2.8080 H     1 <1>   0.0800 
 40 H        5.3710     0.1480    -3.2050 H     1 <1>   0.0800 
 41 H        3.1690     6.6880    -2.9500 H     1 <1>   0.1500 
 42 H        5.1650     6.7310     1.5270 H     1 <1>   0.1500 
 43 H        3.6080     8.8100    -1.8160 H     1 <1>   0.1500 
 44 H        6.4980     4.7280     1.5020 H     1 <1>   0.0800 
 45 H        5.0370     4.6620     2.4950 H     1 <1>   0.0800 
 46 H        4.6160     8.8210     0.4260 H     1 <1>   0.1500 
 47 H        4.8970     2.2230     2.1140 H     1 <1>   0.0800 
 48 H        6.3330     2.2840     1.1180 H     1 <1>   0.0800 
 49 H        6.2220     2.9620     4.0760 H     1 <1>   0.0800 
 50 H        7.6590     3.0230     3.0790 H     1 <1>   0.0800 
 51 H        6.8740     1.4960     3.3870 H     1 <1>   0.0800 
@<TRIPOS>BOND
  1   1   2  2   
  2   1   3  2   
  3   1   4  am  
  4   1   5  1   
  5   4   6  1   
  6   4   7  1   
  7   5   8  1   
  8   5  26  1   
  9   5  27  1   
 10   6  28  1   
 11   6  29  1   
 12   6  30  1   
 13   7  31  1   
 14   7  32  1   
 15   7  33  1   
 16   8   9  1   
 17   8  10  1   
 18   8  34  1   
 19   9  11  1   
 20   9  12  1   
 21   9  35  1   
 22  10  13  1   
 23  10  36  1   
 24  10  37  1   
 25  11  14  am  
 26  11  38  1   
 27  12  13  1   
 28  12  39  1   
 29  12  40  1   
 30  14  15  2   
 31  14  16  1   
 32  16  17  ar  
 33  16  18  ar  
 34  17  19  1   
 35  17  20  ar  
 36  18  21  ar  
 37  18  41  1   
 38  19  22  1   
 39  20  23  ar  
 40  20  42  1   
 41  21  23  ar  
 42  21  43  1   
 43  22  24  1   
 44  22  44  1   
 45  22  45  1   
 46  23  46  1   
 47  24  25  1   
 48  24  47  1   
 49  24  48  1   
 50  25  49  1   
 51  25  50  1   
 52  25  51  1   
@<TRIPOS>SUBSTRUCTURE
  1 ****  11 GROUP 4 **** **** 0

# MOE 2024.06 (io_trps.svl 2023.06)
