@<TRIPOS>MOLECULE
NONAME
50 51 1 0 0 
SMALL
USER_CHARGES


@<TRIPOS>ATOM
  1 O        3.7120     0.6090     0.4870 O.2   1 <1>  -0.5700 
  2 C        2.8670     0.2780    -0.3220 C.2   1 <1>   0.5440 
  3 N        2.3800     1.2330    -1.1730 N.am  1 <1>  -0.7300 
  4 C        2.3920    -1.0940    -0.3890 C.ar  1 <1>   0.0860 
  5 C        2.8600     2.6320    -1.2160 C.3   1 <1>   0.1400 
  6 C        3.2130    -2.1530    -0.0020 C.ar  1 <1>  -0.1500 
  7 C        1.1090    -1.4150    -0.8390 C.ar  1 <1>  -0.1500 
  8 C        2.1640     3.4440    -0.1280 C.3   1 <1>  -0.0990 
  9 C        2.7850    -3.4660    -0.0720 C.ar  1 <1>  -0.1500 
 10 C        0.6760    -2.7270    -0.9120 C.ar  1 <1>  -0.1500 
 11 C        2.8000     4.8060    -0.0170 C.2   1 <1>   0.5690 
 12 C        1.5130    -3.7620    -0.5320 C.ar  1 <1>  -0.1430 
 13 O        2.3280     5.7330    -0.6270 O.2   1 <1>  -0.5700 
 14 N        3.9010     4.9420     0.7540 N.am  1 <1>  -0.7300 
 15 C        1.0410    -5.2020    -0.6090 C.3   1 <1>  -0.0970 
 16 C        4.5790     6.2160     1.0460 C.3   1 <1>   0.4000 
 17 C        5.9520     6.2130     0.3770 C.2   1 <1>   0.0070 
 18 C        4.6690     6.3950     2.5720 C.3   1 <1>  -0.1600 
 19 N        7.0700     5.9350     0.9570 N.2   1 <1>  -0.5650 
 20 N        6.1430     6.5060    -0.9200 N.pl3 1 <1>   0.3140 
 21 C        3.2980     6.4850     3.2640 C.3   1 <1>  -0.2400 
 22 C        7.9410     6.0810    -0.0460 C.2   1 <1>   0.3660 
 23 N        7.4410     6.4250    -1.1850 N.2   1 <1>  -0.7070 
 24 C        5.1680     6.8710    -1.9750 C.3   1 <1>   0.0960 
 25 C        4.9220     5.6990    -2.9340 C.3   1 <1>  -0.2400 
 26 H        1.7320     0.9550    -1.9110 H     1 <1>   0.3700 
 27 H        2.6620     3.0580    -2.1850 H     1 <1>   0.0800 
 28 H        3.9260     2.6420    -1.0530 H     1 <1>   0.0800 
 29 H        4.2030    -1.9360     0.3600 H     1 <1>   0.1500 
 30 H        0.4350    -0.6310    -1.1280 H     1 <1>   0.1500 
 31 H        2.2510     2.9440     0.8180 H     1 <1>   0.0800 
 32 H        1.1230     3.5590    -0.3650 H     1 <1>   0.0800 
 33 H        3.4460    -4.2580     0.2350 H     1 <1>   0.1500 
 34 H       -0.3180    -2.9420    -1.2630 H     1 <1>   0.1500 
 35 H        4.3350     4.1280     1.1950 H     1 <1>   0.3700 
 36 H        1.8690    -5.8600    -0.8030 H     1 <1>   0.0800 
 37 H        0.3210    -5.3220    -1.3990 H     1 <1>   0.0800 
 38 H        0.5840    -5.4860     0.3220 H     1 <1>   0.0800 
 39 H        4.0000     7.0340     0.6530 H     1 <1>   0.0800 
 40 H        5.2130     7.3020     2.7700 H     1 <1>   0.0800 
 41 H        5.2370     5.5850     2.9940 H     1 <1>   0.0800 
 42 H        2.7170     7.2890     2.8460 H     1 <1>   0.0800 
 43 H        3.4300     6.6690     4.3160 H     1 <1>   0.0800 
 44 H        2.7500     5.5670     3.1480 H     1 <1>   0.0800 
 45 H        8.9950     5.9160     0.1110 H     1 <1>   0.1500 
 46 H        5.5680     7.7060    -2.5210 H     1 <1>   0.0800 
 47 H        4.2440     7.1770    -1.5230 H     1 <1>   0.0800 
 48 H        5.8380     5.4310    -3.4320 H     1 <1>   0.0800 
 49 H        4.1960     5.9810    -3.6750 H     1 <1>   0.0800 
 50 H        4.5500     4.8480    -2.3950 H     1 <1>   0.0800 
@<TRIPOS>BOND
  1   1   2  2   
  2   2   3  am  
  3   2   4  1   
  4   3   5  1   
  5   3  26  1   
  6   4   6  ar  
  7   4   7  ar  
  8   5   8  1   
  9   5  27  1   
 10   5  28  1   
 11   6   9  ar  
 12   6  29  1   
 13   7  10  ar  
 14   7  30  1   
 15   8  11  1   
 16   8  31  1   
 17   8  32  1   
 18   9  12  ar  
 19   9  33  1   
 20  10  12  ar  
 21  10  34  1   
 22  11  13  2   
 23  11  14  am  
 24  12  15  1   
 25  14  16  1   
 26  14  35  1   
 27  15  36  1   
 28  15  37  1   
 29  15  38  1   
 30  16  17  1   
 31  16  18  1   
 32  16  39  1   
 33  17  19  2   
 34  17  20  1   
 35  18  21  1   
 36  18  40  1   
 37  18  41  1   
 38  19  22  1   
 39  20  23  1   
 40  20  24  1   
 41  21  42  1   
 42  21  43  1   
 43  21  44  1   
 44  22  23  2   
 45  22  45  1   
 46  24  25  1   
 47  24  46  1   
 48  24  47  1   
 49  25  48  1   
 50  25  49  1   
 51  25  50  1   
@<TRIPOS>SUBSTRUCTURE
  1 ****   5 GROUP 4 **** **** 0

# MOE 2024.06 (io_trps.svl 2023.06)
