@<TRIPOS>MOLECULE
NONAME
54 56 1 0 0 
SMALL
USER_CHARGES


@<TRIPOS>ATOM
  1 CL      -1.8030    -0.9320    -2.9400 Cl    1 <1>  -0.1770 
  2 C       -1.7070     0.3360    -1.7390 C.ar  1 <1>   0.1770 
  3 C       -1.8850     0.0520    -0.3910 C.ar  1 <1>  -0.1440 
  4 C       -1.4540     1.6230    -2.1790 C.ar  1 <1>  -0.1500 
  5 C       -1.8060     1.0970     0.5190 C.ar  1 <1>  -0.1500 
  6 C       -2.1680    -1.3600     0.1090 C.3   1 <1>  -0.0160 
  7 C       -1.3770     2.6550    -1.2600 C.ar  1 <1>  -0.1500 
  8 C       -1.5540     2.3890     0.0870 C.ar  1 <1>  -0.1500 
  9 C       -3.6610    -1.6950    -0.0330 C.3   1 <1>  -0.0990 
 10 C       -4.0490    -3.0580     0.5260 C.2   1 <1>   0.5690 
 11 O       -3.1650    -3.7790     0.9280 O.2   1 <1>  -0.5700 
 12 N       -5.3690    -3.4470     0.5770 N.am  1 <1>  -0.6600 
 13 C       -6.4890    -2.6360     0.0070 C.3   1 <1>   0.2200 
 14 C       -5.7090    -4.7570     1.2170 C.3   1 <1>   0.0600 
 15 C       -7.3380    -1.9750     1.0900 C.3   1 <1>  -0.1600 
 16 C       -7.4880    -3.4300    -0.8370 C.3   1 <1>  -0.1600 
 17 C       -8.6690    -1.6560     0.3940 C.3   1 <1>  -0.0800 
 18 C       -8.7560    -2.5640    -0.8380 C.3   1 <1>  -0.0800 
 19 C       -9.9300    -1.9510     1.2200 C.3   1 <1>  -0.1600 
 20 C      -10.0790    -3.3340    -0.7010 C.3   1 <1>  -0.1600 
 21 C      -10.9610    -2.4780     0.2150 C.3   1 <1>   0.4230 
 22 N      -11.5880    -1.3500    -0.5500 N.4   1 <1>  -0.9590 
 23 C      -12.3460    -0.4030     0.3310 C.3   1 <1>   0.2630 
 24 C      -12.5100    -1.8280    -1.6310 C.3   1 <1>   0.2630 
 25 H       -1.3200     1.8100    -3.2290 H     1 <1>   0.1500 
 26 H       -1.9400     0.9100     1.5700 H     1 <1>   0.1500 
 27 H       -1.5790    -2.0740    -0.4410 H     1 <1>   0.0800 
 28 H       -1.8790    -1.4430     1.1430 H     1 <1>   0.0800 
 29 H       -1.1800     3.6600    -1.5920 H     1 <1>   0.1500 
 30 H       -1.4940     3.1910     0.8030 H     1 <1>   0.1500 
 31 H       -3.9190    -1.6690    -1.0740 H     1 <1>   0.0800 
 32 H       -4.2280    -0.9420     0.4820 H     1 <1>   0.0800 
 33 H       -6.1030    -1.8570    -0.6260 H     1 <1>   0.0800 
 34 H       -6.6600    -4.7080     1.7140 H     1 <1>   0.0800 
 35 H       -4.9650    -5.0240     1.9490 H     1 <1>   0.0800 
 36 H       -5.7370    -5.5270     0.4660 H     1 <1>   0.0800 
 37 H       -7.4880    -2.6570     1.9070 H     1 <1>   0.0800 
 38 H       -6.8640    -1.0840     1.4620 H     1 <1>   0.0800 
 39 H       -7.1140    -3.5850    -1.8330 H     1 <1>   0.0800 
 40 H       -7.6950    -4.3830    -0.3890 H     1 <1>   0.0800 
 41 H       -8.6670    -0.6280     0.0710 H     1 <1>   0.0800 
 42 H       -8.7690    -1.9500    -1.7240 H     1 <1>   0.0800 
 43 H      -10.2500    -1.1050     1.7980 H     1 <1>   0.0800 
 44 H       -9.7260    -2.7500     1.9110 H     1 <1>   0.0800 
 45 H       -9.9030    -4.2640    -0.1890 H     1 <1>   0.0800 
 46 H      -10.5120    -3.5750    -1.6540 H     1 <1>   0.0800 
 47 H      -11.7200    -3.0710     0.7010 H     1 <1>   0.0800 
 48 H      -10.8100    -0.8360    -0.9880 H     1 <1>   0.4500 
 49 H      -13.1110    -0.9310     0.8770 H     1 <1>   0.0800 
 50 H      -12.8150     0.3640    -0.2640 H     1 <1>   0.0800 
 51 H      -11.6870     0.0770     1.0350 H     1 <1>   0.0800 
 52 H      -13.2870    -2.4480    -1.2130 H     1 <1>   0.0800 
 53 H      -11.9730    -2.3970    -2.3700 H     1 <1>   0.0800 
 54 H      -12.9710    -0.9880    -2.1260 H     1 <1>   0.0800 
@<TRIPOS>BOND
  1   1   2  1   
  2   2   3  ar  
  3   2   4  ar  
  4   3   5  ar  
  5   3   6  1   
  6   4   7  ar  
  7   4  25  1   
  8   5   8  ar  
  9   5  26  1   
 10   6   9  1   
 11   6  27  1   
 12   6  28  1   
 13   7   8  ar  
 14   7  29  1   
 15   8  30  1   
 16   9  10  1   
 17   9  31  1   
 18   9  32  1   
 19  10  11  2   
 20  10  12  am  
 21  12  13  1   
 22  12  14  1   
 23  13  15  1   
 24  13  16  1   
 25  13  33  1   
 26  14  34  1   
 27  14  35  1   
 28  14  36  1   
 29  15  17  1   
 30  15  37  1   
 31  15  38  1   
 32  16  18  1   
 33  16  39  1   
 34  16  40  1   
 35  17  18  1   
 36  17  19  1   
 37  17  41  1   
 38  18  20  1   
 39  18  42  1   
 40  19  21  1   
 41  19  43  1   
 42  19  44  1   
 43  20  21  1   
 44  20  45  1   
 45  20  46  1   
 46  21  22  1   
 47  21  47  1   
 48  22  23  1   
 49  22  24  1   
 50  22  48  1   
 51  23  49  1   
 52  23  50  1   
 53  23  51  1   
 54  24  52  1   
 55  24  53  1   
 56  24  54  1   
@<TRIPOS>SUBSTRUCTURE
  1 ****  13 GROUP 4 **** **** 0

# MOE 2024.06 (io_trps.svl 2023.06)
