@<TRIPOS>MOLECULE
NONAME
52 55 1 0 0 
SMALL
USER_CHARGES


@<TRIPOS>ATOM
  1 O        1.5710     2.7240     0.0550 O.co2 1 <1>  -0.9000 
  2 C        2.0570     1.6420     0.3850 C.2   1 <1>   0.9060 
  3 O        2.1700     1.3280     1.5820 O.co2 1 <1>  -0.9000 
  4 C        2.5360     0.6510    -0.6960 C.3   1 <1>  -0.1060 
  5 C        3.7410    -0.1380    -0.1520 C.3   1 <1>   0.4230 
  6 C        3.0180     1.3960    -1.9680 C.3   1 <1>  -0.1600 
  7 C        1.4040    -0.3280    -1.0890 C.3   1 <1>  -0.1600 
  8 N        3.3160    -0.9790     1.0200 N.4   1 <1>  -0.9590 
  9 C        4.9130     0.8240     0.1620 C.3   1 <1>   0.1100 
 10 C        4.1820     2.3460    -1.6650 C.3   1 <1>   0.1100 
 11 C        1.0460    -1.2660     0.0730 C.3   1 <1>  -0.1600 
 12 C        2.2760    -1.9720     0.6490 C.3   1 <1>   0.3430 
 13 C        4.4150    -1.5710     1.8240 C.3   1 <1>   0.2630 
 14 N        5.2980     1.6220    -1.0240 N.3   1 <1>  -0.8100 
 15 C        6.4510     2.5000    -0.7690 C.3   1 <1>   0.2900 
 16 C        6.2430     3.5510     0.3210 C.2   1 <1>  -0.3320 
 17 N        7.2960     4.3000     0.7480 N.pl3 1 <1>   0.5930 
 18 C        5.1640     3.9530     1.0350 C.2   1 <1>  -0.1500 
 19 N        6.9080     5.1500     1.7290 N.2   1 <1>  -0.7070 
 20 C        8.6390     4.2260     0.2870 C.ar  1 <1>  -0.0230 
 21 C        5.6400     4.9400     1.8850 C.2   1 <1>   0.1390 
 22 C        9.6390     3.7250     1.1140 C.ar  1 <1>  -0.1500 
 23 C        8.9760     4.6430    -0.9970 C.ar  1 <1>  -0.1500 
 24 C       10.9430     3.6260     0.6620 C.ar  1 <1>  -0.1500 
 25 C       10.2790     4.5430    -1.4500 C.ar  1 <1>  -0.1500 
 26 C       11.2630     4.0310    -0.6220 C.ar  1 <1>  -0.1500 
 27 H        4.0830    -0.7970    -0.9300 H     1 <1>   0.0800 
 28 H        2.2050     1.9740    -2.3740 H     1 <1>   0.0800 
 29 H        3.3310     0.6980    -2.7240 H     1 <1>   0.0800 
 30 H        0.5310     0.2360    -1.3770 H     1 <1>   0.0800 
 31 H        1.7090    -0.9180    -1.9370 H     1 <1>   0.0800 
 32 H        2.8250    -0.2480     1.6040 H     1 <1>   0.4500 
 33 H        5.7710     0.2530     0.4640 H     1 <1>   0.0800 
 34 H        4.6340     1.4680     0.9750 H     1 <1>   0.0800 
 35 H        3.8310     3.1480    -1.0410 H     1 <1>   0.0800 
 36 H        4.5240     2.7840    -2.5870 H     1 <1>   0.0800 
 37 H        0.3410    -2.0040    -0.2680 H     1 <1>   0.0800 
 38 H        0.5650    -0.7060     0.8570 H     1 <1>   0.0800 
 39 H        2.6740    -2.6560    -0.0820 H     1 <1>   0.0800 
 40 H        1.9810    -2.5340     1.5200 H     1 <1>   0.0800 
 41 H        5.0010    -2.2440     1.2200 H     1 <1>   0.0800 
 42 H        4.0090    -2.1140     2.6610 H     1 <1>   0.0800 
 43 H        5.0550    -0.7930     2.2060 H     1 <1>   0.0800 
 44 H        7.2890     1.8810    -0.4980 H     1 <1>   0.0800 
 45 H        6.7120     2.9960    -1.6890 H     1 <1>   0.0800 
 46 H        4.1360     3.6260     1.0110 H     1 <1>   0.1500 
 47 H        5.0270     5.4690     2.5950 H     1 <1>   0.1500 
 48 H        9.3920     3.4190     2.1160 H     1 <1>   0.1500 
 49 H        8.2160     5.0510    -1.6420 H     1 <1>   0.1500 
 50 H       11.7100     3.2370     1.3100 H     1 <1>   0.1500 
 51 H       10.5320     4.8660    -2.4460 H     1 <1>   0.1500 
 52 H       12.2770     3.9530    -0.9740 H     1 <1>   0.1500 
@<TRIPOS>BOND
  1   1   2  ar  
  2   2   3  ar  
  3   2   4  1   
  4   4   5  1   
  5   4   6  1   
  6   4   7  1   
  7   5   8  1   
  8   5   9  1   
  9   5  27  1   
 10   6  10  1   
 11   6  28  1   
 12   6  29  1   
 13   7  11  1   
 14   7  30  1   
 15   7  31  1   
 16   8  12  1   
 17   8  13  1   
 18   8  32  1   
 19   9  14  1   
 20   9  33  1   
 21   9  34  1   
 22  10  14  1   
 23  10  35  1   
 24  10  36  1   
 25  11  12  1   
 26  11  37  1   
 27  11  38  1   
 28  12  39  1   
 29  12  40  1   
 30  13  41  1   
 31  13  42  1   
 32  13  43  1   
 33  14  15  1   
 34  15  16  1   
 35  15  44  1   
 36  15  45  1   
 37  16  17  1   
 38  16  18  2   
 39  17  19  1   
 40  17  20  1   
 41  18  21  1   
 42  18  46  1   
 43  19  21  2   
 44  20  22  ar  
 45  20  23  ar  
 46  21  47  1   
 47  22  24  ar  
 48  22  48  1   
 49  23  25  ar  
 50  23  49  1   
 51  24  26  ar  
 52  24  50  1   
 53  25  26  ar  
 54  25  51  1   
 55  26  52  1   
@<TRIPOS>SUBSTRUCTURE
  1 ****  14 GROUP 4 **** **** 0

# MOE 2024.06 (io_trps.svl 2023.06)
