@<TRIPOS>MOLECULE
NONAME
40 41 1 0 0 
SMALL
USER_CHARGES


@<TRIPOS>ATOM
  1 O       -0.5830    -0.0680     0.5210 O.co2 1 <1>  -0.9000 
  2 C       -1.0140    -0.8200     1.3960 C.2   1 <1>   0.9060 
  3 O       -0.7590    -0.7050     2.5950 O.co2 1 <1>  -0.9000 
  4 C       -1.9630    -1.9100     0.9690 C.3   1 <1>  -0.2660 
  5 C       -3.3250    -1.3090     0.5930 C.3   1 <1>  -0.1600 
  6 C       -4.2490    -2.3800     0.0330 C.3   1 <1>   0.3430 
  7 N       -5.5740    -1.7900    -0.2850 N.4   1 <1>  -0.9590 
  8 C       -6.6280    -2.8260    -0.4530 C.3   1 <1>   0.3430 
  9 C       -5.5430    -0.8680    -1.4520 C.3   1 <1>   0.3430 
 10 C       -8.0060    -2.1520    -0.3780 C.3   1 <1>   0.0000 
 11 C       -6.8710    -0.1140    -1.5290 C.3   1 <1>  -0.1600 
 12 C       -8.2880    -1.6960     1.0680 C.3   1 <1>   0.2000 
 13 C       -8.1000    -1.0420    -1.4670 C.3   1 <1>  -0.1600 
 14 C       -9.1660    -3.1400    -0.5820 C.3   1 <1>  -0.1600 
 15 O       -7.6020    -0.5490     1.4230 O.3   1 <1>  -0.6800 
 16 C       -9.7960    -1.5040     1.1500 C.3   1 <1>  -0.1600 
 17 C      -10.3700    -2.5070     0.1350 C.3   1 <1>  -0.1600 
 18 H       -1.5170    -2.4060     0.1280 H     1 <1>   0.0800 
 19 H       -2.0590    -2.6090     1.7780 H     1 <1>   0.0800 
 20 H       -3.1500    -0.5370    -0.1350 H     1 <1>   0.0800 
 21 H       -3.7560    -0.8620     1.4720 H     1 <1>   0.0800 
 22 H       -4.3620    -3.1540     0.7730 H     1 <1>   0.0800 
 23 H       -3.8110    -2.8140    -0.8510 H     1 <1>   0.0800 
 24 H       -5.8830    -1.2100     0.5210 H     1 <1>   0.4500 
 25 H       -6.5110    -3.3190    -1.4040 H     1 <1>   0.0800 
 26 H       -6.5490    -3.5630     0.3300 H     1 <1>   0.0800 
 27 H       -4.7400    -0.1560    -1.3490 H     1 <1>   0.0800 
 28 H       -5.3850    -1.4300    -2.3570 H     1 <1>   0.0800 
 29 H       -6.9090     0.6020    -0.7280 H     1 <1>   0.0800 
 30 H       -6.8980     0.4510    -2.4440 H     1 <1>   0.0800 
 31 H       -8.0020    -2.4730     1.7590 H     1 <1>   0.0800 
 32 H       -8.1930    -1.5140    -2.4300 H     1 <1>   0.0800 
 33 H       -8.9840    -0.4440    -1.3260 H     1 <1>   0.0800 
 34 H       -9.3810    -3.3360    -1.6190 H     1 <1>   0.0800 
 35 H       -8.9390    -4.0770    -0.1020 H     1 <1>   0.0800 
 36 H       -7.9840    -0.1720     2.2440 H     1 <1>   0.4000 
 37 H      -10.1620    -1.7060     2.1410 H     1 <1>   0.0800 
 38 H      -10.0690    -0.5040     0.8590 H     1 <1>   0.0800 
 39 H      -10.9630    -3.2630     0.6230 H     1 <1>   0.0800 
 40 H      -10.9950    -1.9880    -0.5730 H     1 <1>   0.0800 
@<TRIPOS>BOND
  1   1   2  ar  
  2   2   3  ar  
  3   2   4  1   
  4   4   5  1   
  5   4  18  1   
  6   4  19  1   
  7   5   6  1   
  8   5  20  1   
  9   5  21  1   
 10   6   7  1   
 11   6  22  1   
 12   6  23  1   
 13   7   8  1   
 14   7   9  1   
 15   7  24  1   
 16   8  10  1   
 17   8  25  1   
 18   8  26  1   
 19   9  11  1   
 20   9  27  1   
 21   9  28  1   
 22  10  12  1   
 23  10  13  1   
 24  10  14  1   
 25  11  13  1   
 26  11  29  1   
 27  11  30  1   
 28  12  15  1   
 29  12  16  1   
 30  12  31  1   
 31  13  32  1   
 32  13  33  1   
 33  14  17  1   
 34  14  34  1   
 35  14  35  1   
 36  15  36  1   
 37  16  17  1   
 38  16  37  1   
 39  16  38  1   
 40  17  39  1   
 41  17  40  1   
@<TRIPOS>SUBSTRUCTURE
  1 ****   7 GROUP 4 **** **** 0

# MOE 2024.06 (io_trps.svl 2023.06)
