@<TRIPOS>MOLECULE
NONAME
49 52 1 0 0 
SMALL
USER_CHARGES


@<TRIPOS>ATOM
  1 O       -5.2650    -2.4740    -1.4400 O.2   1 <1>  -0.5700 
  2 C       -4.3020    -2.1600    -0.7780 C.2   1 <1>   0.5690 
  3 N       -4.3290    -1.1040     0.0950 N.am  1 <1>  -0.6600 
  4 C       -3.0320    -2.9730    -0.9640 C.3   1 <1>  -0.0190 
  5 C       -3.1180    -0.6900     0.8750 C.3   1 <1>   0.2200 
  6 C       -5.5960    -0.4000     0.4380 C.3   1 <1>   0.0600 
  7 C       -1.9200    -2.1010    -1.5640 C.3   1 <1>   0.1200 
  8 C       -2.5910    -3.7380     0.3020 C.3   1 <1>   0.1400 
  9 C       -1.9740    -0.2640    -0.0680 C.3   1 <1>   0.1200 
 10 C       -2.6620    -1.7590     1.9010 C.3   1 <1>   0.1400 
 11 O       -1.2650    -1.3520    -0.5890 O.3   1 <1>  -0.5600 
 12 N       -3.1080    -3.1560     1.5800 N.am  1 <1>  -0.6600 
 13 C       -3.8930    -3.8620     2.4690 C.2   1 <1>   0.7160 
 14 O       -3.8650    -3.5510     3.6460 O.2   1 <1>  -0.5700 
 15 C       -4.7380    -4.9560     2.0570 C.2   1 <1>  -0.0860 
 16 C       -5.0880    -6.0410     2.8620 C.2   1 <1>   0.1390 
 17 C       -5.3980    -5.2210     0.8960 C.2   1 <1>  -0.3020 
 18 N       -5.8600    -6.8910     2.2640 N.2   1 <1>  -0.7070 
 19 N       -6.0820    -6.3760     1.0270 N.pl3 1 <1>   0.5930 
 20 C       -6.8420    -7.0490     0.0270 C.ar  1 <1>  -0.0230 
 21 C       -7.7250    -6.3600    -0.8090 C.ar  1 <1>   0.0820 
 22 C       -6.6990    -8.4230    -0.1460 C.ar  1 <1>  -0.1500 
 23 O       -7.8970    -5.0270    -0.6240 O.3   1 <1>  -0.3630 
 24 C       -8.4280    -7.0390    -1.7980 C.ar  1 <1>  -0.1500 
 25 C       -7.3990    -9.0960    -1.1320 C.ar  1 <1>  -0.1500 
 26 C       -7.9880    -4.1700    -1.7420 C.3   1 <1>   0.0400 
 27 C       -8.2620    -8.4020    -1.9610 C.ar  1 <1>  -0.1500 
 28 H       -3.2500    -3.7130    -1.7110 H     1 <1>   0.0800 
 29 H       -3.3750     0.1920     1.4340 H     1 <1>   0.0800 
 30 H       -5.4970     0.6510     0.2320 H     1 <1>   0.0800 
 31 H       -5.8170    -0.5420     1.4820 H     1 <1>   0.0800 
 32 H       -6.4180    -0.7870    -0.1390 H     1 <1>   0.0800 
 33 H       -2.3050    -1.4400    -2.3220 H     1 <1>   0.0800 
 34 H       -1.1760    -2.7350    -2.0150 H     1 <1>   0.0800 
 35 H       -1.5150    -3.7650     0.3500 H     1 <1>   0.0800 
 36 H       -2.9160    -4.7590     0.2180 H     1 <1>   0.0800 
 37 H       -1.2630     0.3190     0.4900 H     1 <1>   0.0800 
 38 H       -2.3440     0.3430    -0.8760 H     1 <1>   0.0800 
 39 H       -3.0550    -1.4680     2.8590 H     1 <1>   0.0800 
 40 H       -1.5900    -1.7450     1.9940 H     1 <1>   0.0800 
 41 H       -4.7450    -6.1560     3.8780 H     1 <1>   0.1500 
 42 H       -5.4300    -4.6460    -0.0090 H     1 <1>   0.1500 
 43 H       -6.0320    -8.9690     0.5000 H     1 <1>   0.1500 
 44 H       -9.1150    -6.5150    -2.4360 H     1 <1>   0.1500 
 45 H       -7.2730   -10.1580    -1.2520 H     1 <1>   0.1500 
 46 H       -7.8740    -3.1590    -1.3960 H     1 <1>   0.0800 
 47 H       -8.9510    -4.2900    -2.2040 H     1 <1>   0.0800 
 48 H       -7.1960    -4.4070    -2.4310 H     1 <1>   0.0800 
 49 H       -8.8090    -8.9250    -2.7270 H     1 <1>   0.1500 
@<TRIPOS>BOND
  1   1   2  2   
  2   2   3  am  
  3   2   4  1   
  4   3   5  1   
  5   3   6  1   
  6   4   7  1   
  7   4   8  1   
  8   4  28  1   
  9   5   9  1   
 10   5  10  1   
 11   5  29  1   
 12   6  30  1   
 13   6  31  1   
 14   6  32  1   
 15   7  11  1   
 16   7  33  1   
 17   7  34  1   
 18   8  12  1   
 19   8  35  1   
 20   8  36  1   
 21   9  11  1   
 22   9  37  1   
 23   9  38  1   
 24  10  12  1   
 25  10  39  1   
 26  10  40  1   
 27  12  13  am  
 28  13  14  2   
 29  13  15  1   
 30  15  16  1   
 31  15  17  2   
 32  16  18  2   
 33  16  41  1   
 34  17  19  1   
 35  17  42  1   
 36  18  19  1   
 37  19  20  1   
 38  20  21  ar  
 39  20  22  ar  
 40  21  23  1   
 41  21  24  ar  
 42  22  25  ar  
 43  22  43  1   
 44  23  26  1   
 45  24  27  ar  
 46  24  44  1   
 47  25  27  ar  
 48  25  45  1   
 49  26  46  1   
 50  26  47  1   
 51  26  48  1   
 52  27  49  1   
@<TRIPOS>SUBSTRUCTURE
  1 ****  17 GROUP 4 **** **** 0

# MOE 2024.06 (io_trps.svl 2023.06)
