@<TRIPOS>MOLECULE
NONAME
50 52 1 0 0 
SMALL
USER_CHARGES


@<TRIPOS>ATOM
  1 O        2.1670     0.7290    -1.1390 O.2   1 <1>  -0.5700 
  2 C        2.6130    -0.2500    -0.5600 C.2   1 <1>   0.5440 
  3 N        3.9830    -0.3060    -0.3540 N.am  1 <1>  -0.6600 
  4 C        1.7020    -1.3140    -0.1240 C.ar  1 <1>   0.3960 
  5 C        4.6780    -1.4410     0.3330 C.3   1 <1>   0.1400 
  6 C        4.8690     0.8410    -0.6890 C.3   1 <1>   0.1400 
  7 N        1.6500    -1.6120     1.1880 N.ar  1 <1>  -0.6200 
  8 C        0.9150    -2.0030    -1.0640 C.ar  1 <1>  -0.1430 
  9 C        4.9770    -1.1380     1.8110 C.3   1 <1>   0.1400 
 10 C        4.8340     1.9030     0.4190 C.3   1 <1>  -0.1600 
 11 C        0.8170    -2.5630     1.5610 C.ar  1 <1>   0.1600 
 12 C        0.0540    -2.9970    -0.6470 C.ar  1 <1>  -0.1500 
 13 C        0.9820    -1.6810    -2.5550 C.3   1 <1>  -0.0960 
 14 N        5.7240     0.1500     1.9830 N.am  1 <1>  -0.6600 
 15 C        4.8480     1.3510     1.8510 C.3   1 <1>   0.1400 
 16 C        0.0080    -3.2770     0.6990 C.ar  1 <1>  -0.1500 
 17 C        7.0820     0.1450     2.1780 C.2   1 <1>   0.5690 
 18 O        7.7080    -0.8850     2.2570 O.2   1 <1>  -0.5700 
 19 C        7.8890     1.4310     2.2730 C.3   1 <1>  -0.0990 
 20 C        8.5880     1.7460     0.9400 C.3   1 <1>  -0.1600 
 21 C        9.3870     3.0540     1.0140 C.3   1 <1>   0.0960 
 22 N        9.8910     3.4290    -0.3200 N.pl3 1 <1>   0.3140 
 23 N        9.1550     4.0940    -1.1990 N.2   1 <1>  -0.7070 
 24 C       11.0870     3.1840    -0.8620 C.2   1 <1>   0.0360 
 25 C        9.9590     4.2040    -2.2060 C.2   1 <1>   0.3660 
 26 N       11.1720     3.6590    -2.0520 N.2   1 <1>  -0.5650 
 27 H        5.6050    -1.6490    -0.1720 H     1 <1>   0.0800 
 28 H        4.0800    -2.3330     0.2730 H     1 <1>   0.0800 
 29 H        4.5580     1.2810    -1.6220 H     1 <1>   0.0800 
 30 H        5.8770     0.4870    -0.8170 H     1 <1>   0.0800 
 31 H        5.5470    -1.9530     2.2220 H     1 <1>   0.0800 
 32 H        4.0530    -1.0960     2.3600 H     1 <1>   0.0800 
 33 H        3.9410     2.4900     0.2950 H     1 <1>   0.0800 
 34 H        5.6600     2.5750     0.2820 H     1 <1>   0.0800 
 35 H        0.7720    -2.7900     2.6130 H     1 <1>   0.1500 
 36 H       -0.5660    -3.5390    -1.3410 H     1 <1>   0.1500 
 37 H        2.0040    -1.6640    -2.8900 H     1 <1>   0.0800 
 38 H        0.5430    -0.7160    -2.7400 H     1 <1>   0.0800 
 39 H        0.4500    -2.4130    -3.1360 H     1 <1>   0.0800 
 40 H        3.8400     1.0730     2.1130 H     1 <1>   0.0800 
 41 H        5.1440     2.1170     2.5450 H     1 <1>   0.0800 
 42 H       -0.6480    -4.0390     1.0780 H     1 <1>   0.1500 
 43 H        8.6310     1.2940     3.0390 H     1 <1>   0.0800 
 44 H        7.2700     2.2520     2.5720 H     1 <1>   0.0800 
 45 H        7.8480     1.8280     0.1640 H     1 <1>   0.0800 
 46 H        9.2480     0.9340     0.6860 H     1 <1>   0.0800 
 47 H       10.2190     2.9510     1.6870 H     1 <1>   0.0800 
 48 H        8.7570     3.8530     1.3620 H     1 <1>   0.0800 
 49 H       11.8670     2.6530    -0.3490 H     1 <1>   0.1500 
 50 H        9.6910     4.7020    -3.1250 H     1 <1>   0.1500 
@<TRIPOS>BOND
  1   1   2  2   
  2   2   3  am  
  3   2   4  1   
  4   3   5  1   
  5   3   6  1   
  6   4   7  ar  
  7   4   8  ar  
  8   5   9  1   
  9   5  27  1   
 10   5  28  1   
 11   6  10  1   
 12   6  29  1   
 13   6  30  1   
 14   7  11  ar  
 15   8  12  ar  
 16   8  13  1   
 17   9  14  1   
 18   9  31  1   
 19   9  32  1   
 20  10  15  1   
 21  10  33  1   
 22  10  34  1   
 23  11  16  ar  
 24  11  35  1   
 25  12  16  ar  
 26  12  36  1   
 27  13  37  1   
 28  13  38  1   
 29  13  39  1   
 30  14  15  1   
 31  14  17  am  
 32  15  40  1   
 33  15  41  1   
 34  16  42  1   
 35  17  18  2   
 36  17  19  1   
 37  19  20  1   
 38  19  43  1   
 39  19  44  1   
 40  20  21  1   
 41  20  45  1   
 42  20  46  1   
 43  21  22  1   
 44  21  47  1   
 45  21  48  1   
 46  22  23  1   
 47  22  24  1   
 48  23  25  2   
 49  24  26  2   
 50  24  49  1   
 51  25  26  1   
 52  25  50  1   
@<TRIPOS>SUBSTRUCTURE
  1 ****   6 GROUP 4 **** **** 0

# MOE 2024.06 (io_trps.svl 2023.06)
