@<TRIPOS>MOLECULE
NONAME
49 51 1 0 0 
SMALL
USER_CHARGES


@<TRIPOS>ATOM
  1 O       -2.7610     1.2050    -2.8550 O.2   1 <1>  -0.5700 
  2 C       -2.2230     1.3200    -1.7820 C.2   1 <1>   0.5690 
  3 N       -1.7770     0.2510    -1.0820 N.am  1 <1>  -0.7300 
  4 C       -2.0340     2.6920    -1.1810 C.3   1 <1>  -0.0990 
  5 C       -1.8390    -1.1550    -1.5400 C.3   1 <1>   0.2200 
  6 C       -0.6180     3.2150    -1.4430 C.3   1 <1>  -0.0160 
  7 C       -2.9260    -1.9290    -0.8070 C.3   1 <1>  -0.0800 
  8 C       -0.5970    -1.8860    -1.0500 C.3   1 <1>   0.1200 
  9 C       -0.3560     4.4680    -0.6190 C.ar  1 <1>  -0.1440 
 10 C       -2.2300    -2.3570     0.4890 C.3   1 <1>   0.1200 
 11 C       -4.2570    -1.1830    -0.5970 C.3   1 <1>  -0.0160 
 12 O       -0.8560    -2.1870     0.2880 O.3   1 <1>  -0.5600 
 13 C        0.0080     4.3790     0.7240 C.ar  1 <1>   0.0820 
 14 C       -0.4850     5.7130    -1.2140 C.ar  1 <1>  -0.1500 
 15 C       -5.2880    -2.0890     0.0600 C.ar  1 <1>  -0.1440 
 16 O        0.1160     3.1370     1.2720 O.3   1 <1>  -0.3630 
 17 C        0.2420     5.5450     1.4500 C.ar  1 <1>  -0.1500 
 18 C       -0.2510     6.8660    -0.4870 C.ar  1 <1>  -0.1500 
 19 C       -6.0180    -3.0040    -0.6700 C.ar  1 <1>  -0.1500 
 20 C       -5.5460    -2.0450     1.4150 C.ar  1 <1>  -0.1500 
 21 C        0.5990     2.9480     2.5840 C.3   1 <1>   0.0400 
 22 C        0.1130     6.7820     0.8450 C.ar  1 <1>  -0.1500 
 23 C       -6.9410    -3.8130    -0.0280 C.ar  1 <1>   0.1600 
 24 C       -6.4900    -2.8990     1.9600 C.ar  1 <1>   0.1600 
 25 N       -7.1930    -3.7840     1.2710 N.ar  1 <1>  -0.6200 
 26 H       -1.3240     0.3790    -0.1730 H     1 <1>   0.3700 
 27 H       -2.7540     3.3690    -1.6040 H     1 <1>   0.0800 
 28 H       -2.2140     2.6340    -0.1240 H     1 <1>   0.0800 
 29 H       -1.9460    -1.2000    -2.6120 H     1 <1>   0.0800 
 30 H       -0.5020     3.4230    -2.4920 H     1 <1>   0.0800 
 31 H        0.1070     2.4620    -1.1860 H     1 <1>   0.0800 
 32 H       -3.1290    -2.8220    -1.3720 H     1 <1>   0.0800 
 33 H        0.2960    -1.2900    -1.1240 H     1 <1>   0.0800 
 34 H       -0.4660    -2.8140    -1.5780 H     1 <1>   0.0800 
 35 H       -2.4250    -3.3890     0.7250 H     1 <1>   0.0800 
 36 H       -2.5150    -1.7340     1.3190 H     1 <1>   0.0800 
 37 H       -4.6320    -0.8470    -1.5490 H     1 <1>   0.0800 
 38 H       -4.1090    -0.3110     0.0150 H     1 <1>   0.0800 
 39 H       -0.7690     5.7910    -2.2490 H     1 <1>   0.1500 
 40 H        0.5230     5.5120     2.4850 H     1 <1>   0.1500 
 41 H       -0.3530     7.8290    -0.9580 H     1 <1>   0.1500 
 42 H       -5.8800    -3.0950    -1.7320 H     1 <1>   0.1500 
 43 H       -5.0230    -1.3570     2.0530 H     1 <1>   0.1500 
 44 H        0.6470     1.8910     2.7730 H     1 <1>   0.0800 
 45 H       -0.0800     3.4130     3.2770 H     1 <1>   0.0800 
 46 H        1.5830     3.3770     2.6590 H     1 <1>   0.0800 
 47 H        0.2940     7.6800     1.4090 H     1 <1>   0.1500 
 48 H       -7.5020    -4.5210    -0.6140 H     1 <1>   0.1500 
 49 H       -6.6780    -2.8520     3.0190 H     1 <1>   0.1500 
@<TRIPOS>BOND
  1   1   2  2   
  2   2   3  am  
  3   2   4  1   
  4   3   5  1   
  5   3  26  1   
  6   4   6  1   
  7   4  27  1   
  8   4  28  1   
  9   5   7  1   
 10   5   8  1   
 11   5  29  1   
 12   6   9  1   
 13   6  30  1   
 14   6  31  1   
 15   7  10  1   
 16   7  11  1   
 17   7  32  1   
 18   8  12  1   
 19   8  33  1   
 20   8  34  1   
 21   9  13  ar  
 22   9  14  ar  
 23  10  12  1   
 24  10  35  1   
 25  10  36  1   
 26  11  15  1   
 27  11  37  1   
 28  11  38  1   
 29  13  16  1   
 30  13  17  ar  
 31  14  18  ar  
 32  14  39  1   
 33  15  19  ar  
 34  15  20  ar  
 35  16  21  1   
 36  17  22  ar  
 37  17  40  1   
 38  18  22  ar  
 39  18  41  1   
 40  19  23  ar  
 41  19  42  1   
 42  20  24  ar  
 43  20  43  1   
 44  21  44  1   
 45  21  45  1   
 46  21  46  1   
 47  22  47  1   
 48  23  25  ar  
 49  23  48  1   
 50  24  25  ar  
 51  24  49  1   
@<TRIPOS>SUBSTRUCTURE
  1 ****   3 GROUP 4 **** **** 0

# MOE 2024.06 (io_trps.svl 2023.06)
