@<TRIPOS>MOLECULE
NONAME
39 41 1 0 0 
SMALL
USER_CHARGES


@<TRIPOS>ATOM
  1 F       -0.7180     0.4710    -0.2480 F     1 <1>  -0.3400 
  2 C       -1.9210    -0.0890    -0.1340 C.3   1 <1>   1.1640 
  3 F       -2.6260     0.3660    -1.1650 F     1 <1>  -0.3400 
  4 F       -2.4630     0.4470     0.9550 F     1 <1>  -0.3400 
  5 C       -1.8620    -1.6410    -0.0790 C.ar  1 <1>   0.1660 
  6 N       -2.9850    -2.3390     0.0130 N.ar  1 <1>  -0.6200 
  7 C       -0.6470    -2.2980    -0.1260 C.ar  1 <1>  -0.1500 
  8 C       -2.8830    -3.6630     0.0610 C.ar  1 <1>   0.7200 
  9 C       -0.6490    -3.6700    -0.0760 C.ar  1 <1>   0.1600 
 10 N       -1.7540    -4.3620     0.0160 N.ar  1 <1>  -0.6200 
 11 N       -4.0520    -4.3700     0.1670 N.pl3 1 <1>  -0.8380 
 12 C       -5.3970    -3.7750    -0.0320 C.3   1 <1>   0.2090 
 13 C       -4.1180    -5.8510     0.1370 C.3   1 <1>   0.2090 
 14 C       -6.3020    -4.9590    -0.3760 C.3   1 <1>   0.2000 
 15 C       -5.6090    -6.1850     0.2130 C.3   1 <1>  -0.0800 
 16 O       -7.5720    -4.8210     0.1670 O.3   1 <1>  -0.6800 
 17 C       -5.9850    -7.4920    -0.5010 C.3   1 <1>   0.0210 
 18 C       -5.1890    -8.6620     0.0430 C.2   1 <1>   0.1080 
 19 N       -5.2740    -9.0590     1.2740 N.2   1 <1>  -0.7070 
 20 C       -4.2850    -9.4220    -0.6930 C.2   1 <1>  -0.1500 
 21 N       -4.4180   -10.0950     1.3580 N.pl3 1 <1>   0.3000 
 22 C       -3.8060   -10.3330     0.1790 C.2   1 <1>  -0.3320 
 23 C       -2.7850   -11.4340    -0.0450 C.3   1 <1>  -0.0600 
 24 H        0.2870    -1.7720    -0.2010 H     1 <1>   0.1500 
 25 H        0.2810    -4.2120    -0.1110 H     1 <1>   0.1500 
 26 H       -5.7080    -3.3000     0.8820 H     1 <1>   0.0800 
 27 H       -5.3830    -3.0590    -0.8360 H     1 <1>   0.0800 
 28 H       -3.6880    -6.2050    -0.7850 H     1 <1>   0.0800 
 29 H       -3.5810    -6.2770     0.9680 H     1 <1>   0.0800 
 30 H       -6.3970    -5.0360    -1.4460 H     1 <1>   0.0800 
 31 H       -5.8540    -6.2720     1.2570 H     1 <1>   0.0800 
 32 H       -7.5220    -4.8560     1.1420 H     1 <1>   0.4000 
 33 H       -5.8080    -7.4020    -1.5570 H     1 <1>   0.0800 
 34 H       -7.0320    -7.6910    -0.3540 H     1 <1>   0.0800 
 35 H       -4.0400    -9.2880    -1.7310 H     1 <1>   0.1500 
 36 H       -4.2740   -10.6140     2.2320 H     1 <1>   0.2700 
 37 H       -2.4460   -11.4210    -1.0650 H     1 <1>   0.0800 
 38 H       -3.2240   -12.3950     0.1580 H     1 <1>   0.0800 
 39 H       -1.9370   -11.2910     0.6000 H     1 <1>   0.0800 
@<TRIPOS>BOND
  1   1   2  1   
  2   2   3  1   
  3   2   4  1   
  4   2   5  1   
  5   5   6  ar  
  6   5   7  ar  
  7   6   8  ar  
  8   7   9  ar  
  9   7  24  1   
 10   8  10  ar  
 11   8  11  1   
 12   9  10  ar  
 13   9  25  1   
 14  11  12  1   
 15  11  13  1   
 16  12  14  1   
 17  12  26  1   
 18  12  27  1   
 19  13  15  1   
 20  13  28  1   
 21  13  29  1   
 22  14  15  1   
 23  14  16  1   
 24  14  30  1   
 25  15  17  1   
 26  15  31  1   
 27  16  32  1   
 28  17  18  1   
 29  17  33  1   
 30  17  34  1   
 31  18  19  2   
 32  18  20  1   
 33  19  21  1   
 34  20  22  2   
 35  20  35  1   
 36  21  22  1   
 37  21  36  1   
 38  22  23  1   
 39  23  37  1   
 40  23  38  1   
 41  23  39  1   
@<TRIPOS>SUBSTRUCTURE
  1 ****  11 GROUP 4 **** **** 0

# MOE 2024.06 (io_trps.svl 2023.06)
