@<TRIPOS>MOLECULE
NONAME
45 47 1 0 0 
SMALL
USER_CHARGES


@<TRIPOS>ATOM
  1 O       -0.3680     0.2470     1.0960 O.2   1 <1>  -0.5700 
  2 C       -1.3950     0.9100     0.9320 C.2   1 <1>   0.5440 
  3 N       -2.6000     0.2300     1.1390 N.am  1 <1>  -0.6600 
  4 C       -1.3110     2.3260     0.6210 C.ar  1 <1>   0.3960 
  5 C       -2.6680    -1.2610     1.1680 C.3   1 <1>   0.1400 
  6 C       -3.9280     0.8570     0.8580 C.3   1 <1>   0.1400 
  7 N       -0.7460     3.1520     1.5360 N.ar  1 <1>  -0.6200 
  8 C       -1.8280     2.8430    -0.6110 C.ar  1 <1>  -0.1710 
  9 C       -3.4010    -1.7970    -0.0750 C.3   1 <1>   0.3440 
 10 C       -4.6060     0.1930    -0.3640 C.3   1 <1>   0.2000 
 11 C       -0.6700     4.4270     1.2420 C.ar  1 <1>   0.1600 
 12 O       -2.3890     2.1380    -1.4860 O.3   1 <1>  -0.8290 
 13 C       -1.7240     4.2100    -0.8750 C.ar  1 <1>  -0.1500 
 14 O       -4.6680    -1.2000    -0.1800 O.3   1 <1>  -0.5600 
 15 C       -3.5560    -3.3150     0.0020 C.ar  1 <1>  -0.1440 
 16 C       -6.0340     0.7070    -0.6590 C.3   1 <1>  -0.0800 
 17 C       -1.1370     5.0030     0.0640 C.ar  1 <1>  -0.1500 
 18 C       -4.6380    -3.9010     0.6460 C.ar  1 <1>  -0.1500 
 19 C       -2.5910    -4.1310    -0.5690 C.ar  1 <1>  -0.1500 
 20 C       -6.0340     2.2070    -0.9930 C.3   1 <1>  -0.2400 
 21 C       -7.0430     0.4240     0.4680 C.3   1 <1>  -0.2400 
 22 C       -4.7520    -5.2790     0.7180 C.ar  1 <1>  -0.1500 
 23 C       -2.7030    -5.5090    -0.4990 C.ar  1 <1>  -0.1500 
 24 C       -3.7840    -6.0840     0.1460 C.ar  1 <1>  -0.1500 
 25 H       -1.6840    -1.6910     1.2030 H     1 <1>   0.0800 
 26 H       -3.1940    -1.5730     2.0510 H     1 <1>   0.0800 
 27 H       -4.5520     0.7400     1.7240 H     1 <1>   0.0800 
 28 H       -3.8210     1.9090     0.6770 H     1 <1>   0.0800 
 29 H       -2.8390    -1.5380    -0.9570 H     1 <1>   0.0800 
 30 H       -4.0010     0.3790    -1.2350 H     1 <1>   0.0800 
 31 H       -0.2120     5.0710     1.9700 H     1 <1>   0.1500 
 32 H       -2.1090     4.5780    -1.8070 H     1 <1>   0.1500 
 33 H       -6.3650     0.1870    -1.5420 H     1 <1>   0.0800 
 34 H       -1.0320     6.0590    -0.0940 H     1 <1>   0.1500 
 35 H       -5.3950    -3.2770     1.0900 H     1 <1>   0.1500 
 36 H       -1.7450    -3.6920    -1.0710 H     1 <1>   0.1500 
 37 H       -5.7960     2.7970    -0.1270 H     1 <1>   0.0800 
 38 H       -6.9960     2.5100    -1.3630 H     1 <1>   0.0800 
 39 H       -5.2940     2.4140    -1.7500 H     1 <1>   0.0800 
 40 H       -6.7900     0.9690     1.3580 H     1 <1>   0.0800 
 41 H       -7.0560    -0.6270     0.6970 H     1 <1>   0.0800 
 42 H       -8.0310     0.7140     0.1590 H     1 <1>   0.0800 
 43 H       -5.5960    -5.7210     1.2180 H     1 <1>   0.1500 
 44 H       -1.9480    -6.1330    -0.9460 H     1 <1>   0.1500 
 45 H       -3.8720    -7.1550     0.2010 H     1 <1>   0.1500 
@<TRIPOS>BOND
  1   1   2  2   
  2   2   3  am  
  3   2   4  1   
  4   3   5  1   
  5   3   6  1   
  6   4   7  ar  
  7   4   8  ar  
  8   5   9  1   
  9   5  25  1   
 10   5  26  1   
 11   6  10  1   
 12   6  27  1   
 13   6  28  1   
 14   7  11  ar  
 15   8  12  1   
 16   8  13  ar  
 17   9  14  1   
 18   9  15  1   
 19   9  29  1   
 20  10  14  1   
 21  10  16  1   
 22  10  30  1   
 23  11  17  ar  
 24  11  31  1   
 25  13  17  ar  
 26  13  32  1   
 27  15  18  ar  
 28  15  19  ar  
 29  16  20  1   
 30  16  21  1   
 31  16  33  1   
 32  17  34  1   
 33  18  22  ar  
 34  18  35  1   
 35  19  23  ar  
 36  19  36  1   
 37  20  37  1   
 38  20  38  1   
 39  20  39  1   
 40  21  40  1   
 41  21  41  1   
 42  21  42  1   
 43  22  24  ar  
 44  22  43  1   
 45  23  24  ar  
 46  23  44  1   
 47  24  45  1   
@<TRIPOS>SUBSTRUCTURE
  1 ****   3 GROUP 4 **** **** 0

# MOE 2024.06 (io_trps.svl 2023.06)
