@<TRIPOS>MOLECULE
NONAME
39 41 1 0 0 
SMALL
USER_CHARGES


@<TRIPOS>ATOM
  1 O       -0.5320     0.3030     0.7770 O.2   1 <1>  -0.5700 
  2 C       -1.5170     0.9800     0.5340 C.2   1 <1>   0.7150 
  3 N       -2.7500     0.3610     0.5200 N.am  1 <1>  -0.6600 
  4 C       -1.3940     2.3970     0.2610 C.2   1 <1>   0.0550 
  5 C       -3.9090     0.8530    -0.2700 C.3   1 <1>   0.1400 
  6 C       -2.9390    -1.0760     0.8290 C.3   1 <1>   0.1400 
  7 O       -0.3860     2.8710    -0.4660 O.3   1 <1>  -0.2800 
  8 C       -2.1810     3.4470     0.6320 C.2   1 <1>  -0.1500 
  9 C       -4.8490    -0.3500    -0.4410 C.3   1 <1>   0.2000 
 10 C       -3.9420    -1.5640    -0.2150 C.3   1 <1>  -0.0800 
 11 C       -0.5090     4.1750    -0.5680 C.2   1 <1>  -0.0100 
 12 C       -1.6070     4.5980     0.0920 C.2   1 <1>  -0.1500 
 13 O       -5.8280    -0.3280     0.5580 O.3   1 <1>  -0.5600 
 14 C       -4.6780    -2.8520     0.1940 C.3   1 <1>   0.0200 
 15 C       -6.9690     0.4120     0.2560 C.3   1 <1>   0.0400 
 16 C       -3.7670    -4.0680     0.2420 C.2   1 <1>  -0.0400 
 17 O       -4.2540    -5.2010     0.6730 O.3   1 <1>  -0.0190 
 18 C       -2.4800    -4.2760    -0.0820 C.2   1 <1>  -0.1500 
 19 N       -3.3650    -6.1520     0.6580 N.2   1 <1>  -0.4100 
 20 C       -2.2850    -5.6230     0.2090 C.2   1 <1>   0.1080 
 21 C       -0.9830    -6.3690     0.0250 C.3   1 <1>  -0.0590 
 22 H       -4.4020     1.6630     0.2370 H     1 <1>   0.0800 
 23 H       -3.5610     1.1850    -1.2330 H     1 <1>   0.0800 
 24 H       -2.0130    -1.6220     0.7800 H     1 <1>   0.0800 
 25 H       -3.3520    -1.1640     1.8200 H     1 <1>   0.0800 
 26 H       -3.0720     3.4200     1.2350 H     1 <1>   0.1500 
 27 H       -5.3240    -0.3770    -1.4070 H     1 <1>   0.0800 
 28 H       -3.4050    -1.7460    -1.1290 H     1 <1>   0.0800 
 29 H        0.2290     4.7260    -1.1260 H     1 <1>   0.1500 
 30 H       -1.9800     5.6010     0.1990 H     1 <1>   0.1500 
 31 H       -5.4690    -3.0500    -0.5080 H     1 <1>   0.0800 
 32 H       -5.1280    -2.7240     1.1630 H     1 <1>   0.0800 
 33 H       -7.6290     0.3660     1.1050 H     1 <1>   0.0800 
 34 H       -7.4560    -0.0210    -0.6010 H     1 <1>   0.0800 
 35 H       -6.6990     1.4350     0.0640 H     1 <1>   0.0800 
 36 H       -1.7400    -3.6030    -0.4730 H     1 <1>   0.1500 
 37 H       -0.1980    -5.8720     0.5640 H     1 <1>   0.0800 
 38 H       -0.7300    -6.4080    -1.0180 H     1 <1>   0.0800 
 39 H       -1.0800    -7.3730     0.3970 H     1 <1>   0.0800 
@<TRIPOS>BOND
  1   1   2  2   
  2   2   3  am  
  3   2   4  1   
  4   3   5  1   
  5   3   6  1   
  6   4   7  1   
  7   4   8  2   
  8   5   9  1   
  9   5  22  1   
 10   5  23  1   
 11   6  10  1   
 12   6  24  1   
 13   6  25  1   
 14   7  11  1   
 15   8  12  1   
 16   8  26  1   
 17   9  10  1   
 18   9  13  1   
 19   9  27  1   
 20  10  14  1   
 21  10  28  1   
 22  11  12  2   
 23  11  29  1   
 24  12  30  1   
 25  13  15  1   
 26  14  16  1   
 27  14  31  1   
 28  14  32  1   
 29  15  33  1   
 30  15  34  1   
 31  15  35  1   
 32  16  17  1   
 33  16  18  2   
 34  17  19  1   
 35  18  20  1   
 36  18  36  1   
 37  19  20  2   
 38  20  21  1   
 39  21  37  1   
 40  21  38  1   
 41  21  39  1   
@<TRIPOS>SUBSTRUCTURE
  1 ****   6 GROUP 4 **** **** 0

# MOE 2024.06 (io_trps.svl 2023.06)
