@<TRIPOS>MOLECULE
NONAME
39 42 1 0 0 
SMALL
USER_CHARGES


@<TRIPOS>ATOM
  1 S       -0.6320    -0.1270    -1.6130 S.3   1 <1>  -0.4600 
  2 C       -1.8660     0.7690    -0.6170 C.3   1 <1>   0.2510 
  3 C       -1.2850    -1.8120    -1.4230 C.3   1 <1>   0.2510 
  4 C       -2.8050    -0.3270    -0.1690 C.2   1 <1>   0.1080 
  5 C       -2.5180    -1.6140    -0.5730 C.2   1 <1>  -0.1810 
  6 N       -3.8740    -0.2490     0.5560 N.2   1 <1>  -0.7070 
  7 C       -3.4950    -2.3870    -0.0430 C.2   1 <1>  -0.0880 
  8 N       -4.3100    -1.5290     0.6470 N.pl3 1 <1>   0.3140 
  9 N       -3.6280    -3.7880    -0.2090 N.am  1 <1>  -0.4940 
 10 C       -5.5660    -1.8110     1.3560 C.3   1 <1>   0.0160 
 11 C       -4.1070    -4.7480     0.6450 C.2   1 <1>   0.5690 
 12 O       -4.5320    -4.4910     1.7450 O.2   1 <1>  -0.5700 
 13 C       -4.0940    -6.2010     0.1680 C.3   1 <1>   0.1240 
 14 C       -5.4220    -6.6620    -0.4600 C.ar  1 <1>  -0.1430 
 15 C       -3.6640    -7.1560     1.2990 C.3   1 <1>  -0.0990 
 16 C       -5.6730    -8.0360    -0.5350 C.ar  1 <1>   0.1170 
 17 C       -6.3540    -5.7620    -0.9720 C.ar  1 <1>  -0.1500 
 18 C       -3.7360    -8.5890     0.8300 C.2   1 <1>   0.5690 
 19 N       -4.7450    -8.9330    -0.0050 N.am  1 <1>  -0.5470 
 20 C       -6.8390    -8.5000    -1.1270 C.ar  1 <1>  -0.1500 
 21 C       -7.5220    -6.2210    -1.5570 C.ar  1 <1>  -0.1500 
 22 O       -2.9170    -9.3920     1.1910 O.2   1 <1>  -0.5700 
 23 C       -7.7390    -7.5830    -1.6250 C.ar  1 <1>   0.1900 
 24 F       -8.8380    -8.0160    -2.1810 F     1 <1>  -0.1900 
 25 H       -2.3570     1.4900    -1.2440 H     1 <1>   0.0800 
 26 H       -1.3660     1.2340     0.2120 H     1 <1>   0.0800 
 27 H       -0.5360    -2.4040    -0.9280 H     1 <1>   0.0800 
 28 H       -1.5130    -2.1920    -2.4020 H     1 <1>   0.0800 
 29 H       -3.2430    -4.1380    -1.0860 H     1 <1>   0.3700 
 30 H       -6.1610    -0.9170     1.3890 H     1 <1>   0.0800 
 31 H       -5.3390    -2.1260     2.3570 H     1 <1>   0.0800 
 32 H       -6.1050    -2.5830     0.8420 H     1 <1>   0.0800 
 33 H       -3.3480    -6.2820    -0.6020 H     1 <1>   0.0800 
 34 H       -4.3210    -7.0500     2.1430 H     1 <1>   0.0800 
 35 H       -2.6630    -6.9300     1.6190 H     1 <1>   0.0800 
 36 H       -6.1930    -4.6990    -0.9280 H     1 <1>   0.1500 
 37 H       -4.8060    -9.9270    -0.2310 H     1 <1>   0.3700 
 38 H       -7.0480    -9.5510    -1.1960 H     1 <1>   0.1500 
 39 H       -8.2520    -5.5390    -1.9560 H     1 <1>   0.1500 
@<TRIPOS>BOND
  1   1   2  1   
  2   1   3  1   
  3   2   4  1   
  4   2  25  1   
  5   2  26  1   
  6   3   5  1   
  7   3  27  1   
  8   3  28  1   
  9   4   5  1   
 10   4   6  2   
 11   5   7  2   
 12   6   8  1   
 13   7   8  1   
 14   7   9  1   
 15   8  10  1   
 16   9  11  am  
 17   9  29  1   
 18  10  30  1   
 19  10  31  1   
 20  10  32  1   
 21  11  12  2   
 22  11  13  1   
 23  13  14  1   
 24  13  15  1   
 25  13  33  1   
 26  14  16  ar  
 27  14  17  ar  
 28  15  18  1   
 29  15  34  1   
 30  15  35  1   
 31  16  19  1   
 32  16  20  ar  
 33  17  21  ar  
 34  17  36  1   
 35  18  19  am  
 36  18  22  2   
 37  19  37  1   
 38  20  23  ar  
 39  20  38  1   
 40  21  23  ar  
 41  21  39  1   
 42  23  24  1   
@<TRIPOS>SUBSTRUCTURE
  1 ****  11 GROUP 4 **** **** 0

# MOE 2024.06 (io_trps.svl 2023.06)
