@<TRIPOS>MOLECULE
NONAME
41 42 1 0 0 
SMALL
USER_CHARGES


@<TRIPOS>ATOM
  1 S        0.1580     0.2230    -0.2360 S.o2  1 <1>   1.3330 
  2 O        0.3000    -0.2910     1.1080 O.2   1 <1>  -0.6500 
  3 O       -0.0620    -0.6950    -1.3310 O.2   1 <1>  -0.6500 
  4 N       -1.1050     1.3580    -0.2260 N.am  1 <1>  -0.8490 
  5 C        1.5940     1.2170    -0.6300 C.3   1 <1>  -0.0550 
  6 C       -2.3980     0.7520    -0.5570 C.3   1 <1>   0.1160 
  7 C       -1.2100     2.1060     1.0300 C.3   1 <1>   0.1160 
  8 C        2.8680     0.3790    -0.8560 C.3   1 <1>  -0.0800 
  9 C        4.1020     1.1760    -1.2520 C.3   1 <1>   0.2200 
 10 C        3.3500    -0.4120     0.3680 C.3   1 <1>   0.1200 
 11 N        4.2300     2.3990    -0.4220 N.am  1 <1>  -0.7300 
 12 C        5.1950     0.2010    -0.8420 C.3   1 <1>   0.1200 
 13 O        4.7490    -0.3400     0.3630 O.3   1 <1>  -0.5600 
 14 C        3.8910     3.6620    -0.8100 C.2   1 <1>   0.5440 
 15 O        3.3730     3.7990    -1.8990 O.2   1 <1>  -0.5700 
 16 C        4.1250     4.8100     0.0530 C.ar  1 <1>   0.0860 
 17 C        4.1380     6.1020    -0.4820 C.ar  1 <1>  -0.1500 
 18 C        4.3380     4.6740     1.4340 C.ar  1 <1>  -0.1500 
 19 C        4.3610     7.1920     0.3350 C.ar  1 <1>   0.1900 
 20 C        4.5630     5.7690     2.2550 C.ar  1 <1>  -0.1500 
 21 F        4.3700     8.3880    -0.1950 F     1 <1>  -0.1900 
 22 C        4.5740     7.0310     1.6930 C.ar  1 <1>   0.1900 
 23 F        4.7850     8.0650     2.4630 F     1 <1>  -0.1900 
 24 H        1.3930     1.7770    -1.5230 H     1 <1>   0.0800 
 25 H        1.7570     1.9190     0.1630 H     1 <1>   0.0800 
 26 H       -3.1710     1.5010    -0.5620 H     1 <1>   0.0800 
 27 H       -2.6470    -0.0130     0.1590 H     1 <1>   0.0800 
 28 H       -2.3560     0.3080    -1.5380 H     1 <1>   0.0800 
 29 H       -1.9670     2.8670     0.9440 H     1 <1>   0.0800 
 30 H       -0.2730     2.5850     1.2560 H     1 <1>   0.0800 
 31 H       -1.4670     1.4460     1.8420 H     1 <1>   0.0800 
 32 H        2.6650    -0.3310    -1.6400 H     1 <1>   0.0800 
 33 H        4.1310     1.4160    -2.3020 H     1 <1>   0.0800 
 34 H        3.0520    -1.4450     0.3210 H     1 <1>   0.0800 
 35 H        3.0050     0.0220     1.2910 H     1 <1>   0.0800 
 36 H        4.6740     2.2230     0.4820 H     1 <1>   0.3700 
 37 H        6.1500     0.6750    -0.7000 H     1 <1>   0.0800 
 38 H        5.2830    -0.6010    -1.5550 H     1 <1>   0.0800 
 39 H        3.9740     6.2530    -1.5350 H     1 <1>   0.1500 
 40 H        4.3230     3.6960     1.8820 H     1 <1>   0.1500 
 41 H        4.7270     5.6530     3.3130 H     1 <1>   0.1500 
@<TRIPOS>BOND
  1   1   2  2   
  2   1   3  2   
  3   1   4  am  
  4   1   5  1   
  5   4   6  1   
  6   4   7  1   
  7   5   8  1   
  8   5  24  1   
  9   5  25  1   
 10   6  26  1   
 11   6  27  1   
 12   6  28  1   
 13   7  29  1   
 14   7  30  1   
 15   7  31  1   
 16   8   9  1   
 17   8  10  1   
 18   8  32  1   
 19   9  11  1   
 20   9  12  1   
 21   9  33  1   
 22  10  13  1   
 23  10  34  1   
 24  10  35  1   
 25  11  14  am  
 26  11  36  1   
 27  12  13  1   
 28  12  37  1   
 29  12  38  1   
 30  14  15  2   
 31  14  16  1   
 32  16  17  ar  
 33  16  18  ar  
 34  17  19  ar  
 35  17  39  1   
 36  18  20  ar  
 37  18  40  1   
 38  19  21  1   
 39  19  22  ar  
 40  20  22  ar  
 41  20  41  1   
 42  22  23  1   
@<TRIPOS>SUBSTRUCTURE
  1 ****  14 GROUP 4 **** **** 0

# MOE 2024.06 (io_trps.svl 2023.06)
