@<TRIPOS>MOLECULE
NONAME
43 45 1 0 0 
SMALL
USER_CHARGES


@<TRIPOS>ATOM
  1 F        1.8950    -2.1290     3.1960 F     1 <1>  -0.3400 
  2 C        2.2600    -1.7080     1.9900 C.3   1 <1>   1.1640 
  3 F        2.0970    -0.3920     1.9880 F     1 <1>  -0.3400 
  4 F        3.5670    -1.9220     1.9030 F     1 <1>  -0.3400 
  5 C        1.4840    -2.3830     0.8560 C.ar  1 <1>  -0.1440 
  6 C        0.2470    -2.9640     1.0490 C.ar  1 <1>  -0.1500 
  7 C        1.9780    -2.4440    -0.4380 C.ar  1 <1>  -0.1500 
  8 C       -0.4210    -3.5680    -0.0070 C.ar  1 <1>   0.4100 
  9 C        1.2420    -3.0670    -1.4320 C.ar  1 <1>   0.1660 
 10 N        0.0640    -3.6290    -1.2410 N.ar  1 <1>  -0.6200 
 11 N       -1.6350    -4.1700     0.2310 N.pl3 1 <1>  -0.8380 
 12 C        1.7780    -3.1390    -2.8460 C.3   1 <1>  -0.0970 
 13 C       -2.7410    -3.8940    -0.7330 C.3   1 <1>   0.2090 
 14 C       -1.5600    -5.6380     0.4650 C.3   1 <1>   0.2090 
 15 C       -3.0850    -5.2440    -1.3540 C.3   1 <1>   0.2000 
 16 C       -2.7420    -6.2620    -0.2750 C.3   1 <1>  -0.0800 
 17 O       -4.4280    -5.3410    -1.6960 O.3   1 <1>  -0.6800 
 18 C       -2.4390    -7.6610    -0.8340 C.3   1 <1>   0.0210 
 19 C       -1.8860    -8.5840     0.2370 C.2   1 <1>   0.1080 
 20 N       -2.4090    -8.6970     1.4190 N.2   1 <1>  -0.7070 
 21 C       -0.7640    -9.3900     0.0810 C.2   1 <1>  -0.1500 
 22 N       -1.6270    -9.5920     2.0530 N.pl3 1 <1>   0.3000 
 23 C       -0.6220   -10.0240     1.2630 C.2   1 <1>  -0.3320 
 24 C        0.4270   -11.0320     1.6940 C.3   1 <1>  -0.0600 
 25 H       -0.2330    -2.9710     2.0110 H     1 <1>   0.1500 
 26 H        2.9340    -2.0100    -0.6730 H     1 <1>   0.1500 
 27 H        2.7330    -2.6550    -2.9270 H     1 <1>   0.0800 
 28 H        1.0870    -2.6600    -3.5150 H     1 <1>   0.0800 
 29 H        1.8830    -4.1680    -3.1370 H     1 <1>   0.0800 
 30 H       -3.5810    -3.5020    -0.1880 H     1 <1>   0.0800 
 31 H       -2.4420    -3.1890    -1.4900 H     1 <1>   0.0800 
 32 H       -0.6300    -6.0190     0.0760 H     1 <1>   0.0800 
 33 H       -1.6120    -5.8560     1.5180 H     1 <1>   0.0800 
 34 H       -2.4910    -5.3900    -2.2400 H     1 <1>   0.0800 
 35 H       -3.5510    -6.3300     0.4320 H     1 <1>   0.0800 
 36 H       -4.9810    -5.3250    -0.8920 H     1 <1>   0.4000 
 37 H       -1.7240    -7.5850    -1.6330 H     1 <1>   0.0800 
 38 H       -3.3410    -8.0900    -1.2320 H     1 <1>   0.0800 
 39 H       -0.1590    -9.4710    -0.8040 H     1 <1>   0.1500 
 40 H       -1.8060    -9.8840     3.0210 H     1 <1>   0.2700 
 41 H        1.1190   -11.2110     0.8900 H     1 <1>   0.0800 
 42 H       -0.0390   -11.9650     1.9580 H     1 <1>   0.0800 
 43 H        0.9760   -10.6600     2.5400 H     1 <1>   0.0800 
@<TRIPOS>BOND
  1   1   2  1   
  2   2   3  1   
  3   2   4  1   
  4   2   5  1   
  5   5   6  ar  
  6   5   7  ar  
  7   6   8  ar  
  8   6  25  1   
  9   7   9  ar  
 10   7  26  1   
 11   8  10  ar  
 12   8  11  1   
 13   9  10  ar  
 14   9  12  1   
 15  11  13  1   
 16  11  14  1   
 17  12  27  1   
 18  12  28  1   
 19  12  29  1   
 20  13  15  1   
 21  13  30  1   
 22  13  31  1   
 23  14  16  1   
 24  14  32  1   
 25  14  33  1   
 26  15  16  1   
 27  15  17  1   
 28  15  34  1   
 29  16  18  1   
 30  16  35  1   
 31  17  36  1   
 32  18  19  1   
 33  18  37  1   
 34  18  38  1   
 35  19  20  2   
 36  19  21  1   
 37  20  22  1   
 38  21  23  2   
 39  21  39  1   
 40  22  23  1   
 41  22  40  1   
 42  23  24  1   
 43  24  41  1   
 44  24  42  1   
 45  24  43  1   
@<TRIPOS>SUBSTRUCTURE
  1 ****  14 GROUP 4 **** **** 0

# MOE 2024.06 (io_trps.svl 2023.06)
