@<TRIPOS>MOLECULE
NONAME
38 40 1 0 0 
SMALL
USER_CHARGES


@<TRIPOS>ATOM
  1 O       -0.8900    -0.1180    -1.2040 O.2   1 <1>  -0.5700 
  2 C       -1.6400     0.6070    -0.5730 C.2   1 <1>   0.5440 
  3 N       -2.6570     0.0450     0.1560 N.am  1 <1>  -0.6600 
  4 C       -1.4310     2.0430    -0.6170 C.ar  1 <1>   0.0860 
  5 C       -3.8410     0.7790     0.6890 C.3   1 <1>   0.2350 
  6 C       -2.8870    -1.4250     0.2580 C.3   1 <1>   0.2350 
  7 C       -1.4620     2.8350     0.5320 C.ar  1 <1>  -0.1500 
  8 C       -1.1740     2.6860    -1.8260 C.ar  1 <1>  -0.1500 
  9 C       -4.9790    -0.2230     0.6990 C.3   1 <1>  -0.2420 
 10 C       -4.3870    -1.5890     0.4440 C.3   1 <1>  -0.2420 
 11 C       -1.2650     4.2050     0.4860 C.ar  1 <1>  -0.1430 
 12 C       -0.9690     4.0510    -1.8930 C.ar  1 <1>  -0.1500 
 13 C       -6.1010     0.2510     1.6270 C.2   1 <1>   0.9470 
 14 C       -5.3430    -0.9830    -0.5520 C.3   1 <1>  -0.2000 
 15 C       -4.7140    -2.9540     1.0540 C.2   1 <1>   0.9470 
 16 C       -1.0140     4.8250    -0.7350 C.ar  1 <1>   0.0820 
 17 C       -1.3270     5.0180     1.7700 C.3   1 <1>  -0.0970 
 18 O       -7.2520     0.3730     1.1870 O.co2 1 <1>  -0.9000 
 19 O       -5.8040     0.6730     2.7550 O.co2 1 <1>  -0.9000 
 20 O       -4.1410    -3.2980     2.0980 O.co2 1 <1>  -0.9000 
 21 O       -5.4200    -3.7530     0.4210 O.co2 1 <1>  -0.9000 
 22 O       -0.8190     6.1660    -0.7380 O.3   1 <1>  -0.3630 
 23 C       -0.5200     6.8790    -1.9180 C.3   1 <1>   0.0400 
 24 H       -3.6320     1.1030     1.6950 H     1 <1>   0.0800 
 25 H       -4.0920     1.6260     0.0760 H     1 <1>   0.0800 
 26 H       -2.5550    -1.9390    -0.6260 H     1 <1>   0.0800 
 27 H       -2.3620    -1.8060     1.1170 H     1 <1>   0.0800 
 28 H       -1.6430     2.3520     1.4760 H     1 <1>   0.1500 
 29 H       -1.1350     2.0910    -2.7220 H     1 <1>   0.1500 
 30 H       -0.7770     4.4940    -2.8510 H     1 <1>   0.1500 
 31 H       -4.9730    -0.6510    -1.5030 H     1 <1>   0.1000 
 32 H       -6.3320    -1.4050    -0.6150 H     1 <1>   0.1000 
 33 H       -1.5640     4.3960     2.6140 H     1 <1>   0.0800 
 34 H       -2.0820     5.7780     1.6830 H     1 <1>   0.0800 
 35 H       -0.3780     5.4930     1.9460 H     1 <1>   0.0800 
 36 H       -0.3960     7.9150    -1.6600 H     1 <1>   0.0800 
 37 H       -1.3370     6.7690    -2.6090 H     1 <1>   0.0800 
 38 H        0.3940     6.4940    -2.3350 H     1 <1>   0.0800 
@<TRIPOS>BOND
  1   1   2  2   
  2   2   3  am  
  3   2   4  1   
  4   3   5  1   
  5   3   6  1   
  6   4   7  ar  
  7   4   8  ar  
  8   5   9  1   
  9   5  24  1   
 10   5  25  1   
 11   6  10  1   
 12   6  26  1   
 13   6  27  1   
 14   7  11  ar  
 15   7  28  1   
 16   8  12  ar  
 17   8  29  1   
 18   9  10  1   
 19   9  13  1   
 20   9  14  1   
 21  10  14  1   
 22  10  15  1   
 23  11  16  ar  
 24  11  17  1   
 25  12  16  ar  
 26  12  30  1   
 27  13  18  ar  
 28  13  19  ar  
 29  14  31  1   
 30  14  32  1   
 31  15  20  ar  
 32  15  21  ar  
 33  16  22  1   
 34  17  33  1   
 35  17  34  1   
 36  17  35  1   
 37  22  23  1   
 38  23  36  1   
 39  23  37  1   
 40  23  38  1   
@<TRIPOS>SUBSTRUCTURE
  1 ****   5 GROUP 4 **** **** 0

# MOE 2024.06 (io_trps.svl 2023.06)
