@<TRIPOS>MOLECULE
NONAME
31 33 1 0 0 
SMALL
USER_CHARGES


@<TRIPOS>ATOM
  1 CL      -1.1480     0.1360     1.3560 Cl    1 <1>  -0.1770 
  2 C       -2.1350    -0.8790     0.3370 C.ar  1 <1>   0.1770 
  3 C       -2.8840    -0.2980    -0.6660 C.ar  1 <1>  -0.1500 
  4 C       -2.1490    -2.2440     0.5500 C.ar  1 <1>  -0.1500 
  5 C       -3.6560    -1.1230    -1.4600 C.ar  1 <1>   0.1770 
  6 C       -2.9330    -3.0780    -0.2460 C.ar  1 <1>   0.0860 
  7 CL      -4.6060    -0.4210    -2.7420 Cl    1 <1>  -0.1770 
  8 C       -3.6870    -2.4900    -1.2620 C.ar  1 <1>  -0.1500 
  9 C       -2.9480    -4.5090    -0.0300 C.2   1 <1>   0.5440 
 10 O       -1.9120    -5.1330    -0.1610 O.2   1 <1>  -0.5700 
 11 N       -4.0950    -5.1660     0.3220 N.am  1 <1>  -0.6600 
 12 C       -5.4090    -4.5420     0.6510 C.3   1 <1>   0.2350 
 13 C       -4.2940    -6.6280     0.1120 C.3   1 <1>   0.2350 
 14 C       -6.4440    -5.4570     0.0300 C.3   1 <1>  -0.2420 
 15 C       -5.7560    -6.7640    -0.2840 C.3   1 <1>  -0.2420 
 16 C       -7.8350    -5.1160     0.5700 C.2   1 <1>   0.9470 
 17 C       -6.3250    -5.9250    -1.4000 C.3   1 <1>  -0.2000 
 18 C       -6.2320    -8.2090    -0.1170 C.2   1 <1>   0.9470 
 19 O       -8.7380    -4.8090    -0.2200 O.co2 1 <1>  -0.9000 
 20 O       -7.9800    -4.9690     1.7920 O.co2 1 <1>  -0.9000 
 21 O       -6.6640    -8.8260    -1.1010 O.co2 1 <1>  -0.9000 
 22 O       -6.0290    -8.7840     0.9600 O.co2 1 <1>  -0.9000 
 23 H       -2.8670     0.7650    -0.8260 H     1 <1>   0.1500 
 24 H       -1.5510    -2.6730     1.3340 H     1 <1>   0.1500 
 25 H       -4.3000    -3.1100    -1.8940 H     1 <1>   0.1500 
 26 H       -5.5320    -4.5270     1.7210 H     1 <1>   0.0800 
 27 H       -5.5110    -3.5450     0.2670 H     1 <1>   0.0800 
 28 H       -3.6480    -7.0080    -0.6590 H     1 <1>   0.0800 
 29 H       -4.1060    -7.1500     1.0350 H     1 <1>   0.0800 
 30 H       -5.6590    -5.4240    -2.0760 H     1 <1>   0.1000 
 31 H       -7.2160    -6.2830    -1.8890 H     1 <1>   0.1000 
@<TRIPOS>BOND
  1   1   2  1   
  2   2   3  ar  
  3   2   4  ar  
  4   3   5  ar  
  5   3  23  1   
  6   4   6  ar  
  7   4  24  1   
  8   5   7  1   
  9   5   8  ar  
 10   6   8  ar  
 11   6   9  1   
 12   8  25  1   
 13   9  10  2   
 14   9  11  am  
 15  11  12  1   
 16  11  13  1   
 17  12  14  1   
 18  12  26  1   
 19  12  27  1   
 20  13  15  1   
 21  13  28  1   
 22  13  29  1   
 23  14  15  1   
 24  14  16  1   
 25  14  17  1   
 26  15  17  1   
 27  15  18  1   
 28  16  19  ar  
 29  16  20  ar  
 30  17  30  1   
 31  17  31  1   
 32  18  21  ar  
 33  18  22  ar  
@<TRIPOS>SUBSTRUCTURE
  1 ****  12 GROUP 4 **** **** 0

# MOE 2024.06 (io_trps.svl 2023.06)
