@<TRIPOS>MOLECULE
NONAME
43 45 1 0 0 
SMALL
USER_CHARGES


@<TRIPOS>ATOM
  1 CL      -3.3010     0.5150     1.9460 Cl    1 <1>  -0.1240 
  2 C       -3.2570    -0.6800     0.6780 C.2   1 <1>   0.2640 
  3 O       -3.9410    -1.7860     0.8380 O.3   1 <1>  -0.2800 
  4 C       -2.6050    -0.6540    -0.5000 C.2   1 <1>  -0.1500 
  5 C       -3.7640    -2.5420    -0.2480 C.2   1 <1>   0.0550 
  6 C       -2.9360    -1.8690    -1.1030 C.2   1 <1>  -0.1500 
  7 C       -4.3700    -3.8500    -0.4280 C.2   1 <1>   0.7150 
  8 O       -4.0500    -4.4840    -1.4210 O.2   1 <1>  -0.5700 
  9 N       -5.2970    -4.4310     0.4250 N.am  1 <1>  -0.6600 
 10 C       -5.8620    -5.7880     0.1320 C.3   1 <1>   0.1400 
 11 C       -6.0100    -3.7330     1.5320 C.3   1 <1>   0.1400 
 12 C       -7.1760    -5.7140    -0.6650 C.3   1 <1>   0.1400 
 13 C       -7.1070    -2.8040     0.9950 C.3   1 <1>  -0.1600 
 14 N       -8.1890    -4.8190    -0.0150 N.am  1 <1>  -0.6600 
 15 C       -7.9140    -3.3650    -0.1850 C.3   1 <1>   0.1400 
 16 C       -9.3170    -5.2560     0.6530 C.2   1 <1>   0.6160 
 17 O       -9.9640    -4.4420     1.2890 O.2   1 <1>  -0.5700 
 18 C       -9.7130    -6.6340     0.7130 C.2   1 <1>   0.0290 
 19 C      -10.0920    -7.3060    -0.4930 C.2   1 <1>   0.6160 
 20 C       -9.7620    -7.3190     1.9020 C.2   1 <1>  -0.1500 
 21 O      -10.0710    -6.7560    -1.5890 O.2   1 <1>  -0.5700 
 22 N      -10.4770    -8.6420    -0.4220 N.am  1 <1>  -0.4690 
 23 C      -10.1590    -8.6690     1.9350 C.2   1 <1>  -0.1500 
 24 C      -10.5060    -9.3030     0.7830 C.2   1 <1>  -0.0410 
 25 C      -10.8840    -9.3500    -1.6650 C.3   1 <1>   0.0600 
 26 H       -1.9720     0.1150    -0.9020 H     1 <1>   0.1500 
 27 H       -2.5940    -2.2070    -2.0670 H     1 <1>   0.1500 
 28 H       -6.0370    -6.3120     1.0550 H     1 <1>   0.0800 
 29 H       -5.1500    -6.3710    -0.4270 H     1 <1>   0.0800 
 30 H       -5.3190    -3.1900     2.1510 H     1 <1>   0.0800 
 31 H       -6.4740    -4.4680     2.1680 H     1 <1>   0.0800 
 32 H       -7.5610    -6.7100    -0.7730 H     1 <1>   0.0800 
 33 H       -6.9660    -5.3520    -1.6560 H     1 <1>   0.0800 
 34 H       -6.6710    -1.8690     0.6980 H     1 <1>   0.0800 
 35 H       -7.7870    -2.5860     1.7990 H     1 <1>   0.0800 
 36 H       -7.3640    -3.2140    -1.0980 H     1 <1>   0.0800 
 37 H       -8.8430    -2.8270    -0.2760 H     1 <1>   0.0800 
 38 H       -9.5040    -6.8290     2.8260 H     1 <1>   0.1500 
 39 H      -10.1850    -9.1800     2.8830 H     1 <1>   0.1500 
 40 H      -10.8160   -10.3350     0.7870 H     1 <1>   0.1500 
 41 H      -11.7210    -8.8400    -2.1100 H     1 <1>   0.0800 
 42 H      -11.1640   -10.3660    -1.4510 H     1 <1>   0.0800 
 43 H      -10.0660    -9.3490    -2.3630 H     1 <1>   0.0800 
@<TRIPOS>BOND
  1   1   2  1   
  2   2   3  1   
  3   2   4  2   
  4   3   5  1   
  5   4   6  1   
  6   4  26  1   
  7   5   6  2   
  8   5   7  1   
  9   6  27  1   
 10   7   8  2   
 11   7   9  am  
 12   9  10  1   
 13   9  11  1   
 14  10  12  1   
 15  10  28  1   
 16  10  29  1   
 17  11  13  1   
 18  11  30  1   
 19  11  31  1   
 20  12  14  1   
 21  12  32  1   
 22  12  33  1   
 23  13  15  1   
 24  13  34  1   
 25  13  35  1   
 26  14  15  1   
 27  14  16  am  
 28  15  36  1   
 29  15  37  1   
 30  16  17  2   
 31  16  18  1   
 32  18  19  1   
 33  18  20  2   
 34  19  21  2   
 35  19  22  am  
 36  20  23  1   
 37  20  38  1   
 38  22  24  1   
 39  22  25  1   
 40  23  24  2   
 41  23  39  1   
 42  24  40  1   
 43  25  41  1   
 44  25  42  1   
 45  25  43  1   
@<TRIPOS>SUBSTRUCTURE
  1 ****  14 GROUP 4 **** **** 0

# MOE 2024.06 (io_trps.svl 2023.06)
