@<TRIPOS>MOLECULE
NONAME
52 55 1 0 0 
SMALL
USER_CHARGES


@<TRIPOS>ATOM
  1 O       -0.4830     0.0840    -2.0020 O.2   1 <1>  -0.5700 
  2 C       -1.4570     0.6380    -1.5280 C.2   1 <1>   0.7160 
  3 N       -2.4030    -0.1170    -0.8780 N.am  1 <1>  -0.6600 
  4 C       -1.6080     2.0670    -1.6170 C.2   1 <1>  -0.0860 
  5 C       -3.4320     0.4390     0.0330 C.3   1 <1>   0.1400 
  6 C       -2.2610    -1.5800    -0.6590 C.3   1 <1>   0.1400 
  7 C       -0.9640     3.1020    -0.9990 C.2   1 <1>  -0.3320 
  8 C       -2.5540     2.7050    -2.4210 C.2   1 <1>   0.1390 
  9 C       -3.5260    -0.5880     1.1590 C.3   1 <1>   0.2000 
 10 C       -3.2340    -1.9300     0.4810 C.3   1 <1>  -0.0800 
 11 N       -1.5250     4.2380    -1.4480 N.pl3 1 <1>   0.3000 
 12 C        0.1760     3.0940     0.0110 C.3   1 <1>   0.1000 
 13 N       -2.5190     3.9960    -2.3210 N.2   1 <1>  -0.7070 
 14 O       -2.5090    -0.3370     2.0650 O.3   1 <1>  -0.6800 
 15 C       -4.5330    -2.5750    -0.0410 C.3   1 <1>  -0.0170 
 16 C        1.5000     2.7430    -0.6820 C.3   1 <1>  -0.1600 
 17 C       -0.1040     2.1280     1.1720 C.3   1 <1>  -0.1600 
 18 C       -4.2960    -3.9840    -0.5610 C.ar  1 <1>   0.1670 
 19 C        2.6670     2.7170     0.3160 C.3   1 <1>  -0.1600 
 20 C        1.0540     2.1160     2.1800 C.3   1 <1>  -0.1600 
 21 N       -4.1070    -4.1100    -1.8650 N.ar  1 <1>  -0.6200 
 22 C       -4.2910    -5.0480     0.3290 C.ar  1 <1>  -0.1500 
 23 C        2.3770     1.7650     1.4850 C.3   1 <1>  -0.1600 
 24 C       -3.9020    -5.3440    -2.2990 C.ar  1 <1>   0.1600 
 25 C       -4.0770    -6.3270    -0.1370 C.ar  1 <1>  -0.1500 
 26 C       -3.8770    -6.4680    -1.4930 C.ar  1 <1>  -0.1500 
 27 H       -3.1700     1.4130     0.4090 H     1 <1>   0.0800 
 28 H       -4.3690     0.4980    -0.4940 H     1 <1>   0.0800 
 29 H       -2.4810    -2.1120    -1.5690 H     1 <1>   0.0800 
 30 H       -1.2480    -1.8010    -0.3680 H     1 <1>   0.0800 
 31 H       -3.2440     2.1780    -3.0600 H     1 <1>   0.1500 
 32 H       -4.4630    -0.5540     1.6870 H     1 <1>   0.0800 
 33 H       -2.7750    -2.6140     1.1740 H     1 <1>   0.0800 
 34 H       -1.2590     5.1940    -1.1830 H     1 <1>   0.2700 
 35 H        0.2710     4.0830     0.4270 H     1 <1>   0.0800 
 36 H       -1.6600    -0.2890     1.5810 H     1 <1>   0.4000 
 37 H       -4.9610    -1.9740    -0.8250 H     1 <1>   0.0800 
 38 H       -5.2530    -2.6270     0.7560 H     1 <1>   0.0800 
 39 H        1.4130     1.7760    -1.1480 H     1 <1>   0.0800 
 40 H        1.7030     3.4600    -1.4570 H     1 <1>   0.0800 
 41 H       -1.0150     2.4120     1.6700 H     1 <1>   0.0800 
 42 H       -0.2270     1.1320     0.7910 H     1 <1>   0.0800 
 43 H        3.5640     2.4020    -0.1890 H     1 <1>   0.0800 
 44 H        2.8340     3.7090     0.6980 H     1 <1>   0.0800 
 45 H        1.1380     3.0830     2.6440 H     1 <1>   0.0800 
 46 H        0.8510     1.3950     2.9530 H     1 <1>   0.0800 
 47 H       -4.4520    -4.8800     1.3780 H     1 <1>   0.1500 
 48 H        3.1830     1.8130     2.1980 H     1 <1>   0.0800 
 49 H        2.3270     0.7550     1.1140 H     1 <1>   0.0800 
 50 H       -3.7460    -5.4650    -3.3580 H     1 <1>   0.1500 
 51 H       -4.0660    -7.1750     0.5260 H     1 <1>   0.1500 
 52 H       -3.7040    -7.4370    -1.9230 H     1 <1>   0.1500 
@<TRIPOS>BOND
  1   1   2  2   
  2   2   3  am  
  3   2   4  1   
  4   3   5  1   
  5   3   6  1   
  6   4   7  2   
  7   4   8  1   
  8   5   9  1   
  9   5  27  1   
 10   5  28  1   
 11   6  10  1   
 12   6  29  1   
 13   6  30  1   
 14   7  11  1   
 15   7  12  1   
 16   8  13  2   
 17   8  31  1   
 18   9  10  1   
 19   9  14  1   
 20   9  32  1   
 21  10  15  1   
 22  10  33  1   
 23  11  13  1   
 24  11  34  1   
 25  12  16  1   
 26  12  17  1   
 27  12  35  1   
 28  14  36  1   
 29  15  18  1   
 30  15  37  1   
 31  15  38  1   
 32  16  19  1   
 33  16  39  1   
 34  16  40  1   
 35  17  20  1   
 36  17  41  1   
 37  17  42  1   
 38  18  21  ar  
 39  18  22  ar  
 40  19  23  1   
 41  19  43  1   
 42  19  44  1   
 43  20  23  1   
 44  20  45  1   
 45  20  46  1   
 46  21  24  ar  
 47  22  25  ar  
 48  22  47  1   
 49  23  48  1   
 50  23  49  1   
 51  24  26  ar  
 52  24  50  1   
 53  25  26  ar  
 54  25  51  1   
 55  26  52  1   
@<TRIPOS>SUBSTRUCTURE
  1 ****   3 GROUP 4 **** **** 0

# MOE 2024.06 (io_trps.svl 2023.06)
