@<TRIPOS>MOLECULE
NONAME
35 36 1 0 0 
SMALL
USER_CHARGES


@<TRIPOS>ATOM
  1 S       -0.3000    -0.2320    -0.4170 S.o2  1 <1>   1.3330 
  2 O       -1.0310    -1.2900     0.2410 O.2   1 <1>  -0.6500 
  3 O       -0.2260    -0.2030    -1.8610 O.2   1 <1>  -0.6500 
  4 N        1.2870    -0.2610     0.1860 N.am  1 <1>  -0.8490 
  5 C       -0.9420     1.3530     0.1280 C.3   1 <1>  -0.0550 
  6 C        2.1660    -1.1270    -0.6040 C.3   1 <1>   0.1160 
  7 C        1.3680    -0.6300     1.6040 C.3   1 <1>   0.1160 
  8 C       -0.2410     2.5760    -0.5050 C.3   1 <1>  -0.0800 
  9 C       -0.9260     3.9130    -0.2030 C.3   1 <1>   0.2000 
 10 C        1.2110     2.7830    -0.0500 C.3   1 <1>   0.2090 
 11 O       -1.2510     3.9560     1.1450 O.3   1 <1>  -0.6800 
 12 C        0.1710     4.9450    -0.4580 C.3   1 <1>   0.2090 
 13 N        1.4080     4.2530    -0.0200 N.pl3 1 <1>  -0.8220 
 14 C        2.4030     4.8230     0.7370 C.2   1 <1>   0.4620 
 15 S        2.5610     6.5770     0.7850 S.3   1 <1>  -0.0800 
 16 N        3.2770     4.2090     1.4500 N.2   1 <1>  -0.5650 
 17 C        3.9230     6.4080     1.8570 C.2   1 <1>  -0.1100 
 18 C        4.1280     5.1020     2.0740 C.2   1 <1>   0.0770 
 19 H       -1.9820     1.3980    -0.1310 H     1 <1>   0.0800 
 20 H       -0.8800     1.4140     1.1960 H     1 <1>   0.0800 
 21 H        3.1660    -1.1070    -0.2060 H     1 <1>   0.0800 
 22 H        2.2040    -0.7830    -1.6240 H     1 <1>   0.0800 
 23 H        1.7990    -2.1400    -0.5950 H     1 <1>   0.0800 
 24 H        2.3830    -0.5420     1.9510 H     1 <1>   0.0800 
 25 H        1.0340    -1.6450     1.7490 H     1 <1>   0.0800 
 26 H        0.7500     0.0240     2.1960 H     1 <1>   0.0800 
 27 H       -0.2290     2.4510    -1.5740 H     1 <1>   0.0800 
 28 H       -1.8180     4.0830    -0.7820 H     1 <1>   0.0800 
 29 H        1.9060     2.3230    -0.7320 H     1 <1>   0.0800 
 30 H        1.3680     2.3840     0.9370 H     1 <1>   0.0800 
 31 H       -0.4140     4.0370     1.6510 H     1 <1>   0.4000 
 32 H       -0.0140     5.8560     0.0860 H     1 <1>   0.0800 
 33 H        0.2430     5.1600    -1.5100 H     1 <1>   0.0800 
 34 H        4.4140     7.3000     2.1990 H     1 <1>   0.1500 
 35 H        4.9050     4.6920     2.6970 H     1 <1>   0.1500 
@<TRIPOS>BOND
  1   1   2  2   
  2   1   3  2   
  3   1   4  am  
  4   1   5  1   
  5   4   6  1   
  6   4   7  1   
  7   5   8  1   
  8   5  19  1   
  9   5  20  1   
 10   6  21  1   
 11   6  22  1   
 12   6  23  1   
 13   7  24  1   
 14   7  25  1   
 15   7  26  1   
 16   8   9  1   
 17   8  10  1   
 18   8  27  1   
 19   9  11  1   
 20   9  12  1   
 21   9  28  1   
 22  10  13  1   
 23  10  29  1   
 24  10  30  1   
 25  11  31  1   
 26  12  13  1   
 27  12  32  1   
 28  12  33  1   
 29  13  14  1   
 30  14  15  1   
 31  14  16  2   
 32  15  17  1   
 33  16  18  1   
 34  17  18  2   
 35  17  34  1   
 36  18  35  1   
@<TRIPOS>SUBSTRUCTURE
  1 ****  10 GROUP 4 **** **** 0

# MOE 2024.06 (io_trps.svl 2023.06)
