@<TRIPOS>MOLECULE
NONAME
48 50 1 0 0 
SMALL
USER_CHARGES


@<TRIPOS>ATOM
  1 S        0.0250     1.2990    -0.5520 S.3   1 <1>  -0.0800 
  2 C        1.4740     0.3270    -0.3360 C.2   1 <1>  -0.1400 
  3 C       -0.9430     0.1330     0.3320 C.2   1 <1>  -0.1100 
  4 C        1.1900    -0.7910     0.3580 C.2   1 <1>  -0.1500 
  5 C        2.7670     0.8470    -0.9340 C.3   1 <1>   0.0200 
  6 C       -0.1850    -0.9010     0.7400 C.2   1 <1>  -0.1500 
  7 C        3.2640     2.0840    -0.1750 C.3   1 <1>  -0.1600 
  8 C        4.6050     2.5980    -0.7290 C.3   1 <1>  -0.0990 
  9 C        5.1170     3.8110     0.0340 C.2   1 <1>   0.5690 
 10 O        4.3890     4.7640     0.1870 O.2   1 <1>  -0.5700 
 11 N        6.4000     3.8620     0.4980 N.am  1 <1>  -0.6600 
 12 C        6.7120     4.6800     1.7290 C.3   1 <1>   0.1400 
 13 C        7.5640     3.4960    -0.3660 C.3   1 <1>   0.1400 
 14 C        7.2230     6.1070     1.4040 C.3   1 <1>   0.4230 
 15 C        8.3640     4.7120    -0.9040 C.3   1 <1>  -0.0800 
 16 N        6.7310     6.4760     0.0260 N.4   1 <1>  -0.9590 
 17 C        8.7530     6.2160     1.6360 C.3   1 <1>   0.1200 
 18 C        9.6680     4.9580    -0.1300 C.3   1 <1>   0.1200 
 19 C        7.6030     6.0400    -1.1080 C.3   1 <1>   0.3430 
 20 C        6.4480     7.9690    -0.0730 C.3   1 <1>   0.2370 
 21 O        9.4320     5.0590     1.2310 O.3   1 <1>  -0.5600 
 22 C        7.6590     8.8680     0.1770 C.2   1 <1>   0.9060 
 23 O        8.4640     9.0270    -0.7450 O.co2 1 <1>  -0.9000 
 24 O        7.8620     9.2460     1.3340 O.co2 1 <1>  -0.9000 
 25 H       -1.9890     0.3490     0.4530 H     1 <1>   0.1500 
 26 H        1.8960    -1.5570     0.6260 H     1 <1>   0.1500 
 27 H        3.5080     0.0690    -0.8820 H     1 <1>   0.0800 
 28 H        2.6040     1.0870    -1.9700 H     1 <1>   0.0800 
 29 H       -0.5350    -1.7490     1.3010 H     1 <1>   0.1500 
 30 H        2.5260     2.8660    -0.2450 H     1 <1>   0.0800 
 31 H        3.3790     1.8360     0.8670 H     1 <1>   0.0800 
 32 H        4.4860     2.8740    -1.7610 H     1 <1>   0.0800 
 33 H        5.3270     1.8060    -0.6680 H     1 <1>   0.0800 
 34 H        5.8140     4.7790     2.3150 H     1 <1>   0.0800 
 35 H        7.4200     4.1540     2.3450 H     1 <1>   0.0800 
 36 H        8.2190     2.8460     0.1900 H     1 <1>   0.0800 
 37 H        7.2090     2.9350    -1.2120 H     1 <1>   0.0800 
 38 H        6.7680     6.7860     2.1060 H     1 <1>   0.0800 
 39 H        8.6990     4.4330    -1.8870 H     1 <1>   0.0800 
 40 H        5.8340     5.9580    -0.0550 H     1 <1>   0.4500 
 41 H        8.9270     6.3130     2.6920 H     1 <1>   0.0800 
 42 H        9.1900     7.0770     1.1610 H     1 <1>   0.0800 
 43 H       10.1710     5.8520    -0.4660 H     1 <1>   0.0800 
 44 H       10.3370     4.1260    -0.2670 H     1 <1>   0.0800 
 45 H        6.9900     5.9550    -1.9890 H     1 <1>   0.0800 
 46 H        8.3310     6.8110    -1.3060 H     1 <1>   0.0800 
 47 H        6.0720     8.2040    -1.0510 H     1 <1>   0.0800 
 48 H        5.7010     8.2430     0.6500 H     1 <1>   0.0800 
@<TRIPOS>BOND
  1   1   2  1   
  2   1   3  1   
  3   2   4  2   
  4   2   5  1   
  5   3   6  2   
  6   3  25  1   
  7   4   6  1   
  8   4  26  1   
  9   5   7  1   
 10   5  27  1   
 11   5  28  1   
 12   6  29  1   
 13   7   8  1   
 14   7  30  1   
 15   7  31  1   
 16   8   9  1   
 17   8  32  1   
 18   8  33  1   
 19   9  10  2   
 20   9  11  am  
 21  11  12  1   
 22  11  13  1   
 23  12  14  1   
 24  12  34  1   
 25  12  35  1   
 26  13  15  1   
 27  13  36  1   
 28  13  37  1   
 29  14  16  1   
 30  14  17  1   
 31  14  38  1   
 32  15  18  1   
 33  15  19  1   
 34  15  39  1   
 35  16  19  1   
 36  16  20  1   
 37  16  40  1   
 38  17  21  1   
 39  17  41  1   
 40  17  42  1   
 41  18  21  1   
 42  18  43  1   
 43  18  44  1   
 44  19  45  1   
 45  19  46  1   
 46  20  22  1   
 47  20  47  1   
 48  20  48  1   
 49  22  23  ar  
 50  22  24  ar  
@<TRIPOS>SUBSTRUCTURE
  1 ****   9 GROUP 4 **** **** 0

# MOE 2024.06 (io_trps.svl 2023.06)
