@<TRIPOS>MOLECULE
NONAME
24 25 1 0 0 
SMALL
USER_CHARGES


@<TRIPOS>ATOM
  1 F       -0.8070    -0.0970     0.8280 F     1 <1>  -0.3400 
  2 C       -1.3370    -1.2780     1.1260 C.3   1 <1>   1.1150 
  3 F       -0.3110    -2.1150     1.2450 F     1 <1>  -0.3400 
  4 F       -1.8550    -1.1660     2.3440 F     1 <1>  -0.3400 
  5 C       -2.3770    -1.7550     0.0710 C.3   1 <1>  -0.0630 
  6 C       -3.5500    -0.7920    -0.0610 C.ar  1 <1>  -0.0320 
  7 C       -2.6780    -3.2190    -0.1170 C.3   1 <1>  -0.2000 
  8 C       -1.9410    -2.4670    -1.1830 C.3   1 <1>  -0.2000 
  9 C       -4.6790    -0.9450     0.7260 C.ar  1 <1>  -0.1500 
 10 C       -3.5060     0.2520    -0.9710 C.ar  1 <1>  -0.1500 
 11 C       -5.7460    -0.0740     0.5980 C.ar  1 <1>  -0.1500 
 12 C       -4.5760     1.1200    -1.0950 C.ar  1 <1>  -0.1500 
 13 C       -5.7260     0.9810    -0.3170 C.ar  1 <1>  -0.1790 
 14 C       -6.8560     1.8940    -0.4540 C.2   1 <1>   0.9790 
 15 O       -6.8210     2.8280    -1.2760 O.co2 1 <1>  -0.9000 
 16 O       -7.8750     1.7540     0.2470 O.co2 1 <1>  -0.9000 
 17 H       -3.6930    -3.5200    -0.3140 H     1 <1>   0.1000 
 18 H       -2.1400    -3.9490     0.4630 H     1 <1>   0.1000 
 19 H       -0.8970    -2.6820    -1.3350 H     1 <1>   0.1000 
 20 H       -2.4540    -2.2570    -2.1060 H     1 <1>   0.1000 
 21 H       -4.7370    -1.7420     1.4440 H     1 <1>   0.1500 
 22 H       -2.6390     0.3960    -1.5900 H     1 <1>   0.1500 
 23 H       -6.6220    -0.1990     1.2120 H     1 <1>   0.1500 
 24 H       -4.5360     1.9290    -1.8050 H     1 <1>   0.1500 
@<TRIPOS>BOND
  1   1   2  1   
  2   2   3  1   
  3   2   4  1   
  4   2   5  1   
  5   5   6  1   
  6   5   7  1   
  7   5   8  1   
  8   6   9  ar  
  9   6  10  ar  
 10   7   8  1   
 11   7  17  1   
 12   7  18  1   
 13   8  19  1   
 14   8  20  1   
 15   9  11  ar  
 16   9  21  1   
 17  10  12  ar  
 18  10  22  1   
 19  11  13  ar  
 20  11  23  1   
 21  12  13  ar  
 22  12  24  1   
 23  13  14  1   
 24  14  15  ar  
 25  14  16  ar  
@<TRIPOS>SUBSTRUCTURE
  1 ****   6 GROUP 4 **** **** 0

# MOE 2024.06 (io_trps.svl 2023.06)
