@<TRIPOS>MOLECULE
NONAME
47 50 1 0 0 
SMALL
USER_CHARGES


@<TRIPOS>ATOM
  1 O       -0.3930    -0.0300    -0.4050 O.3   1 <1>  -0.0190 
  2 N       -1.2250    -1.0040    -0.1510 N.2   1 <1>  -0.4100 
  3 C       -1.1240     1.0490    -0.2710 C.2   1 <1>   0.2980 
  4 C       -2.3560    -0.4690     0.1050 C.2   1 <1>   0.5990 
  5 N       -2.3400     0.8560     0.0350 N.2   1 <1>  -0.5650 
  6 C       -0.4750     2.4020    -0.4920 C.3   1 <1>   0.0200 
  7 N       -3.5220    -1.1540     0.4420 N.pl3 1 <1>  -0.8210 
  8 C        0.5620     2.7170     0.5970 C.3   1 <1>  -0.1600 
  9 C       -4.8230    -0.5170     0.1000 C.3   1 <1>   0.2090 
 10 C       -3.5830    -2.5930     0.0860 C.3   1 <1>   0.2090 
 11 C        1.2060     4.0910     0.3840 C.3   1 <1>  -0.2400 
 12 C       -5.7680    -1.6590    -0.2880 C.3   1 <1>   0.2000 
 13 C       -5.0680    -2.9470     0.1350 C.3   1 <1>  -0.0800 
 14 O       -6.9900    -1.5610     0.3630 O.3   1 <1>  -0.6800 
 15 C       -5.4530    -4.1490    -0.7430 C.3   1 <1>  -0.0170 
 16 C       -4.7160    -5.4060    -0.3140 C.ar  1 <1>   0.1670 
 17 N       -3.5450    -5.6160    -0.8320 N.ar  1 <1>  -0.6200 
 18 C       -5.3210    -6.2660     0.6160 C.ar  1 <1>  -0.1500 
 19 C       -2.8720    -6.7300    -0.4440 C.ar  1 <1>   0.3100 
 20 C       -4.6710    -7.3910     1.0210 C.ar  1 <1>  -0.1500 
 21 C       -3.3980    -7.6530     0.4870 C.ar  1 <1>   0.0000 
 22 C       -1.6000    -6.9770    -0.9830 C.ar  1 <1>  -0.1500 
 23 C       -2.6330    -8.7830     0.8370 C.ar  1 <1>  -0.1500 
 24 C       -0.8710    -8.0810    -0.6290 C.ar  1 <1>  -0.1500 
 25 C       -1.3960    -8.9940     0.2920 C.ar  1 <1>  -0.1500 
 26 H       -0.0050     2.4060    -1.4590 H     1 <1>   0.0800 
 27 H       -1.2410     3.1560    -0.4880 H     1 <1>   0.0800 
 28 H        0.0790     2.6950     1.5600 H     1 <1>   0.0800 
 29 H        1.3280     1.9610     0.5940 H     1 <1>   0.0800 
 30 H       -5.1890     0.0210     0.9580 H     1 <1>   0.0800 
 31 H       -4.7100     0.1610    -0.7280 H     1 <1>   0.0800 
 32 H       -3.1890    -2.7410    -0.9070 H     1 <1>   0.0800 
 33 H       -3.0140    -3.1840     0.7830 H     1 <1>   0.0800 
 34 H        0.4610     4.8670     0.4100 H     1 <1>   0.0800 
 35 H        1.7130     4.1280    -0.5650 H     1 <1>   0.0800 
 36 H        1.9250     4.2840     1.1610 H     1 <1>   0.0800 
 37 H       -5.9470    -1.6360    -1.3500 H     1 <1>   0.0800 
 38 H       -5.3010    -3.1660     1.1620 H     1 <1>   0.0800 
 39 H       -6.8490    -1.5420     1.3300 H     1 <1>   0.4000 
 40 H       -5.2170    -3.9410    -1.7720 H     1 <1>   0.0800 
 41 H       -6.5140    -4.3130    -0.6810 H     1 <1>   0.0800 
 42 H       -6.2950    -6.0230     1.0010 H     1 <1>   0.1500 
 43 H       -5.1020    -8.0740     1.7310 H     1 <1>   0.1500 
 44 H       -1.2150    -6.2630    -1.6880 H     1 <1>   0.1500 
 45 H       -3.0420    -9.4810     1.5460 H     1 <1>   0.1500 
 46 H        0.1030    -8.2590    -1.0510 H     1 <1>   0.1500 
 47 H       -0.8130    -9.8580     0.5610 H     1 <1>   0.1500 
@<TRIPOS>BOND
  1   1   2  1   
  2   1   3  1   
  3   2   4  2   
  4   3   5  2   
  5   3   6  1   
  6   4   5  1   
  7   4   7  1   
  8   6   8  1   
  9   6  26  1   
 10   6  27  1   
 11   7   9  1   
 12   7  10  1   
 13   8  11  1   
 14   8  28  1   
 15   8  29  1   
 16   9  12  1   
 17   9  30  1   
 18   9  31  1   
 19  10  13  1   
 20  10  32  1   
 21  10  33  1   
 22  11  34  1   
 23  11  35  1   
 24  11  36  1   
 25  12  13  1   
 26  12  14  1   
 27  12  37  1   
 28  13  15  1   
 29  13  38  1   
 30  14  39  1   
 31  15  16  1   
 32  15  40  1   
 33  15  41  1   
 34  16  17  ar  
 35  16  18  ar  
 36  17  19  ar  
 37  18  20  ar  
 38  18  42  1   
 39  19  21  ar  
 40  19  22  ar  
 41  20  21  ar  
 42  20  43  1   
 43  21  23  ar  
 44  22  24  ar  
 45  22  44  1   
 46  23  25  ar  
 47  23  45  1   
 48  24  25  ar  
 49  24  46  1   
 50  25  47  1   
@<TRIPOS>SUBSTRUCTURE
  1 ****  10 GROUP 4 **** **** 0

# MOE 2024.06 (io_trps.svl 2023.06)
