@<TRIPOS>MOLECULE
NONAME
55 58 1 0 0 
SMALL
USER_CHARGES


@<TRIPOS>ATOM
  1 O       -2.4300     0.2490    -2.1020 O.2   1 <1>  -0.5700 
  2 C       -2.0460     0.1750    -0.9590 C.2   1 <1>   0.5690 
  3 N       -1.9730    -1.0250    -0.3230 N.am  1 <1>  -0.7300 
  4 C       -1.6200     1.4710    -0.2160 C.3   1 <1>   0.3410 
  5 C       -2.1720    -2.3530    -0.9570 C.3   1 <1>   0.2200 
  6 O       -1.8360     1.3470     1.1650 O.3   1 <1>  -0.6800 
  7 C       -0.1120     1.7250    -0.4110 C.3   1 <1>  -0.1600 
  8 C       -2.4120     2.7090    -0.6740 C.3   1 <1>  -0.1600 
  9 C       -3.4780    -3.0000    -0.5110 C.3   1 <1>  -0.0800 
 10 C       -1.1720    -3.3210    -0.3420 C.3   1 <1>   0.1200 
 11 C        0.3230     3.1770    -0.1790 C.3   1 <1>   0.3430 
 12 C       -1.9930     4.0050     0.0360 C.3   1 <1>   0.3430 
 13 C       -3.1040    -3.5990     0.8530 C.3   1 <1>   0.1200 
 14 C       -4.7060    -2.0650    -0.4990 C.3   1 <1>  -0.0170 
 15 O       -1.7060    -3.6200     0.9110 O.3   1 <1>  -0.5600 
 16 N       -0.6610     3.8620     0.6970 N.4   1 <1>  -0.9590 
 17 C       -6.0600    -2.7130    -0.1840 C.ar  1 <1>  -0.1440 
 18 C       -0.1510     5.1580     1.2330 C.3   1 <1>   0.2630 
 19 C       -7.2060    -1.8950    -0.0210 C.ar  1 <1>   0.0000 
 20 C       -6.2440    -4.0620    -0.0540 C.ar  1 <1>  -0.1500 
 21 C       -8.4350    -2.5230     0.2990 C.ar  1 <1>   0.3100 
 22 C       -7.2060    -0.4870    -0.1670 C.ar  1 <1>  -0.1500 
 23 C       -7.5060    -4.5830     0.2550 C.ar  1 <1>   0.1600 
 24 N       -8.5670    -3.8650     0.4340 N.ar  1 <1>  -0.6200 
 25 C       -9.5790    -1.7310     0.4840 C.ar  1 <1>  -0.1500 
 26 C       -8.3410     0.2570     0.0150 C.ar  1 <1>  -0.1500 
 27 C       -9.5430    -0.3700     0.3490 C.ar  1 <1>  -0.1500 
 28 H       -1.6280    -1.0900     0.6420 H     1 <1>   0.3700 
 29 H       -2.0810    -2.2880    -2.0280 H     1 <1>   0.0800 
 30 H       -2.6900     0.8910     1.3220 H     1 <1>   0.4000 
 31 H        0.4510     1.0660     0.2270 H     1 <1>   0.0800 
 32 H        0.1570     1.4740    -1.4220 H     1 <1>   0.0800 
 33 H       -2.2560     2.8450    -1.7300 H     1 <1>   0.0800 
 34 H       -3.4670     2.5460    -0.5440 H     1 <1>   0.0800 
 35 H       -3.6750    -3.8090    -1.1910 H     1 <1>   0.0800 
 36 H       -0.1890    -2.8990    -0.2300 H     1 <1>   0.0800 
 37 H       -1.1190    -4.2340    -0.9090 H     1 <1>   0.0800 
 38 H        0.3800     3.6930    -1.1240 H     1 <1>   0.0800 
 39 H        1.3020     3.1890     0.2730 H     1 <1>   0.0800 
 40 H       -2.7300     4.2490     0.7850 H     1 <1>   0.0800 
 41 H       -1.9690     4.8100    -0.6800 H     1 <1>   0.0800 
 42 H       -3.4670    -4.6050     0.9680 H     1 <1>   0.0800 
 43 H       -3.4570    -2.9910     1.6680 H     1 <1>   0.0800 
 44 H       -4.7780    -1.5950    -1.4650 H     1 <1>   0.0800 
 45 H       -4.5340    -1.2920     0.2280 H     1 <1>   0.0800 
 46 H       -0.8250     3.2000     1.4810 H     1 <1>   0.4500 
 47 H        0.0240     5.8540     0.4290 H     1 <1>   0.0800 
 48 H        0.7750     5.0040     1.7640 H     1 <1>   0.0800 
 49 H       -0.8680     5.5900     1.9130 H     1 <1>   0.0800 
 50 H       -5.4520    -4.7740    -0.1790 H     1 <1>   0.1500 
 51 H       -6.2980     0.0180    -0.4340 H     1 <1>   0.1500 
 52 H       -7.5990    -5.6510     0.3500 H     1 <1>   0.1500 
 53 H      -10.4930    -2.2360     0.7350 H     1 <1>   0.1500 
 54 H       -8.3260     1.3270    -0.0980 H     1 <1>   0.1500 
 55 H      -10.4290     0.2250     0.4920 H     1 <1>   0.1500 
@<TRIPOS>BOND
  1   1   2  2   
  2   2   3  am  
  3   2   4  1   
  4   3   5  1   
  5   3  28  1   
  6   4   6  1   
  7   4   7  1   
  8   4   8  1   
  9   5   9  1   
 10   5  10  1   
 11   5  29  1   
 12   6  30  1   
 13   7  11  1   
 14   7  31  1   
 15   7  32  1   
 16   8  12  1   
 17   8  33  1   
 18   8  34  1   
 19   9  13  1   
 20   9  14  1   
 21   9  35  1   
 22  10  15  1   
 23  10  36  1   
 24  10  37  1   
 25  11  16  1   
 26  11  38  1   
 27  11  39  1   
 28  12  16  1   
 29  12  40  1   
 30  12  41  1   
 31  13  15  1   
 32  13  42  1   
 33  13  43  1   
 34  14  17  1   
 35  14  44  1   
 36  14  45  1   
 37  16  18  1   
 38  16  46  1   
 39  17  19  ar  
 40  17  20  ar  
 41  18  47  1   
 42  18  48  1   
 43  18  49  1   
 44  19  21  ar  
 45  19  22  ar  
 46  20  23  ar  
 47  20  50  1   
 48  21  24  ar  
 49  21  25  ar  
 50  22  26  ar  
 51  22  51  1   
 52  23  24  ar  
 53  23  52  1   
 54  25  27  ar  
 55  25  53  1   
 56  26  27  ar  
 57  26  54  1   
 58  27  55  1   
@<TRIPOS>SUBSTRUCTURE
  1 ****  14 GROUP 4 **** **** 0

# MOE 2024.06 (io_trps.svl 2023.06)
