@<TRIPOS>MOLECULE
NONAME
46 47 1 0 0 
SMALL
USER_CHARGES


@<TRIPOS>ATOM
  1 S        0.7730    -0.0740     0.7010 S.o2  1 <1>   1.3330 
  2 O        1.7000    -0.9170     1.4230 O.2   1 <1>  -0.6500 
  3 O        0.0450     0.9530     1.4100 O.2   1 <1>  -0.6500 
  4 N       -0.3530    -1.0880    -0.0660 N.am  1 <1>  -0.8490 
  5 C        1.6000     0.7050    -0.6870 C.3   1 <1>  -0.0550 
  6 C       -1.5520    -1.3030     0.7500 C.3   1 <1>   0.1160 
  7 C        0.2100    -2.3800    -0.4730 C.3   1 <1>   0.1160 
  8 C        2.6590     1.7480    -0.2760 C.3   1 <1>  -0.0800 
  9 C        3.1480     2.5310    -1.4840 C.3   1 <1>   0.2200 
 10 C        3.9550     1.0870     0.1960 C.3   1 <1>   0.1200 
 11 N        3.7100     3.8230    -1.0350 N.am  1 <1>  -0.7300 
 12 C        4.2660     1.6380    -2.0230 C.3   1 <1>   0.1200 
 13 O        4.7030     0.8440    -0.9570 O.3   1 <1>  -0.5600 
 14 C        3.2700     5.0660    -1.3800 C.2   1 <1>   0.7160 
 15 O        2.2930     5.1630    -2.0990 O.2   1 <1>  -0.5700 
 16 C        3.9780     6.2390    -0.8890 C.2   1 <1>   0.1410 
 17 N        5.1200     6.0910    -0.0800 N.2   1 <1>  -0.5650 
 18 C        3.6430     7.5230    -1.1430 C.2   1 <1>  -0.1100 
 19 C        5.6240     7.2110     0.2610 C.2   1 <1>   0.1980 
 20 S        4.7600     8.5970    -0.3670 S.3   1 <1>  -0.0800 
 21 C        6.8530     7.4990     1.1210 C.3   1 <1>   0.1000 
 22 C        8.0600     7.8350     0.2360 C.3   1 <1>  -0.2400 
 23 C        7.1930     6.3200     2.0430 C.3   1 <1>  -0.2400 
 24 H        2.0560    -0.0470    -1.3000 H     1 <1>   0.0800 
 25 H        0.8500     1.1970    -1.2770 H     1 <1>   0.0800 
 26 H       -2.2500    -1.9360     0.2290 H     1 <1>   0.0800 
 27 H       -2.0380    -0.3610     0.9480 H     1 <1>   0.0800 
 28 H       -1.2890    -1.7600     1.6890 H     1 <1>   0.0800 
 29 H       -0.5180    -2.9400    -1.0340 H     1 <1>   0.0800 
 30 H        0.5020    -2.9530     0.3920 H     1 <1>   0.0800 
 31 H        1.0760    -2.2300    -1.0950 H     1 <1>   0.0800 
 32 H        2.2460     2.4000     0.4750 H     1 <1>   0.0800 
 33 H        2.3790     2.6960    -2.2200 H     1 <1>   0.0800 
 34 H        3.8090     0.1600     0.7210 H     1 <1>   0.0800 
 35 H        4.5210     1.7600     0.8160 H     1 <1>   0.0800 
 36 H        4.5540     3.7890    -0.4560 H     1 <1>   0.3700 
 37 H        5.0940     2.2050    -2.4110 H     1 <1>   0.0800 
 38 H        3.8900     0.9770    -2.7830 H     1 <1>   0.0800 
 39 H        2.8390     7.9450    -1.7180 H     1 <1>   0.1500 
 40 H        6.6310     8.3520     1.7390 H     1 <1>   0.0800 
 41 H        8.2930     7.0030    -0.4050 H     1 <1>   0.0800 
 42 H        8.9200     8.0590     0.8410 H     1 <1>   0.0800 
 43 H        7.8440     8.6910    -0.3800 H     1 <1>   0.0800 
 44 H        7.4360     5.4480     1.4610 H     1 <1>   0.0800 
 45 H        6.3480     6.0880     2.6670 H     1 <1>   0.0800 
 46 H        8.0300     6.5620     2.6720 H     1 <1>   0.0800 
@<TRIPOS>BOND
  1   1   2  2   
  2   1   3  2   
  3   1   4  am  
  4   1   5  1   
  5   4   6  1   
  6   4   7  1   
  7   5   8  1   
  8   5  24  1   
  9   5  25  1   
 10   6  26  1   
 11   6  27  1   
 12   6  28  1   
 13   7  29  1   
 14   7  30  1   
 15   7  31  1   
 16   8   9  1   
 17   8  10  1   
 18   8  32  1   
 19   9  11  1   
 20   9  12  1   
 21   9  33  1   
 22  10  13  1   
 23  10  34  1   
 24  10  35  1   
 25  11  14  am  
 26  11  36  1   
 27  12  13  1   
 28  12  37  1   
 29  12  38  1   
 30  14  15  2   
 31  14  16  1   
 32  16  17  1   
 33  16  18  2   
 34  17  19  2   
 35  18  20  1   
 36  18  39  1   
 37  19  20  1   
 38  19  21  1   
 39  21  22  1   
 40  21  23  1   
 41  21  40  1   
 42  22  41  1   
 43  22  42  1   
 44  22  43  1   
 45  23  44  1   
 46  23  45  1   
 47  23  46  1   
@<TRIPOS>SUBSTRUCTURE
  1 ****  11 GROUP 4 **** **** 0

# MOE 2024.06 (io_trps.svl 2023.06)
