@<TRIPOS>MOLECULE
NONAME
49 52 1 0 0 
SMALL
USER_CHARGES


@<TRIPOS>ATOM
  1 O        0.7900    -1.0570    -3.5110 O.2   1 <1>  -0.5700 
  2 C        0.9760    -1.2370    -2.3190 C.2   1 <1>   0.5440 
  3 N        1.4310    -0.1980    -1.5460 N.am  1 <1>  -0.4940 
  4 C        0.7340    -2.5370    -1.7210 C.ar  1 <1>   0.0860 
  5 C        1.6820     1.1590    -1.8710 C.2   1 <1>  -0.0880 
  6 C        0.4450    -2.7300    -0.3480 C.ar  1 <1>   0.1000 
  7 C        0.7980    -3.6690    -2.5410 C.ar  1 <1>  -0.1500 
  8 N        2.3400     2.0520    -1.0790 N.pl3 1 <1>   0.3140 
  9 C        1.3330     1.8360    -2.9900 C.2   1 <1>  -0.1500 
 10 N        0.3260    -1.6660     0.5590 N.pl3 1 <1>  -0.8380 
 11 C        0.2400    -4.0310     0.1170 C.ar  1 <1>  -0.1500 
 12 C        0.5980    -4.9440    -2.0570 C.ar  1 <1>  -0.1500 
 13 N        2.4000     3.2770    -1.6640 N.2   1 <1>  -0.7070 
 14 C        2.9880     1.7570     0.2290 C.3   1 <1>   0.1760 
 15 C        1.7990     3.1290    -2.8030 C.2   1 <1>   0.1390 
 16 C       -0.9350    -0.8590     0.4850 C.3   1 <1>   0.2090 
 17 C        0.7760    -1.8220     1.9810 C.3   1 <1>   0.2090 
 18 C        0.3170    -5.1260    -0.7170 C.ar  1 <1>  -0.1500 
 19 C        2.5920     2.7250     1.3460 C.3   1 <1>  -0.1600 
 20 C        4.5110     1.8630     0.1810 C.3   1 <1>  -0.1600 
 21 C       -0.7700     0.4720     1.2410 C.3   1 <1>   0.1200 
 22 C        0.8470    -0.4590     2.6930 C.3   1 <1>   0.1200 
 23 C        3.7090     2.5990     2.3860 C.3   1 <1>  -0.1600 
 24 C        4.9390     2.0650     1.6380 C.3   1 <1>  -0.1600 
 25 O       -0.3550     0.2520     2.5630 O.3   1 <1>  -0.5600 
 26 H        1.4130    -0.4650    -0.5520 H     1 <1>   0.3700 
 27 H        1.0140    -3.5390    -3.5890 H     1 <1>   0.1500 
 28 H        0.8060     1.4670    -3.8510 H     1 <1>   0.1500 
 29 H        0.0030    -4.2000     1.1490 H     1 <1>   0.1500 
 30 H        0.6560    -5.7930    -2.7180 H     1 <1>   0.1500 
 31 H        2.7300     0.7590     0.5250 H     1 <1>   0.0800 
 32 H        1.6800     3.9250    -3.5180 H     1 <1>   0.1500 
 33 H       -1.7460    -1.4160     0.9220 H     1 <1>   0.0800 
 34 H       -1.1870    -0.6580    -0.5420 H     1 <1>   0.0800 
 35 H        1.7420    -2.2940     2.0040 H     1 <1>   0.0800 
 36 H        0.0810    -2.4460     2.5160 H     1 <1>   0.0800 
 37 H        0.1560    -6.1180    -0.3320 H     1 <1>   0.1500 
 38 H        1.6280     2.4980     1.7630 H     1 <1>   0.0800 
 39 H        2.5870     3.7330     0.9660 H     1 <1>   0.0800 
 40 H        4.7930     2.7310    -0.3910 H     1 <1>   0.0800 
 41 H        4.9590     0.9860    -0.2530 H     1 <1>   0.0800 
 42 H       -1.7080     0.9950     1.2750 H     1 <1>   0.0800 
 43 H       -0.0470     1.0970     0.7480 H     1 <1>   0.0800 
 44 H        1.6430     0.1360     2.2900 H     1 <1>   0.0800 
 45 H        1.0270    -0.6020     3.7430 H     1 <1>   0.0800 
 46 H        3.4210     1.9010     3.1540 H     1 <1>   0.0800 
 47 H        3.9120     3.5520     2.8440 H     1 <1>   0.0800 
 48 H        5.7620     2.7570     1.6980 H     1 <1>   0.0800 
 49 H        5.2460     1.1260     2.0670 H     1 <1>   0.0800 
@<TRIPOS>BOND
  1   1   2  2   
  2   2   3  am  
  3   2   4  1   
  4   3   5  1   
  5   3  26  1   
  6   4   6  ar  
  7   4   7  ar  
  8   5   8  1   
  9   5   9  2   
 10   6  10  1   
 11   6  11  ar  
 12   7  12  ar  
 13   7  27  1   
 14   8  13  1   
 15   8  14  1   
 16   9  15  1   
 17   9  28  1   
 18  10  16  1   
 19  10  17  1   
 20  11  18  ar  
 21  11  29  1   
 22  12  18  ar  
 23  12  30  1   
 24  13  15  2   
 25  14  19  1   
 26  14  20  1   
 27  14  31  1   
 28  15  32  1   
 29  16  21  1   
 30  16  33  1   
 31  16  34  1   
 32  17  22  1   
 33  17  35  1   
 34  17  36  1   
 35  18  37  1   
 36  19  23  1   
 37  19  38  1   
 38  19  39  1   
 39  20  24  1   
 40  20  40  1   
 41  20  41  1   
 42  21  25  1   
 43  21  42  1   
 44  21  43  1   
 45  22  25  1   
 46  22  44  1   
 47  22  45  1   
 48  23  24  1   
 49  23  46  1   
 50  23  47  1   
 51  24  48  1   
 52  24  49  1   
@<TRIPOS>SUBSTRUCTURE
  1 ****   3 GROUP 4 **** **** 0

# MOE 2024.06 (io_trps.svl 2023.06)
