@<TRIPOS>MOLECULE
NONAME
52 55 1 0 0 
SMALL
USER_CHARGES


@<TRIPOS>ATOM
  1 O        0.2930    -0.4240     1.2900 O.3   1 <1>  -0.5600 
  2 C        1.4950    -0.8710     0.7170 C.3   1 <1>   0.4240 
  3 C       -0.9020    -0.8040     0.6690 C.3   1 <1>   0.1200 
  4 C        1.3830    -2.2830     0.1190 C.ar  1 <1>  -0.1440 
  5 C        2.5020    -0.8630     1.8680 C.3   1 <1>  -0.1600 
  6 C        1.9060     0.1640    -0.3360 C.3   1 <1>  -0.1600 
  7 C       -1.0440    -2.3230     0.7360 C.3   1 <1>  -0.0160 
  8 C        0.1820    -2.9750     0.1310 C.ar  1 <1>  -0.1440 
  9 C        2.4910    -2.8980    -0.4490 C.ar  1 <1>  -0.1500 
 10 C        2.6110     0.5340     2.4760 C.3   1 <1>   0.3430 
 11 C        2.0240     1.5490     0.2980 C.3   1 <1>   0.3430 
 12 C        0.1000    -4.2490    -0.4070 C.ar  1 <1>  -0.1500 
 13 C        2.4320    -4.1700    -0.9900 C.ar  1 <1>   0.0830 
 14 N        2.9980     1.5470     1.4420 N.4   1 <1>  -0.9590 
 15 C        1.2110    -4.8660    -0.9770 C.ar  1 <1>   0.0830 
 16 O        3.6250    -4.6060    -1.4910 O.3   1 <1>  -0.3630 
 17 C        4.4260     1.4100     1.0170 C.3   1 <1>   0.4860 
 18 O        1.1210    -6.1160    -1.5210 O.3   1 <1>  -0.3630 
 19 C        3.8610    -5.9420    -1.8750 C.3   1 <1>   0.0400 
 20 C        4.8010     2.5660     0.1200 C.ar  1 <1>  -0.1430 
 21 C       -0.0900    -6.8380    -1.5700 C.3   1 <1>   0.0400 
 22 C        4.9030     2.4110    -1.2440 C.ar  1 <1>   0.1600 
 23 C        5.0540     3.8200     0.6280 C.ar  1 <1>   0.1600 
 24 N        5.1980     3.4130    -2.0380 N.ar  1 <1>  -0.6200 
 25 N        5.3520     4.8370    -0.1440 N.ar  1 <1>  -0.6200 
 26 C        5.4100     4.5760    -1.4410 C.ar  1 <1>   0.4700 
 27 H       -0.8950    -0.4660    -0.3520 H     1 <1>   0.0800 
 28 H       -1.7150    -0.3300     1.1920 H     1 <1>   0.0800 
 29 H        3.4650    -1.2020     1.5400 H     1 <1>   0.0800 
 30 H        2.1650    -1.5540     2.6200 H     1 <1>   0.0800 
 31 H        1.1710     0.1870    -1.1190 H     1 <1>   0.0800 
 32 H        2.8350    -0.1140    -0.7940 H     1 <1>   0.0800 
 33 H       -1.9270    -2.6180     0.1980 H     1 <1>   0.0800 
 34 H       -1.1550    -2.6310     1.7610 H     1 <1>   0.0800 
 35 H        3.4420    -2.4010    -0.4840 H     1 <1>   0.1500 
 36 H        3.3270     0.5260     3.2820 H     1 <1>   0.0800 
 37 H        1.6490     0.7970     2.8900 H     1 <1>   0.0800 
 38 H        1.0500     1.8370     0.6640 H     1 <1>   0.0800 
 39 H        2.3210     2.2700    -0.4480 H     1 <1>   0.0800 
 40 H       -0.8490    -4.7490    -0.3720 H     1 <1>   0.1500 
 41 H        2.9130     2.4720     1.8850 H     1 <1>   0.4500 
 42 H        4.5690     0.4790     0.4920 H     1 <1>   0.0800 
 43 H        5.0690     1.4080     1.8830 H     1 <1>   0.0800 
 44 H        4.9060    -6.0480    -2.0980 H     1 <1>   0.0800 
 45 H        3.2770    -6.1600    -2.7510 H     1 <1>   0.0800 
 46 H        3.5910    -6.5920    -1.0610 H     1 <1>   0.0800 
 47 H        0.1020    -7.7770    -2.0570 H     1 <1>   0.0800 
 48 H       -0.8110    -6.2750    -2.1350 H     1 <1>   0.0800 
 49 H       -0.4340    -7.0130    -0.5660 H     1 <1>   0.0800 
 50 H        4.7380     1.4530    -1.7100 H     1 <1>   0.1500 
 51 H        5.0140     4.0100     1.6890 H     1 <1>   0.1500 
 52 H        5.6580     5.4050    -2.0840 H     1 <1>   0.1500 
@<TRIPOS>BOND
  1   1   2  1   
  2   1   3  1   
  3   2   4  1   
  4   2   5  1   
  5   2   6  1   
  6   3   7  1   
  7   3  27  1   
  8   3  28  1   
  9   4   8  ar  
 10   4   9  ar  
 11   5  10  1   
 12   5  29  1   
 13   5  30  1   
 14   6  11  1   
 15   6  31  1   
 16   6  32  1   
 17   7   8  1   
 18   7  33  1   
 19   7  34  1   
 20   8  12  ar  
 21   9  13  ar  
 22   9  35  1   
 23  10  14  1   
 24  10  36  1   
 25  10  37  1   
 26  11  14  1   
 27  11  38  1   
 28  11  39  1   
 29  12  15  ar  
 30  12  40  1   
 31  13  15  ar  
 32  13  16  1   
 33  14  17  1   
 34  14  41  1   
 35  15  18  1   
 36  16  19  1   
 37  17  20  1   
 38  17  42  1   
 39  17  43  1   
 40  18  21  1   
 41  19  44  1   
 42  19  45  1   
 43  19  46  1   
 44  20  22  ar  
 45  20  23  ar  
 46  21  47  1   
 47  21  48  1   
 48  21  49  1   
 49  22  24  ar  
 50  22  50  1   
 51  23  25  ar  
 52  23  51  1   
 53  24  26  ar  
 54  25  26  ar  
 55  26  52  1   
@<TRIPOS>SUBSTRUCTURE
  1 ****   6 GROUP 4 **** **** 0

# MOE 2024.06 (io_trps.svl 2023.06)
