@<TRIPOS>MOLECULE
NONAME
41 43 1 0 0 
SMALL
USER_CHARGES


@<TRIPOS>ATOM
  1 S       -0.5390     0.4550     1.0350 S.o2  1 <1>   1.4470 
  2 O       -0.2740    -0.8180     1.6760 O.2   1 <1>  -0.6500 
  3 O       -1.2710     1.4410     1.8030 O.2   1 <1>  -0.6500 
  4 N       -1.3690     0.1240    -0.4100 N.am  1 <1>  -0.8490 
  5 C        1.0510     1.1200     0.4870 C.ar  1 <1>  -0.0090 
  6 C       -0.9740    -1.1270    -1.1070 C.3   1 <1>   0.1960 
  7 C       -2.8200     0.3010    -0.3360 C.3   1 <1>   0.1960 
  8 C        1.1040     2.3450    -0.2090 C.ar  1 <1>   0.3100 
  9 C        2.2150     0.4280     0.7360 C.ar  1 <1>  -0.1500 
 10 C       -2.0350    -2.2550    -1.1030 C.3   1 <1>   0.2000 
 11 C       -3.5010    -0.8390     0.4420 C.3   1 <1>  -0.1600 
 12 N       -0.0330     3.0470    -0.4650 N.ar  1 <1>  -0.6200 
 13 C        2.3660     2.8270    -0.6380 C.ar  1 <1>   0.0000 
 14 C        3.4610     0.9010     0.3180 C.ar  1 <1>  -0.1440 
 15 O       -2.8750    -2.1000    -2.1970 O.3   1 <1>  -0.6800 
 16 C       -2.8890    -2.2380     0.1710 C.3   1 <1>  -0.1860 
 17 C        0.0560     4.1690    -1.1080 C.ar  1 <1>   0.1600 
 18 C        3.5270     2.0850    -0.3600 C.ar  1 <1>  -0.1500 
 19 C        2.4220     4.0480    -1.3340 C.ar  1 <1>  -0.1500 
 20 C        4.7050     0.0880     0.6300 C.3   1 <1>  -0.0970 
 21 C       -3.9270    -3.3450     0.1250 C.2   1 <1>   0.9060 
 22 C        1.2600     4.7150    -1.5670 C.ar  1 <1>  -0.1500 
 23 O       -3.9460    -4.1910     1.0210 O.co2 1 <1>  -0.9000 
 24 O       -4.7070    -3.3790    -0.8380 O.co2 1 <1>  -0.9000 
 25 H       -0.7410    -0.8920    -2.1310 H     1 <1>   0.0800 
 26 H       -0.0740    -1.5150    -0.6660 H     1 <1>   0.0800 
 27 H       -3.0600     1.2520     0.1080 H     1 <1>   0.0800 
 28 H       -3.2090     0.3140    -1.3410 H     1 <1>   0.0800 
 29 H        2.1790    -0.5070     1.2700 H     1 <1>   0.1500 
 30 H       -1.5570    -3.2130    -1.2120 H     1 <1>   0.0800 
 31 H       -3.4560    -0.6330     1.4970 H     1 <1>   0.0800 
 32 H       -4.5410    -0.8450     0.1670 H     1 <1>   0.0800 
 33 H       -3.7230    -2.5850    -1.9550 H     1 <1>   0.4000 
 34 H       -2.2340    -2.4710     0.9900 H     1 <1>   0.0800 
 35 H       -0.8520     4.7140    -1.3020 H     1 <1>   0.1500 
 36 H        4.4720     2.4730    -0.6950 H     1 <1>   0.1500 
 37 H        3.3710     4.4300    -1.6680 H     1 <1>   0.1500 
 38 H        5.5890     0.5820     0.2690 H     1 <1>   0.0800 
 39 H        4.6380    -0.8790     0.1630 H     1 <1>   0.0800 
 40 H        4.7980    -0.0460     1.6930 H     1 <1>   0.0800 
 41 H        1.2420     5.6510    -2.0940 H     1 <1>   0.1500 
@<TRIPOS>BOND
  1   1   2  2   
  2   1   3  2   
  3   1   4  am  
  4   1   5  1   
  5   4   6  1   
  6   4   7  1   
  7   5   8  ar  
  8   5   9  ar  
  9   6  10  1   
 10   6  25  1   
 11   6  26  1   
 12   7  11  1   
 13   7  27  1   
 14   7  28  1   
 15   8  12  ar  
 16   8  13  ar  
 17   9  14  ar  
 18   9  29  1   
 19  10  15  1   
 20  10  16  1   
 21  10  30  1   
 22  11  16  1   
 23  11  31  1   
 24  11  32  1   
 25  12  17  ar  
 26  13  18  ar  
 27  13  19  ar  
 28  14  18  ar  
 29  14  20  1   
 30  15  33  1   
 31  16  21  1   
 32  16  34  1   
 33  17  22  ar  
 34  17  35  1   
 35  18  36  1   
 36  19  22  ar  
 37  19  37  1   
 38  20  38  1   
 39  20  39  1   
 40  20  40  1   
 41  21  23  ar  
 42  21  24  ar  
 43  22  41  1   
@<TRIPOS>SUBSTRUCTURE
  1 ****   4 GROUP 4 **** **** 0

# MOE 2024.06 (io_trps.svl 2023.06)
