@<TRIPOS>MOLECULE
NONAME
43 45 1 0 0 
SMALL
USER_CHARGES


@<TRIPOS>ATOM
  1 O       -2.1690    -0.7540    -2.9450 O.2   1 <1>  -0.5700 
  2 C       -2.2860    -1.0380    -1.7850 C.2   1 <1>   0.5690 
  3 N       -2.2070    -0.0860    -0.8400 N.am  1 <1>  -0.7300 
  4 C       -2.5650    -2.4630    -1.3910 C.3   1 <1>  -0.0190 
  5 C       -2.3420    -0.3010     0.6190 C.3   1 <1>   0.2200 
  6 C       -1.4470    -3.0380    -0.4930 C.3   1 <1>   0.1200 
  7 C       -3.9980    -2.5470    -0.8490 C.3   1 <1>   0.3430 
  8 C       -1.2480    -1.2760     1.1230 C.3   1 <1>   0.1200 
  9 C       -3.7890    -0.7520     0.9710 C.3   1 <1>   0.3430 
 10 O       -1.5400    -2.6230     0.8450 O.3   1 <1>  -0.5600 
 11 N       -4.1260    -2.1730     0.6020 N.4   1 <1>  -0.9590 
 12 C       -5.4050    -2.6380     1.2050 C.3   1 <1>   0.4860 
 13 C       -5.5040    -4.1430     1.0230 C.ar  1 <1>  -0.1430 
 14 C       -6.4070    -4.7370     0.1380 C.ar  1 <1>  -0.1430 
 15 C       -4.6430    -4.9320     1.7730 C.ar  1 <1>  -0.1500 
 16 C       -6.4320    -6.1270     0.0270 C.ar  1 <1>  -0.1430 
 17 C       -7.3740    -3.8910    -0.6950 C.3   1 <1>  -0.0970 
 18 C       -4.6650    -6.3050     1.6470 C.ar  1 <1>  -0.1500 
 19 C       -5.5570    -6.8960     0.7770 C.ar  1 <1>  -0.1500 
 20 C       -7.4050    -6.8610    -0.8900 C.3   1 <1>  -0.0970 
 21 H       -1.9620     0.8550    -1.1710 H     1 <1>   0.3700 
 22 H       -2.5470    -3.0280    -2.3060 H     1 <1>   0.0800 
 23 H       -2.1710     0.6510     1.0910 H     1 <1>   0.0800 
 24 H       -0.4730    -2.7710    -0.8720 H     1 <1>   0.0800 
 25 H       -1.5140    -4.1130    -0.4870 H     1 <1>   0.0800 
 26 H       -4.3250    -3.5660    -0.9750 H     1 <1>   0.0800 
 27 H       -4.6430    -1.9240    -1.4480 H     1 <1>   0.0800 
 28 H       -1.1700    -1.1950     2.1930 H     1 <1>   0.0800 
 29 H       -0.2870    -1.0290     0.7030 H     1 <1>   0.0800 
 30 H       -4.4830    -0.0780     0.4970 H     1 <1>   0.0800 
 31 H       -3.9090    -0.6420     2.0360 H     1 <1>   0.0800 
 32 H       -3.3750    -2.7410     1.0440 H     1 <1>   0.4500 
 33 H       -5.4170    -2.4160     2.2590 H     1 <1>   0.0800 
 34 H       -6.2410    -2.1390     0.7480 H     1 <1>   0.0800 
 35 H       -3.9450    -4.4940     2.4660 H     1 <1>   0.1500 
 36 H       -7.6010    -4.3660    -1.6310 H     1 <1>   0.0800 
 37 H       -6.9720    -2.9270    -0.9380 H     1 <1>   0.0800 
 38 H       -8.2940    -3.7580    -0.1540 H     1 <1>   0.0800 
 39 H       -3.9960    -6.9170     2.2270 H     1 <1>   0.1500 
 40 H       -5.5670    -7.9690     0.6930 H     1 <1>   0.1500 
 41 H       -7.3900    -7.9200    -0.7030 H     1 <1>   0.0800 
 42 H       -7.1370    -6.6990    -1.9190 H     1 <1>   0.0800 
 43 H       -8.4090    -6.5130    -0.7260 H     1 <1>   0.0800 
@<TRIPOS>BOND
  1   1   2  2   
  2   2   3  am  
  3   2   4  1   
  4   3   5  1   
  5   3  21  1   
  6   4   6  1   
  7   4   7  1   
  8   4  22  1   
  9   5   8  1   
 10   5   9  1   
 11   5  23  1   
 12   6  10  1   
 13   6  24  1   
 14   6  25  1   
 15   7  11  1   
 16   7  26  1   
 17   7  27  1   
 18   8  10  1   
 19   8  28  1   
 20   8  29  1   
 21   9  11  1   
 22   9  30  1   
 23   9  31  1   
 24  11  12  1   
 25  11  32  1   
 26  12  13  1   
 27  12  33  1   
 28  12  34  1   
 29  13  14  ar  
 30  13  15  ar  
 31  14  16  ar  
 32  14  17  1   
 33  15  18  ar  
 34  15  35  1   
 35  16  19  ar  
 36  16  20  1   
 37  17  36  1   
 38  17  37  1   
 39  17  38  1   
 40  18  19  ar  
 41  18  39  1   
 42  19  40  1   
 43  20  41  1   
 44  20  42  1   
 45  20  43  1   
@<TRIPOS>SUBSTRUCTURE
  1 ****   7 GROUP 4 **** **** 0

# MOE 2024.06 (io_trps.svl 2023.06)
