@<TRIPOS>MOLECULE
NONAME
46 49 1 0 0 
SMALL
USER_CHARGES


@<TRIPOS>ATOM
  1 N       -0.4690    -0.9760    -1.0430 N.2   1 <1>  -0.2670 
  2 N       -1.7290    -0.7190    -0.5770 N.pl3 1 <1>  -0.4620 
  3 C       -0.2700    -2.2070    -0.7650 C.2   1 <1>   0.4800 
  4 C       -2.2550    -1.8230    -0.0340 C.cat 1 <1>   1.0690 
  5 C       -2.2580     0.6660    -0.6310 C.3   1 <1>   0.2670 
  6 N       -1.3410    -2.7640    -0.1370 N.pl3 1 <1>  -0.7040 
  7 C        0.9820    -2.9980    -1.0720 C.3   1 <1>  -0.0800 
  8 N       -3.4780    -2.0090     0.5230 N.pl3 1 <1>  -0.5960 
  9 C       -4.7230    -1.3640     0.0100 C.3   1 <1>   0.1600 
 10 C       -3.7030    -2.9440     1.6650 C.3   1 <1>   0.1600 
 11 C       -5.7360    -2.4350    -0.4030 C.3   1 <1>  -0.1670 
 12 C       -4.6910    -4.0390     1.2580 C.3   1 <1>  -0.1670 
 13 C       -5.9990    -3.4180     0.7480 C.3   1 <1>   0.0920 
 14 C       -7.0580    -4.4700     0.4290 C.2   1 <1>  -0.0020 
 15 N       -8.0950    -4.5830     1.1830 N.2   1 <1>  -0.5700 
 16 N       -7.0400    -5.3570    -0.6160 N.pl3 1 <1>   0.0390 
 17 C       -8.8210    -5.5880     0.6280 C.ar  1 <1>   0.2200 
 18 C       -8.1850    -6.0810    -0.4930 C.ar  1 <1>  -0.1590 
 19 C       -6.0710    -5.5600    -1.7100 C.3   1 <1>   0.0070 
 20 C      -10.0400    -6.1260     1.0370 C.ar  1 <1>  -0.1580 
 21 C       -8.7500    -7.1210    -1.2390 C.ar  1 <1>  -0.1580 
 22 C      -10.6020    -7.1520     0.3080 C.ar  1 <1>  -0.1580 
 23 C       -9.9550    -7.6480    -0.8300 C.ar  1 <1>  -0.1580 
 24 H       -1.4450     1.3670    -0.5370 H     1 <1>   0.0720 
 25 H       -2.9510     0.8370     0.1740 H     1 <1>   0.0720 
 26 H       -2.7490     0.8310    -1.5740 H     1 <1>   0.0720 
 27 H       -1.4440    -3.7260     0.1650 H     1 <1>   0.4450 
 28 H        1.7010    -2.3720    -1.5690 H     1 <1>   0.0720 
 29 H        0.7480    -3.8280    -1.7140 H     1 <1>   0.0720 
 30 H        1.4190    -3.3670    -0.1620 H     1 <1>   0.0720 
 31 H       -4.5130    -0.7450    -0.8450 H     1 <1>   0.0720 
 32 H       -5.1470    -0.7440     0.7830 H     1 <1>   0.0720 
 33 H       -4.1090    -2.3900     2.4950 H     1 <1>   0.0720 
 34 H       -2.7780    -3.3890     1.9920 H     1 <1>   0.0720 
 35 H       -5.3710    -2.9480    -1.2710 H     1 <1>   0.0720 
 36 H       -6.6640    -1.9610    -0.6730 H     1 <1>   0.0720 
 37 H       -4.9120    -4.6520     2.1150 H     1 <1>   0.0720 
 38 H       -4.2490    -4.6720     0.5130 H     1 <1>   0.0720 
 39 H       -6.4010    -2.8360     1.5620 H     1 <1>   0.0720 
 40 H       -5.1050    -5.1900    -1.4320 H     1 <1>   0.0720 
 41 H       -6.4200    -5.0450    -2.5870 H     1 <1>   0.0720 
 42 H       -5.9930    -6.6100    -1.9230 H     1 <1>   0.0720 
 43 H      -10.5120    -5.7240     1.9130 H     1 <1>   0.1420 
 44 H       -8.2510    -7.4980    -2.1130 H     1 <1>   0.1420 
 45 H      -11.5420    -7.5790     0.6090 H     1 <1>   0.1420 
 46 H      -10.4120    -8.4480    -1.3840 H     1 <1>   0.1420 
@<TRIPOS>BOND
  1   1   2  1   
  2   1   3  2   
  3   2   4  ar  
  4   2   5  1   
  5   3   6  1   
  6   3   7  1   
  7   4   6  ar  
  8   4   8  ar  
  9   5  24  1   
 10   5  25  1   
 11   5  26  1   
 12   6  27  1   
 13   7  28  1   
 14   7  29  1   
 15   7  30  1   
 16   8   9  1   
 17   8  10  1   
 18   9  11  1   
 19   9  31  1   
 20   9  32  1   
 21  10  12  1   
 22  10  33  1   
 23  10  34  1   
 24  11  13  1   
 25  11  35  1   
 26  11  36  1   
 27  12  13  1   
 28  12  37  1   
 29  12  38  1   
 30  13  14  1   
 31  13  39  1   
 32  14  15  2   
 33  14  16  1   
 34  15  17  1   
 35  16  18  1   
 36  16  19  1   
 37  17  18  ar  
 38  17  20  ar  
 39  18  21  ar  
 40  19  40  1   
 41  19  41  1   
 42  19  42  1   
 43  20  22  ar  
 44  20  43  1   
 45  21  23  ar  
 46  21  44  1   
 47  22  23  ar  
 48  22  45  1   
 49  23  46  1   
@<TRIPOS>SUBSTRUCTURE
  1 ****  13 GROUP 4 **** **** 0

# MOE 2024.06 (io_trps.svl 2023.06)
