@<TRIPOS>MOLECULE
NONAME
44 46 1 0 0 
SMALL
USER_CHARGES


@<TRIPOS>ATOM
  1 O        3.7090    -1.1090    -1.3320 O.2   1 <1>  -0.5700 
  2 C        2.6560    -1.6130    -0.9750 C.2   1 <1>   0.5440 
  3 N        1.6250    -0.7460    -0.6530 N.am  1 <1>  -0.6600 
  4 C        2.5460    -3.0740    -0.9390 C.ar  1 <1>   0.3960 
  5 C        0.2330    -1.1220    -0.3100 C.3   1 <1>   0.1400 
  6 C        1.7840     0.7250    -0.6660 C.3   1 <1>   0.1400 
  7 N        1.6710    -3.6830    -0.1210 N.ar  1 <1>  -0.6200 
  8 C        3.3760    -3.8180    -1.7870 C.ar  1 <1>   0.1600 
  9 C       -0.5510     0.1830    -0.3760 C.3   1 <1>  -0.1600 
 10 C        0.4830     1.2670    -0.0850 C.3   1 <1>  -0.1600 
 11 C        1.6610    -4.9910    -0.2290 C.ar  1 <1>   0.4100 
 12 N        3.3920    -5.1410    -1.8950 N.ar  1 <1>  -0.6200 
 13 N        0.7260    -5.5870     0.5670 N.pl3 1 <1>  -0.8690 
 14 C        2.5140    -5.6990    -1.0870 C.ar  1 <1>   0.1600 
 15 C       -0.5210    -6.0580    -0.0770 C.3   1 <1>   0.2890 
 16 C       -1.7460    -5.6970     0.7820 C.3   1 <1>   0.2000 
 17 C       -0.4660    -7.5710    -0.2910 C.3   1 <1>  -0.1600 
 18 O       -1.8500    -4.2990     0.8760 O.3   1 <1>  -0.5600 
 19 C       -3.0070    -6.2910     0.1390 C.3   1 <1>   0.1200 
 20 C       -1.8020    -8.0660    -0.8570 C.3   1 <1>   0.1200 
 21 C       -2.5460    -3.8320     1.9900 C.3   1 <1>   0.0400 
 22 O       -2.8450    -7.6740    -0.0160 O.3   1 <1>  -0.5600 
 23 H       -0.1570    -1.8530    -0.9980 H     1 <1>   0.0800 
 24 H        0.2120    -1.5220     0.6900 H     1 <1>   0.0800 
 25 H        2.6380     1.0220    -0.0810 H     1 <1>   0.0800 
 26 H        1.9130     1.0530    -1.6840 H     1 <1>   0.0800 
 27 H        4.0660    -3.2790    -2.4140 H     1 <1>   0.1500 
 28 H       -0.9400     0.3050    -1.3720 H     1 <1>   0.0800 
 29 H       -1.3680     0.1930     0.3240 H     1 <1>   0.0800 
 30 H        0.6000     1.3850     0.9780 H     1 <1>   0.0800 
 31 H        0.2180     2.2160    -0.5170 H     1 <1>   0.0800 
 32 H        0.4410    -4.8880     1.2620 H     1 <1>   0.4000 
 33 H        2.4460    -6.7700    -1.0820 H     1 <1>   0.1500 
 34 H       -0.6350    -5.5780    -1.0360 H     1 <1>   0.0800 
 35 H       -1.6190    -6.1080     1.7680 H     1 <1>   0.0800 
 36 H       -0.2720    -8.0690     0.6420 H     1 <1>   0.0800 
 37 H        0.3190    -7.8160    -0.9810 H     1 <1>   0.0800 
 38 H       -3.1910    -5.8560    -0.8280 H     1 <1>   0.0800 
 39 H       -3.8630    -6.1380     0.7720 H     1 <1>   0.0800 
 40 H       -1.8130    -9.1420    -0.9110 H     1 <1>   0.0800 
 41 H       -1.9860    -7.6660    -1.8400 H     1 <1>   0.0800 
 42 H       -2.5470    -2.7570     1.9560 H     1 <1>   0.0800 
 43 H       -2.0490    -4.1630     2.8850 H     1 <1>   0.0800 
 44 H       -3.5590    -4.1940     1.9630 H     1 <1>   0.0800 
@<TRIPOS>BOND
  1   1   2  2   
  2   2   3  am  
  3   2   4  1   
  4   3   5  1   
  5   3   6  1   
  6   4   7  ar  
  7   4   8  ar  
  8   5   9  1   
  9   5  23  1   
 10   5  24  1   
 11   6  10  1   
 12   6  25  1   
 13   6  26  1   
 14   7  11  ar  
 15   8  12  ar  
 16   8  27  1   
 17   9  10  1   
 18   9  28  1   
 19   9  29  1   
 20  10  30  1   
 21  10  31  1   
 22  11  13  1   
 23  11  14  ar  
 24  12  14  ar  
 25  13  15  1   
 26  13  32  1   
 27  14  33  1   
 28  15  16  1   
 29  15  17  1   
 30  15  34  1   
 31  16  18  1   
 32  16  19  1   
 33  16  35  1   
 34  17  20  1   
 35  17  36  1   
 36  17  37  1   
 37  18  21  1   
 38  19  22  1   
 39  19  38  1   
 40  19  39  1   
 41  20  22  1   
 42  20  40  1   
 43  20  41  1   
 44  21  42  1   
 45  21  43  1   
 46  21  44  1   
@<TRIPOS>SUBSTRUCTURE
  1 ****   7 GROUP 4 **** **** 0

# MOE 2024.06 (io_trps.svl 2023.06)
