@<TRIPOS>MOLECULE
NONAME
52 55 1 0 0 
SMALL
USER_CHARGES


@<TRIPOS>ATOM
  1 S       -0.2340    -0.4130     1.5830 S.o2  1 <1>   1.5760 
  2 O        1.0330    -0.4170     2.2810 O.2   1 <1>  -0.6500 
  3 O       -1.4750    -0.3260     2.3200 O.2   1 <1>  -0.6500 
  4 N       -0.3160    -1.7640     0.5730 N.am  1 <1>  -0.8490 
  5 N       -0.1860     0.8200     0.4320 N.am  1 <1>  -0.8490 
  6 C       -1.5980    -1.7810    -0.1620 C.3   1 <1>   0.1960 
  7 C       -0.0970    -2.9940     1.3370 C.3   1 <1>   0.1960 
  8 C        1.0910     0.8340    -0.2860 C.3   1 <1>   0.1960 
  9 C       -0.4600     2.1180     1.0480 C.3   1 <1>   0.1960 
 10 C       -1.7010    -2.8970    -1.2130 C.3   1 <1>   0.2090 
 11 C        0.3730    -4.1230     0.4130 C.3   1 <1>  -0.1600 
 12 C        1.0470     1.8650    -1.4180 C.3   1 <1>  -0.1600 
 13 C       -0.5550     3.2040    -0.0290 C.3   1 <1>  -0.1600 
 14 N       -1.9470    -4.2240    -0.5700 N.pl3 1 <1>  -0.8220 
 15 C       -0.7560    -5.0030    -0.1340 C.3   1 <1>   0.2090 
 16 C        0.7170     3.2630    -0.8830 C.3   1 <1>  -0.1600 
 17 C       -3.2490    -4.6330    -0.3610 C.2   1 <1>   0.4620 
 18 S       -3.5940    -6.2140     0.2560 S.3   1 <1>  -0.0800 
 19 N       -4.3290    -3.9640    -0.5750 N.2   1 <1>  -0.3380 
 20 C       -5.2900    -5.8290     0.1810 C.2   1 <1>   0.3250 
 21 N       -5.4690    -4.6360    -0.2680 N.2   1 <1>  -0.3380 
 22 C       -6.2780    -6.7980     0.5990 C.ar  1 <1>   0.0530 
 23 C       -7.6310    -6.4490     0.6200 C.ar  1 <1>  -0.1500 
 24 C       -5.9570    -8.1020     0.9950 C.ar  1 <1>  -0.1500 
 25 C       -8.6090    -7.3420     1.0130 C.ar  1 <1>  -0.1500 
 26 C       -6.9310    -9.0000     1.3900 C.ar  1 <1>  -0.1500 
 27 C       -8.2610    -8.6230     1.4010 C.ar  1 <1>  -0.1500 
 28 H       -1.7110    -0.8470    -0.6840 H     1 <1>   0.0800 
 29 H       -2.4260    -1.8670     0.5220 H     1 <1>   0.0800 
 30 H       -0.9870    -3.2720     1.8790 H     1 <1>   0.0800 
 31 H        0.6860    -2.8280     2.0580 H     1 <1>   0.0800 
 32 H        1.2840    -0.1390    -0.7050 H     1 <1>   0.0800 
 33 H        1.8940     1.0710     0.3940 H     1 <1>   0.0800 
 34 H        0.3200     2.3600     1.7520 H     1 <1>   0.0800 
 35 H       -1.3960     2.0770     1.5810 H     1 <1>   0.0800 
 36 H       -0.8090    -2.9230    -1.8130 H     1 <1>   0.0800 
 37 H       -2.5220    -2.6690    -1.8710 H     1 <1>   0.0800 
 38 H        1.0290    -4.7640     0.9740 H     1 <1>   0.0800 
 39 H        0.9570    -3.7170    -0.3940 H     1 <1>   0.0800 
 40 H        0.3020     1.5610    -2.1320 H     1 <1>   0.0800 
 41 H        1.9980     1.8840    -1.9210 H     1 <1>   0.0800 
 42 H       -0.7220     4.1570     0.4400 H     1 <1>   0.0800 
 43 H       -1.4040     2.9930    -0.6560 H     1 <1>   0.0800 
 44 H       -1.0400    -5.6890     0.6450 H     1 <1>   0.0800 
 45 H       -0.3910    -5.5820    -0.9650 H     1 <1>   0.0800 
 46 H        0.5810     3.9490    -1.7020 H     1 <1>   0.0800 
 47 H        1.5360     3.6170    -0.2800 H     1 <1>   0.0800 
 48 H       -7.9190    -5.4550     0.3220 H     1 <1>   0.1500 
 49 H       -4.9340    -8.4320     0.9990 H     1 <1>   0.1500 
 50 H       -9.6430    -7.0410     1.0180 H     1 <1>   0.1500 
 51 H       -6.6560    -9.9970     1.6910 H     1 <1>   0.1500 
 52 H       -9.0200    -9.3210     1.7080 H     1 <1>   0.1500 
@<TRIPOS>BOND
  1   1   2  2   
  2   1   3  2   
  3   1   4  am  
  4   1   5  am  
  5   4   6  1   
  6   4   7  1   
  7   5   8  1   
  8   5   9  1   
  9   6  10  1   
 10   6  28  1   
 11   6  29  1   
 12   7  11  1   
 13   7  30  1   
 14   7  31  1   
 15   8  12  1   
 16   8  32  1   
 17   8  33  1   
 18   9  13  1   
 19   9  34  1   
 20   9  35  1   
 21  10  14  1   
 22  10  36  1   
 23  10  37  1   
 24  11  15  1   
 25  11  38  1   
 26  11  39  1   
 27  12  16  1   
 28  12  40  1   
 29  12  41  1   
 30  13  16  1   
 31  13  42  1   
 32  13  43  1   
 33  14  15  1   
 34  14  17  1   
 35  15  44  1   
 36  15  45  1   
 37  16  46  1   
 38  16  47  1   
 39  17  18  1   
 40  17  19  2   
 41  18  20  1   
 42  19  21  1   
 43  20  21  2   
 44  20  22  1   
 45  22  23  ar  
 46  22  24  ar  
 47  23  25  ar  
 48  23  48  1   
 49  24  26  ar  
 50  24  49  1   
 51  25  27  ar  
 52  25  50  1   
 53  26  27  ar  
 54  26  51  1   
 55  27  52  1   
@<TRIPOS>SUBSTRUCTURE
  1 ****  14 GROUP 4 **** **** 0

# MOE 2024.06 (io_trps.svl 2023.06)
