@<TRIPOS>MOLECULE
NONAME
43 45 1 0 0 
SMALL
USER_CHARGES


@<TRIPOS>ATOM
  1 O        0.2990    -1.4480     2.4240 O.3   1 <1>  -0.8290 
  2 C        0.0550    -2.4400     1.7000 C.ar  1 <1>   0.1390 
  3 N       -0.0950    -3.6600     2.2720 N.ar  1 <1>  -0.3100 
  4 C       -0.0560    -2.2580     0.3250 C.ar  1 <1>  -0.1500 
  5 N       -0.3510    -4.7080     1.5270 N.ar  1 <1>  -0.3100 
  6 C       -0.3250    -3.3530    -0.4440 C.ar  1 <1>  -0.1500 
  7 C       -0.4650    -4.5650     0.2110 C.ar  1 <1>   0.1670 
  8 C       -0.7720    -5.8240    -0.5770 C.3   1 <1>  -0.0160 
  9 C       -2.2360    -6.2380    -0.3860 C.3   1 <1>  -0.0990 
 10 C       -2.5180    -7.5570    -1.0660 C.2   1 <1>   0.5690 
 11 O       -2.8250    -7.5680    -2.2330 O.2   1 <1>  -0.5700 
 12 N       -2.4060    -8.6950    -0.3420 N.am  1 <1>  -0.7300 
 13 C       -2.6320   -10.0600    -0.8680 C.3   1 <1>   0.2200 
 14 C       -3.9360   -10.6020    -0.3110 C.3   1 <1>  -0.0800 
 15 C       -1.6100   -11.0190    -0.2670 C.3   1 <1>   0.1200 
 16 C       -3.4980   -11.1430     1.0540 C.3   1 <1>   0.1200 
 17 C       -4.5230   -11.7020    -1.2150 C.3   1 <1>  -0.0160 
 18 O       -2.1330   -11.4320     0.9620 O.3   1 <1>  -0.5600 
 19 C       -5.8410   -12.2290    -0.6690 C.ar  1 <1>  -0.1430 
 20 C       -7.0110   -11.5040    -0.7750 C.ar  1 <1>  -0.1500 
 21 C       -5.9390   -13.4550    -0.0420 C.ar  1 <1>  -0.1500 
 22 C       -8.1870   -12.0230    -0.2590 C.ar  1 <1>   0.1600 
 23 C       -7.1650   -13.8820     0.4390 C.ar  1 <1>   0.1600 
 24 N       -8.2920   -13.1940     0.3470 N.ar  1 <1>  -0.6200 
 25 H        0.0730    -1.2690    -0.0670 H     1 <1>   0.1500 
 26 H       -0.4240    -3.2730    -1.5080 H     1 <1>   0.1500 
 27 H       -0.5750    -5.6650    -1.6220 H     1 <1>   0.0800 
 28 H       -0.1220    -6.6090    -0.2330 H     1 <1>   0.0800 
 29 H       -2.8800    -5.4840    -0.8010 H     1 <1>   0.0800 
 30 H       -2.4590    -6.3210     0.6620 H     1 <1>   0.0800 
 31 H       -2.1360    -8.6540     0.6450 H     1 <1>   0.3700 
 32 H       -2.5990   -10.0550    -1.9460 H     1 <1>   0.0800 
 33 H       -4.6670    -9.8200    -0.2000 H     1 <1>   0.0800 
 34 H       -0.6480   -10.5610    -0.1160 H     1 <1>   0.0800 
 35 H       -1.5020   -11.8940    -0.8840 H     1 <1>   0.0800 
 36 H       -4.0260   -12.0330     1.3490 H     1 <1>   0.0800 
 37 H       -3.6180   -10.3910     1.8150 H     1 <1>   0.0800 
 38 H       -3.8250   -12.5150    -1.3160 H     1 <1>   0.0800 
 39 H       -4.6960   -11.3000    -2.1990 H     1 <1>   0.0800 
 40 H       -7.0190   -10.5420    -1.2540 H     1 <1>   0.1500 
 41 H       -5.0750   -14.0830     0.0780 H     1 <1>   0.1500 
 42 H       -9.0900   -11.4430    -0.3510 H     1 <1>   0.1500 
 43 H       -7.2220   -14.8410     0.9260 H     1 <1>   0.1500 
@<TRIPOS>BOND
  1   1   2  1   
  2   2   3  ar  
  3   2   4  ar  
  4   3   5  ar  
  5   4   6  ar  
  6   4  25  1   
  7   5   7  ar  
  8   6   7  ar  
  9   6  26  1   
 10   7   8  1   
 11   8   9  1   
 12   8  27  1   
 13   8  28  1   
 14   9  10  1   
 15   9  29  1   
 16   9  30  1   
 17  10  11  2   
 18  10  12  am  
 19  12  13  1   
 20  12  31  1   
 21  13  14  1   
 22  13  15  1   
 23  13  32  1   
 24  14  16  1   
 25  14  17  1   
 26  14  33  1   
 27  15  18  1   
 28  15  34  1   
 29  15  35  1   
 30  16  18  1   
 31  16  36  1   
 32  16  37  1   
 33  17  19  1   
 34  17  38  1   
 35  17  39  1   
 36  19  20  ar  
 37  19  21  ar  
 38  20  22  ar  
 39  20  40  1   
 40  21  23  ar  
 41  21  41  1   
 42  22  24  ar  
 43  22  42  1   
 44  23  24  ar  
 45  23  43  1   
@<TRIPOS>SUBSTRUCTURE
  1 ****  12 GROUP 4 **** **** 0

# MOE 2024.06 (io_trps.svl 2023.06)
