@<TRIPOS>MOLECULE
NONAME
46 48 1 0 0 
SMALL
USER_CHARGES


@<TRIPOS>ATOM
  1 O       -0.2430    -0.2190     0.8840 O.3   1 <1>  -0.0190 
  2 N        0.6020     0.7570     0.9900 N.2   1 <1>  -0.4100 
  3 C       -1.3550     0.3580     0.5080 C.2   1 <1>   0.2980 
  4 C       -0.0120     1.8460     0.6880 C.2   1 <1>   0.4620 
  5 N       -1.2940     1.6200     0.3790 N.2   1 <1>  -0.5650 
  6 C       -2.5930    -0.5100     0.3010 C.3   1 <1>   0.2900 
  7 C        0.5760     3.1760     0.6770 C.ar  1 <1>   0.0540 
  8 N       -2.6500    -1.2100    -1.0120 N.3   1 <1>  -0.8100 
  9 C       -0.1570     4.3020     0.2930 C.ar  1 <1>  -0.1500 
 10 C        1.9050     3.3830     1.0520 C.ar  1 <1>  -0.1500 
 11 C       -3.9920    -1.7890    -1.2770 C.3   1 <1>   0.2900 
 12 C       -1.5780    -2.2000    -1.1980 C.3   1 <1>   0.1100 
 13 C        0.3980     5.5700     0.2830 C.ar  1 <1>  -0.1430 
 14 C        2.4710     4.6440     1.0450 C.ar  1 <1>  -0.1500 
 15 C       -4.4330    -2.8360    -0.2560 C.2   1 <1>   0.2980 
 16 C       -0.5550    -1.6280    -2.1730 C.3   1 <1>  -0.2400 
 17 C        1.7190     5.7380     0.6600 C.ar  1 <1>  -0.1500 
 18 C       -0.4330     6.7660    -0.1440 C.3   1 <1>  -0.0970 
 19 O       -4.9960    -2.4230     0.8520 O.3   1 <1>  -0.0190 
 20 N       -4.3060    -4.0980    -0.3680 N.2   1 <1>  -0.5650 
 21 N       -5.2430    -3.5150     1.5060 N.2   1 <1>  -0.4100 
 22 C       -4.8500    -4.4880     0.7800 C.2   1 <1>   0.3350 
 23 C       -4.9500    -5.9600     1.1700 C.3   1 <1>   0.3010 
 24 O       -5.9940    -6.5930     0.4820 O.3   1 <1>  -0.5600 
 25 C       -6.1340    -7.9450     0.7750 C.3   1 <1>   0.0400 
 26 H       -3.4490     0.1360     0.3850 H     1 <1>   0.0800 
 27 H       -2.6420    -1.2270     1.1020 H     1 <1>   0.0800 
 28 H       -1.1830     4.1750    -0.0060 H     1 <1>   0.1500 
 29 H        2.5050     2.5420     1.3540 H     1 <1>   0.1500 
 30 H       -3.9860    -2.2450    -2.2520 H     1 <1>   0.0800 
 31 H       -4.7200    -0.9990    -1.3010 H     1 <1>   0.0800 
 32 H       -1.9690    -3.1150    -1.6140 H     1 <1>   0.0800 
 33 H       -1.1080    -2.4450    -0.2600 H     1 <1>   0.0800 
 34 H        3.4980     4.7750     1.3380 H     1 <1>   0.1500 
 35 H       -1.0220    -1.4240    -3.1190 H     1 <1>   0.0800 
 36 H        0.2350    -2.3400    -2.3280 H     1 <1>   0.0800 
 37 H       -0.1240    -0.7210    -1.7910 H     1 <1>   0.0800 
 38 H        2.1660     6.7170     0.6550 H     1 <1>   0.1500 
 39 H       -1.4700     6.6080     0.0950 H     1 <1>   0.0800 
 40 H       -0.3410     6.9120    -1.2050 H     1 <1>   0.0800 
 41 H       -0.1010     7.6560     0.3600 H     1 <1>   0.0800 
 42 H       -5.1400    -6.0390     2.2250 H     1 <1>   0.0800 
 43 H       -4.0270    -6.4550     0.9270 H     1 <1>   0.0800 
 44 H       -6.9590    -8.3270     0.1990 H     1 <1>   0.0800 
 45 H       -6.3420    -8.0630     1.8250 H     1 <1>   0.0800 
 46 H       -5.2320    -8.4650     0.5030 H     1 <1>   0.0800 
@<TRIPOS>BOND
  1   1   2  1   
  2   1   3  1   
  3   2   4  2   
  4   3   5  2   
  5   3   6  1   
  6   4   5  1   
  7   4   7  1   
  8   6   8  1   
  9   6  26  1   
 10   6  27  1   
 11   7   9  ar  
 12   7  10  ar  
 13   8  11  1   
 14   8  12  1   
 15   9  13  ar  
 16   9  28  1   
 17  10  14  ar  
 18  10  29  1   
 19  11  15  1   
 20  11  30  1   
 21  11  31  1   
 22  12  16  1   
 23  12  32  1   
 24  12  33  1   
 25  13  17  ar  
 26  13  18  1   
 27  14  17  ar  
 28  14  34  1   
 29  15  19  1   
 30  15  20  2   
 31  16  35  1   
 32  16  36  1   
 33  16  37  1   
 34  17  38  1   
 35  18  39  1   
 36  18  40  1   
 37  18  41  1   
 38  19  21  1   
 39  20  22  1   
 40  21  22  2   
 41  22  23  1   
 42  23  24  1   
 43  23  42  1   
 44  23  43  1   
 45  24  25  1   
 46  25  44  1   
 47  25  45  1   
 48  25  46  1   
@<TRIPOS>SUBSTRUCTURE
  1 ****   6 GROUP 4 **** **** 0

# MOE 2024.06 (io_trps.svl 2023.06)
