@<TRIPOS>MOLECULE
NONAME
45 46 1 0 0 
SMALL
USER_CHARGES


@<TRIPOS>ATOM
  1 O       -0.7150    -0.2690    -0.4570 O.2   1 <1>  -0.5700 
  2 C       -1.5850     0.5130    -0.1480 C.2   1 <1>   0.5690 
  3 N       -2.7150     0.0660     0.5020 N.am  1 <1>  -0.6600 
  4 C       -1.3060     1.9830    -0.5050 C.3   1 <1>  -0.0190 
  5 C       -2.7240    -1.3050     1.0960 C.3   1 <1>   0.3200 
  6 C       -3.9620     0.8540     0.7550 C.3   1 <1>   0.1400 
  7 C       -1.0370     2.8220     0.7590 C.3   1 <1>  -0.0170 
  8 C       -2.3160     2.6320    -1.4740 C.3   1 <1>  -0.2400 
  9 C       -3.7800    -2.1620     0.4280 C.2   1 <1>  -0.3320 
 10 C       -4.9730     0.7010    -0.3900 C.3   1 <1>   0.1200 
 11 C       -0.5410     4.2220     0.4270 C.ar  1 <1>  -0.1440 
 12 N       -3.7280    -2.5840    -0.8520 N.pl3 1 <1>   0.0480 
 13 C       -4.9270    -2.6520     0.9480 C.2   1 <1>   0.0770 
 14 O       -6.0100     1.6040    -0.2010 O.3   1 <1>  -0.6800 
 15 C        0.7890     4.4280     0.0940 C.ar  1 <1>  -0.1500 
 16 C       -1.4090     5.3030     0.4530 C.ar  1 <1>  -0.1500 
 17 C       -4.8650    -3.2940    -1.0220 C.2   1 <1>   0.0360 
 18 C       -2.6730    -2.3370    -1.8530 C.3   1 <1>   0.0160 
 19 N       -5.6130    -3.3560     0.0320 N.2   1 <1>  -0.5650 
 20 C        1.2460     5.6990    -0.2110 C.ar  1 <1>  -0.1500 
 21 C       -0.9540     6.5740     0.1480 C.ar  1 <1>  -0.1500 
 22 C        0.3740     6.7730    -0.1840 C.ar  1 <1>  -0.1500 
 23 H       -0.3750     1.9680    -1.0450 H     1 <1>   0.0800 
 24 H       -2.9360    -1.2270     2.1480 H     1 <1>   0.0800 
 25 H       -1.7640    -1.7820     1.0010 H     1 <1>   0.0800 
 26 H       -3.7260     1.8920     0.8740 H     1 <1>   0.0800 
 27 H       -4.4160     0.5170     1.6710 H     1 <1>   0.0800 
 28 H       -0.2880     2.3260     1.3530 H     1 <1>   0.0800 
 29 H       -1.9190     2.8950     1.3660 H     1 <1>   0.0800 
 30 H       -3.2280     2.9110    -0.9820 H     1 <1>   0.0800 
 31 H       -2.5420     1.9560    -2.2800 H     1 <1>   0.0800 
 32 H       -1.8910     3.5230    -1.9000 H     1 <1>   0.0800 
 33 H       -5.3940    -0.2870    -0.4280 H     1 <1>   0.0800 
 34 H       -4.5130     0.9280    -1.3350 H     1 <1>   0.0800 
 35 H       -5.3070    -2.5310     1.9490 H     1 <1>   0.1500 
 36 H       -6.6790     1.2360     0.4090 H     1 <1>   0.4000 
 37 H        1.4760     3.6000     0.0700 H     1 <1>   0.1500 
 38 H       -2.4450     5.1610     0.7080 H     1 <1>   0.1500 
 39 H       -5.1090    -3.7620    -1.9590 H     1 <1>   0.1500 
 40 H       -1.7140    -2.5650    -1.4250 H     1 <1>   0.0800 
 41 H       -2.6950    -1.3020    -2.1430 H     1 <1>   0.0800 
 42 H       -2.8370    -2.9560    -2.7150 H     1 <1>   0.0800 
 43 H        2.2800     5.8510    -0.4690 H     1 <1>   0.1500 
 44 H       -1.6330     7.4080     0.1690 H     1 <1>   0.1500 
 45 H        0.7290     7.7600    -0.4210 H     1 <1>   0.1500 
@<TRIPOS>BOND
  1   1   2  2   
  2   2   3  am  
  3   2   4  1   
  4   3   5  1   
  5   3   6  1   
  6   4   7  1   
  7   4   8  1   
  8   4  23  1   
  9   5   9  1   
 10   5  24  1   
 11   5  25  1   
 12   6  10  1   
 13   6  26  1   
 14   6  27  1   
 15   7  11  1   
 16   7  28  1   
 17   7  29  1   
 18   8  30  1   
 19   8  31  1   
 20   8  32  1   
 21   9  12  1   
 22   9  13  2   
 23  10  14  1   
 24  10  33  1   
 25  10  34  1   
 26  11  15  ar  
 27  11  16  ar  
 28  12  17  1   
 29  12  18  1   
 30  13  19  1   
 31  13  35  1   
 32  14  36  1   
 33  15  20  ar  
 34  15  37  1   
 35  16  21  ar  
 36  16  38  1   
 37  17  19  2   
 38  17  39  1   
 39  18  40  1   
 40  18  41  1   
 41  18  42  1   
 42  20  22  ar  
 43  20  43  1   
 44  21  22  ar  
 45  21  44  1   
 46  22  45  1   
@<TRIPOS>SUBSTRUCTURE
  1 ****   2 GROUP 4 **** **** 0

# MOE 2024.06 (io_trps.svl 2023.06)
