@<TRIPOS>MOLECULE
NONAME
41 43 1 0 0 
SMALL
USER_CHARGES


@<TRIPOS>ATOM
  1 O        3.8690    -2.0610     1.2700 O.2   1 <1>  -0.5700 
  2 C        3.0240    -1.7960     0.4360 C.2   1 <1>   0.5440 
  3 N        2.9600    -0.4860     0.0280 N.am  1 <1>  -0.6600 
  4 C        2.1930    -2.8370    -0.1490 C.ar  1 <1>   0.0860 
  5 C        3.1250     0.6090     1.0590 C.3   1 <1>   0.2200 
  6 C        3.2320    -0.1730    -1.4050 C.3   1 <1>   0.1400 
  7 C        2.5920    -4.1740    -0.1240 C.ar  1 <1>  -0.1500 
  8 C        0.9670    -2.5550    -0.7540 C.ar  1 <1>  -0.1500 
  9 C        2.5130     1.9490     0.6150 C.3   1 <1>   0.1200 
 10 C        4.6100     0.8080     1.4570 C.3   1 <1>   0.3430 
 11 C        4.2410     0.9710    -1.6190 C.3   1 <1>  -0.0800 
 12 C        1.8170    -5.1730    -0.6850 C.ar  1 <1>  -0.1500 
 13 C        0.1910    -3.5530    -1.3150 C.ar  1 <1>  -0.1500 
 14 O        3.4430     2.6950    -0.1140 O.3   1 <1>  -0.5600 
 15 N        5.5470     0.1740     0.4710 N.4   1 <1>  -0.9590 
 16 C        3.5870     2.3530    -1.4510 C.3   1 <1>   0.1200 
 17 C        5.5890     0.8550    -0.8660 C.3   1 <1>   0.3430 
 18 C        0.6020    -4.8800    -1.2930 C.ar  1 <1>   0.0730 
 19 C        6.9050    -0.0020     1.0570 C.3   1 <1>   0.2630 
 20 C       -0.2010    -5.9170    -1.8760 C.1   1 <1>   0.4840 
 21 N       -0.8400    -6.7380    -2.3430 N.1   1 <1>  -0.5570 
 22 H        2.5890     0.3040     1.9410 H     1 <1>   0.0800 
 23 H        3.6120    -1.0590    -1.8880 H     1 <1>   0.0800 
 24 H        2.3010     0.0750    -1.8880 H     1 <1>   0.0800 
 25 H        3.5260    -4.4350     0.3460 H     1 <1>   0.1500 
 26 H        0.6100    -1.5400    -0.7800 H     1 <1>   0.1500 
 27 H        2.2750     2.5320     1.4880 H     1 <1>   0.0800 
 28 H        1.6100     1.8130     0.0450 H     1 <1>   0.0800 
 29 H        4.7510     0.3440     2.4190 H     1 <1>   0.0800 
 30 H        4.8270     1.8580     1.5650 H     1 <1>   0.0800 
 31 H        4.4940     0.9330    -2.6640 H     1 <1>   0.0800 
 32 H        2.1580    -6.1950    -0.6470 H     1 <1>   0.1500 
 33 H       -0.7510    -3.3010    -1.7750 H     1 <1>   0.1500 
 34 H        5.1210    -0.7670     0.3480 H     1 <1>   0.4500 
 35 H        2.6220     2.4000    -1.9290 H     1 <1>   0.0800 
 36 H        4.2110     3.1090    -1.8970 H     1 <1>   0.0800 
 37 H        5.9990     1.8440    -0.7460 H     1 <1>   0.0800 
 38 H        6.2670     0.3030    -1.4960 H     1 <1>   0.0800 
 39 H        7.3520     0.9580     1.2600 H     1 <1>   0.0800 
 40 H        7.5390    -0.5440     0.3740 H     1 <1>   0.0800 
 41 H        6.8410    -0.5580     1.9780 H     1 <1>   0.0800 
@<TRIPOS>BOND
  1   1   2  2   
  2   2   3  am  
  3   2   4  1   
  4   3   5  1   
  5   3   6  1   
  6   4   7  ar  
  7   4   8  ar  
  8   5   9  1   
  9   5  10  1   
 10   5  22  1   
 11   6  11  1   
 12   6  23  1   
 13   6  24  1   
 14   7  12  ar  
 15   7  25  1   
 16   8  13  ar  
 17   8  26  1   
 18   9  14  1   
 19   9  27  1   
 20   9  28  1   
 21  10  15  1   
 22  10  29  1   
 23  10  30  1   
 24  11  16  1   
 25  11  17  1   
 26  11  31  1   
 27  12  18  ar  
 28  12  32  1   
 29  13  18  ar  
 30  13  33  1   
 31  14  16  1   
 32  15  17  1   
 33  15  19  1   
 34  15  34  1   
 35  16  35  1   
 36  16  36  1   
 37  17  37  1   
 38  17  38  1   
 39  18  20  1   
 40  19  39  1   
 41  19  40  1   
 42  19  41  1   
 43  20  21  3   
@<TRIPOS>SUBSTRUCTURE
  1 ****   2 GROUP 4 **** **** 0

# MOE 2024.06 (io_trps.svl 2023.06)
