@<TRIPOS>MOLECULE
NONAME
43 46 1 0 0 
SMALL
USER_CHARGES


@<TRIPOS>ATOM
  1 S       -0.1390    -0.4020     1.1200 S.3   1 <1>  -0.4600 
  2 C       -1.4960     0.6060     0.4410 C.3   1 <1>   0.2510 
  3 C       -0.9200    -2.0390     1.0070 C.3   1 <1>   0.2510 
  4 C       -2.5720    -0.4160     0.1580 C.2   1 <1>   0.1080 
  5 C       -2.2870    -1.7350     0.4420 C.2   1 <1>  -0.1810 
  6 N       -3.7610    -0.2450    -0.3240 N.2   1 <1>  -0.7070 
  7 C       -3.3980    -2.4280     0.0990 C.2   1 <1>  -0.0880 
  8 N       -4.2850    -1.4960    -0.3700 N.pl3 1 <1>   0.3140 
  9 N       -3.5800    -3.8270     0.2320 N.am  1 <1>  -0.4940 
 10 C       -5.6760    -1.6780    -0.8060 C.3   1 <1>   0.0160 
 11 C       -4.2820    -4.7150    -0.5360 C.2   1 <1>   0.5690 
 12 O       -4.9170    -4.3930    -1.5110 O.2   1 <1>  -0.5700 
 13 C       -4.2540    -6.1800    -0.1370 C.3   1 <1>  -0.0190 
 14 C       -3.8470    -7.0600    -1.3200 C.3   1 <1>   0.1200 
 15 C       -5.6220    -6.6460     0.3720 C.3   1 <1>  -0.0160 
 16 O       -3.7150    -8.3980    -0.8850 O.3   1 <1>  -0.3630 
 17 C       -5.6310    -8.1570     0.5410 C.ar  1 <1>  -0.1430 
 18 C       -4.6810    -8.9540    -0.0970 C.ar  1 <1>   0.0830 
 19 C       -6.5970    -8.7500     1.3370 C.ar  1 <1>  -0.1500 
 20 C       -4.6970   -10.3410     0.0720 C.ar  1 <1>   0.0830 
 21 C       -6.6190   -10.1230     1.5050 C.ar  1 <1>  -0.1500 
 22 O       -3.7420   -11.0770    -0.5680 O.3   1 <1>  -0.3630 
 23 C       -5.6740   -10.9170     0.8780 C.ar  1 <1>  -0.1500 
 24 C       -3.7090   -12.4830    -0.4780 C.3   1 <1>   0.0400 
 25 H       -1.1510     1.0880    -0.4550 H     1 <1>   0.0800 
 26 H       -1.8010     1.3190     1.1850 H     1 <1>   0.0800 
 27 H       -0.9650    -2.4550     1.9970 H     1 <1>   0.0800 
 28 H       -0.3280    -2.6450     0.3450 H     1 <1>   0.0800 
 29 H       -3.0290    -4.2480     0.9800 H     1 <1>   0.3700 
 30 H       -6.2080    -0.7540    -0.6810 H     1 <1>   0.0800 
 31 H       -6.1390    -2.4440    -0.2160 H     1 <1>   0.0800 
 32 H       -5.6820    -1.9590    -1.8420 H     1 <1>   0.0800 
 33 H       -3.5250    -6.3180     0.6400 H     1 <1>   0.0800 
 34 H       -2.9000    -6.7530    -1.7260 H     1 <1>   0.0800 
 35 H       -4.5910    -7.0340    -2.0980 H     1 <1>   0.0800 
 36 H       -6.3870    -6.3790    -0.3370 H     1 <1>   0.0800 
 37 H       -5.8460    -6.1660     1.3090 H     1 <1>   0.0800 
 38 H       -7.3390    -8.1460     1.8300 H     1 <1>   0.1500 
 39 H       -7.3730   -10.5750     2.1260 H     1 <1>   0.1500 
 40 H       -5.7190   -11.9770     1.0310 H     1 <1>   0.1500 
 41 H       -2.8840   -12.8340    -1.0730 H     1 <1>   0.0800 
 42 H       -4.6310   -12.8790    -0.8630 H     1 <1>   0.0800 
 43 H       -3.5640   -12.7640     0.5490 H     1 <1>   0.0800 
@<TRIPOS>BOND
  1   1   2  1   
  2   1   3  1   
  3   2   4  1   
  4   2  25  1   
  5   2  26  1   
  6   3   5  1   
  7   3  27  1   
  8   3  28  1   
  9   4   5  1   
 10   4   6  2   
 11   5   7  2   
 12   6   8  1   
 13   7   8  1   
 14   7   9  1   
 15   8  10  1   
 16   9  11  am  
 17   9  29  1   
 18  10  30  1   
 19  10  31  1   
 20  10  32  1   
 21  11  12  2   
 22  11  13  1   
 23  13  14  1   
 24  13  15  1   
 25  13  33  1   
 26  14  16  1   
 27  14  34  1   
 28  14  35  1   
 29  15  17  1   
 30  15  36  1   
 31  15  37  1   
 32  16  18  1   
 33  17  18  ar  
 34  17  19  ar  
 35  18  20  ar  
 36  19  21  ar  
 37  19  38  1   
 38  20  22  1   
 39  20  23  ar  
 40  21  23  ar  
 41  21  39  1   
 42  22  24  1   
 43  23  40  1   
 44  24  41  1   
 45  24  42  1   
 46  24  43  1   
@<TRIPOS>SUBSTRUCTURE
  1 ****  13 GROUP 4 **** **** 0

# MOE 2024.06 (io_trps.svl 2023.06)
