@<TRIPOS>MOLECULE
NONAME
52 53 1 0 0 
SMALL
USER_CHARGES


@<TRIPOS>ATOM
  1 O       -0.5980    -1.2870     1.3450 O.2   1 <1>  -0.5700 
  2 C       -0.1430    -1.5800     0.2620 C.2   1 <1>   0.5440 
  3 N       -0.5540    -0.8270    -0.7870 N.am  1 <1>  -0.8000 
  4 C        0.7900    -2.6630     0.1060 C.ar  1 <1>   0.0860 
  5 C        0.4960    -3.7610    -0.7180 C.ar  1 <1>   0.4100 
  6 C        2.0030    -2.6610     0.7740 C.ar  1 <1>  -0.1500 
  7 N        1.3230    -4.7860    -0.9050 N.ar  1 <1>  -0.6200 
  8 N       -0.7170    -3.8450    -1.3750 N.pl3 1 <1>  -0.8690 
  9 C        2.8690    -3.7150     0.5790 C.ar  1 <1>  -0.1430 
 10 C        2.4840    -4.7430    -0.2770 C.ar  1 <1>   0.1670 
 11 C       -1.0150    -4.8060    -2.4790 C.3   1 <1>   0.2090 
 12 C        4.2100    -3.7120     1.3050 C.3   1 <1>  -0.0970 
 13 C        3.4100    -5.9170    -0.5420 C.3   1 <1>  -0.0970 
 14 C       -1.7770    -6.0270    -1.9370 C.3   1 <1>   0.2000 
 15 O       -2.9210    -5.5840    -1.2670 O.3   1 <1>  -0.6800 
 16 C       -0.9230    -6.8470    -0.9480 C.3   1 <1>   0.3430 
 17 N       -1.7910    -7.7330    -0.1130 N.4   1 <1>  -0.9590 
 18 C       -1.2000    -7.9030     1.2390 C.3   1 <1>   0.3430 
 19 C       -2.1530    -8.9900    -0.8200 C.3   1 <1>   0.3430 
 20 C       -2.1760    -8.5550     2.2210 C.3   1 <1>  -0.1600 
 21 C       -3.5240    -9.4690    -0.3460 C.3   1 <1>  -0.1600 
 22 C       -2.4050   -10.0480     1.9450 C.3   1 <1>  -0.1600 
 23 C       -3.5110   -10.3420     0.9210 C.3   1 <1>  -0.1600 
 24 H       -1.1310    -0.0090    -0.5800 H     1 <1>   0.3700 
 25 H       -0.0380    -0.7880    -1.6670 H     1 <1>   0.3700 
 26 H        2.2470    -1.8420     1.4290 H     1 <1>   0.1500 
 27 H       -1.2480    -2.9620    -1.4180 H     1 <1>   0.4000 
 28 H       -0.1030    -5.1230    -2.9570 H     1 <1>   0.0800 
 29 H       -1.6150    -4.3160    -3.2280 H     1 <1>   0.0800 
 30 H        4.2660    -2.9000     2.0080 H     1 <1>   0.0800 
 31 H        5.0120    -3.6010     0.5980 H     1 <1>   0.0800 
 32 H        4.3440    -4.6300     1.8480 H     1 <1>   0.0800 
 33 H        3.0510    -6.5020    -1.3690 H     1 <1>   0.0800 
 34 H        3.4630    -6.5440     0.3280 H     1 <1>   0.0800 
 35 H        4.3950    -5.5660    -0.7870 H     1 <1>   0.0800 
 36 H       -2.0920    -6.6520    -2.7530 H     1 <1>   0.0800 
 37 H       -2.7000    -4.7290    -0.8300 H     1 <1>   0.4000 
 38 H       -0.4190    -6.1510    -0.3000 H     1 <1>   0.0800 
 39 H       -0.1700    -7.4120    -1.4700 H     1 <1>   0.0800 
 40 H       -2.6630    -7.1810    -0.0180 H     1 <1>   0.4500 
 41 H       -0.9280    -6.9330     1.6260 H     1 <1>   0.0800 
 42 H       -0.3030    -8.4960     1.1750 H     1 <1>   0.0800 
 43 H       -1.4060    -9.7510    -0.6600 H     1 <1>   0.0800 
 44 H       -2.2160    -8.7940    -1.8770 H     1 <1>   0.0800 
 45 H       -3.1070    -8.0160     2.2530 H     1 <1>   0.0800 
 46 H       -1.7340    -8.4710     3.1990 H     1 <1>   0.0800 
 47 H       -3.9650   -10.0530    -1.1350 H     1 <1>   0.0800 
 48 H       -4.1700    -8.6190    -0.2000 H     1 <1>   0.0800 
 49 H       -2.6830   -10.5290     2.8690 H     1 <1>   0.0800 
 50 H       -1.4820   -10.5050     1.6280 H     1 <1>   0.0800 
 51 H       -3.4210   -11.3750     0.6300 H     1 <1>   0.0800 
 52 H       -4.4690   -10.2440     1.4050 H     1 <1>   0.0800 
@<TRIPOS>BOND
  1   1   2  2   
  2   2   3  am  
  3   2   4  1   
  4   3  24  1   
  5   3  25  1   
  6   4   5  ar  
  7   4   6  ar  
  8   5   7  ar  
  9   5   8  1   
 10   6   9  ar  
 11   6  26  1   
 12   7  10  ar  
 13   8  11  1   
 14   8  27  1   
 15   9  10  ar  
 16   9  12  1   
 17  10  13  1   
 18  11  14  1   
 19  11  28  1   
 20  11  29  1   
 21  12  30  1   
 22  12  31  1   
 23  12  32  1   
 24  13  33  1   
 25  13  34  1   
 26  13  35  1   
 27  14  15  1   
 28  14  16  1   
 29  14  36  1   
 30  15  37  1   
 31  16  17  1   
 32  16  38  1   
 33  16  39  1   
 34  17  18  1   
 35  17  19  1   
 36  17  40  1   
 37  18  20  1   
 38  18  41  1   
 39  18  42  1   
 40  19  21  1   
 41  19  43  1   
 42  19  44  1   
 43  20  22  1   
 44  20  45  1   
 45  20  46  1   
 46  21  23  1   
 47  21  47  1   
 48  21  48  1   
 49  22  23  1   
 50  22  49  1   
 51  22  50  1   
 52  23  51  1   
 53  23  52  1   
@<TRIPOS>SUBSTRUCTURE
  1 ****  16 GROUP 4 **** **** 0

# MOE 2024.06 (io_trps.svl 2023.06)
