@<TRIPOS>MOLECULE
NONAME
43 45 1 0 0 
SMALL
USER_CHARGES


@<TRIPOS>ATOM
  1 F       -0.6890     1.1150    -1.4260 F     1 <1>  -0.3400 
  2 C       -0.3230     2.0110    -0.5160 C.3   1 <1>   1.1640 
  3 F       -0.7860     1.5690     0.6470 F     1 <1>  -0.3400 
  4 F       -1.0050     3.1160    -0.7930 F     1 <1>  -0.3400 
  5 C        1.1950     2.2500    -0.4760 C.ar  1 <1>  -0.1440 
  6 C        1.7070     3.3840     0.1470 C.ar  1 <1>  -0.1500 
  7 C        2.0860     1.3500    -1.0480 C.ar  1 <1>  -0.1500 
  8 C        3.0750     3.6370     0.2150 C.ar  1 <1>  -0.1440 
  9 C        3.4460     1.5890    -1.0040 C.ar  1 <1>  -0.1500 
 10 C        3.9350     2.7230    -0.3840 C.ar  1 <1>  -0.1500 
 11 C        3.5940     4.9140     0.9080 C.3   1 <1>   0.4240 
 12 O        2.7690     5.1690     1.9860 O.3   1 <1>  -0.6800 
 13 C        5.0170     4.8040     1.4990 C.3   1 <1>  -0.1600 
 14 C        3.4630     6.1050    -0.0510 C.3   1 <1>  -0.1600 
 15 C        6.0540     5.4470     0.5760 C.3   1 <1>   0.1100 
 16 C        4.3470     7.2700     0.3940 C.3   1 <1>   0.1100 
 17 N        5.7800     6.8870     0.4200 N.3   1 <1>  -0.8100 
 18 C        6.5930     7.4920    -0.6640 C.3   1 <1>   0.2900 
 19 C        6.7600     9.0060    -0.5370 C.2   1 <1>   0.2980 
 20 O        5.8330     9.7800    -1.0390 O.3   1 <1>  -0.0190 
 21 N        7.7410     9.6130    -0.0020 N.2   1 <1>  -0.5650 
 22 N        6.2450    10.9800    -0.7930 N.2   1 <1>  -0.4100 
 23 C        7.3730    10.8980    -0.1690 C.2   1 <1>   0.4300 
 24 C        8.1910    12.0130     0.3210 C.2   1 <1>   0.7160 
 25 O        7.9080    13.1820     0.1400 O.2   1 <1>  -0.5700 
 26 N        9.3360    11.7940     1.0210 N.am  1 <1>  -0.8000 
 27 H        1.0190     4.0900     0.5850 H     1 <1>   0.1500 
 28 H        1.7300     0.4570    -1.5360 H     1 <1>   0.1500 
 29 H        4.1270     0.8880    -1.4570 H     1 <1>   0.1500 
 30 H        4.9980     2.8760    -0.3820 H     1 <1>   0.1500 
 31 H        2.7410     4.3700     2.5410 H     1 <1>   0.4000 
 32 H        5.2740     3.7800     1.6880 H     1 <1>   0.0800 
 33 H        5.0740     5.3250     2.4400 H     1 <1>   0.0800 
 34 H        2.4360     6.4180    -0.1050 H     1 <1>   0.0800 
 35 H        3.7600     5.8110    -1.0410 H     1 <1>   0.0800 
 36 H        6.0300     4.9640    -0.3870 H     1 <1>   0.0800 
 37 H        7.0380     5.3210     0.9950 H     1 <1>   0.0800 
 38 H        4.0560     7.5630     1.3900 H     1 <1>   0.0800 
 39 H        4.1790     8.1140    -0.2500 H     1 <1>   0.0800 
 40 H        6.1580     7.2580    -1.6200 H     1 <1>   0.0800 
 41 H        7.5790     7.0630    -0.6360 H     1 <1>   0.0800 
 42 H        9.8780    12.5840     1.3670 H     1 <1>   0.3700 
 43 H        9.6490    10.8500     1.2490 H     1 <1>   0.3700 
@<TRIPOS>BOND
  1   1   2  1   
  2   2   3  1   
  3   2   4  1   
  4   2   5  1   
  5   5   6  ar  
  6   5   7  ar  
  7   6   8  ar  
  8   6  27  1   
  9   7   9  ar  
 10   7  28  1   
 11   8  10  ar  
 12   8  11  1   
 13   9  10  ar  
 14   9  29  1   
 15  10  30  1   
 16  11  12  1   
 17  11  13  1   
 18  11  14  1   
 19  12  31  1   
 20  13  15  1   
 21  13  32  1   
 22  13  33  1   
 23  14  16  1   
 24  14  34  1   
 25  14  35  1   
 26  15  17  1   
 27  15  36  1   
 28  15  37  1   
 29  16  17  1   
 30  16  38  1   
 31  16  39  1   
 32  17  18  1   
 33  18  19  1   
 34  18  40  1   
 35  18  41  1   
 36  19  20  1   
 37  19  21  2   
 38  20  22  1   
 39  21  23  1   
 40  22  23  2   
 41  23  24  1   
 42  24  25  2   
 43  24  26  am  
 44  26  42  1   
 45  26  43  1   
@<TRIPOS>SUBSTRUCTURE
  1 ****  14 GROUP 4 **** **** 0

# MOE 2024.06 (io_trps.svl 2023.06)
