@<TRIPOS>MOLECULE
NONAME
57 59 1 0 0 
SMALL
USER_CHARGES


@<TRIPOS>ATOM
  1 S        0.7460     0.2100     0.3060 S.o2  1 <1>   1.0900 
  2 O        1.9430    -0.5700     0.1320 O.2   1 <1>  -0.6500 
  3 O       -0.2360    -0.0400     1.3310 O.2   1 <1>  -0.6500 
  4 C        1.1920     1.9090     0.4870 C.3   1 <1>  -0.0550 
  5 C       -0.1060     0.4520    -1.2460 C.3   1 <1>  -0.0550 
  6 C       -0.0260     2.6280    -0.0720 C.3   1 <1>   0.4230 
  7 C       -0.3680     1.9620    -1.4150 C.3   1 <1>  -0.1600 
  8 N        0.1420     4.1080    -0.2100 N.4   1 <1>  -0.9590 
  9 C        1.3530     4.5560    -0.9660 C.3   1 <1>   0.3430 
 10 C        0.0690     4.7770     1.1220 C.3   1 <1>   0.3430 
 11 C        1.2490     6.0550    -1.2340 C.3   1 <1>  -0.1600 
 12 C       -0.0740     6.2840     0.9200 C.3   1 <1>  -0.1600 
 13 C        1.0550     6.8820     0.0550 C.3   1 <1>  -0.0190 
 14 C        0.7390     8.3370    -0.2930 C.2   1 <1>   0.5690 
 15 O       -0.2580     8.5400    -0.9410 O.2   1 <1>  -0.5700 
 16 N        1.5850     9.3220     0.1400 N.am  1 <1>  -0.4940 
 17 C        1.4960    10.7210    -0.0820 C.2   1 <1>  -0.0880 
 18 N        2.3550    11.6520     0.4190 N.pl3 1 <1>   0.3140 
 19 C        0.5860    11.4130    -0.8080 C.2   1 <1>  -0.1500 
 20 N        2.0170    12.9010     0.0330 N.2   1 <1>  -0.7070 
 21 C        3.5200    11.4280     1.2980 C.3   1 <1>   0.0960 
 22 C        0.9620    12.7450    -0.6990 C.2   1 <1>   0.1080 
 23 C        4.7240    10.9120     0.4970 C.3   1 <1>  -0.1600 
 24 C        0.2460    13.9070    -1.3450 C.3   1 <1>  -0.0590 
 25 C        5.9210    10.6300     1.4140 C.3   1 <1>  -0.1600 
 26 C        7.1140    10.1060     0.6110 C.3   1 <1>  -0.2400 
 27 H        2.0680     2.1120    -0.0980 H     1 <1>   0.0800 
 28 H        1.3640     2.1470     1.5190 H     1 <1>   0.0800 
 29 H       -1.0310    -0.0960    -1.2410 H     1 <1>   0.0800 
 30 H        0.4930     0.0900    -2.0610 H     1 <1>   0.0800 
 31 H       -0.8500     2.4330     0.6000 H     1 <1>   0.0800 
 32 H       -1.3980     2.1340    -1.6760 H     1 <1>   0.0800 
 33 H        0.2630     2.3270    -2.2050 H     1 <1>   0.0800 
 34 H       -0.6730     4.4540    -0.7390 H     1 <1>   0.4500 
 35 H        1.4240     4.0360    -1.9080 H     1 <1>   0.0800 
 36 H        2.2440     4.3510    -0.3950 H     1 <1>   0.0800 
 37 H        0.9600     4.5680     1.6930 H     1 <1>   0.0800 
 38 H       -0.7830     4.4130     1.6760 H     1 <1>   0.0800 
 39 H        0.4270     6.2270    -1.9080 H     1 <1>   0.0800 
 40 H        2.1400     6.3870    -1.7380 H     1 <1>   0.0800 
 41 H       -0.0810     6.7690     1.8810 H     1 <1>   0.0800 
 42 H       -1.0300     6.4800     0.4640 H     1 <1>   0.0800 
 43 H        1.9700     6.8500     0.6200 H     1 <1>   0.0800 
 44 H        2.3940     9.0230     0.6790 H     1 <1>   0.3700 
 45 H       -0.2540    11.0360    -1.3610 H     1 <1>   0.1500 
 46 H        3.2410    10.7290     2.0630 H     1 <1>   0.0800 
 47 H        3.7670    12.3630     1.7670 H     1 <1>   0.0800 
 48 H        5.0010    11.6580    -0.2300 H     1 <1>   0.0800 
 49 H        4.4560    10.0130    -0.0280 H     1 <1>   0.0800 
 50 H       -0.6050    13.5610    -1.9020 H     1 <1>   0.0800 
 51 H        0.9190    14.4180    -2.0080 H     1 <1>   0.0800 
 52 H       -0.0830    14.5910    -0.5850 H     1 <1>   0.0800 
 53 H        5.6510     9.9020     2.1600 H     1 <1>   0.0800 
 54 H        6.2100    11.5360     1.9210 H     1 <1>   0.0800 
 55 H        6.8630     9.1880     0.1100 H     1 <1>   0.0800 
 56 H        7.9460     9.9190     1.2670 H     1 <1>   0.0800 
 57 H        7.4200    10.8300    -0.1250 H     1 <1>   0.0800 
@<TRIPOS>BOND
  1   1   2  2   
  2   1   3  2   
  3   1   4  1   
  4   1   5  1   
  5   4   6  1   
  6   4  27  1   
  7   4  28  1   
  8   5   7  1   
  9   5  29  1   
 10   5  30  1   
 11   6   7  1   
 12   6   8  1   
 13   6  31  1   
 14   7  32  1   
 15   7  33  1   
 16   8   9  1   
 17   8  10  1   
 18   8  34  1   
 19   9  11  1   
 20   9  35  1   
 21   9  36  1   
 22  10  12  1   
 23  10  37  1   
 24  10  38  1   
 25  11  13  1   
 26  11  39  1   
 27  11  40  1   
 28  12  13  1   
 29  12  41  1   
 30  12  42  1   
 31  13  14  1   
 32  13  43  1   
 33  14  15  2   
 34  14  16  am  
 35  16  17  1   
 36  16  44  1   
 37  17  18  1   
 38  17  19  2   
 39  18  20  1   
 40  18  21  1   
 41  19  22  1   
 42  19  45  1   
 43  20  22  2   
 44  21  23  1   
 45  21  46  1   
 46  21  47  1   
 47  22  24  1   
 48  23  25  1   
 49  23  48  1   
 50  23  49  1   
 51  24  50  1   
 52  24  51  1   
 53  24  52  1   
 54  25  26  1   
 55  25  53  1   
 56  25  54  1   
 57  26  55  1   
 58  26  56  1   
 59  26  57  1   
@<TRIPOS>SUBSTRUCTURE
  1 ****  13 GROUP 4 **** **** 0

# MOE 2024.06 (io_trps.svl 2023.06)
