@<TRIPOS>MOLECULE
NONAME
50 52 1 0 0 
SMALL
USER_CHARGES


@<TRIPOS>ATOM
  1 S        0.1550     2.5820     0.8750 S.o2  1 <1>   1.3330 
  2 O       -0.5540     3.7530     0.4260 O.2   1 <1>  -0.6500 
  3 O        1.2520     2.7450     1.8050 O.2   1 <1>  -0.6500 
  4 N        0.8320     1.8380    -0.4940 N.am  1 <1>  -0.8490 
  5 C       -1.0150     1.3820     1.4750 C.3   1 <1>  -0.1350 
  6 C        1.9210     0.8520    -0.3110 C.3   1 <1>   0.1960 
  7 C        0.8910     2.6310    -1.7270 C.3   1 <1>   0.1960 
  8 C        3.2780     1.4090     0.1980 C.3   1 <1>   0.3430 
  9 C        1.8980     3.7870    -1.6610 C.3   1 <1>  -0.1600 
 10 N        3.4180     2.8880     0.0550 N.4   1 <1>  -0.9590 
 11 C        3.3350     3.3800    -1.3440 C.3   1 <1>   0.3430 
 12 C        4.5740     3.4320     0.8090 C.3   1 <1>   0.5230 
 13 C        4.3830     4.9230     0.9470 C.2   1 <1>  -0.1400 
 14 S        5.3780     5.9540    -0.0680 S.3   1 <1>  -0.0800 
 15 C        3.5720     5.6650     1.7230 C.2   1 <1>  -0.1500 
 16 C        4.6560     7.4060     0.6110 C.2   1 <1>  -0.1400 
 17 C        3.7270     7.0740     1.5310 C.2   1 <1>  -0.1500 
 18 C        5.1710     8.7370     0.0800 C.3   1 <1>   0.3800 
 19 O        6.5290     8.8360     0.3930 O.3   1 <1>  -0.5600 
 20 C        4.4330     9.9430     0.6840 C.3   1 <1>  -0.1600 
 21 C        7.1790     9.9460    -0.1460 C.3   1 <1>   0.1200 
 22 C        5.0490    11.2630     0.2040 C.3   1 <1>  -0.1600 
 23 C        6.5660    11.2300     0.4270 C.3   1 <1>  -0.1600 
 24 H       -1.5120     1.7600     2.3470 H     1 <1>   0.0800 
 25 H       -0.5210     0.4670     1.7300 H     1 <1>   0.0800 
 26 H       -1.7530     1.1810     0.7230 H     1 <1>   0.0800 
 27 H        2.0930     0.3510    -1.2480 H     1 <1>   0.0800 
 28 H        1.5920     0.0930     0.3780 H     1 <1>   0.0800 
 29 H       -0.0890     3.0350    -1.9320 H     1 <1>   0.0800 
 30 H        1.1380     1.9850    -2.5530 H     1 <1>   0.0800 
 31 H        4.0830     0.9060    -0.3120 H     1 <1>   0.0800 
 32 H        3.3550     1.1580     1.2440 H     1 <1>   0.0800 
 33 H        1.5670     4.5340    -0.9610 H     1 <1>   0.0800 
 34 H        1.9010     4.2630    -2.6250 H     1 <1>   0.0800 
 35 H        2.5930     3.2730     0.5560 H     1 <1>   0.4500 
 36 H        3.9640     4.2460    -1.4660 H     1 <1>   0.0800 
 37 H        3.6730     2.6220    -2.0320 H     1 <1>   0.0800 
 38 H        5.5010     3.2170     0.3030 H     1 <1>   0.0800 
 39 H        4.6040     2.9960     1.7940 H     1 <1>   0.0800 
 40 H        2.8560     5.2910     2.4380 H     1 <1>   0.1500 
 41 H        3.1350     7.7690     2.1010 H     1 <1>   0.1500 
 42 H        5.0750     8.7460    -0.9930 H     1 <1>   0.0800 
 43 H        4.4970     9.8850     1.7560 H     1 <1>   0.0800 
 44 H        3.3950     9.9030     0.4090 H     1 <1>   0.0800 
 45 H        7.0880     9.9130    -1.2190 H     1 <1>   0.0800 
 46 H        8.2200     9.8760     0.1180 H     1 <1>   0.0800 
 47 H        4.6140    12.0920     0.7360 H     1 <1>   0.0800 
 48 H        4.8460    11.3930    -0.8460 H     1 <1>   0.0800 
 49 H        7.0240    12.0860    -0.0350 H     1 <1>   0.0800 
 50 H        6.7810    11.2710     1.4810 H     1 <1>   0.0800 
@<TRIPOS>BOND
  1   1   2  2   
  2   1   3  2   
  3   1   4  am  
  4   1   5  1   
  5   4   6  1   
  6   4   7  1   
  7   5  24  1   
  8   5  25  1   
  9   5  26  1   
 10   6   8  1   
 11   6  27  1   
 12   6  28  1   
 13   7   9  1   
 14   7  29  1   
 15   7  30  1   
 16   8  10  1   
 17   8  31  1   
 18   8  32  1   
 19   9  11  1   
 20   9  33  1   
 21   9  34  1   
 22  10  11  1   
 23  10  12  1   
 24  10  35  1   
 25  11  36  1   
 26  11  37  1   
 27  12  13  1   
 28  12  38  1   
 29  12  39  1   
 30  13  14  1   
 31  13  15  2   
 32  14  16  1   
 33  15  17  1   
 34  15  40  1   
 35  16  17  2   
 36  16  18  1   
 37  17  41  1   
 38  18  19  1   
 39  18  20  1   
 40  18  42  1   
 41  19  21  1   
 42  20  22  1   
 43  20  43  1   
 44  20  44  1   
 45  21  23  1   
 46  21  45  1   
 47  21  46  1   
 48  22  23  1   
 49  22  47  1   
 50  22  48  1   
 51  23  49  1   
 52  23  50  1   
@<TRIPOS>SUBSTRUCTURE
  1 ****  13 GROUP 4 **** **** 0

# MOE 2024.06 (io_trps.svl 2023.06)
