@<TRIPOS>MOLECULE
NONAME
57 60 1 0 0 
SMALL
USER_CHARGES


@<TRIPOS>ATOM
  1 O       -0.2960     0.8400     1.4620 O.2   1 <1>  -0.5700 
  2 C       -1.2490     1.1030     0.7650 C.2   1 <1>   0.5690 
  3 N       -2.2450     0.1900     0.5300 N.am  1 <1>  -0.6600 
  4 C       -1.3260     2.4880     0.1360 C.3   1 <1>  -0.0990 
  5 C       -3.3760     0.4390    -0.4160 C.3   1 <1>   0.1400 
  6 C       -2.2370    -1.1260     1.2400 C.3   1 <1>   0.1400 
  7 C       -0.3090     3.4860     0.7090 C.3   1 <1>  -0.0160 
  8 C       -4.0490    -0.8730    -0.8170 C.3   1 <1>  -0.1600 
  9 C       -3.6600    -1.5490     1.6140 C.3   1 <1>  -0.1600 
 10 C       -0.4800     4.8470     0.0520 C.ar  1 <1>  -0.1440 
 11 C       -4.6340    -1.5860     0.4160 C.3   1 <1>   0.4240 
 12 C        0.2120     5.1660    -1.1090 C.ar  1 <1>   0.1600 
 13 C       -1.3320     5.7860     0.5950 C.ar  1 <1>  -0.1500 
 14 O       -5.7490    -0.8330     0.8330 O.3   1 <1>  -0.5600 
 15 C       -5.0170    -3.0440     0.0790 C.ar  1 <1>  -0.1430 
 16 N        0.1200     6.3170    -1.7570 N.ar  1 <1>  -0.6200 
 17 C       -1.4390     6.9920    -0.0640 C.ar  1 <1>  -0.1500 
 18 C       -6.9780    -1.0830     0.2210 C.3   1 <1>   0.1200 
 19 C       -6.3320    -3.4820     0.1450 C.ar  1 <1>  -0.1440 
 20 C       -4.0390    -3.9550    -0.3000 C.ar  1 <1>  -0.1500 
 21 C       -0.7030     7.2020    -1.2180 C.ar  1 <1>   0.1600 
 22 C       -7.4180    -2.5060     0.5500 C.3   1 <1>  -0.0170 
 23 C       -6.6530    -4.7980    -0.1490 C.ar  1 <1>  -0.1500 
 24 C       -4.3410    -5.2700    -0.6110 C.ar  1 <1>   0.0820 
 25 C       -5.6710    -5.7120    -0.5230 C.ar  1 <1>   0.0820 
 26 O       -3.2640    -6.0220    -0.9800 O.3   1 <1>  -0.3630 
 27 O       -5.9820    -7.0160    -0.7830 O.3   1 <1>  -0.3620 
 28 C       -3.3930    -7.1460    -1.8210 C.3   1 <1>   0.0400 
 29 C       -7.2450    -7.5630    -0.4720 C.3   1 <1>   0.0400 
 30 H       -2.3130     2.8820     0.2920 H     1 <1>   0.0800 
 31 H       -1.1620     2.3890    -0.9210 H     1 <1>   0.0800 
 32 H       -3.0090     0.9300    -1.3000 H     1 <1>   0.0800 
 33 H       -4.0970     1.0820     0.0610 H     1 <1>   0.0800 
 34 H       -1.6430    -1.0600     2.1360 H     1 <1>   0.0800 
 35 H       -1.7840    -1.8640     0.6010 H     1 <1>   0.0800 
 36 H        0.6910     3.1240     0.5420 H     1 <1>   0.0800 
 37 H       -0.4480     3.5740     1.7730 H     1 <1>   0.0800 
 38 H       -3.3160    -1.4940    -1.2980 H     1 <1>   0.0800 
 39 H       -4.8170    -0.6870    -1.5420 H     1 <1>   0.0800 
 40 H       -4.0170    -0.8580     2.3580 H     1 <1>   0.0800 
 41 H       -3.6190    -2.5150     2.0810 H     1 <1>   0.0800 
 42 H        0.8790     4.4330    -1.5290 H     1 <1>   0.1500 
 43 H       -1.8910     5.5910     1.4940 H     1 <1>   0.1500 
 44 H       -2.0860     7.7640     0.3100 H     1 <1>   0.1500 
 45 H       -6.8820    -0.9460    -0.8410 H     1 <1>   0.0800 
 46 H       -7.6870    -0.3720     0.6050 H     1 <1>   0.0800 
 47 H       -3.0110    -3.6530    -0.3630 H     1 <1>   0.1500 
 48 H       -0.7960     8.1470    -1.7240 H     1 <1>   0.1500 
 49 H       -8.3310    -2.7240     0.0250 H     1 <1>   0.0800 
 50 H       -7.6050    -2.5880     1.6050 H     1 <1>   0.0800 
 51 H       -7.6810    -5.0930    -0.0810 H     1 <1>   0.1500 
 52 H       -2.4220    -7.3810    -2.2180 H     1 <1>   0.0800 
 53 H       -4.0720    -6.9100    -2.6210 H     1 <1>   0.0800 
 54 H       -3.7580    -7.9740    -1.2400 H     1 <1>   0.0800 
 55 H       -7.2080    -8.6190    -0.6670 H     1 <1>   0.0800 
 56 H       -7.9890    -7.1030    -1.0970 H     1 <1>   0.0800 
 57 H       -7.4530    -7.3910     0.5700 H     1 <1>   0.0800 
@<TRIPOS>BOND
  1   1   2  2   
  2   2   3  am  
  3   2   4  1   
  4   3   5  1   
  5   3   6  1   
  6   4   7  1   
  7   4  30  1   
  8   4  31  1   
  9   5   8  1   
 10   5  32  1   
 11   5  33  1   
 12   6   9  1   
 13   6  34  1   
 14   6  35  1   
 15   7  10  1   
 16   7  36  1   
 17   7  37  1   
 18   8  11  1   
 19   8  38  1   
 20   8  39  1   
 21   9  11  1   
 22   9  40  1   
 23   9  41  1   
 24  10  12  ar  
 25  10  13  ar  
 26  11  14  1   
 27  11  15  1   
 28  12  16  ar  
 29  12  42  1   
 30  13  17  ar  
 31  13  43  1   
 32  14  18  1   
 33  15  19  ar  
 34  15  20  ar  
 35  16  21  ar  
 36  17  21  ar  
 37  17  44  1   
 38  18  22  1   
 39  18  45  1   
 40  18  46  1   
 41  19  22  1   
 42  19  23  ar  
 43  20  24  ar  
 44  20  47  1   
 45  21  48  1   
 46  22  49  1   
 47  22  50  1   
 48  23  25  ar  
 49  23  51  1   
 50  24  25  ar  
 51  24  26  1   
 52  25  27  1   
 53  26  28  1   
 54  27  29  1   
 55  28  52  1   
 56  28  53  1   
 57  28  54  1   
 58  29  55  1   
 59  29  56  1   
 60  29  57  1   
@<TRIPOS>SUBSTRUCTURE
  1 ****   8 GROUP 4 **** **** 0

# MOE 2024.06 (io_trps.svl 2023.06)
