@<TRIPOS>MOLECULE
NONAME
43 45 1 0 0 
SMALL
USER_CHARGES


@<TRIPOS>ATOM
  1 O       -0.5540    -0.1690     2.0620 O.3   1 <1>  -0.5600 
  2 C        0.5790     0.1450     1.3050 C.3   1 <1>   0.1200 
  3 C       -1.7090     0.3490     1.4650 C.3   1 <1>   0.1200 
  4 C        0.1850     1.3030     0.3940 C.3   1 <1>   0.2890 
  5 C       -1.2780     0.9820     0.1410 C.3   1 <1>  -0.0800 
  6 N        0.3260     2.5850     1.1260 N.pl3 1 <1>  -0.8690 
  7 C       -2.1540     2.1650    -0.3110 C.3   1 <1>  -0.0170 
  8 C        0.9280     3.6880     0.6280 C.ar  1 <1>   0.7200 
  9 C       -3.5750     1.7090    -0.6010 C.ar  1 <1>  -0.1440 
 10 N        1.3930     4.5050     1.5490 N.ar  1 <1>  -0.6200 
 11 N        0.9740     3.8200    -0.6850 N.ar  1 <1>  -0.6200 
 12 C       -4.5900     1.8420     0.3250 C.ar  1 <1>  -0.1500 
 13 C       -3.9220     1.1350    -1.8070 C.ar  1 <1>  -0.1500 
 14 C        1.9700     5.5890     1.0930 C.ar  1 <1>   0.3930 
 15 C        1.5540     4.9120    -1.1150 C.ar  1 <1>   0.3930 
 16 C       -5.8650     1.4020     0.0100 C.ar  1 <1>   0.1600 
 17 C       -5.2290     0.7290    -2.0210 C.ar  1 <1>   0.1600 
 18 O        2.4430     6.4190     2.0440 O.3   1 <1>  -0.3630 
 19 C        2.0810     5.8510    -0.2550 C.ar  1 <1>  -0.1500 
 20 O        1.5920     5.0390    -2.4570 O.3   1 <1>  -0.3630 
 21 N       -6.2090     0.8460    -1.1400 N.ar  1 <1>  -0.6200 
 22 C        3.0900     7.6380     1.7530 C.3   1 <1>   0.0400 
 23 C        2.1500     6.1570    -3.1100 C.3   1 <1>   0.0400 
 24 H        1.3960     0.3920     1.9600 H     1 <1>   0.0800 
 25 H        0.8280    -0.7230     0.7210 H     1 <1>   0.0800 
 26 H       -2.4230    -0.4430     1.3230 H     1 <1>   0.0800 
 27 H       -2.1110     1.0900     2.1340 H     1 <1>   0.0800 
 28 H        0.7680     1.3090    -0.5120 H     1 <1>   0.0800 
 29 H       -1.3240     0.2180    -0.6140 H     1 <1>   0.0800 
 30 H        0.3890     2.5100     2.1400 H     1 <1>   0.4000 
 31 H       -1.7290     2.6040    -1.1970 H     1 <1>   0.0800 
 32 H       -2.1720     2.9300     0.4460 H     1 <1>   0.0800 
 33 H       -4.4010     2.2840     1.2860 H     1 <1>   0.1500 
 34 H       -3.1890     1.0020    -2.5810 H     1 <1>   0.1500 
 35 H       -6.6440     1.5140     0.7460 H     1 <1>   0.1500 
 36 H       -5.4810     0.2840    -2.9690 H     1 <1>   0.1500 
 37 H        2.5520     6.7380    -0.6160 H     1 <1>   0.1500 
 38 H        3.3620     8.1000     2.6860 H     1 <1>   0.0800 
 39 H        2.4120     8.2760     1.2160 H     1 <1>   0.0800 
 40 H        3.9750     7.4370     1.1760 H     1 <1>   0.0800 
 41 H        2.0420     6.0110    -4.1700 H     1 <1>   0.0800 
 42 H        3.1940     6.2270    -2.8580 H     1 <1>   0.0800 
 43 H        1.6170     7.0420    -2.8090 H     1 <1>   0.0800 
@<TRIPOS>BOND
  1   1   2  1   
  2   1   3  1   
  3   2   4  1   
  4   2  24  1   
  5   2  25  1   
  6   3   5  1   
  7   3  26  1   
  8   3  27  1   
  9   4   5  1   
 10   4   6  1   
 11   4  28  1   
 12   5   7  1   
 13   5  29  1   
 14   6   8  1   
 15   6  30  1   
 16   7   9  1   
 17   7  31  1   
 18   7  32  1   
 19   8  10  ar  
 20   8  11  ar  
 21   9  12  ar  
 22   9  13  ar  
 23  10  14  ar  
 24  11  15  ar  
 25  12  16  ar  
 26  12  33  1   
 27  13  17  ar  
 28  13  34  1   
 29  14  18  1   
 30  14  19  ar  
 31  15  19  ar  
 32  15  20  1   
 33  16  21  ar  
 34  16  35  1   
 35  17  21  ar  
 36  17  36  1   
 37  18  22  1   
 38  19  37  1   
 39  20  23  1   
 40  22  38  1   
 41  22  39  1   
 42  22  40  1   
 43  23  41  1   
 44  23  42  1   
 45  23  43  1   
@<TRIPOS>SUBSTRUCTURE
  1 ****   6 GROUP 4 **** **** 0

# MOE 2024.06 (io_trps.svl 2023.06)
