@<TRIPOS>MOLECULE
NONAME
56 58 1 0 0 
SMALL
USER_CHARGES


@<TRIPOS>ATOM
  1 O       -1.5920     0.1410     3.5370 O.2   1 <1>  -0.5700 
  2 C       -1.5710     0.7100     2.4720 C.2   1 <1>   0.5690 
  3 N       -1.9100     0.0910     1.3180 N.am  1 <1>  -0.7300 
  4 C       -1.1330     2.1790     2.4050 C.3   1 <1>   0.1710 
  5 C       -2.2720    -1.3220     1.1530 C.3   1 <1>   0.2840 
  6 N       -0.6450     2.6280     1.0630 N.3   1 <1>  -0.8100 
  7 C       -3.2200    -1.4420    -0.0290 C.ar  1 <1>  -0.1440 
  8 C       -0.6080     4.1040     0.9960 C.3   1 <1>   0.1100 
  9 C        0.6490     2.0070     0.7340 C.3   1 <1>   0.1100 
 10 C       -2.7400    -1.3940    -1.3360 C.ar  1 <1>   0.0820 
 11 C       -4.5790    -1.6000     0.1990 C.ar  1 <1>  -0.1500 
 12 C       -0.2830     4.6670    -0.3990 C.3   1 <1>   0.2090 
 13 C        0.8470     1.9850    -0.7830 C.3   1 <1>  -0.1600 
 14 O       -1.4020    -1.2230    -1.5130 O.3   1 <1>  -0.3630 
 15 C       -3.6330    -1.5140    -2.3990 C.ar  1 <1>  -0.1500 
 16 C       -5.4600    -1.7180    -0.8610 C.ar  1 <1>  -0.1500 
 17 N        1.1650     4.5030    -0.7430 N.pl3 1 <1>  -0.8380 
 18 C        1.5800     3.2070    -1.3510 C.3   1 <1>   0.2090 
 19 C       -0.8270    -1.1640    -2.7990 C.3   1 <1>   0.0400 
 20 C       -4.9860    -1.6760    -2.1600 C.ar  1 <1>  -0.1500 
 21 C        2.0620     5.4970    -0.5390 C.ar  1 <1>   0.1000 
 22 C        2.1340     6.6450    -1.3500 C.ar  1 <1>  -0.1440 
 23 C        2.9720     5.3900     0.5170 C.ar  1 <1>  -0.1500 
 24 C        3.0690     7.6120    -1.0750 C.ar  1 <1>   0.2110 
 25 C        1.1940     6.8090    -2.5420 C.3   1 <1>  -0.0970 
 26 C        3.8900     6.3760     0.7570 C.ar  1 <1>   0.2110 
 27 N        3.9300     7.4760    -0.0340 N.ar  1 <1>  -0.1790 
 28 H       -1.7990     0.6200     0.4480 H     1 <1>   0.3700 
 29 H       -0.3680     2.3420     3.1430 H     1 <1>   0.0800 
 30 H       -1.9900     2.7650     2.6850 H     1 <1>   0.0800 
 31 H       -2.7360    -1.6860     2.0540 H     1 <1>   0.0800 
 32 H       -1.3820    -1.8990     0.9730 H     1 <1>   0.0800 
 33 H        0.1010     4.4900     1.7070 H     1 <1>   0.0800 
 34 H       -1.5810     4.4760     1.2680 H     1 <1>   0.0800 
 35 H        0.6530     0.9850     1.0750 H     1 <1>   0.0800 
 36 H        1.4580     2.5200     1.2260 H     1 <1>   0.0800 
 37 H       -4.9570    -1.6290     1.2070 H     1 <1>   0.1500 
 38 H       -0.5200     5.7150    -0.3950 H     1 <1>   0.0800 
 39 H       -0.9040     4.1940    -1.1410 H     1 <1>   0.0800 
 40 H       -0.1030     1.8630    -1.2710 H     1 <1>   0.0800 
 41 H        1.4320     1.1200    -1.0330 H     1 <1>   0.0800 
 42 H       -3.2970    -1.4840    -3.4170 H     1 <1>   0.1500 
 43 H       -6.5120    -1.8400    -0.6750 H     1 <1>   0.1500 
 44 H        1.4130     3.2520    -2.4130 H     1 <1>   0.0800 
 45 H        2.6370     3.0790    -1.1940 H     1 <1>   0.0800 
 46 H        0.2330    -1.0310    -2.6850 H     1 <1>   0.0800 
 47 H       -1.2460    -0.3270    -3.3300 H     1 <1>   0.0800 
 48 H       -1.0270    -2.0870    -3.3130 H     1 <1>   0.0800 
 49 H       -5.6720    -1.7690    -2.9840 H     1 <1>   0.1500 
 50 H        2.9250     4.5130     1.1370 H     1 <1>   0.1500 
 51 H        3.1410     8.5000    -1.6830 H     1 <1>   0.1500 
 52 H        1.1820     5.9060    -3.1280 H     1 <1>   0.0800 
 53 H        1.5020     7.6170    -3.1810 H     1 <1>   0.0800 
 54 H        0.1940     7.0060    -2.2030 H     1 <1>   0.0800 
 55 H        4.5900     6.2950     1.5740 H     1 <1>   0.1500 
 56 H        4.6210     8.2110     0.1520 H     1 <1>   0.4570 
@<TRIPOS>BOND
  1   1   2  2   
  2   2   3  am  
  3   2   4  1   
  4   3   5  1   
  5   3  28  1   
  6   4   6  1   
  7   4  29  1   
  8   4  30  1   
  9   5   7  1   
 10   5  31  1   
 11   5  32  1   
 12   6   8  1   
 13   6   9  1   
 14   7  10  ar  
 15   7  11  ar  
 16   8  12  1   
 17   8  33  1   
 18   8  34  1   
 19   9  13  1   
 20   9  35  1   
 21   9  36  1   
 22  10  14  1   
 23  10  15  ar  
 24  11  16  ar  
 25  11  37  1   
 26  12  17  1   
 27  12  38  1   
 28  12  39  1   
 29  13  18  1   
 30  13  40  1   
 31  13  41  1   
 32  14  19  1   
 33  15  20  ar  
 34  15  42  1   
 35  16  20  ar  
 36  16  43  1   
 37  17  18  1   
 38  17  21  1   
 39  18  44  1   
 40  18  45  1   
 41  19  46  1   
 42  19  47  1   
 43  19  48  1   
 44  20  49  1   
 45  21  22  ar  
 46  21  23  ar  
 47  22  24  ar  
 48  22  25  1   
 49  23  26  ar  
 50  23  50  1   
 51  24  27  ar  
 52  24  51  1   
 53  25  52  1   
 54  25  53  1   
 55  25  54  1   
 56  26  27  ar  
 57  26  55  1   
 58  27  56  1   
@<TRIPOS>SUBSTRUCTURE
  1 ****   6 GROUP 4 **** **** 0

# MOE 2024.06 (io_trps.svl 2023.06)
