@<TRIPOS>MOLECULE
NONAME
40 42 1 0 0 
SMALL
USER_CHARGES


@<TRIPOS>ATOM
  1 O        0.9250    -0.6540    -1.1910 O.3   1 <1>  -0.0190 
  2 N        1.1400     0.6240    -1.3140 N.2   1 <1>  -0.4100 
  3 C        1.2580    -1.0920    -0.0050 C.2   1 <1>  -0.0400 
  4 C        1.6190     1.0140    -0.1870 C.2   1 <1>   0.1080 
  5 C        1.7230    -0.0510     0.7020 C.2   1 <1>  -0.1500 
  6 C        1.0900    -2.5620     0.3390 C.3   1 <1>   0.2900 
  7 C        2.0130     2.4410     0.1210 C.3   1 <1>  -0.0590 
  8 N       -0.2600    -2.8490     0.8510 N.3   1 <1>  -0.8100 
  9 C       -1.3370    -2.4810    -0.0830 C.3   1 <1>   0.1100 
 10 C       -0.4530    -4.2720     1.1930 C.3   1 <1>   0.1100 
 11 C       -2.5150    -3.3570     0.3260 C.3   1 <1>   0.2000 
 12 C       -1.8420    -4.6820     0.6720 C.3   1 <1>  -0.0800 
 13 O       -3.0430    -2.8280     1.4870 O.3   1 <1>  -0.6800 
 14 C       -1.7490    -5.5940    -0.5670 C.3   1 <1>   0.0210 
 15 C       -0.9910    -6.8770    -0.2810 C.2   1 <1>   0.1080 
 16 N       -1.3280    -7.7030     0.6600 N.2   1 <1>  -0.7070 
 17 C        0.1330    -7.3070    -0.9790 C.2   1 <1>  -0.1500 
 18 N       -0.4210    -8.6950     0.5850 N.pl3 1 <1>   0.3000 
 19 C        0.4770    -8.4760    -0.3990 C.2   1 <1>  -0.3320 
 20 C        1.6220    -9.4150    -0.7300 C.3   1 <1>  -0.0600 
 21 H        2.0880    -0.0170     1.7110 H     1 <1>   0.1500 
 22 H        1.8060    -2.8200     1.0990 H     1 <1>   0.0800 
 23 H        1.2940    -3.1580    -0.5340 H     1 <1>   0.0800 
 24 H        1.4200     2.8140     0.9350 H     1 <1>   0.0800 
 25 H        1.8500     3.0620    -0.7420 H     1 <1>   0.0800 
 26 H        3.0530     2.4830     0.3880 H     1 <1>   0.0800 
 27 H       -1.5760    -1.4320    -0.0170 H     1 <1>   0.0800 
 28 H       -1.0490    -2.7130    -1.0930 H     1 <1>   0.0800 
 29 H        0.3220    -4.8880     0.7690 H     1 <1>   0.0800 
 30 H       -0.4200    -4.3800     2.2640 H     1 <1>   0.0800 
 31 H       -3.2940    -3.4280    -0.4130 H     1 <1>   0.0800 
 32 H       -2.3920    -5.2080     1.4330 H     1 <1>   0.0800 
 33 H       -2.2780    -2.5810     2.0490 H     1 <1>   0.4000 
 34 H       -1.2650    -5.0770    -1.3750 H     1 <1>   0.0800 
 35 H       -2.7410    -5.8570    -0.8870 H     1 <1>   0.0800 
 36 H        0.6040    -6.7990    -1.8000 H     1 <1>   0.1500 
 37 H       -0.4440    -9.5040     1.2170 H     1 <1>   0.2700 
 38 H        2.1950    -9.0250    -1.5520 H     1 <1>   0.0800 
 39 H        1.2420   -10.3820    -1.0080 H     1 <1>   0.0800 
 40 H        2.2730    -9.5240     0.1200 H     1 <1>   0.0800 
@<TRIPOS>BOND
  1   1   2  1   
  2   1   3  1   
  3   2   4  2   
  4   3   5  2   
  5   3   6  1   
  6   4   5  1   
  7   4   7  1   
  8   5  21  1   
  9   6   8  1   
 10   6  22  1   
 11   6  23  1   
 12   7  24  1   
 13   7  25  1   
 14   7  26  1   
 15   8   9  1   
 16   8  10  1   
 17   9  11  1   
 18   9  27  1   
 19   9  28  1   
 20  10  12  1   
 21  10  29  1   
 22  10  30  1   
 23  11  12  1   
 24  11  13  1   
 25  11  31  1   
 26  12  14  1   
 27  12  32  1   
 28  13  33  1   
 29  14  15  1   
 30  14  34  1   
 31  14  35  1   
 32  15  16  2   
 33  15  17  1   
 34  16  18  1   
 35  17  19  2   
 36  17  36  1   
 37  18  19  1   
 38  18  37  1   
 39  19  20  1   
 40  20  38  1   
 41  20  39  1   
 42  20  40  1   
@<TRIPOS>SUBSTRUCTURE
  1 ****   8 GROUP 4 **** **** 0

# MOE 2024.06 (io_trps.svl 2023.06)
