@<TRIPOS>MOLECULE
NONAME
38 41 1 0 0 
SMALL
USER_CHARGES


@<TRIPOS>ATOM
  1 O        0.7550     0.6880     1.2740 O.2   1 <1>  -0.5700 
  2 C        1.0440     1.7810     0.8640 C.2   1 <1>   0.4230 
  3 C        2.2750     2.2040     0.2770 C.ar  1 <1>   0.0860 
  4 C        0.0880     2.9520     0.9210 C.3   1 <1>  -0.0990 
  5 C        2.2260     3.5420    -0.0580 C.ar  1 <1>  -0.1440 
  6 C        3.4310     1.4740     0.0290 C.ar  1 <1>  -0.1500 
  7 C        0.8680     4.1290     0.2980 C.3   1 <1>  -0.0160 
  8 C        3.3070     4.2050    -0.6350 C.ar  1 <1>   0.0860 
  9 C        4.5190     2.0990    -0.5520 C.ar  1 <1>  -0.1500 
 10 C        3.2620     5.6170    -0.9560 C.2   1 <1>   0.5440 
 11 C        4.4550     3.4440    -0.8790 C.ar  1 <1>  -0.1500 
 12 O        2.3210     6.0820    -1.5710 O.2   1 <1>  -0.5700 
 13 N        4.2820     6.4250    -0.5410 N.am  1 <1>  -0.4930 
 14 C        4.4210     7.8340    -0.6440 C.2   1 <1>   0.0630 
 15 C        5.5090     8.5330    -0.2420 C.2   1 <1>  -0.0680 
 16 C        3.5240     8.7980    -1.1120 C.2   1 <1>   0.1390 
 17 N        5.2100     9.8420    -0.4520 N.pl3 1 <1>   0.3140 
 18 N        6.7400     8.0830     0.2980 N.pl3 1 <1>  -0.8530 
 19 N        3.9860    10.0100    -1.0040 N.2   1 <1>  -0.7070 
 20 C        6.1310    10.9430    -0.1370 C.3   1 <1>   0.0960 
 21 C        7.8060     9.1120     0.4530 C.3   1 <1>   0.2090 
 22 C        7.2020    10.4640     0.8620 C.3   1 <1>  -0.1600 
 23 H       -0.1760     3.1570     1.9430 H     1 <1>   0.0800 
 24 H       -0.7970     2.7280     0.3550 H     1 <1>   0.0800 
 25 H        3.4610     0.4300     0.2920 H     1 <1>   0.1500 
 26 H        0.9750     4.9380     1.0010 H     1 <1>   0.0800 
 27 H        0.3710     4.4890    -0.5870 H     1 <1>   0.0800 
 28 H        5.4150     1.5360    -0.7520 H     1 <1>   0.1500 
 29 H        5.3080     3.9120    -1.3410 H     1 <1>   0.1500 
 30 H        4.9950     6.0050     0.0540 H     1 <1>   0.3700 
 31 H        2.5530     8.5660    -1.5150 H     1 <1>   0.1500 
 32 H        7.1030     7.2560    -0.1920 H     1 <1>   0.4000 
 33 H        5.5650    11.7590     0.2730 H     1 <1>   0.0800 
 34 H        6.5890    11.2600    -1.0550 H     1 <1>   0.0800 
 35 H        8.3360     9.2150    -0.4800 H     1 <1>   0.0800 
 36 H        8.5030     8.7850     1.2060 H     1 <1>   0.0800 
 37 H        6.7570    10.3640     1.8370 H     1 <1>   0.0800 
 38 H        7.9800    11.2020     0.9340 H     1 <1>   0.0800 
@<TRIPOS>BOND
  1   1   2  2   
  2   2   3  1   
  3   2   4  1   
  4   3   5  ar  
  5   3   6  ar  
  6   4   7  1   
  7   4  23  1   
  8   4  24  1   
  9   5   7  1   
 10   5   8  ar  
 11   6   9  ar  
 12   6  25  1   
 13   7  26  1   
 14   7  27  1   
 15   8  10  1   
 16   8  11  ar  
 17   9  11  ar  
 18   9  28  1   
 19  10  12  2   
 20  10  13  am  
 21  11  29  1   
 22  13  14  1   
 23  13  30  1   
 24  14  15  2   
 25  14  16  1   
 26  15  17  1   
 27  15  18  1   
 28  16  19  2   
 29  16  31  1   
 30  17  19  1   
 31  17  20  1   
 32  18  21  1   
 33  18  32  1   
 34  20  22  1   
 35  20  33  1   
 36  20  34  1   
 37  21  22  1   
 38  21  35  1   
 39  21  36  1   
 40  22  37  1   
 41  22  38  1   
@<TRIPOS>SUBSTRUCTURE
  1 ****  13 GROUP 4 **** **** 0

# MOE 2024.06 (io_trps.svl 2023.06)
