@<TRIPOS>MOLECULE
NONAME
51 54 1 0 0 
SMALL
USER_CHARGES


@<TRIPOS>ATOM
  1 O       -0.2860     0.7330    -1.2480 O.2   1 <1>  -0.5700 
  2 C       -0.2610     1.8450    -0.7740 C.2   1 <1>   0.5690 
  3 N       -1.3370     2.4110    -0.1410 N.am  1 <1>  -0.5090 
  4 C        1.0290     2.6500    -0.9360 C.3   1 <1>   0.1810 
  5 C       -1.3310     3.8520     0.2740 C.3   1 <1>   0.3640 
  6 C       -2.5670     1.6460     0.1820 C.3   1 <1>   0.0490 
  7 O        1.0860     3.7810    -0.1030 O.3   1 <1>  -0.5600 
  8 C       -2.5610     4.5640    -0.2900 C.ar  1 <1>  -0.1440 
  9 C       -0.0570     4.6100    -0.1770 C.3   1 <1>   0.2610 
 10 C       -3.0100     1.5590     1.6100 C.3   1 <1>  -0.2000 
 11 C       -2.4570     0.3520     0.9250 C.3   1 <1>  -0.2000 
 12 C       -3.3060     5.4040     0.5270 C.ar  1 <1>   0.1600 
 13 C       -2.9540     4.4060    -1.6070 C.ar  1 <1>  -0.1500 
 14 C        0.1540     5.9070     0.6260 C.2   1 <1>   0.5690 
 15 N       -4.3810     6.0760     0.1450 N.ar  1 <1>  -0.6200 
 16 C       -4.0710     5.0990    -2.0190 C.ar  1 <1>  -0.1500 
 17 O       -0.4440     6.0360     1.6740 O.2   1 <1>  -0.5700 
 18 N        0.9830     6.9060     0.1610 N.am  1 <1>  -0.6600 
 19 C       -4.7380     5.9080    -1.1170 C.ar  1 <1>   0.1600 
 20 C        1.1630     8.1740     0.9250 C.3   1 <1>   0.1400 
 21 C        1.8800     6.7850    -1.0230 C.3   1 <1>   0.1400 
 22 C        2.6150     8.2930     1.3940 C.3   1 <1>  -0.1600 
 23 C        3.3370     6.8850    -0.5700 C.3   1 <1>  -0.1600 
 24 C        3.5810     8.1780     0.2090 C.3   1 <1>   0.2000 
 25 O        4.8910     8.1300     0.6730 O.3   1 <1>  -0.5600 
 26 C        5.4730     9.3620     0.9670 C.3   1 <1>   0.0400 
 27 H        1.1260     2.9720    -1.9560 H     1 <1>   0.0800 
 28 H        1.8680     2.0240    -0.6910 H     1 <1>   0.0800 
 29 H       -1.3760     3.8650     1.3490 H     1 <1>   0.0800 
 30 H       -3.3180     1.7240    -0.5870 H     1 <1>   0.1000 
 31 H       -0.1840     4.8880    -1.2060 H     1 <1>   0.0800 
 32 H       -2.4170     2.0050     2.3890 H     1 <1>   0.1000 
 33 H       -4.0630     1.5830     1.8250 H     1 <1>   0.1000 
 34 H       -3.1280    -0.4460     0.6640 H     1 <1>   0.1000 
 35 H       -1.4770    -0.0040     1.1910 H     1 <1>   0.1000 
 36 H       -3.0020     5.5390     1.5530 H     1 <1>   0.1500 
 37 H       -2.4220     3.7640    -2.2890 H     1 <1>   0.1500 
 38 H       -4.4270     5.0140    -3.0300 H     1 <1>   0.1500 
 39 H       -5.6110     6.4450    -1.4480 H     1 <1>   0.1500 
 40 H        0.9120     9.0050     0.2880 H     1 <1>   0.0800 
 41 H        0.5080     8.2060     1.7790 H     1 <1>   0.0800 
 42 H        1.7390     5.8510    -1.5340 H     1 <1>   0.0800 
 43 H        1.6570     7.5800    -1.7140 H     1 <1>   0.0800 
 44 H        2.8150     7.5080     2.1020 H     1 <1>   0.0800 
 45 H        2.7400     9.2390     1.8860 H     1 <1>   0.0800 
 46 H        3.9810     6.8590    -1.4290 H     1 <1>   0.0800 
 47 H        3.5650     6.0380     0.0540 H     1 <1>   0.0800 
 48 H        3.4720     9.0200    -0.4540 H     1 <1>   0.0800 
 49 H        6.4880     9.1830     1.2740 H     1 <1>   0.0800 
 50 H        4.9340     9.8350     1.7680 H     1 <1>   0.0800 
 51 H        5.4670     9.9790     0.0850 H     1 <1>   0.0800 
@<TRIPOS>BOND
  1   1   2  2   
  2   2   3  am  
  3   2   4  1   
  4   3   5  1   
  5   3   6  1   
  6   4   7  1   
  7   4  27  1   
  8   4  28  1   
  9   5   8  1   
 10   5   9  1   
 11   5  29  1   
 12   6  10  1   
 13   6  11  1   
 14   6  30  1   
 15   7   9  1   
 16   8  12  ar  
 17   8  13  ar  
 18   9  14  1   
 19   9  31  1   
 20  10  11  1   
 21  10  32  1   
 22  10  33  1   
 23  11  34  1   
 24  11  35  1   
 25  12  15  ar  
 26  12  36  1   
 27  13  16  ar  
 28  13  37  1   
 29  14  17  2   
 30  14  18  am  
 31  15  19  ar  
 32  16  19  ar  
 33  16  38  1   
 34  18  20  1   
 35  18  21  1   
 36  19  39  1   
 37  20  22  1   
 38  20  40  1   
 39  20  41  1   
 40  21  23  1   
 41  21  42  1   
 42  21  43  1   
 43  22  24  1   
 44  22  44  1   
 45  22  45  1   
 46  23  24  1   
 47  23  46  1   
 48  23  47  1   
 49  24  25  1   
 50  24  48  1   
 51  25  26  1   
 52  26  49  1   
 53  26  50  1   
 54  26  51  1   
@<TRIPOS>SUBSTRUCTURE
  1 ****   9 GROUP 4 **** **** 0

# MOE 2024.06 (io_trps.svl 2023.06)
