@<TRIPOS>MOLECULE
NONAME
47 49 1 0 0 
SMALL
USER_CHARGES


@<TRIPOS>ATOM
  1 S       -0.0420    -0.0890     0.1970 S.o2  1 <1>   1.3330 
  2 O       -0.7360     1.1650     0.3830 O.2   1 <1>  -0.6500 
  3 O        0.2250    -0.9320     1.3410 O.2   1 <1>  -0.6500 
  4 N       -0.9040    -1.0140    -0.9360 N.am  1 <1>  -0.8490 
  5 C        1.4890     0.2600    -0.6700 C.3   1 <1>  -0.0550 
  6 C       -0.5650    -2.4410    -0.9030 C.3   1 <1>   0.1160 
  7 C       -2.3540    -0.8430    -0.8060 C.3   1 <1>   0.1160 
  8 C        2.4400     1.1880     0.1100 C.3   1 <1>  -0.0800 
  9 C        3.6030     1.6360    -0.7580 C.3   1 <1>   0.2200 
 10 C        3.1530     0.4570     1.2550 C.3   1 <1>   0.1200 
 11 N        4.1440     2.9050    -0.2220 N.am  1 <1>  -0.7300 
 12 C        4.6100     0.5150    -0.5340 C.3   1 <1>   0.1200 
 13 O        4.4040     0.0630     0.7710 O.3   1 <1>  -0.5600 
 14 C        4.1780     4.0950    -0.8940 C.2   1 <1>   0.5440 
 15 O        3.7620     4.1200    -2.0360 O.2   1 <1>  -0.5700 
 16 C        4.7060     5.2920    -0.2670 C.ar  1 <1>   0.0860 
 17 C        5.2660     6.3140    -1.0340 C.ar  1 <1>  -0.1500 
 18 C        4.6760     5.4780     1.1200 C.ar  1 <1>  -0.1500 
 19 C        5.7760     7.4580    -0.4540 C.ar  1 <1>   0.0820 
 20 C        5.1870     6.6190     1.7120 C.ar  1 <1>  -0.1500 
 21 O        6.3210     8.4090    -1.2650 O.3   1 <1>  -0.3620 
 22 C        5.7450     7.6220     0.9340 C.ar  1 <1>   0.1170 
 23 C        6.5210     9.7380    -0.7720 C.3   1 <1>   0.1810 
 24 N        6.2760     8.7790     1.4980 N.am  1 <1>  -0.5470 
 25 C        6.7150     9.8130     0.7420 C.2   1 <1>   0.5690 
 26 O        7.2250    10.7810     1.2490 O.2   1 <1>  -0.5700 
 27 H        1.9890    -0.6610    -0.9000 H     1 <1>   0.0800 
 28 H        1.2360     0.7350    -1.5990 H     1 <1>   0.0800 
 29 H       -1.0690    -2.9590    -1.7010 H     1 <1>   0.0800 
 30 H       -0.8590    -2.8760     0.0380 H     1 <1>   0.0800 
 31 H        0.4960    -2.5740    -1.0280 H     1 <1>   0.0800 
 32 H       -2.8680    -1.4300    -1.5480 H     1 <1>   0.0800 
 33 H       -2.6190     0.1910    -0.9550 H     1 <1>   0.0800 
 34 H       -2.6800    -1.1450     0.1760 H     1 <1>   0.0800 
 35 H        1.8790     2.0340     0.4710 H     1 <1>   0.0800 
 36 H        3.3420     1.7420    -1.7980 H     1 <1>   0.0800 
 37 H        2.6290    -0.4150     1.6040 H     1 <1>   0.0800 
 38 H        3.3220     1.1220     2.0840 H     1 <1>   0.0800 
 39 H        4.6240     2.8100     0.6740 H     1 <1>   0.3700 
 40 H        5.6280     0.8430    -0.6490 H     1 <1>   0.0800 
 41 H        4.4160    -0.3090    -1.1990 H     1 <1>   0.0800 
 42 H        5.3030     6.2110    -2.1050 H     1 <1>   0.1500 
 43 H        4.2360     4.7210     1.7440 H     1 <1>   0.1500 
 44 H        5.1500     6.7330     2.7810 H     1 <1>   0.1500 
 45 H        7.3840    10.1430    -1.2670 H     1 <1>   0.0800 
 46 H        5.6590    10.3170    -1.0430 H     1 <1>   0.0800 
 47 H        6.3890     8.8740     2.5060 H     1 <1>   0.3700 
@<TRIPOS>BOND
  1   1   2  2   
  2   1   3  2   
  3   1   4  am  
  4   1   5  1   
  5   4   6  1   
  6   4   7  1   
  7   5   8  1   
  8   5  27  1   
  9   5  28  1   
 10   6  29  1   
 11   6  30  1   
 12   6  31  1   
 13   7  32  1   
 14   7  33  1   
 15   7  34  1   
 16   8   9  1   
 17   8  10  1   
 18   8  35  1   
 19   9  11  1   
 20   9  12  1   
 21   9  36  1   
 22  10  13  1   
 23  10  37  1   
 24  10  38  1   
 25  11  14  am  
 26  11  39  1   
 27  12  13  1   
 28  12  40  1   
 29  12  41  1   
 30  14  15  2   
 31  14  16  1   
 32  16  17  ar  
 33  16  18  ar  
 34  17  19  ar  
 35  17  42  1   
 36  18  20  ar  
 37  18  43  1   
 38  19  21  1   
 39  19  22  ar  
 40  20  22  ar  
 41  20  44  1   
 42  21  23  1   
 43  22  24  1   
 44  23  25  1   
 45  23  45  1   
 46  23  46  1   
 47  24  25  am  
 48  24  47  1   
 49  25  26  2   
@<TRIPOS>SUBSTRUCTURE
  1 ****  11 GROUP 4 **** **** 0

# MOE 2024.06 (io_trps.svl 2023.06)
