@<TRIPOS>MOLECULE
NONAME
43 45 1 0 0 
SMALL
USER_CHARGES


@<TRIPOS>ATOM
  1 S       -0.4620     0.1490    -0.5810 S.o2  1 <1>   1.0900 
  2 O       -1.6560     0.5270    -1.3010 O.2   1 <1>  -0.6500 
  3 O       -0.1340    -1.2460    -0.3980 O.2   1 <1>  -0.6500 
  4 C        0.9420     0.9680    -1.3330 C.3   1 <1>  -0.0550 
  5 C       -0.5010     0.9320     1.0300 C.3   1 <1>  -0.0550 
  6 C        0.8660     2.5000    -1.2290 C.3   1 <1>  -0.1600 
  7 C       -0.4680     2.4680     0.9500 C.3   1 <1>  -0.1600 
  8 C        0.7860     2.9720     0.2270 C.3   1 <1>   0.2890 
  9 N        0.7410     4.4350     0.2240 N.pl3 1 <1>  -0.8690 
 10 C        1.8030     5.2510     0.5400 C.ar  1 <1>   0.4100 
 11 N        3.0130     4.7020     0.4500 N.ar  1 <1>  -0.6200 
 12 C        1.5750     6.5860     0.9240 C.ar  1 <1>   0.0860 
 13 C        4.0350     5.4720     0.7650 C.ar  1 <1>   0.1600 
 14 C        0.2350     7.1240     0.9650 C.2   1 <1>   0.5440 
 15 C        2.6770     7.3610     1.2590 C.ar  1 <1>  -0.1500 
 16 C        3.9250     6.7890     1.1740 C.ar  1 <1>  -0.1500 
 17 O       -0.6470     6.5340     1.5670 O.2   1 <1>  -0.5700 
 18 N       -0.0860     8.3000     0.3250 N.am  1 <1>  -0.6600 
 19 C       -1.4490     8.8770     0.3710 C.3   1 <1>   0.1400 
 20 C        0.7050     8.9040    -0.7710 C.3   1 <1>   0.1400 
 21 C       -1.4170    10.0410    -0.6130 C.3   1 <1>  -0.1600 
 22 C       -0.3120     9.6790    -1.6010 C.3   1 <1>  -0.1600 
 23 H        1.0020     0.6890    -2.3680 H     1 <1>   0.0800 
 24 H        1.8460     0.6350    -0.8570 H     1 <1>   0.0800 
 25 H        0.3400     0.5980     1.6080 H     1 <1>   0.0800 
 26 H       -1.3900     0.6270     1.5500 H     1 <1>   0.0800 
 27 H        0.0040     2.8520    -1.7690 H     1 <1>   0.0800 
 28 H        1.7450     2.9250    -1.6820 H     1 <1>   0.0800 
 29 H       -0.4850     2.8700     1.9480 H     1 <1>   0.0800 
 30 H       -1.3470     2.8120     0.4300 H     1 <1>   0.0800 
 31 H        1.6600     2.6370     0.7640 H     1 <1>   0.0800 
 32 H       -0.1720     4.8200     0.5080 H     1 <1>   0.4000 
 33 H        5.0160     5.0330     0.6970 H     1 <1>   0.1500 
 34 H        2.5490     8.3810     1.5780 H     1 <1>   0.1500 
 35 H        4.8080     7.3520     1.4220 H     1 <1>   0.1500 
 36 H       -1.6910     9.2010     1.3690 H     1 <1>   0.0800 
 37 H       -2.1580     8.1310     0.0530 H     1 <1>   0.0800 
 38 H        1.2000     8.1510    -1.3610 H     1 <1>   0.0800 
 39 H        1.4320     9.5780    -0.3520 H     1 <1>   0.0800 
 40 H       -1.1560    10.9390    -0.0820 H     1 <1>   0.0800 
 41 H       -2.3690    10.1820    -1.0930 H     1 <1>   0.0800 
 42 H       -0.7040     9.0310    -2.3660 H     1 <1>   0.0800 
 43 H        0.1250    10.5460    -2.0650 H     1 <1>   0.0800 
@<TRIPOS>BOND
  1   1   2  2   
  2   1   3  2   
  3   1   4  1   
  4   1   5  1   
  5   4   6  1   
  6   4  23  1   
  7   4  24  1   
  8   5   7  1   
  9   5  25  1   
 10   5  26  1   
 11   6   8  1   
 12   6  27  1   
 13   6  28  1   
 14   7   8  1   
 15   7  29  1   
 16   7  30  1   
 17   8   9  1   
 18   8  31  1   
 19   9  10  1   
 20   9  32  1   
 21  10  11  ar  
 22  10  12  ar  
 23  11  13  ar  
 24  12  14  1   
 25  12  15  ar  
 26  13  16  ar  
 27  13  33  1   
 28  14  17  2   
 29  14  18  am  
 30  15  16  ar  
 31  15  34  1   
 32  16  35  1   
 33  18  19  1   
 34  18  20  1   
 35  19  21  1   
 36  19  36  1   
 37  19  37  1   
 38  20  22  1   
 39  20  38  1   
 40  20  39  1   
 41  21  22  1   
 42  21  40  1   
 43  21  41  1   
 44  22  42  1   
 45  22  43  1   
@<TRIPOS>SUBSTRUCTURE
  1 ****   9 GROUP 4 **** **** 0

# MOE 2024.06 (io_trps.svl 2023.06)
