@<TRIPOS>MOLECULE
NONAME
49 52 1 0 0 
SMALL
USER_CHARGES


@<TRIPOS>ATOM
  1 O        0.7680     1.4320     0.5830 O.2   1 <1>  -0.5700 
  2 C        0.4750     2.5770     0.3520 C.2   1 <1>   0.5690 
  3 N       -0.5350     3.1800     1.0130 N.am  1 <1>  -0.7300 
  4 C        1.2190     3.3610    -0.7280 C.3   1 <1>   0.1810 
  5 C       -1.0210     4.5510     0.7140 C.3   1 <1>   0.3640 
  6 O        1.1040     4.7530    -0.5500 O.3   1 <1>  -0.5600 
  7 C       -2.5090     4.4510     0.3800 C.ar  1 <1>  -0.1440 
  8 C       -0.2300     5.2420    -0.4360 C.3   1 <1>   0.2610 
  9 C       -3.4120     5.3270     0.9660 C.ar  1 <1>  -0.1500 
 10 C       -2.9850     3.4940    -0.5100 C.ar  1 <1>  -0.1500 
 11 C       -0.2050     6.7660    -0.2420 C.2   1 <1>   0.5690 
 12 C       -4.7620     5.2490     0.6720 C.ar  1 <1>  -0.1500 
 13 C       -4.3350     3.4150    -0.8040 C.ar  1 <1>  -0.1500 
 14 O       -1.1670     7.3470     0.2000 O.2   1 <1>  -0.5700 
 15 N        0.9160     7.4520    -0.5720 N.am  1 <1>  -0.7300 
 16 C       -5.2250     4.2930    -0.2130 C.ar  1 <1>  -0.1500 
 17 C        1.1140     8.9120    -0.3940 C.3   1 <1>   0.3210 
 18 C        2.5640     9.3300    -0.6350 C.2   1 <1>   0.3350 
 19 N        3.5140     8.5550    -0.9910 N.2   1 <1>  -0.4100 
 20 N        2.9460    10.5910    -0.4840 N.2   1 <1>  -0.5650 
 21 O        4.5850     9.2820    -1.0910 O.3   1 <1>  -0.0190 
 22 C        4.1840    10.4890    -0.7750 C.2   1 <1>   0.2980 
 23 C        5.2180    11.6110    -0.7960 C.3   1 <1>   0.1000 
 24 C        6.3650    11.3930     0.1920 C.3   1 <1>  -0.1600 
 25 C        4.6860    12.9930    -0.4100 C.3   1 <1>  -0.1600 
 26 C        6.9780    12.7780     0.4220 C.3   1 <1>  -0.1600 
 27 C        5.9290    13.8000    -0.0310 C.3   1 <1>  -0.1600 
 28 H       -1.0720     2.6360     1.6900 H     1 <1>   0.3700 
 29 H        0.8300     3.1040    -1.6960 H     1 <1>   0.0800 
 30 H        2.2640     3.1100    -0.6930 H     1 <1>   0.0800 
 31 H       -0.9020     5.1400     1.6090 H     1 <1>   0.0800 
 32 H       -0.7230     5.0420    -1.3700 H     1 <1>   0.0800 
 33 H       -3.0700     6.0840     1.6510 H     1 <1>   0.1500 
 34 H       -2.3100     2.7990    -0.9780 H     1 <1>   0.1500 
 35 H       -5.4520     5.9360     1.1320 H     1 <1>   0.1500 
 36 H       -4.6940     2.6700    -1.4920 H     1 <1>   0.1500 
 37 H        1.7550     6.9290    -0.8540 H     1 <1>   0.3700 
 38 H       -6.2750     4.2330    -0.4410 H     1 <1>   0.1500 
 39 H        0.4790     9.4400    -1.0810 H     1 <1>   0.0800 
 40 H        0.8320     9.1890     0.6070 H     1 <1>   0.0800 
 41 H        5.6280    11.6730    -1.7890 H     1 <1>   0.0800 
 42 H        5.9650    11.0240     1.1210 H     1 <1>   0.0800 
 43 H        7.0860    10.6880    -0.1830 H     1 <1>   0.0800 
 44 H        4.1310    13.4480    -1.2110 H     1 <1>   0.0800 
 45 H        4.0470    12.9050     0.4530 H     1 <1>   0.0800 
 46 H        7.2280    12.9120     1.4610 H     1 <1>   0.0800 
 47 H        7.8730    12.8920    -0.1660 H     1 <1>   0.0800 
 48 H        6.2930    14.3310    -0.8950 H     1 <1>   0.0800 
 49 H        5.7070    14.5130     0.7450 H     1 <1>   0.0800 
@<TRIPOS>BOND
  1   1   2  2   
  2   2   3  am  
  3   2   4  1   
  4   3   5  1   
  5   3  28  1   
  6   4   6  1   
  7   4  29  1   
  8   4  30  1   
  9   5   7  1   
 10   5   8  1   
 11   5  31  1   
 12   6   8  1   
 13   7   9  ar  
 14   7  10  ar  
 15   8  11  1   
 16   8  32  1   
 17   9  12  ar  
 18   9  33  1   
 19  10  13  ar  
 20  10  34  1   
 21  11  14  2   
 22  11  15  am  
 23  12  16  ar  
 24  12  35  1   
 25  13  16  ar  
 26  13  36  1   
 27  15  17  1   
 28  15  37  1   
 29  16  38  1   
 30  17  18  1   
 31  17  39  1   
 32  17  40  1   
 33  18  19  2   
 34  18  20  1   
 35  19  21  1   
 36  20  22  2   
 37  21  22  1   
 38  22  23  1   
 39  23  24  1   
 40  23  25  1   
 41  23  41  1   
 42  24  26  1   
 43  24  42  1   
 44  24  43  1   
 45  25  27  1   
 46  25  44  1   
 47  25  45  1   
 48  26  27  1   
 49  26  46  1   
 50  26  47  1   
 51  27  48  1   
 52  27  49  1   
@<TRIPOS>SUBSTRUCTURE
  1 ****  15 GROUP 4 **** **** 0

# MOE 2024.06 (io_trps.svl 2023.06)
