@<TRIPOS>MOLECULE
NONAME
56 58 1 0 0 
SMALL
USER_CHARGES


@<TRIPOS>ATOM
  1 O        0.2850     0.1130    -1.0640 O.3   1 <1>  -0.5600 
  2 C        1.4710    -0.6450    -1.0810 C.3   1 <1>   0.2000 
  3 C        0.4330     1.4650    -1.3850 C.3   1 <1>   0.1200 
  4 C        2.5540    -0.0280    -0.1520 C.3   1 <1>   0.5660 
  5 C        1.1400    -2.0790    -0.6340 C.3   1 <1>   0.1200 
  6 C        1.3640     2.1440    -0.3670 C.3   1 <1>   0.3430 
  7 N        2.6940     1.4560    -0.2920 N.4   1 <1>  -0.9590 
  8 C        3.9210    -0.6470    -0.4080 C.ar  1 <1>  -0.1430 
  9 O        0.9370    -2.1190     0.7440 O.3   1 <1>  -0.6800 
 10 C        3.5600     2.0220     0.7790 C.3   1 <1>   0.4870 
 11 C        4.5600    -1.3230     0.6220 C.ar  1 <1>  -0.1500 
 12 C        4.5480    -0.5450    -1.6460 C.ar  1 <1>  -0.1500 
 13 C        3.7730     3.4990     0.4830 C.ar  1 <1>  -0.1430 
 14 C        5.8130    -1.8750     0.4240 C.ar  1 <1>  -0.1500 
 15 C        5.8010    -1.0990    -1.8410 C.ar  1 <1>  -0.1500 
 16 C        4.5850     3.9060    -0.5800 C.ar  1 <1>  -0.1430 
 17 C        3.1230     4.4460     1.2720 C.ar  1 <1>  -0.1430 
 18 C        6.4340    -1.7610    -0.8060 C.ar  1 <1>  -0.1500 
 19 C        4.6770     5.2610    -0.9010 C.ar  1 <1>  -0.1430 
 20 C        5.3990     2.8920    -1.3920 C.3   1 <1>  -0.0970 
 21 C        3.2470     5.7870     0.9620 C.ar  1 <1>  -0.1500 
 22 C        2.2820     4.0730     2.4900 C.3   1 <1>  -0.0970 
 23 C        4.0100     6.2030    -0.1210 C.ar  1 <1>   0.0830 
 24 C        5.5120     5.7410    -2.0940 C.3   1 <1>  -0.0970 
 25 O        4.1410     7.5180    -0.4440 O.3   1 <1>  -0.3630 
 26 C        3.6380     8.5560     0.3690 C.3   1 <1>   0.0400 
 27 H        1.8170    -0.6730    -2.0980 H     1 <1>   0.0800 
 28 H        0.8150     1.5510    -2.3870 H     1 <1>   0.0800 
 29 H       -0.5440     1.9160    -1.3490 H     1 <1>   0.0800 
 30 H        2.2640    -0.2490     0.8620 H     1 <1>   0.0800 
 31 H        1.9540    -2.7460    -0.8660 H     1 <1>   0.0800 
 32 H        0.2480    -2.4250    -1.1290 H     1 <1>   0.0800 
 33 H        0.8830     2.1170     0.5960 H     1 <1>   0.0800 
 34 H        1.5000     3.1780    -0.6400 H     1 <1>   0.0800 
 35 H        3.1930     1.6370    -1.1660 H     1 <1>   0.4500 
 36 H        0.4980    -2.9580     1.0020 H     1 <1>   0.4000 
 37 H        3.0930     1.8900     1.7390 H     1 <1>   0.0800 
 38 H        4.5120     1.5180     0.8020 H     1 <1>   0.0800 
 39 H        4.0910    -1.4330     1.5860 H     1 <1>   0.1500 
 40 H        4.0800    -0.0420    -2.4740 H     1 <1>   0.1500 
 41 H        6.3070    -2.3980     1.2260 H     1 <1>   0.1500 
 42 H        6.2880    -1.0210    -2.7990 H     1 <1>   0.1500 
 43 H        7.4100    -2.1930    -0.9580 H     1 <1>   0.1500 
 44 H        5.5850     1.9810    -0.8580 H     1 <1>   0.0800 
 45 H        6.3710     3.2930    -1.6210 H     1 <1>   0.0800 
 46 H        4.9010     2.6680    -2.3180 H     1 <1>   0.0800 
 47 H        2.7420     6.5100     1.5730 H     1 <1>   0.1500 
 48 H        1.9320     4.9540     3.0000 H     1 <1>   0.0800 
 49 H        2.8720     3.5100     3.1920 H     1 <1>   0.0800 
 50 H        1.4210     3.4990     2.2060 H     1 <1>   0.0800 
 51 H        5.4430     5.0600    -2.9210 H     1 <1>   0.0800 
 52 H        6.5410     5.8370    -1.8000 H     1 <1>   0.0800 
 53 H        5.1770     6.6960    -2.4570 H     1 <1>   0.0800 
 54 H        3.9250     9.4930    -0.0730 H     1 <1>   0.0800 
 55 H        4.0680     8.4700     1.3510 H     1 <1>   0.0800 
 56 H        2.5660     8.4840     0.4050 H     1 <1>   0.0800 
@<TRIPOS>BOND
  1   1   2  1   
  2   1   3  1   
  3   2   4  1   
  4   2   5  1   
  5   2  27  1   
  6   3   6  1   
  7   3  28  1   
  8   3  29  1   
  9   4   7  1   
 10   4   8  1   
 11   4  30  1   
 12   5   9  1   
 13   5  31  1   
 14   5  32  1   
 15   6   7  1   
 16   6  33  1   
 17   6  34  1   
 18   7  10  1   
 19   7  35  1   
 20   8  11  ar  
 21   8  12  ar  
 22   9  36  1   
 23  10  13  1   
 24  10  37  1   
 25  10  38  1   
 26  11  14  ar  
 27  11  39  1   
 28  12  15  ar  
 29  12  40  1   
 30  13  16  ar  
 31  13  17  ar  
 32  14  18  ar  
 33  14  41  1   
 34  15  18  ar  
 35  15  42  1   
 36  16  19  ar  
 37  16  20  1   
 38  17  21  ar  
 39  17  22  1   
 40  18  43  1   
 41  19  23  ar  
 42  19  24  1   
 43  20  44  1   
 44  20  45  1   
 45  20  46  1   
 46  21  23  ar  
 47  21  47  1   
 48  22  48  1   
 49  22  49  1   
 50  22  50  1   
 51  23  25  1   
 52  24  51  1   
 53  24  52  1   
 54  24  53  1   
 55  25  26  1   
 56  26  54  1   
 57  26  55  1   
 58  26  56  1   
@<TRIPOS>SUBSTRUCTURE
  1 ****   7 GROUP 4 **** **** 0

# MOE 2024.06 (io_trps.svl 2023.06)
