@<TRIPOS>MOLECULE
NONAME
56 59 1 0 0 
SMALL
USER_CHARGES


@<TRIPOS>ATOM
  1 O        0.2410    -2.0150    -2.1780 O.3   1 <1>  -0.3630 
  2 C        1.2440    -2.0110    -1.2500 C.ar  1 <1>   0.0830 
  3 C        0.1650    -1.0560    -3.2090 C.3   1 <1>   0.0400 
  4 C        1.1630    -2.9490    -0.1830 C.ar  1 <1>   0.3100 
  5 C        2.3060    -1.1350    -1.3340 C.ar  1 <1>  -0.1500 
  6 N        0.1000    -3.7960    -0.1220 N.ar  1 <1>  -0.6200 
  7 C        2.1970    -2.9660     0.7860 C.ar  1 <1>   0.0000 
  8 C        3.3160    -1.1560    -0.3740 C.ar  1 <1>  -0.1500 
  9 C        0.0370    -4.6450     0.8620 C.ar  1 <1>   0.4100 
 10 C        2.1110    -3.9110     1.8350 C.ar  1 <1>  -0.1440 
 11 C        3.2610    -2.0500     0.6590 C.ar  1 <1>  -0.1500 
 12 N       -1.0630    -5.4840     0.9130 N.pl3 1 <1>  -0.8380 
 13 C        1.0310    -4.7360     1.8510 C.ar  1 <1>  -0.1500 
 14 C        3.1820    -4.0170     2.9120 C.3   1 <1>  -0.0970 
 15 C       -1.7840    -5.7110    -0.3710 C.3   1 <1>   0.2090 
 16 C       -1.9450    -5.3730     2.1050 C.3   1 <1>   0.2090 
 17 C       -2.7150    -6.9400    -0.2900 C.3   1 <1>   0.4230 
 18 C       -2.8280    -6.6220     2.1970 C.3   1 <1>  -0.1600 
 19 N       -3.4000    -7.2830    -1.6110 N.4   1 <1>  -0.9590 
 20 C       -3.6860    -6.8650     0.9240 C.3   1 <1>   0.0000 
 21 C       -4.6070    -8.1590    -1.4680 C.3   1 <1>   0.3430 
 22 C       -3.7190    -6.1040    -2.4840 C.3   1 <1>   0.2630 
 23 C       -4.4260    -8.2270     1.0720 C.3   1 <1>  -0.1600 
 24 C       -4.7030    -5.7040     0.7300 C.3   1 <1>   0.1200 
 25 C       -4.4930    -9.0470    -0.2310 C.3   1 <1>  -0.1600 
 26 O       -5.4540    -5.4870     1.8740 O.3   1 <1>  -0.6800 
 27 H       -0.7330    -1.2390    -3.7700 H     1 <1>   0.0800 
 28 H        1.0230    -1.1620    -3.8490 H     1 <1>   0.0800 
 29 H        0.1270    -0.0740    -2.7710 H     1 <1>   0.0800 
 30 H        2.3940    -0.4190    -2.1280 H     1 <1>   0.1500 
 31 H        4.1350    -0.4620    -0.4580 H     1 <1>   0.1500 
 32 H        4.0500    -2.0510     1.3890 H     1 <1>   0.1500 
 33 H        0.9080    -5.4850     2.6090 H     1 <1>   0.1500 
 34 H        2.9430    -4.7950     3.6150 H     1 <1>   0.0800 
 35 H        3.2580    -3.0890     3.4500 H     1 <1>   0.0800 
 36 H        4.1330    -4.2470     2.4660 H     1 <1>   0.0800 
 37 H       -2.3350    -4.8180    -0.6060 H     1 <1>   0.0800 
 38 H       -1.0550    -5.8760    -1.1460 H     1 <1>   0.0800 
 39 H       -1.3510    -5.2870     2.9990 H     1 <1>   0.0800 
 40 H       -2.5470    -4.4820     2.0280 H     1 <1>   0.0800 
 41 H       -2.0570    -7.7630    -0.0680 H     1 <1>   0.0800 
 42 H       -2.1760    -7.4610     2.3700 H     1 <1>   0.0800 
 43 H       -3.4570    -6.5330     3.0650 H     1 <1>   0.0800 
 44 H       -2.7000    -7.8420    -2.1210 H     1 <1>   0.4500 
 45 H       -5.4910    -7.5490    -1.3700 H     1 <1>   0.0800 
 46 H       -4.7230    -8.7710    -2.3490 H     1 <1>   0.0800 
 47 H       -4.4090    -5.4410    -1.9880 H     1 <1>   0.0800 
 48 H       -4.1630    -6.4330    -3.4100 H     1 <1>   0.0800 
 49 H       -2.8220    -5.5520    -2.7200 H     1 <1>   0.0800 
 50 H       -3.9390    -8.8420     1.8120 H     1 <1>   0.0800 
 51 H       -5.4260    -8.0660     1.4350 H     1 <1>   0.0800 
 52 H       -5.3910    -5.9080    -0.0700 H     1 <1>   0.0800 
 53 H       -4.2020    -4.7760     0.5160 H     1 <1>   0.0800 
 54 H       -5.3420    -9.7080    -0.1880 H     1 <1>   0.0800 
 55 H       -3.6170    -9.6670    -0.3240 H     1 <1>   0.0800 
 56 H       -5.9970    -6.2640     2.1140 H     1 <1>   0.4000 
@<TRIPOS>BOND
  1   1   2  1   
  2   1   3  1   
  3   2   4  ar  
  4   2   5  ar  
  5   3  27  1   
  6   3  28  1   
  7   3  29  1   
  8   4   6  ar  
  9   4   7  ar  
 10   5   8  ar  
 11   5  30  1   
 12   6   9  ar  
 13   7  10  ar  
 14   7  11  ar  
 15   8  11  ar  
 16   8  31  1   
 17   9  12  1   
 18   9  13  ar  
 19  10  13  ar  
 20  10  14  1   
 21  11  32  1   
 22  12  15  1   
 23  12  16  1   
 24  13  33  1   
 25  14  34  1   
 26  14  35  1   
 27  14  36  1   
 28  15  17  1   
 29  15  37  1   
 30  15  38  1   
 31  16  18  1   
 32  16  39  1   
 33  16  40  1   
 34  17  19  1   
 35  17  20  1   
 36  17  41  1   
 37  18  20  1   
 38  18  42  1   
 39  18  43  1   
 40  19  21  1   
 41  19  22  1   
 42  19  44  1   
 43  20  23  1   
 44  20  24  1   
 45  21  25  1   
 46  21  45  1   
 47  21  46  1   
 48  22  47  1   
 49  22  48  1   
 50  22  49  1   
 51  23  25  1   
 52  23  50  1   
 53  23  51  1   
 54  24  26  1   
 55  24  52  1   
 56  24  53  1   
 57  25  54  1   
 58  25  55  1   
 59  26  56  1   
@<TRIPOS>SUBSTRUCTURE
  1 ****  12 GROUP 4 **** **** 0

# MOE 2024.06 (io_trps.svl 2023.06)
