@<TRIPOS>MOLECULE
NONAME
32 33 1 0 0 
SMALL
USER_CHARGES


@<TRIPOS>ATOM
  1 S        0.0920    -0.0800    -0.1470 S.3   1 <1>  -0.0800 
  2 C       -1.2100    -0.8230     0.7220 C.2   1 <1>   0.4420 
  3 C       -0.2310     1.3690     0.7470 C.2   1 <1>   0.1980 
  4 N       -1.7590    -0.0150     1.5550 N.2   1 <1>  -0.3380 
  5 N       -1.4790    -2.1390     0.4170 N.am  1 <1>  -0.4940 
  6 N       -1.1970     1.2320     1.5640 N.2   1 <1>  -0.3380 
  7 C        0.6180     2.6110     0.4830 C.3   1 <1>   0.3800 
  8 C       -2.4260    -3.0050     0.9150 C.2   1 <1>   0.5440 
  9 O        0.5850     2.9640    -0.8700 O.3   1 <1>  -0.5600 
 10 C        2.0850     2.4010     0.8520 C.3   1 <1>  -0.2400 
 11 O       -3.2030    -2.6320     1.7710 O.2   1 <1>  -0.5700 
 12 C       -2.4710    -4.3640     0.3960 C.ar  1 <1>   0.3960 
 13 C       -0.6380     3.4660    -1.3180 C.3   1 <1>   0.0400 
 14 N       -1.5900    -4.7300    -0.5530 N.ar  1 <1>  -0.6200 
 15 C       -3.4230    -5.2650     0.8880 C.ar  1 <1>   0.1600 
 16 C       -1.7360    -5.9850    -0.9390 C.ar  1 <1>   0.1600 
 17 N       -3.5650    -6.5210     0.4980 N.ar  1 <1>  -0.6200 
 18 C       -2.6930    -6.8600    -0.4320 C.ar  1 <1>   0.1670 
 19 C       -2.7850    -8.2870    -0.9360 C.3   1 <1>  -0.0970 
 20 H       -0.8860    -2.5620    -0.2970 H     1 <1>   0.3700 
 21 H        0.2270     3.4350     1.0550 H     1 <1>   0.0800 
 22 H        2.5170     1.6240     0.2480 H     1 <1>   0.0800 
 23 H        2.1620     2.1190     1.8870 H     1 <1>   0.0800 
 24 H        2.6320     3.3130     0.7030 H     1 <1>   0.0800 
 25 H       -0.5320     3.7270    -2.3560 H     1 <1>   0.0800 
 26 H       -0.8950     4.3440    -0.7500 H     1 <1>   0.0800 
 27 H       -1.4010     2.7130    -1.2140 H     1 <1>   0.0800 
 28 H       -4.1030    -4.9160     1.6470 H     1 <1>   0.1500 
 29 H       -1.0630    -6.3440    -1.6970 H     1 <1>   0.1500 
 30 H       -2.0450    -8.4850    -1.6890 H     1 <1>   0.0800 
 31 H       -3.7610    -8.4580    -1.3540 H     1 <1>   0.0800 
 32 H       -2.6390    -8.9680    -0.1170 H     1 <1>   0.0800 
@<TRIPOS>BOND
  1   1   2  1   
  2   1   3  1   
  3   2   4  2   
  4   2   5  1   
  5   3   6  2   
  6   3   7  1   
  7   4   6  1   
  8   5   8  am  
  9   5  20  1   
 10   7   9  1   
 11   7  10  1   
 12   7  21  1   
 13   8  11  2   
 14   8  12  1   
 15   9  13  1   
 16  10  22  1   
 17  10  23  1   
 18  10  24  1   
 19  12  14  ar  
 20  12  15  ar  
 21  13  25  1   
 22  13  26  1   
 23  13  27  1   
 24  14  16  ar  
 25  15  17  ar  
 26  15  28  1   
 27  16  18  ar  
 28  16  29  1   
 29  17  18  ar  
 30  18  19  1   
 31  19  30  1   
 32  19  31  1   
 33  19  32  1   
@<TRIPOS>SUBSTRUCTURE
  1 ****   5 GROUP 4 **** **** 0

# MOE 2024.06 (io_trps.svl 2023.06)
