@<TRIPOS>MOLECULE
NONAME
48 50 1 0 0 
SMALL
USER_CHARGES


@<TRIPOS>ATOM
  1 O       -0.3470    -1.3080    -0.3850 O.2   1 <1>  -0.5700 
  2 C        0.8170    -1.6280    -0.2570 C.2   1 <1>   0.6900 
  3 N        1.2580    -2.4130     0.7940 N.am  1 <1>  -0.4690 
  4 N        1.7220    -1.2200    -1.1830 N.am  1 <1>  -0.4900 
  5 C        2.5900    -2.8050     0.8710 C.2   1 <1>  -0.0410 
  6 C        0.3060    -2.8680     1.8570 C.3   1 <1>   0.2010 
  7 C        3.0360    -1.5670    -1.1450 C.2   1 <1>   0.6160 
  8 C        3.4790    -2.4020    -0.0670 C.2   1 <1>  -0.1240 
  9 C        0.0180    -4.3660     1.7850 C.2   1 <1>   0.5690 
 10 O        3.7610    -1.1540    -2.0280 O.2   1 <1>  -0.5700 
 11 C        4.9450    -2.8120    -0.0150 C.3   1 <1>  -0.1020 
 12 O        0.6540    -5.0960     2.5120 O.2   1 <1>  -0.5700 
 13 N       -0.9280    -4.8630     0.9300 N.am  1 <1>  -0.6600 
 14 C       -1.7150    -4.0980    -0.0710 C.3   1 <1>   0.1400 
 15 C       -1.3060    -6.2920     0.8860 C.3   1 <1>   0.1400 
 16 C       -2.7400    -5.0890    -0.6370 C.3   1 <1>   0.2000 
 17 C       -2.0750    -6.4540    -0.4270 C.3   1 <1>  -0.0800 
 18 O       -3.9190    -5.0410     0.1170 O.3   1 <1>  -0.5600 
 19 C       -3.0500    -7.6460    -0.4260 C.3   1 <1>   0.0200 
 20 C       -4.8280    -4.0570    -0.2660 C.3   1 <1>   0.0400 
 21 C       -2.3470    -8.9940    -0.3940 C.2   1 <1>  -0.0400 
 22 O       -3.0730   -10.0770    -0.3030 O.3   1 <1>  -0.0190 
 23 C       -1.0590    -9.3710    -0.4450 C.2   1 <1>  -0.1500 
 24 N       -2.3420   -11.1540    -0.2880 N.2   1 <1>  -0.4100 
 25 C       -1.1230   -10.7590    -0.3710 C.2   1 <1>   0.1080 
 26 C        0.0720   -11.6840    -0.3850 C.3   1 <1>  -0.0590 
 27 H        1.4050    -0.6280    -1.9410 H     1 <1>   0.3700 
 28 H        2.8700    -3.4370     1.7010 H     1 <1>   0.1500 
 29 H        0.7370    -2.6540     2.8170 H     1 <1>   0.0800 
 30 H       -0.6190    -2.3250     1.7960 H     1 <1>   0.0800 
 31 H        5.2060    -3.3530    -0.9080 H     1 <1>   0.0800 
 32 H        5.1420    -3.4380     0.8370 H     1 <1>   0.0800 
 33 H        5.5680    -1.9370     0.0480 H     1 <1>   0.0800 
 34 H       -2.1900    -3.2400     0.3710 H     1 <1>   0.0800 
 35 H       -1.0550    -3.7800    -0.8580 H     1 <1>   0.0800 
 36 H       -0.4330    -6.9210     0.9290 H     1 <1>   0.0800 
 37 H       -1.9430    -6.5060     1.7280 H     1 <1>   0.0800 
 38 H       -2.9700    -4.9060    -1.6720 H     1 <1>   0.0800 
 39 H       -1.3570    -6.5930    -1.2160 H     1 <1>   0.0800 
 40 H       -3.6620    -7.6060    -1.3090 H     1 <1>   0.0800 
 41 H       -3.7040    -7.5810     0.4260 H     1 <1>   0.0800 
 42 H       -5.6740    -4.1100     0.3970 H     1 <1>   0.0800 
 43 H       -5.1490    -4.2440    -1.2760 H     1 <1>   0.0800 
 44 H       -4.3690    -3.0870    -0.1860 H     1 <1>   0.0800 
 45 H       -0.1630    -8.7850    -0.5250 H     1 <1>   0.1500 
 46 H        0.6160   -11.5640    -1.3040 H     1 <1>   0.0800 
 47 H       -0.2530   -12.7050    -0.3030 H     1 <1>   0.0800 
 48 H        0.7180   -11.4570     0.4430 H     1 <1>   0.0800 
@<TRIPOS>BOND
  1   1   2  2   
  2   2   3  am  
  3   2   4  am  
  4   3   5  1   
  5   3   6  1   
  6   4   7  am  
  7   4  27  1   
  8   5   8  2   
  9   5  28  1   
 10   6   9  1   
 11   6  29  1   
 12   6  30  1   
 13   7   8  1   
 14   7  10  2   
 15   8  11  1   
 16   9  12  2   
 17   9  13  am  
 18  11  31  1   
 19  11  32  1   
 20  11  33  1   
 21  13  14  1   
 22  13  15  1   
 23  14  16  1   
 24  14  34  1   
 25  14  35  1   
 26  15  17  1   
 27  15  36  1   
 28  15  37  1   
 29  16  17  1   
 30  16  18  1   
 31  16  38  1   
 32  17  19  1   
 33  17  39  1   
 34  18  20  1   
 35  19  21  1   
 36  19  40  1   
 37  19  41  1   
 38  20  42  1   
 39  20  43  1   
 40  20  44  1   
 41  21  22  1   
 42  21  23  2   
 43  22  24  1   
 44  23  25  1   
 45  23  45  1   
 46  24  25  2   
 47  25  26  1   
 48  26  46  1   
 49  26  47  1   
 50  26  48  1   
@<TRIPOS>SUBSTRUCTURE
  1 ****  13 GROUP 4 **** **** 0

# MOE 2024.06 (io_trps.svl 2023.06)
