@<TRIPOS>MOLECULE
NONAME
60 64 1 0 0 
SMALL
USER_CHARGES


@<TRIPOS>ATOM
  1 S        1.2950     1.0240    -0.4490 S.3   1 <1>  -0.0800 
  2 C       -0.4540     1.1320    -0.6260 C.2   1 <1>  -0.1400 
  3 C        1.2970    -0.6230    -1.0600 C.2   1 <1>  -0.1100 
  4 C       -0.9410    -0.0220    -1.1010 C.2   1 <1>  -0.1810 
  5 C       -1.2800     2.3730    -0.2790 C.3   1 <1>   0.4600 
  6 C        0.0470    -1.0240    -1.3570 C.2   1 <1>  -0.1500 
  7 C       -2.4280    -0.1830    -1.3260 C.3   1 <1>   0.0210 
  8 O       -2.6060     2.1640    -0.6940 O.3   1 <1>  -0.5600 
  9 C       -1.3110     2.6520     1.2260 C.3   1 <1>  -0.1600 
 10 C       -0.8250     3.6070    -1.0600 C.3   1 <1>  -0.1600 
 11 C       -3.1780     0.8880    -0.5110 C.3   1 <1>   0.1200 
 12 C        0.0020     3.2470     1.7180 C.3   1 <1>   0.3430 
 13 C        0.4600     4.2110    -0.5130 C.3   1 <1>   0.3430 
 14 N        0.3200     4.4820     0.9500 N.4   1 <1>  -0.9590 
 15 C        1.5510     5.1320     1.4820 C.3   1 <1>   0.4860 
 16 C        1.6790     6.5160     0.8860 C.ar  1 <1>  -0.1430 
 17 C        2.5780     6.7320    -0.1600 C.ar  1 <1>   0.3930 
 18 C        0.9190     7.5670     1.3630 C.ar  1 <1>  -0.1500 
 19 O        3.2820     5.6700    -0.5970 O.3   1 <1>  -0.3630 
 20 N        2.7660     7.9070    -0.7580 N.ar  1 <1>  -0.6200 
 21 C        1.1050     8.7910     0.7450 C.ar  1 <1>   0.0860 
 22 C        4.2580     5.7990    -1.6170 C.3   1 <1>   0.0400 
 23 C        2.0240     8.8920    -0.2800 C.ar  1 <1>   0.1670 
 24 C        0.5000    10.0680     0.9540 C.2   1 <1>   0.5440 
 25 C        2.0500    10.3310    -0.7820 C.3   1 <1>   0.2840 
 26 O       -0.3600    10.3120     1.7740 O.2   1 <1>  -0.5700 
 27 N        1.0230    10.9790     0.0860 N.am  1 <1>  -0.6600 
 28 C        0.6630    12.4090     0.0150 C.3   1 <1>   0.2200 
 29 C        0.1110    12.7330    -1.3720 C.3   1 <1>  -0.2400 
 30 C        1.8830    13.2630     0.3470 C.3   1 <1>  -0.2400 
 31 H        2.2460    -1.1260    -1.1350 H     1 <1>   0.1500 
 32 H       -0.2240    -1.9890    -1.7490 H     1 <1>   0.1500 
 33 H       -2.7490    -1.1600    -1.0100 H     1 <1>   0.0800 
 34 H       -2.6540    -0.0730    -2.3710 H     1 <1>   0.0800 
 35 H       -1.4890     1.7340     1.7560 H     1 <1>   0.0800 
 36 H       -2.1120     3.3320     1.4530 H     1 <1>   0.0800 
 37 H       -1.5960     4.3570    -1.0300 H     1 <1>   0.0800 
 38 H       -0.6740     3.3330    -2.0890 H     1 <1>   0.0800 
 39 H       -3.1530     0.6470     0.5370 H     1 <1>   0.0800 
 40 H       -4.2050     0.9390    -0.8270 H     1 <1>   0.0800 
 41 H        0.7940     2.5260     1.6000 H     1 <1>   0.0800 
 42 H       -0.0870     3.4770     2.7680 H     1 <1>   0.0800 
 43 H        0.6680     5.1270    -1.0420 H     1 <1>   0.0800 
 44 H        1.2860     3.5410    -0.6860 H     1 <1>   0.0800 
 45 H       -0.4510     5.1530     1.0660 H     1 <1>   0.4500 
 46 H        2.4200     4.5390     1.2420 H     1 <1>   0.0800 
 47 H        1.4890     5.2180     2.5550 H     1 <1>   0.0800 
 48 H        0.2120     7.4830     2.1710 H     1 <1>   0.1500 
 49 H        4.7030     4.8360    -1.7900 H     1 <1>   0.0800 
 50 H        5.0100     6.4990    -1.2950 H     1 <1>   0.0800 
 51 H        3.7820     6.1530    -2.5160 H     1 <1>   0.0800 
 52 H        1.7660    10.3810    -1.8180 H     1 <1>   0.0800 
 53 H        3.0190    10.7720    -0.6290 H     1 <1>   0.0800 
 54 H       -0.1060    12.6060     0.7460 H     1 <1>   0.0800 
 55 H        0.8620    12.6050    -2.1290 H     1 <1>   0.0800 
 56 H       -0.2240    13.7540    -1.3970 H     1 <1>   0.0800 
 57 H       -0.7300    12.0990    -1.5880 H     1 <1>   0.0800 
 58 H        2.6550    13.1440    -0.3910 H     1 <1>   0.0800 
 59 H        2.2660    12.9940     1.3150 H     1 <1>   0.0800 
 60 H        1.6010    14.3000     0.3750 H     1 <1>   0.0800 
@<TRIPOS>BOND
  1   1   2  1   
  2   1   3  1   
  3   2   4  2   
  4   2   5  1   
  5   3   6  2   
  6   3  31  1   
  7   4   6  1   
  8   4   7  1   
  9   5   8  1   
 10   5   9  1   
 11   5  10  1   
 12   6  32  1   
 13   7  11  1   
 14   7  33  1   
 15   7  34  1   
 16   8  11  1   
 17   9  12  1   
 18   9  35  1   
 19   9  36  1   
 20  10  13  1   
 21  10  37  1   
 22  10  38  1   
 23  11  39  1   
 24  11  40  1   
 25  12  14  1   
 26  12  41  1   
 27  12  42  1   
 28  13  14  1   
 29  13  43  1   
 30  13  44  1   
 31  14  15  1   
 32  14  45  1   
 33  15  16  1   
 34  15  46  1   
 35  15  47  1   
 36  16  17  ar  
 37  16  18  ar  
 38  17  19  1   
 39  17  20  ar  
 40  18  21  ar  
 41  18  48  1   
 42  19  22  1   
 43  20  23  ar  
 44  21  23  ar  
 45  21  24  1   
 46  22  49  1   
 47  22  50  1   
 48  22  51  1   
 49  23  25  1   
 50  24  26  2   
 51  24  27  am  
 52  25  27  1   
 53  25  52  1   
 54  25  53  1   
 55  27  28  1   
 56  28  29  1   
 57  28  30  1   
 58  28  54  1   
 59  29  55  1   
 60  29  56  1   
 61  29  57  1   
 62  30  58  1   
 63  30  59  1   
 64  30  60  1   
@<TRIPOS>SUBSTRUCTURE
  1 ****  13 GROUP 4 **** **** 0

# MOE 2024.06 (io_trps.svl 2023.06)
