@<TRIPOS>MOLECULE
NONAME
48 50 1 0 0 
SMALL
USER_CHARGES


@<TRIPOS>ATOM
  1 S        0.9180    -0.4230     2.1470 S.3   1 <1>  -0.0800 
  2 C        1.3710    -1.0670     0.5810 C.2   1 <1>  -0.0450 
  3 C        1.5100     1.1440     1.6700 C.2   1 <1>   0.2280 
  4 C        1.9220    -0.0470    -0.1200 C.2   1 <1>   0.0460 
  5 C        1.1440    -2.4610     0.2930 C.2   1 <1>   0.7150 
  6 N        1.9870     1.1880     0.4920 N.2   1 <1>  -0.5650 
  7 C        2.4830    -0.1140    -1.5260 C.3   1 <1>  -0.0590 
  8 O        1.9670    -3.0850    -0.3520 O.2   1 <1>  -0.5700 
  9 N        0.0030    -3.1170     0.6980 N.am  1 <1>  -0.6600 
 10 C       -0.0970    -4.6110     0.6860 C.3   1 <1>   0.1400 
 11 C       -1.3330    -2.4520     0.7710 C.3   1 <1>   0.1400 
 12 C       -1.1120    -5.0850    -0.3690 C.3   1 <1>   0.3440 
 13 C       -2.2970    -3.0360    -0.2920 C.3   1 <1>   0.2000 
 14 O       -2.3400    -4.4350    -0.1710 O.3   1 <1>  -0.5600 
 15 C       -1.3100    -6.5950    -0.2830 C.ar  1 <1>  -0.1430 
 16 C       -3.7490    -2.4710    -0.2320 C.3   1 <1>   0.0000 
 17 C       -2.2670    -7.1560     0.5520 C.ar  1 <1>  -0.1500 
 18 C       -0.5090    -7.4340    -1.0460 C.ar  1 <1>  -0.1500 
 19 C       -4.5770    -3.0660    -1.3860 C.3   1 <1>  -0.2400 
 20 C       -3.7500    -0.9400    -0.4010 C.3   1 <1>  -0.2400 
 21 C       -4.4530    -2.8150     1.0940 C.3   1 <1>  -0.2400 
 22 C       -2.4200    -8.5290     0.6250 C.ar  1 <1>  -0.1500 
 23 C       -0.6610    -8.8080    -0.9750 C.ar  1 <1>  -0.1500 
 24 C       -1.6160    -9.3570    -0.1380 C.ar  1 <1>  -0.1500 
 25 H        1.4310     1.9430     2.3870 H     1 <1>   0.1500 
 26 H        2.3610    -1.0930    -1.9510 H     1 <1>   0.0800 
 27 H        3.5310     0.1240    -1.5050 H     1 <1>   0.0800 
 28 H        1.9790     0.6000    -2.1510 H     1 <1>   0.0800 
 29 H        0.8600    -5.0570     0.4820 H     1 <1>   0.0800 
 30 H       -0.4150    -4.9530     1.6540 H     1 <1>   0.0800 
 31 H       -1.7410    -2.5970     1.7550 H     1 <1>   0.0800 
 32 H       -1.2300    -1.3960     0.6030 H     1 <1>   0.0800 
 33 H       -0.7570    -4.8290    -1.3520 H     1 <1>   0.0800 
 34 H       -1.8970    -2.8110    -1.2660 H     1 <1>   0.0800 
 35 H       -2.9000    -6.5200     1.1480 H     1 <1>   0.1500 
 36 H        0.2400    -7.0210    -1.7000 H     1 <1>   0.1500 
 37 H       -5.5770    -2.6680    -1.3860 H     1 <1>   0.0800 
 38 H       -4.6450    -4.1360    -1.2890 H     1 <1>   0.0800 
 39 H       -4.1230    -2.8430    -2.3340 H     1 <1>   0.0800 
 40 H       -4.7590    -0.5710    -0.4620 H     1 <1>   0.0800 
 41 H       -3.2370    -0.6580    -1.3040 H     1 <1>   0.0800 
 42 H       -3.2760    -0.4530     0.4310 H     1 <1>   0.0800 
 43 H       -5.4710    -2.4700     1.0800 H     1 <1>   0.0800 
 44 H       -3.9600    -2.3570     1.9310 H     1 <1>   0.0800 
 45 H       -4.4640    -3.8800     1.2470 H     1 <1>   0.0800 
 46 H       -3.1660    -8.9520     1.2740 H     1 <1>   0.1500 
 47 H       -0.0350    -9.4500    -1.5700 H     1 <1>   0.1500 
 48 H       -1.7360   -10.4250    -0.0830 H     1 <1>   0.1500 
@<TRIPOS>BOND
  1   1   2  1   
  2   1   3  1   
  3   2   4  2   
  4   2   5  1   
  5   3   6  2   
  6   3  25  1   
  7   4   6  1   
  8   4   7  1   
  9   5   8  2   
 10   5   9  am  
 11   7  26  1   
 12   7  27  1   
 13   7  28  1   
 14   9  10  1   
 15   9  11  1   
 16  10  12  1   
 17  10  29  1   
 18  10  30  1   
 19  11  13  1   
 20  11  31  1   
 21  11  32  1   
 22  12  14  1   
 23  12  15  1   
 24  12  33  1   
 25  13  14  1   
 26  13  16  1   
 27  13  34  1   
 28  15  17  ar  
 29  15  18  ar  
 30  16  19  1   
 31  16  20  1   
 32  16  21  1   
 33  17  22  ar  
 34  17  35  1   
 35  18  23  ar  
 36  18  36  1   
 37  19  37  1   
 38  19  38  1   
 39  19  39  1   
 40  20  40  1   
 41  20  41  1   
 42  20  42  1   
 43  21  43  1   
 44  21  44  1   
 45  21  45  1   
 46  22  24  ar  
 47  22  46  1   
 48  23  24  ar  
 49  23  47  1   
 50  24  48  1   
@<TRIPOS>SUBSTRUCTURE
  1 ****   9 GROUP 4 **** **** 0

# MOE 2024.06 (io_trps.svl 2023.06)
