@<TRIPOS>MOLECULE
NONAME
43 45 1 0 0 
SMALL
USER_CHARGES


@<TRIPOS>ATOM
  1 O       -3.6150     2.9270    -0.6360 O.2   1 <1>  -0.5700 
  2 C       -2.9720     1.9410    -0.3360 C.2   1 <1>   0.5440 
  3 N       -3.4820     0.7020    -0.6300 N.am  1 <1>  -0.6600 
  4 C       -1.6900     2.0780     0.3120 C.ar  1 <1>   0.0860 
  5 C       -4.7980     0.4990    -1.2870 C.3   1 <1>   0.1400 
  6 C       -2.8690    -0.5940    -0.2570 C.3   1 <1>   0.1400 
  7 C       -0.5180     2.2060    -0.4190 C.ar  1 <1>   0.1660 
  8 C       -1.5470     2.0580     1.6920 C.ar  1 <1>   0.1660 
  9 C       -4.9510    -1.0190    -1.3980 C.3   1 <1>   0.2000 
 10 C       -4.0180    -1.5990    -0.3360 C.3   1 <1>  -0.0800 
 11 N        0.6660     2.2730     0.1490 N.ar  1 <1>  -0.6200 
 12 C       -0.5370     2.2680    -1.9370 C.3   1 <1>  -0.0960 
 13 N       -0.3720     2.1260     2.2790 N.ar  1 <1>  -0.6200 
 14 C       -2.7390     1.9420     2.6280 C.3   1 <1>  -0.0970 
 15 O       -6.2530    -1.4260    -1.1590 O.3   1 <1>  -0.6800 
 16 C       -3.5630    -3.0340    -0.6410 C.3   1 <1>   0.0200 
 17 C        0.6680     2.2310     1.4700 C.ar  1 <1>   0.4700 
 18 C       -2.5240    -3.4930     0.3640 C.2   1 <1>  -0.0400 
 19 O       -2.8110    -3.5070     1.6390 O.3   1 <1>  -0.0190 
 20 C       -1.2590    -3.9140     0.2220 C.2   1 <1>  -0.1500 
 21 N       -1.8030    -3.9060     2.3580 N.2   1 <1>  -0.4100 
 22 C       -0.8540    -4.1610     1.5310 C.2   1 <1>   0.1080 
 23 C        0.5150    -4.6600     1.9360 C.3   1 <1>  -0.0590 
 24 H       -5.5690     0.9290    -0.6710 H     1 <1>   0.0800 
 25 H       -4.8020     0.9630    -2.2580 H     1 <1>   0.0800 
 26 H       -2.0980    -0.8360    -0.9690 H     1 <1>   0.0800 
 27 H       -2.4470    -0.5640     0.7340 H     1 <1>   0.0800 
 28 H       -4.6710    -1.3400    -2.3860 H     1 <1>   0.0800 
 29 H       -4.5140    -1.5830     0.6200 H     1 <1>   0.0800 
 30 H       -1.2870     2.9600    -2.2750 H     1 <1>   0.0800 
 31 H       -0.7470     1.2950    -2.3400 H     1 <1>   0.0800 
 32 H        0.4160     2.5970    -2.3110 H     1 <1>   0.0800 
 33 H       -3.6380     2.3170     2.1750 H     1 <1>   0.0800 
 34 H       -2.5560     2.5120     3.5210 H     1 <1>   0.0800 
 35 H       -2.8840     0.9130     2.9030 H     1 <1>   0.0800 
 36 H       -6.5440    -1.1410    -0.2710 H     1 <1>   0.4000 
 37 H       -3.1440    -3.0870    -1.6300 H     1 <1>   0.0800 
 38 H       -4.4100    -3.6960    -0.6010 H     1 <1>   0.0800 
 39 H        1.6340     2.2890     1.9450 H     1 <1>   0.1500 
 40 H       -0.6650    -4.0390    -0.6650 H     1 <1>   0.1500 
 41 H        0.7380    -5.5770     1.4220 H     1 <1>   0.0800 
 42 H        0.5410    -4.8410     2.9960 H     1 <1>   0.0800 
 43 H        1.2590    -3.9250     1.6910 H     1 <1>   0.0800 
@<TRIPOS>BOND
  1   1   2  2   
  2   2   3  am  
  3   2   4  1   
  4   3   5  1   
  5   3   6  1   
  6   4   7  ar  
  7   4   8  ar  
  8   5   9  1   
  9   5  24  1   
 10   5  25  1   
 11   6  10  1   
 12   6  26  1   
 13   6  27  1   
 14   7  11  ar  
 15   7  12  1   
 16   8  13  ar  
 17   8  14  1   
 18   9  10  1   
 19   9  15  1   
 20   9  28  1   
 21  10  16  1   
 22  10  29  1   
 23  11  17  ar  
 24  12  30  1   
 25  12  31  1   
 26  12  32  1   
 27  13  17  ar  
 28  14  33  1   
 29  14  34  1   
 30  14  35  1   
 31  15  36  1   
 32  16  18  1   
 33  16  37  1   
 34  16  38  1   
 35  17  39  1   
 36  18  19  1   
 37  18  20  2   
 38  19  21  1   
 39  20  22  1   
 40  20  40  1   
 41  21  22  2   
 42  22  23  1   
 43  23  41  1   
 44  23  42  1   
 45  23  43  1   
@<TRIPOS>SUBSTRUCTURE
  1 ****   6 GROUP 4 **** **** 0

# MOE 2024.06 (io_trps.svl 2023.06)
