@<TRIPOS>MOLECULE
NONAME
44 46 1 0 0 
SMALL
USER_CHARGES


@<TRIPOS>ATOM
  1 O       -0.1300     0.4670    -0.2380 O.2   1 <1>  -0.5700 
  2 C       -1.1600     1.0660    -0.0370 C.2   1 <1>   0.5690 
  3 N       -2.3310     0.4030     0.1270 N.am  1 <1>  -0.7300 
  4 C       -1.1410     2.6010     0.0660 C.3   1 <1>   0.2510 
  5 C       -3.6520     1.0820     0.2500 C.3   1 <1>   0.1400 
  6 N       -2.4720     3.2380    -0.1780 N.3   1 <1>  -0.8100 
  7 C       -0.1010     3.1900    -0.9050 C.3   1 <1>   0.2090 
  8 C       -3.5110     2.5730     0.6320 C.3   1 <1>   0.1100 
  9 C       -2.3930     4.6920     0.0540 C.3   1 <1>   0.1100 
 10 N        0.0130     4.6880    -0.7480 N.pl3 1 <1>  -0.8380 
 11 C       -1.3450     5.3480    -0.8690 C.3   1 <1>   0.2090 
 12 C        1.1420     5.4010    -0.4890 C.ar  1 <1>   0.7710 
 13 N        1.0500     6.6970    -0.2380 N.ar  1 <1>  -0.6200 
 14 N        2.3300     4.7700    -0.4940 N.ar  1 <1>  -0.1790 
 15 C        2.1480     7.3810     0.0300 C.ar  1 <1>   0.4100 
 16 C        3.4850     5.4270    -0.2380 C.ar  1 <1>   0.2110 
 17 N        2.0170     8.7100     0.3030 N.pl3 1 <1>  -0.8380 
 18 C        3.4080     6.7510     0.0300 C.ar  1 <1>  -0.1500 
 19 C        3.0180     9.5170     1.0520 C.3   1 <1>   0.2090 
 20 C        0.7540     9.4590     0.0070 C.3   1 <1>   0.1290 
 21 C        3.8860    10.2910     0.0650 C.3   1 <1>  -0.2400 
 22 H       -2.3200    -0.6130     0.0140 H     1 <1>   0.3700 
 23 H       -0.8280     2.8290     1.0690 H     1 <1>   0.0800 
 24 H       -4.2470     0.5790     0.9930 H     1 <1>   0.0800 
 25 H       -4.1670     1.0110    -0.6930 H     1 <1>   0.0800 
 26 H       -0.4070     2.9560    -1.9120 H     1 <1>   0.0800 
 27 H        0.8410     2.7040    -0.7290 H     1 <1>   0.0800 
 28 H       -3.2660     2.6520     1.6780 H     1 <1>   0.0800 
 29 H       -4.4570     3.0620     0.4750 H     1 <1>   0.0800 
 30 H       -2.1390     4.8920     1.0810 H     1 <1>   0.0800 
 31 H       -3.3540     5.1360    -0.1440 H     1 <1>   0.0800 
 32 H       -1.3030     6.3990    -0.6400 H     1 <1>   0.0800 
 33 H       -1.6850     5.2600    -1.8870 H     1 <1>   0.0800 
 34 H        2.3040     3.7830    -0.7220 H     1 <1>   0.4570 
 35 H        4.4180     4.8860    -0.2580 H     1 <1>   0.1500 
 36 H        4.2890     7.3290     0.2290 H     1 <1>   0.1500 
 37 H        3.6290     8.8800     1.6680 H     1 <1>   0.0800 
 38 H        2.5100    10.2040     1.7090 H     1 <1>   0.0800 
 39 H        0.2200     9.0010    -0.8070 H     1 <1>   0.0800 
 40 H        0.9770    10.4740    -0.2710 H     1 <1>   0.0800 
 41 H        0.1240     9.4650     0.8790 H     1 <1>   0.0800 
 42 H        4.3880     9.6200    -0.6070 H     1 <1>   0.0800 
 43 H        4.6270    10.8560     0.6010 H     1 <1>   0.0800 
 44 H        3.2860    10.9770    -0.5050 H     1 <1>   0.0800 
@<TRIPOS>BOND
  1   1   2  2   
  2   2   3  am  
  3   2   4  1   
  4   3   5  1   
  5   3  22  1   
  6   4   6  1   
  7   4   7  1   
  8   4  23  1   
  9   5   8  1   
 10   5  24  1   
 11   5  25  1   
 12   6   8  1   
 13   6   9  1   
 14   7  10  1   
 15   7  26  1   
 16   7  27  1   
 17   8  28  1   
 18   8  29  1   
 19   9  11  1   
 20   9  30  1   
 21   9  31  1   
 22  10  11  1   
 23  10  12  1   
 24  11  32  1   
 25  11  33  1   
 26  12  13  ar  
 27  12  14  ar  
 28  13  15  ar  
 29  14  16  ar  
 30  14  34  1   
 31  15  17  1   
 32  15  18  ar  
 33  16  18  ar  
 34  16  35  1   
 35  17  19  1   
 36  17  20  1   
 37  18  36  1   
 38  19  21  1   
 39  19  37  1   
 40  19  38  1   
 41  20  39  1   
 42  20  40  1   
 43  20  41  1   
 44  21  42  1   
 45  21  43  1   
 46  21  44  1   
@<TRIPOS>SUBSTRUCTURE
  1 ****  10 GROUP 4 **** **** 0

# MOE 2024.06 (io_trps.svl 2023.06)
