@<TRIPOS>MOLECULE
NONAME
56 59 1 0 0 
SMALL
USER_CHARGES


@<TRIPOS>ATOM
  1 O       -1.3540    -0.0920     0.8790 O.3   1 <1>  -0.3630 
  2 C       -2.5060     0.2480     0.2450 C.ar  1 <1>   0.0820 
  3 C       -0.7300     0.7690     1.8080 C.3   1 <1>   0.1200 
  4 C       -2.9580    -0.5780    -0.7550 C.ar  1 <1>  -0.1440 
  5 C       -3.2440     1.3940     0.5910 C.ar  1 <1>  -0.1500 
  6 C        0.5740     0.1130     2.2640 C.3   1 <1>  -0.1600 
  7 C       -4.1530    -0.2970    -1.4620 C.ar  1 <1>   0.0000 
  8 C       -2.1580    -1.8200    -1.0860 C.3   1 <1>   0.4870 
  9 C       -4.4070     1.6780    -0.0640 C.ar  1 <1>  -0.1500 
 10 C        1.3110     0.9920     3.2800 C.3   1 <1>  -0.2400 
 11 C       -4.8930     0.8500    -1.0940 C.ar  1 <1>   0.0000 
 12 C       -4.6590    -1.0920    -2.5190 C.ar  1 <1>  -0.1500 
 13 N       -2.7880    -2.9590    -0.3760 N.4   1 <1>  -0.9590 
 14 C       -6.0940     1.1440    -1.7690 C.ar  1 <1>  -0.1500 
 15 C       -5.8250    -0.7790    -3.1610 C.ar  1 <1>  -0.1500 
 16 C       -2.5930    -2.9270     1.1040 C.3   1 <1>   0.3430 
 17 C       -2.4430    -4.3220    -0.8320 C.3   1 <1>   0.3430 
 18 C       -6.5540     0.3500    -2.7810 C.ar  1 <1>  -0.1500 
 19 C       -2.6540    -4.3890     1.5690 C.3   1 <1>   0.2000 
 20 C       -2.8950    -5.2350     0.3100 C.3   1 <1>  -0.0800 
 21 O       -1.4330    -4.7520     2.1260 O.3   1 <1>  -0.6800 
 22 C       -4.3650    -5.7150     0.1740 C.3   1 <1>  -0.0170 
 23 C       -5.3810    -4.6850    -0.3220 C.ar  1 <1>   0.1670 
 24 N       -5.5020    -3.5660     0.3780 N.ar  1 <1>  -0.6200 
 25 C       -6.1320    -4.9520    -1.4660 C.ar  1 <1>   0.1600 
 26 C       -6.4290    -2.7570    -0.1160 C.ar  1 <1>   0.1600 
 27 N       -7.0290    -4.1300    -1.9800 N.ar  1 <1>  -0.6200 
 28 C       -7.1680    -3.0310    -1.2590 C.ar  1 <1>   0.1600 
 29 H       -0.5320     1.7110     1.3240 H     1 <1>   0.0800 
 30 H       -1.3930     0.9110     2.6440 H     1 <1>   0.0800 
 31 H       -2.9080     2.0540     1.3700 H     1 <1>   0.1500 
 32 H        0.3570    -0.8390     2.7170 H     1 <1>   0.0800 
 33 H        1.2110    -0.0440     1.4100 H     1 <1>   0.0800 
 34 H       -1.1350    -1.7030    -0.7680 H     1 <1>   0.0800 
 35 H       -2.1670    -1.9830    -2.1500 H     1 <1>   0.0800 
 36 H       -4.9750     2.5530     0.1990 H     1 <1>   0.1500 
 37 H        0.7030     1.1520     4.1540 H     1 <1>   0.0800 
 38 H        1.5570     1.9460     2.8480 H     1 <1>   0.0800 
 39 H        2.2250     0.5130     3.5860 H     1 <1>   0.0800 
 40 H       -4.1280    -1.9660    -2.8440 H     1 <1>   0.1500 
 41 H       -3.8170    -2.8560    -0.4790 H     1 <1>   0.4500 
 42 H       -6.6470     2.0190    -1.4760 H     1 <1>   0.1500 
 43 H       -6.1990    -1.3920    -3.9650 H     1 <1>   0.1500 
 44 H       -1.6400    -2.4960     1.3620 H     1 <1>   0.0800 
 45 H       -3.3800    -2.3520     1.5640 H     1 <1>   0.0800 
 46 H       -2.9350    -4.5670    -1.7600 H     1 <1>   0.0800 
 47 H       -1.3760    -4.4030    -0.9590 H     1 <1>   0.0800 
 48 H       -7.4700     0.5840    -3.2980 H     1 <1>   0.1500 
 49 H       -3.4120    -4.5290     2.3220 H     1 <1>   0.0800 
 50 H       -2.2780    -6.1170     0.3360 H     1 <1>   0.0800 
 51 H       -0.6860    -4.6790     1.5020 H     1 <1>   0.4000 
 52 H       -4.7030    -6.0900     1.1250 H     1 <1>   0.0800 
 53 H       -4.3760    -6.5540    -0.4990 H     1 <1>   0.0800 
 54 H       -5.9910    -5.8850    -1.9850 H     1 <1>   0.1500 
 55 H       -6.6130    -1.8300     0.4000 H     1 <1>   0.1500 
 56 H       -7.8960    -2.3110    -1.5900 H     1 <1>   0.1500 
@<TRIPOS>BOND
  1   1   2  1   
  2   1   3  1   
  3   2   4  ar  
  4   2   5  ar  
  5   3   6  1   
  6   3  29  1   
  7   3  30  1   
  8   4   7  ar  
  9   4   8  1   
 10   5   9  ar  
 11   5  31  1   
 12   6  10  1   
 13   6  32  1   
 14   6  33  1   
 15   7  11  ar  
 16   7  12  ar  
 17   8  13  1   
 18   8  34  1   
 19   8  35  1   
 20   9  11  ar  
 21   9  36  1   
 22  10  37  1   
 23  10  38  1   
 24  10  39  1   
 25  11  14  ar  
 26  12  15  ar  
 27  12  40  1   
 28  13  16  1   
 29  13  17  1   
 30  13  41  1   
 31  14  18  ar  
 32  14  42  1   
 33  15  18  ar  
 34  15  43  1   
 35  16  19  1   
 36  16  44  1   
 37  16  45  1   
 38  17  20  1   
 39  17  46  1   
 40  17  47  1   
 41  18  48  1   
 42  19  20  1   
 43  19  21  1   
 44  19  49  1   
 45  20  22  1   
 46  20  50  1   
 47  21  51  1   
 48  22  23  1   
 49  22  52  1   
 50  22  53  1   
 51  23  24  ar  
 52  23  25  ar  
 53  24  26  ar  
 54  25  27  ar  
 55  25  54  1   
 56  26  28  ar  
 57  26  55  1   
 58  27  28  ar  
 59  28  56  1   
@<TRIPOS>SUBSTRUCTURE
  1 ****  13 GROUP 4 **** **** 0

# MOE 2024.06 (io_trps.svl 2023.06)
