@<TRIPOS>MOLECULE
NONAME
34 36 1 0 0 
SMALL
USER_CHARGES


@<TRIPOS>ATOM
  1 CL      -0.0100     0.4080     1.2360 Cl    1 <1>  -0.1240 
  2 C        1.0540     1.7420     0.8910 C.2   1 <1>   0.1640 
  3 S        0.3430     3.1280     0.0940 S.3   1 <1>  -0.0800 
  4 C        2.3630     1.9190     1.1280 C.2   1 <1>  -0.1500 
  5 C        1.8940     3.9650     0.0920 C.2   1 <1>  -0.1400 
  6 C        2.8430     3.1900     0.6710 C.2   1 <1>  -0.1500 
  7 C        1.8430     5.3480    -0.5450 C.3   1 <1>   0.5230 
  8 N        3.1540     6.0600    -0.5030 N.4   1 <1>  -0.9590 
  9 C        3.5730     6.3460     0.9250 C.3   1 <1>   0.3430 
 10 C        4.1740     5.3560    -1.3680 C.3   1 <1>   0.3430 
 11 C        4.7950     7.2930     1.0730 C.3   1 <1>   0.2200 
 12 C        5.5050     6.0980    -1.5550 C.3   1 <1>  -0.0190 
 13 N        5.0200     8.0960    -0.1650 N.am  1 <1>  -0.7300 
 14 C        6.0470     6.4770     1.4380 C.3   1 <1>   0.1200 
 15 C        5.3340     7.5890    -1.3770 C.2   1 <1>   0.5690 
 16 C        6.6140     5.5370    -0.6560 C.3   1 <1>   0.1200 
 17 O        6.1430     5.3320     0.6410 O.3   1 <1>  -0.5600 
 18 O        5.4160     8.3100    -2.3310 O.2   1 <1>  -0.5700 
 19 H        3.0090     1.2030     1.6070 H     1 <1>   0.1500 
 20 H        3.8830     3.4300     0.8130 H     1 <1>   0.1500 
 21 H        1.0990     5.9340    -0.0300 H     1 <1>   0.0800 
 22 H        1.5210     5.2430    -1.5680 H     1 <1>   0.0800 
 23 H        3.0150     6.9880    -0.9330 H     1 <1>   0.4500 
 24 H        2.7460     6.8010     1.4440 H     1 <1>   0.0800 
 25 H        3.7920     5.4240     1.4380 H     1 <1>   0.0800 
 26 H        4.3810     4.3770    -0.9710 H     1 <1>   0.0800 
 27 H        3.7440     5.2160    -2.3470 H     1 <1>   0.0800 
 28 H        4.6080     7.9730     1.8860 H     1 <1>   0.0800 
 29 H        5.8300     5.9340    -2.5670 H     1 <1>   0.0800 
 30 H        5.0190     9.1200    -0.0860 H     1 <1>   0.3700 
 31 H        5.9680     6.1370     2.4570 H     1 <1>   0.0800 
 32 H        6.9460     7.0640     1.3520 H     1 <1>   0.0800 
 33 H        7.4770     6.1840    -0.6320 H     1 <1>   0.0800 
 34 H        6.9290     4.5760    -1.0260 H     1 <1>   0.0800 
@<TRIPOS>BOND
  1   1   2  1   
  2   2   3  1   
  3   2   4  2   
  4   3   5  1   
  5   4   6  1   
  6   4  19  1   
  7   5   6  2   
  8   5   7  1   
  9   6  20  1   
 10   7   8  1   
 11   7  21  1   
 12   7  22  1   
 13   8   9  1   
 14   8  10  1   
 15   8  23  1   
 16   9  11  1   
 17   9  24  1   
 18   9  25  1   
 19  10  12  1   
 20  10  26  1   
 21  10  27  1   
 22  11  13  1   
 23  11  14  1   
 24  11  28  1   
 25  12  15  1   
 26  12  16  1   
 27  12  29  1   
 28  13  15  am  
 29  13  30  1   
 30  14  17  1   
 31  14  31  1   
 32  14  32  1   
 33  15  18  2   
 34  16  17  1   
 35  16  33  1   
 36  16  34  1   
@<TRIPOS>SUBSTRUCTURE
  1 ****   8 GROUP 4 **** **** 0

# MOE 2024.06 (io_trps.svl 2023.06)
