@<TRIPOS>MOLECULE
NONAME
35 36 1 0 0 
SMALL
USER_CHARGES


@<TRIPOS>ATOM
  1 CL       0.5530     0.4810    -1.1900 Cl    1 <1>  -0.1770 
  2 C        1.5150    -0.8110    -0.4880 C.ar  1 <1>   0.1770 
  3 C        1.1230    -2.1480    -0.5360 C.ar  1 <1>   0.4100 
  4 C        2.7030    -0.5050     0.1170 C.ar  1 <1>   0.1600 
  5 N        1.9060    -3.0820    -0.0180 N.ar  1 <1>  -0.6200 
  6 N       -0.0670    -2.5760    -1.1020 N.pl3 1 <1>  -0.8380 
  7 N        3.4810    -1.4330     0.6480 N.ar  1 <1>  -0.6200 
  8 C        3.0280    -2.6710     0.5420 C.ar  1 <1>   0.4770 
  9 C       -0.1370    -3.8610    -1.8460 C.3   1 <1>   0.2090 
 10 C       -1.3680    -2.0760    -0.5900 C.3   1 <1>   0.2090 
 11 C        3.9080    -3.7480     1.1310 C.3   1 <1>  -0.0960 
 12 C       -0.7950    -4.9380    -0.9770 C.3   1 <1>  -0.1600 
 13 C       -2.0210    -3.1460     0.2880 C.3   1 <1>  -0.1600 
 14 C       -2.1700    -4.4900    -0.4440 C.3   1 <1>  -0.0800 
 15 C       -2.7950    -5.5320     0.5020 C.3   1 <1>  -0.1600 
 16 C       -3.0920    -6.8620    -0.1930 C.3   1 <1>   0.1200 
 17 O       -3.7650    -7.6750     0.6980 O.3   1 <1>  -0.6800 
 18 H        3.0270     0.5190     0.1680 H     1 <1>   0.1500 
 19 H        0.8520    -4.1760    -2.1330 H     1 <1>   0.0800 
 20 H       -0.7120    -3.7130    -2.7430 H     1 <1>   0.0800 
 21 H       -2.0060    -1.8370    -1.4240 H     1 <1>   0.0800 
 22 H       -1.2230    -1.1820    -0.0090 H     1 <1>   0.0800 
 23 H        3.3170    -4.6040     1.4010 H     1 <1>   0.0800 
 24 H        4.4050    -3.3770     2.0090 H     1 <1>   0.0800 
 25 H        4.6430    -4.0400     0.4060 H     1 <1>   0.0800 
 26 H       -0.1360    -5.1550    -0.1540 H     1 <1>   0.0800 
 27 H       -0.8910    -5.8300    -1.5670 H     1 <1>   0.0800 
 28 H       -2.9870    -2.7920     0.6020 H     1 <1>   0.0800 
 29 H       -1.4160    -3.2740     1.1680 H     1 <1>   0.0800 
 30 H       -2.8310    -4.3450    -1.2820 H     1 <1>   0.0800 
 31 H       -3.7210    -5.1370     0.8830 H     1 <1>   0.0800 
 32 H       -2.1310    -5.7020     1.3310 H     1 <1>   0.0800 
 33 H       -2.1900    -7.3680    -0.4920 H     1 <1>   0.0800 
 34 H       -3.7270    -6.7170    -1.0510 H     1 <1>   0.0800 
 35 H       -3.2280    -7.8220     1.5000 H     1 <1>   0.4000 
@<TRIPOS>BOND
  1   1   2  1   
  2   2   3  ar  
  3   2   4  ar  
  4   3   5  ar  
  5   3   6  1   
  6   4   7  ar  
  7   4  18  1   
  8   5   8  ar  
  9   6   9  1   
 10   6  10  1   
 11   7   8  ar  
 12   8  11  1   
 13   9  12  1   
 14   9  19  1   
 15   9  20  1   
 16  10  13  1   
 17  10  21  1   
 18  10  22  1   
 19  11  23  1   
 20  11  24  1   
 21  11  25  1   
 22  12  14  1   
 23  12  26  1   
 24  12  27  1   
 25  13  14  1   
 26  13  28  1   
 27  13  29  1   
 28  14  15  1   
 29  14  30  1   
 30  15  16  1   
 31  15  31  1   
 32  15  32  1   
 33  16  17  1   
 34  16  33  1   
 35  16  34  1   
 36  17  35  1   
@<TRIPOS>SUBSTRUCTURE
  1 ****   6 GROUP 4 **** **** 0

# MOE 2024.06 (io_trps.svl 2023.06)
