@<TRIPOS>MOLECULE
NONAME
48 50 1 0 0 
SMALL
USER_CHARGES


@<TRIPOS>ATOM
  1 F        0.6790     1.9170    -2.3740 F     1 <1>  -0.3400 
  2 C        1.6390     2.7820    -2.6700 C.3   1 <1>   0.7800 
  3 F        2.7360     2.0440    -2.7560 F     1 <1>  -0.3400 
  4 C        1.7890     3.7630    -1.5310 C.2   1 <1>  -0.3320 
  5 N        2.0290     3.3530    -0.2760 N.pl3 1 <1>   0.3000 
  6 C        1.7260     5.1100    -1.4890 C.2   1 <1>  -0.1500 
  7 N        2.1210     4.3820     0.5780 N.2   1 <1>  -0.7070 
  8 C        1.9400     5.4740    -0.1510 C.2   1 <1>   0.2030 
  9 C        1.9280     6.8690     0.2950 C.2   1 <1>   0.7160 
 10 O        1.4460     7.7180    -0.4420 O.2   1 <1>  -0.5700 
 11 N        2.4310     7.2960     1.5160 N.am  1 <1>  -0.6600 
 12 C        3.4100     6.4600     2.2890 C.3   1 <1>   0.1400 
 13 C        2.0190     8.6090     2.0870 C.3   1 <1>   0.1400 
 14 C        4.3970     7.2510     3.1630 C.3   1 <1>   0.1400 
 15 C        3.0270     9.7060     1.7210 C.3   1 <1>  -0.1600 
 16 N        5.0200     8.3770     2.4090 N.am  1 <1>  -0.6600 
 17 C        4.3150     9.6780     2.5500 C.3   1 <1>   0.1400 
 18 C        6.1000     8.1450     1.5970 C.2   1 <1>   0.5690 
 19 O        6.6310     7.0590     1.5520 O.2   1 <1>  -0.5700 
 20 C        6.6590     9.2630     0.7270 C.3   1 <1>  -0.0990 
 21 C        7.7180     8.7970    -0.2820 C.3   1 <1>  -0.0170 
 22 C        8.2190     9.9760    -1.1030 C.ar  1 <1>  -0.1430 
 23 C        9.3550    10.6770    -0.7230 C.ar  1 <1>   0.1600 
 24 C        7.5450    10.3730    -2.2410 C.ar  1 <1>  -0.1500 
 25 N        9.8570    11.7190    -1.3680 N.ar  1 <1>  -0.6200 
 26 C        8.0540    11.4540    -2.9270 C.ar  1 <1>  -0.1500 
 27 C        9.1950    12.0810    -2.4540 C.ar  1 <1>   0.1600 
 28 H        1.4330     3.2180    -3.6320 H     1 <1>   0.0800 
 29 H        2.1300     2.3710     0.0200 H     1 <1>   0.2700 
 30 H        1.5480     5.8120    -2.2860 H     1 <1>   0.1500 
 31 H        3.9950     5.8790     1.5970 H     1 <1>   0.0800 
 32 H        2.8660     5.7700     2.9090 H     1 <1>   0.0800 
 33 H        1.9080     8.5300     3.1540 H     1 <1>   0.0800 
 34 H        1.0560     8.8760     1.6850 H     1 <1>   0.0800 
 35 H        5.1670     6.5800     3.5060 H     1 <1>   0.0800 
 36 H        3.8920     7.6240     4.0360 H     1 <1>   0.0800 
 37 H        2.5540    10.6560     1.8870 H     1 <1>   0.0800 
 38 H        3.2580     9.6480     0.6720 H     1 <1>   0.0800 
 39 H        4.0800     9.8380     3.5880 H     1 <1>   0.0800 
 40 H        4.9530    10.4870     2.2440 H     1 <1>   0.0800 
 41 H        7.0930    10.0060     1.3700 H     1 <1>   0.0800 
 42 H        5.8480     9.7130     0.1860 H     1 <1>   0.0800 
 43 H        7.2940     8.0530    -0.9340 H     1 <1>   0.0800 
 44 H        8.5420     8.3390     0.2390 H     1 <1>   0.0800 
 45 H        9.8810    10.3650     0.1630 H     1 <1>   0.1500 
 46 H        6.6600     9.8630    -2.5810 H     1 <1>   0.1500 
 47 H        7.5750    11.8100    -3.8200 H     1 <1>   0.1500 
 48 H        9.5830    12.9250    -2.9990 H     1 <1>   0.1500 
@<TRIPOS>BOND
  1   1   2  1   
  2   2   3  1   
  3   2   4  1   
  4   2  28  1   
  5   4   5  1   
  6   4   6  2   
  7   5   7  1   
  8   5  29  1   
  9   6   8  1   
 10   6  30  1   
 11   7   8  2   
 12   8   9  1   
 13   9  10  2   
 14   9  11  am  
 15  11  12  1   
 16  11  13  1   
 17  12  14  1   
 18  12  31  1   
 19  12  32  1   
 20  13  15  1   
 21  13  33  1   
 22  13  34  1   
 23  14  16  1   
 24  14  35  1   
 25  14  36  1   
 26  15  17  1   
 27  15  37  1   
 28  15  38  1   
 29  16  17  1   
 30  16  18  am  
 31  17  39  1   
 32  17  40  1   
 33  18  19  2   
 34  18  20  1   
 35  20  21  1   
 36  20  41  1   
 37  20  42  1   
 38  21  22  1   
 39  21  43  1   
 40  21  44  1   
 41  22  23  ar  
 42  22  24  ar  
 43  23  25  ar  
 44  23  45  1   
 45  24  26  ar  
 46  24  46  1   
 47  25  27  ar  
 48  26  27  ar  
 49  26  47  1   
 50  27  48  1   
@<TRIPOS>SUBSTRUCTURE
  1 ****  18 GROUP 4 **** **** 0

# MOE 2024.06 (io_trps.svl 2023.06)
