@<TRIPOS>MOLECULE
NONAME
44 45 1 0 0 
SMALL
USER_CHARGES


@<TRIPOS>ATOM
  1 O        1.2870     0.4120     2.7130 O.2   1 <1>  -0.5700 
  2 C        1.2320    -0.2190     1.6870 C.2   1 <1>   0.5690 
  3 N        1.6780     0.2860     0.5080 N.am  1 <1>  -0.7300 
  4 C        0.6390    -1.6180     1.7390 C.3   1 <1>  -0.0990 
  5 C        2.3030     1.6150     0.3240 C.3   1 <1>   0.1400 
  6 C        0.7060    -2.4060     0.4160 C.3   1 <1>  -0.1600 
  7 C        3.6410     1.4850    -0.4150 C.3   1 <1>  -0.0800 
  8 C        0.1080    -3.8190     0.5560 C.3   1 <1>  -0.0990 
  9 C        4.3000     2.8700    -0.5310 C.3   1 <1>   0.1200 
 10 C        3.4820     0.8540    -1.8130 C.3   1 <1>  -0.1600 
 11 C        0.1550    -4.6440    -0.7330 C.2   1 <1>   0.4230 
 12 O        5.5050     2.7730    -1.2290 O.3   1 <1>  -0.5600 
 13 C        4.8120     0.9240    -2.5740 C.3   1 <1>  -0.1600 
 14 O        0.5600    -4.1030    -1.7310 O.2   1 <1>  -0.5700 
 15 C       -0.2810    -6.0290    -0.7170 C.ar  1 <1>   0.0860 
 16 C        5.3830     2.3460    -2.5500 C.3   1 <1>   0.1200 
 17 C       -0.1570    -6.8130    -1.8680 C.ar  1 <1>  -0.1500 
 18 C       -0.8350    -6.6500     0.4090 C.ar  1 <1>  -0.1500 
 19 C       -0.5570    -8.1360    -1.8990 C.ar  1 <1>  -0.1500 
 20 C       -1.2370    -7.9740     0.3850 C.ar  1 <1>  -0.1500 
 21 C       -1.0980    -8.7210    -0.7690 C.ar  1 <1>  -0.1500 
 22 H        1.6120    -0.2890    -0.3330 H     1 <1>   0.3700 
 23 H       -0.3860    -1.5220     2.0480 H     1 <1>   0.0800 
 24 H        1.1620    -2.1600     2.5050 H     1 <1>   0.0800 
 25 H        2.4650     2.0720     1.2870 H     1 <1>   0.0800 
 26 H        1.6300     2.2430    -0.2350 H     1 <1>   0.0800 
 27 H        1.7330    -2.4920     0.1010 H     1 <1>   0.0800 
 28 H        0.1630    -1.8740    -0.3470 H     1 <1>   0.0800 
 29 H        4.2930     0.8700     0.1820 H     1 <1>   0.0800 
 30 H       -0.9180    -3.7340     0.8640 H     1 <1>   0.0800 
 31 H        0.6510    -4.3490     1.3170 H     1 <1>   0.0800 
 32 H        4.5240     3.2620     0.4470 H     1 <1>   0.0800 
 33 H        3.6620     3.5660    -1.0490 H     1 <1>   0.0800 
 34 H        2.7310     1.3900    -2.3670 H     1 <1>   0.0800 
 35 H        3.1740    -0.1740    -1.7330 H     1 <1>   0.0800 
 36 H        4.6680     0.6110    -3.5930 H     1 <1>   0.0800 
 37 H        5.5270     0.2590    -2.1230 H     1 <1>   0.0800 
 38 H        6.3630     2.3660    -2.9930 H     1 <1>   0.0800 
 39 H        4.7440     3.0340    -3.0780 H     1 <1>   0.0800 
 40 H        0.2620    -6.3730    -2.7570 H     1 <1>   0.1500 
 41 H       -0.9630    -6.1050     1.3250 H     1 <1>   0.1500 
 42 H       -0.4470    -8.7120    -2.8020 H     1 <1>   0.1500 
 43 H       -1.6590    -8.4280     1.2650 H     1 <1>   0.1500 
 44 H       -1.4100    -9.7510    -0.7900 H     1 <1>   0.1500 
@<TRIPOS>BOND
  1   1   2  2   
  2   2   3  am  
  3   2   4  1   
  4   3   5  1   
  5   3  22  1   
  6   4   6  1   
  7   4  23  1   
  8   4  24  1   
  9   5   7  1   
 10   5  25  1   
 11   5  26  1   
 12   6   8  1   
 13   6  27  1   
 14   6  28  1   
 15   7   9  1   
 16   7  10  1   
 17   7  29  1   
 18   8  11  1   
 19   8  30  1   
 20   8  31  1   
 21   9  12  1   
 22   9  32  1   
 23   9  33  1   
 24  10  13  1   
 25  10  34  1   
 26  10  35  1   
 27  11  14  2   
 28  11  15  1   
 29  12  16  1   
 30  13  16  1   
 31  13  36  1   
 32  13  37  1   
 33  15  17  ar  
 34  15  18  ar  
 35  16  38  1   
 36  16  39  1   
 37  17  19  ar  
 38  17  40  1   
 39  18  20  ar  
 40  18  41  1   
 41  19  21  ar  
 42  19  42  1   
 43  20  21  ar  
 44  20  43  1   
 45  21  44  1   
@<TRIPOS>SUBSTRUCTURE
  1 ****   6 GROUP 4 **** **** 0

# MOE 2024.06 (io_trps.svl 2023.06)
