@<TRIPOS>MOLECULE
NONAME
39 39 1 0 0 
SMALL
USER_CHARGES


@<TRIPOS>ATOM
  1 O       -0.0710     0.4350     0.2620 O.2   1 <1>  -0.5700 
  2 C       -1.1670     0.9610     0.2440 C.2   1 <1>   0.7800 
  3 O       -2.2220     0.3230    -0.2710 O.3   1 <1>  -0.4300 
  4 N       -1.3790     2.2210     0.7460 N.am  1 <1>  -0.6600 
  5 C       -2.2500    -0.9650    -0.8460 C.3   1 <1>   0.2800 
  6 C       -0.2710     3.0330     1.3110 C.3   1 <1>   0.1400 
  7 C       -2.7100     2.8820     0.7670 C.3   1 <1>   0.1400 
  8 C       -1.8660    -2.0220     0.1960 C.3   1 <1>  -0.2400 
  9 C       -3.7040    -1.1800    -1.2680 C.3   1 <1>  -0.2400 
 10 C       -1.3520    -1.0120    -2.0880 C.3   1 <1>  -0.2400 
 11 C       -0.1800     4.3680     0.5670 C.3   1 <1>  -0.1600 
 12 C       -2.6360     4.2110     0.0080 C.3   1 <1>  -0.1600 
 13 C       -1.5230     5.1260     0.5680 C.3   1 <1>  -0.0800 
 14 C       -1.3940     6.4870    -0.1560 C.3   1 <1>   0.2000 
 15 O       -1.0890     6.2890    -1.4850 O.3   1 <1>  -0.6800 
 16 C       -2.6570     7.3440    -0.1080 C.3   1 <1>  -0.2400 
 17 H       -0.4620     3.2060     2.3560 H     1 <1>   0.0800 
 18 H        0.6670     2.5100     1.2260 H     1 <1>   0.0800 
 19 H       -3.4610     2.2550     0.3190 H     1 <1>   0.0800 
 20 H       -2.9930     3.0590     1.7900 H     1 <1>   0.0800 
 21 H       -2.0240    -3.0060    -0.2040 H     1 <1>   0.0800 
 22 H       -2.4670    -1.9110     1.0800 H     1 <1>   0.0800 
 23 H       -0.8280    -1.9440     0.4630 H     1 <1>   0.0800 
 24 H       -3.8230    -2.1480    -1.7220 H     1 <1>   0.0800 
 25 H       -3.9990    -0.4330    -1.9820 H     1 <1>   0.0800 
 26 H       -4.3520    -1.1250    -0.4120 H     1 <1>   0.0800 
 27 H       -1.4860    -1.9460    -2.6020 H     1 <1>   0.0800 
 28 H       -0.3150    -0.9350    -1.8200 H     1 <1>   0.0800 
 29 H       -1.6030    -0.2120    -2.7610 H     1 <1>   0.0800 
 30 H        0.5800     4.9730     1.0290 H     1 <1>   0.0800 
 31 H        0.1350     4.1720    -0.4440 H     1 <1>   0.0800 
 32 H       -2.4570     3.9950    -1.0300 H     1 <1>   0.0800 
 33 H       -3.5920     4.6940     0.0870 H     1 <1>   0.0800 
 34 H       -1.7660     5.3410     1.5940 H     1 <1>   0.0800 
 35 H       -0.5780     7.0430     0.2750 H     1 <1>   0.0800 
 36 H       -1.7550     5.7030    -1.8890 H     1 <1>   0.4000 
 37 H       -3.4710     6.8800    -0.6350 H     1 <1>   0.0800 
 38 H       -2.4580     8.3040    -0.5510 H     1 <1>   0.0800 
 39 H       -2.9520     7.5040     0.9130 H     1 <1>   0.0800 
@<TRIPOS>BOND
  1   1   2  2   
  2   2   3  1   
  3   2   4  am  
  4   3   5  1   
  5   4   6  1   
  6   4   7  1   
  7   5   8  1   
  8   5   9  1   
  9   5  10  1   
 10   6  11  1   
 11   6  17  1   
 12   6  18  1   
 13   7  12  1   
 14   7  19  1   
 15   7  20  1   
 16   8  21  1   
 17   8  22  1   
 18   8  23  1   
 19   9  24  1   
 20   9  25  1   
 21   9  26  1   
 22  10  27  1   
 23  10  28  1   
 24  10  29  1   
 25  11  13  1   
 26  11  30  1   
 27  11  31  1   
 28  12  13  1   
 29  12  32  1   
 30  12  33  1   
 31  13  14  1   
 32  13  34  1   
 33  14  15  1   
 34  14  16  1   
 35  14  35  1   
 36  15  36  1   
 37  16  37  1   
 38  16  38  1   
 39  16  39  1   
@<TRIPOS>SUBSTRUCTURE
  1 ****   4 GROUP 4 **** **** 0

# MOE 2024.06 (io_trps.svl 2023.06)
