@<TRIPOS>MOLECULE
NONAME
49 51 1 0 0 
SMALL
USER_CHARGES


@<TRIPOS>ATOM
  1 O       -0.0590     0.1500    -1.2010 O.2   1 <1>  -0.5700 
  2 C        0.8600    -0.6200    -1.0540 C.2   1 <1>   0.5690 
  3 N        2.1000    -0.2380    -0.5790 N.am  1 <1>  -0.4770 
  4 C        0.5710    -2.0980    -1.3820 C.3   1 <1>   0.4040 
  5 C        2.3390     0.8750     0.2820 C.ar  1 <1>   0.1170 
  6 C        3.3380    -0.9160    -1.0740 C.3   1 <1>   0.1400 
  7 N       -0.4070    -2.7850    -0.4400 N.4   1 <1>  -0.9590 
  8 C        3.6310     1.4110     0.4100 C.ar  1 <1>   0.0830 
  9 C        1.3310     1.4480     1.0560 C.ar  1 <1>  -0.1500 
 10 C        4.4120     0.1210    -1.4180 C.3   1 <1>   0.1200 
 11 C       -0.4120    -4.2660    -0.6740 C.3   1 <1>   0.3430 
 12 C       -1.7790    -2.1830    -0.5760 C.3   1 <1>   0.2630 
 13 O        4.6860     0.9170    -0.2900 O.3   1 <1>  -0.3630 
 14 C        3.8900     2.4640     1.2700 C.ar  1 <1>  -0.1500 
 15 C        1.5890     2.5060     1.9120 C.ar  1 <1>  -0.1500 
 16 C       -1.1750    -5.0340     0.4070 C.3   1 <1>   0.0210 
 17 C        2.8690     3.0160     2.0220 C.ar  1 <1>  -0.1500 
 18 C       -0.9750    -6.5110     0.1450 C.2   1 <1>  -0.1810 
 19 C        0.0390    -7.3180     0.6600 C.2   1 <1>   0.1080 
 20 C       -1.7110    -7.3350    -0.6350 C.2   1 <1>  -0.3320 
 21 N       -0.0440    -8.5340     0.2310 N.2   1 <1>  -0.7070 
 22 C        1.1340    -6.8960     1.6160 C.3   1 <1>  -0.0590 
 23 N       -1.1290    -8.5510    -0.5600 N.pl3 1 <1>   0.3000 
 24 C       -2.9570    -7.0810    -1.4680 C.3   1 <1>  -0.0600 
 25 H        1.5020    -2.6340    -1.3680 H     1 <1>   0.0800 
 26 H        0.1850    -2.1390    -2.3860 H     1 <1>   0.0800 
 27 H        3.1330    -1.4890    -1.9600 H     1 <1>   0.0800 
 28 H        3.7180    -1.5750    -0.3130 H     1 <1>   0.0800 
 29 H       -0.0820    -2.6030     0.5220 H     1 <1>   0.4500 
 30 H        0.3240     1.0820     1.0080 H     1 <1>   0.1500 
 31 H        4.0790     0.7700    -2.2100 H     1 <1>   0.0800 
 32 H        5.3300    -0.3550    -1.7140 H     1 <1>   0.0800 
 33 H        0.6020    -4.6320    -0.6860 H     1 <1>   0.0800 
 34 H       -0.8500    -4.4880    -1.6340 H     1 <1>   0.0800 
 35 H       -2.1480    -2.3080    -1.5810 H     1 <1>   0.0800 
 36 H       -1.7540    -1.1280    -0.3520 H     1 <1>   0.0800 
 37 H       -2.4690    -2.6520     0.1060 H     1 <1>   0.0800 
 38 H        4.8910     2.8500     1.3460 H     1 <1>   0.1500 
 39 H        0.7920     2.9350     2.4950 H     1 <1>   0.1500 
 40 H       -2.2250    -4.8120     0.3690 H     1 <1>   0.0800 
 41 H       -0.8010    -4.7910     1.3850 H     1 <1>   0.0800 
 42 H        3.0720     3.8370     2.6870 H     1 <1>   0.1500 
 43 H        1.6620    -6.0460     1.2310 H     1 <1>   0.0800 
 44 H        1.8310    -7.7050     1.7460 H     1 <1>   0.0800 
 45 H        0.7080    -6.6570     2.5730 H     1 <1>   0.0800 
 46 H       -1.4440    -9.4100    -1.0290 H     1 <1>   0.2700 
 47 H       -3.2660    -6.0550    -1.4020 H     1 <1>   0.0800 
 48 H       -3.7650    -7.7000    -1.1180 H     1 <1>   0.0800 
 49 H       -2.7670    -7.3160    -2.5010 H     1 <1>   0.0800 
@<TRIPOS>BOND
  1   1   2  2   
  2   2   3  am  
  3   2   4  1   
  4   3   5  1   
  5   3   6  1   
  6   4   7  1   
  7   4  25  1   
  8   4  26  1   
  9   5   8  ar  
 10   5   9  ar  
 11   6  10  1   
 12   6  27  1   
 13   6  28  1   
 14   7  11  1   
 15   7  12  1   
 16   7  29  1   
 17   8  13  1   
 18   8  14  ar  
 19   9  15  ar  
 20   9  30  1   
 21  10  13  1   
 22  10  31  1   
 23  10  32  1   
 24  11  16  1   
 25  11  33  1   
 26  11  34  1   
 27  12  35  1   
 28  12  36  1   
 29  12  37  1   
 30  14  17  ar  
 31  14  38  1   
 32  15  17  ar  
 33  15  39  1   
 34  16  18  1   
 35  16  40  1   
 36  16  41  1   
 37  17  42  1   
 38  18  19  1   
 39  18  20  2   
 40  19  21  2   
 41  19  22  1   
 42  20  23  1   
 43  20  24  1   
 44  21  23  1   
 45  22  43  1   
 46  22  44  1   
 47  22  45  1   
 48  23  46  1   
 49  24  47  1   
 50  24  48  1   
 51  24  49  1   
@<TRIPOS>SUBSTRUCTURE
  1 ****   4 GROUP 4 **** **** 0

# MOE 2024.06 (io_trps.svl 2023.06)
