@<TRIPOS>MOLECULE
NONAME
50 51 1 0 0 
SMALL
USER_CHARGES


@<TRIPOS>ATOM
  1 S        0.0730     0.3560     0.0240 S.o2  1 <1>   1.3330 
  2 O       -0.4950     1.6820     0.0940 O.2   1 <1>  -0.6500 
  3 O        0.0050    -0.5120     1.1780 O.2   1 <1>  -0.6500 
  4 N       -0.6360    -0.4620    -1.2830 N.am  1 <1>  -0.8490 
  5 C        1.7800     0.5190    -0.5030 C.3   1 <1>  -0.0550 
  6 C       -0.4990    -1.9210    -1.2040 C.3   1 <1>   0.1160 
  7 C       -2.0460    -0.1040    -1.4680 C.3   1 <1>   0.1160 
  8 C        2.6500     1.3380     0.4720 C.3   1 <1>  -0.0800 
  9 C        4.0250     1.6060    -0.1190 C.3   1 <1>   0.2200 
 10 C        2.9730     0.5630     1.7600 C.3   1 <1>   0.1200 
 11 N        4.5600     2.8560     0.4600 N.am  1 <1>  -0.7300 
 12 C        4.8250     0.4250     0.4130 C.3   1 <1>   0.1200 
 13 O        4.3180     0.1890     1.6880 O.3   1 <1>  -0.5600 
 14 C        4.7920     4.0150    -0.2250 C.2   1 <1>   0.7150 
 15 O        4.5430     4.0290    -1.4170 O.2   1 <1>  -0.5700 
 16 C        5.3170     5.1680     0.4730 C.2   1 <1>   0.0550 
 17 O        5.5780     6.3040    -0.1670 O.3   1 <1>  -0.2800 
 18 C        5.6300     5.3430     1.7890 C.2   1 <1>  -0.1500 
 19 C        6.0430     7.1960     0.6830 C.2   1 <1>   0.1600 
 20 C        6.0960     6.6490     1.9200 C.2   1 <1>  -0.1500 
 21 C        6.3970     8.5030     0.2280 C.1   1 <1>  -0.0200 
 22 C        6.6920     9.5930    -0.1510 C.1   1 <1>  -0.2000 
 23 C        7.0550    10.9480    -0.6440 C.3   1 <1>   0.4800 
 24 O        7.5110    11.6720     0.4250 O.3   1 <1>  -0.6800 
 25 C        5.8360    11.6750    -1.1980 C.3   1 <1>  -0.2400 
 26 C        8.1890    10.8770    -1.6600 C.3   1 <1>  -0.2400 
 27 H        2.2070    -0.4540    -0.6400 H     1 <1>   0.0800 
 28 H        1.7820     1.0140    -1.4550 H     1 <1>   0.0800 
 29 H       -0.8810    -2.3780    -2.1010 H     1 <1>   0.0800 
 30 H       -1.0430    -2.3050    -0.3560 H     1 <1>   0.0800 
 31 H        0.5380    -2.1920    -1.1000 H     1 <1>   0.0800 
 32 H       -2.4580    -0.6280    -2.3130 H     1 <1>   0.0800 
 33 H       -2.1370     0.9540    -1.6530 H     1 <1>   0.0800 
 34 H       -2.6130    -0.3500    -0.5850 H     1 <1>   0.0800 
 35 H        2.1390     2.2610     0.6920 H     1 <1>   0.0800 
 36 H        4.0310     1.6490    -1.1950 H     1 <1>   0.0800 
 37 H        2.3820    -0.3290     1.8780 H     1 <1>   0.0800 
 38 H        2.8510     1.1860     2.6290 H     1 <1>   0.0800 
 39 H        4.7890     2.7960     1.4520 H     1 <1>   0.3700 
 40 H        5.8800     0.6280     0.4720 H     1 <1>   0.0800 
 41 H        4.6530    -0.4550    -0.1810 H     1 <1>   0.0800 
 42 H        5.5450     4.6370     2.5950 H     1 <1>   0.1500 
 43 H        6.4300     7.1190     2.8270 H     1 <1>   0.1500 
 44 H        7.7540    12.5620     0.1230 H     1 <1>   0.4000 
 45 H        5.4330    11.1240    -2.0290 H     1 <1>   0.0800 
 46 H        6.0970    12.6610    -1.5370 H     1 <1>   0.0800 
 47 H        5.0740    11.7440    -0.4420 H     1 <1>   0.0800 
 48 H        7.8770    10.2950    -2.5090 H     1 <1>   0.0800 
 49 H        9.0460    10.3970    -1.2230 H     1 <1>   0.0800 
 50 H        8.4620    11.8580    -2.0020 H     1 <1>   0.0800 
@<TRIPOS>BOND
  1   1   2  2   
  2   1   3  2   
  3   1   4  am  
  4   1   5  1   
  5   4   6  1   
  6   4   7  1   
  7   5   8  1   
  8   5  27  1   
  9   5  28  1   
 10   6  29  1   
 11   6  30  1   
 12   6  31  1   
 13   7  32  1   
 14   7  33  1   
 15   7  34  1   
 16   8   9  1   
 17   8  10  1   
 18   8  35  1   
 19   9  11  1   
 20   9  12  1   
 21   9  36  1   
 22  10  13  1   
 23  10  37  1   
 24  10  38  1   
 25  11  14  am  
 26  11  39  1   
 27  12  13  1   
 28  12  40  1   
 29  12  41  1   
 30  14  15  2   
 31  14  16  1   
 32  16  17  1   
 33  16  18  2   
 34  17  19  1   
 35  18  20  1   
 36  18  42  1   
 37  19  20  2   
 38  19  21  1   
 39  20  43  1   
 40  21  22  3   
 41  22  23  1   
 42  23  24  1   
 43  23  25  1   
 44  23  26  1   
 45  24  44  1   
 46  25  45  1   
 47  25  46  1   
 48  25  47  1   
 49  26  48  1   
 50  26  49  1   
 51  26  50  1   
@<TRIPOS>SUBSTRUCTURE
  1 ****  14 GROUP 4 **** **** 0

# MOE 2024.06 (io_trps.svl 2023.06)
