@<TRIPOS>MOLECULE
NONAME
22 21 1 0 0 
SMALL
USER_CHARGES


@<TRIPOS>ATOM
  1 CL      -0.0600     0.3670    -0.8670 Cl    1 <1>  -0.2900 
  2 C        1.6210     0.8200    -0.6490 C.3   1 <1>   0.1300 
  3 C        1.6550     2.1980     0.0260 C.3   1 <1>   0.1960 
  4 N        3.0060     2.8220     0.0290 N.3   1 <1>  -1.0490 
  5 P        4.0190     2.1800     1.1950 P.3   1 <1>   1.7410 
  6 C        2.8550     4.2980     0.1400 C.3   1 <1>   0.1960 
  7 O        3.8060     0.7550     1.4490 O.co2 1 <1>  -0.9500 
  8 O        5.1230     3.0610     1.5740 O.co2 1 <1>  -0.9500 
  9 N        4.9220     1.7320    -0.0550 N.4   1 <1>  -0.8530 
 10 C        4.0540     5.0780    -0.4180 C.3   1 <1>   0.1300 
 11 CL       3.5980     6.7690    -0.5180 Cl    1 <1>  -0.2900 
 12 H        2.0680     0.8520    -1.6250 H     1 <1>   0.0800 
 13 H        2.0740     0.0530    -0.0490 H     1 <1>   0.0800 
 14 H        1.2810     2.1120     1.0340 H     1 <1>   0.0800 
 15 H        0.9720     2.8200    -0.5290 H     1 <1>   0.0800 
 16 H        2.6920     4.5810     1.1680 H     1 <1>   0.0800 
 17 H        1.9990     4.6170    -0.4310 H     1 <1>   0.0800 
 18 H        4.8200     0.7650     0.2370 H     1 <1>   0.4500 
 19 H        5.6870     2.2830     0.3200 H     1 <1>   0.4500 
 20 H        4.2870     2.1310    -0.7230 H     1 <1>   0.4500 
 21 H        4.2990     4.7570    -1.4130 H     1 <1>   0.0800 
 22 H        4.9150     5.0260     0.2220 H     1 <1>   0.0800 
@<TRIPOS>BOND
  1   1   2  1   
  2   2   3  1   
  3   2  12  1   
  4   2  13  1   
  5   3   4  1   
  6   3  14  1   
  7   3  15  1   
  8   4   5  1   
  9   4   6  1   
 10   5   7  ar  
 11   5   8  ar  
 12   5   9  1   
 13   6  10  1   
 14   6  16  1   
 15   6  17  1   
 16   9  18  1   
 17   9  19  1   
 18   9  20  1   
 19  10  11  1   
 20  10  21  1   
 21  10  22  1   
@<TRIPOS>SUBSTRUCTURE
  1 ****   4 GROUP 4 **** **** 0

# MOE 2024.06 (io_trps.svl 2023.06)
