@<TRIPOS>MOLECULE
NONAME
48 49 1 0 0 
SMALL
USER_CHARGES


@<TRIPOS>ATOM
  1 O       -0.6170     0.9290     2.2970 O.2   1 <1>  -0.5700 
  2 C       -1.0830     1.1320     1.2030 C.2   1 <1>   0.5690 
  3 N       -1.4870     0.1350     0.3820 N.am  1 <1>  -0.7300 
  4 C       -1.2030     2.5600     0.7210 C.3   1 <1>  -0.0990 
  5 C       -1.4240    -1.3020     0.6930 C.3   1 <1>   0.2200 
  6 C        0.1300     3.0570     0.1420 C.3   1 <1>  -0.0990 
  7 C       -0.5940    -1.9990    -0.3780 C.3   1 <1>  -0.1600 
  8 C       -2.8110    -1.9050     0.5100 C.3   1 <1>  -0.1600 
  9 C        0.0240     4.4950    -0.3110 C.2   1 <1>   0.5690 
 10 C       -1.5400    -2.2140    -1.5650 C.3   1 <1>  -0.1600 
 11 C       -2.9630    -2.1580    -0.9950 C.3   1 <1>  -0.1600 
 12 O       -0.4230     4.7280    -1.4070 O.2   1 <1>  -0.5700 
 13 N        0.4260     5.4740     0.5370 N.am  1 <1>  -0.7300 
 14 C        0.3930     6.9200     0.2380 C.3   1 <1>   0.1400 
 15 C        1.8100     7.4780     0.3460 C.3   1 <1>  -0.1600 
 16 C        1.8390     8.9670    -0.0200 C.3   1 <1>   0.0960 
 17 N        3.1930     9.5190     0.1660 N.pl3 1 <1>   0.3140 
 18 N        3.6000    10.0090     1.3510 N.2   1 <1>  -0.7070 
 19 C        4.1690     9.6010    -0.7600 C.2   1 <1>  -0.3020 
 20 C        4.8230    10.3920     1.1480 C.2   1 <1>   0.1390 
 21 C        5.2380    10.1620    -0.1590 C.2   1 <1>  -0.1810 
 22 C        6.5960    10.4800    -0.7500 C.3   1 <1>  -0.0590 
 23 H       -1.8620     0.3460    -0.5420 H     1 <1>   0.3700 
 24 H       -1.4900     3.1770     1.5530 H     1 <1>   0.0800 
 25 H       -1.9740     2.6280    -0.0250 H     1 <1>   0.0800 
 26 H       -1.0340    -1.4620     1.6850 H     1 <1>   0.0800 
 27 H        0.4060     2.4510    -0.7020 H     1 <1>   0.0800 
 28 H        0.9050     2.9670     0.8820 H     1 <1>   0.0800 
 29 H       -0.2880    -2.9580     0.0030 H     1 <1>   0.0800 
 30 H        0.2860    -1.4380    -0.6400 H     1 <1>   0.0800 
 31 H       -3.5850    -1.2730     0.9080 H     1 <1>   0.0800 
 32 H       -2.8400    -2.8480     1.0270 H     1 <1>   0.0800 
 33 H       -1.3440    -3.1590    -2.0440 H     1 <1>   0.0800 
 34 H       -1.4070    -1.4260    -2.2870 H     1 <1>   0.0800 
 35 H       -3.5050    -1.3470    -1.4510 H     1 <1>   0.0800 
 36 H       -3.4960    -3.0760    -1.1760 H     1 <1>   0.0800 
 37 H        0.7880     5.2200     1.4580 H     1 <1>   0.3700 
 38 H       -0.2590     7.4120     0.9400 H     1 <1>   0.0800 
 39 H        0.0080     7.0780    -0.7560 H     1 <1>   0.0800 
 40 H        2.4560     6.9380    -0.3250 H     1 <1>   0.0800 
 41 H        2.1650     7.3590     1.3550 H     1 <1>   0.0800 
 42 H        1.1690     9.5200     0.6130 H     1 <1>   0.0800 
 43 H        1.5470     9.1120    -1.0440 H     1 <1>   0.0800 
 44 H        4.0490     9.2610    -1.7720 H     1 <1>   0.1500 
 45 H        5.4370    10.8370     1.9130 H     1 <1>   0.1500 
 46 H        6.6270    10.1910    -1.7850 H     1 <1>   0.0800 
 47 H        7.3610     9.9460    -0.2160 H     1 <1>   0.0800 
 48 H        6.7880    11.5350    -0.6780 H     1 <1>   0.0800 
@<TRIPOS>BOND
  1   1   2  2   
  2   2   3  am  
  3   2   4  1   
  4   3   5  1   
  5   3  23  1   
  6   4   6  1   
  7   4  24  1   
  8   4  25  1   
  9   5   7  1   
 10   5   8  1   
 11   5  26  1   
 12   6   9  1   
 13   6  27  1   
 14   6  28  1   
 15   7  10  1   
 16   7  29  1   
 17   7  30  1   
 18   8  11  1   
 19   8  31  1   
 20   8  32  1   
 21   9  12  2   
 22   9  13  am  
 23  10  11  1   
 24  10  33  1   
 25  10  34  1   
 26  11  35  1   
 27  11  36  1   
 28  13  14  1   
 29  13  37  1   
 30  14  15  1   
 31  14  38  1   
 32  14  39  1   
 33  15  16  1   
 34  15  40  1   
 35  15  41  1   
 36  16  17  1   
 37  16  42  1   
 38  16  43  1   
 39  17  18  1   
 40  17  19  1   
 41  18  20  2   
 42  19  21  2   
 43  19  44  1   
 44  20  21  1   
 45  20  45  1   
 46  21  22  1   
 47  22  46  1   
 48  22  47  1   
 49  22  48  1   
@<TRIPOS>SUBSTRUCTURE
  1 ****   9 GROUP 4 **** **** 0

# MOE 2024.06 (io_trps.svl 2023.06)
