@<TRIPOS>MOLECULE
NONAME
49 50 1 0 0 
SMALL
USER_CHARGES


@<TRIPOS>ATOM
  1 S        0.4660     0.0180    -1.0920 S.o2  1 <1>   1.3330 
  2 O        1.7210    -0.5780    -1.4940 O.2   1 <1>  -0.6500 
  3 O       -0.5260     0.3360    -2.0940 O.2   1 <1>  -0.6500 
  4 N       -0.2800    -1.0420     0.0090 N.am  1 <1>  -0.8490 
  5 C        0.7910     1.4820    -0.0980 C.3   1 <1>  -0.0550 
  6 C       -1.7160    -0.7920     0.1790 C.3   1 <1>   0.1160 
  7 C       -0.0630    -2.4490    -0.3430 C.3   1 <1>   0.1160 
  8 C        2.0380     1.4580     0.8140 C.3   1 <1>  -0.0800 
  9 C        3.3550     1.5060     0.0380 C.3   1 <1>   0.2200 
 10 C        2.2060     0.2530     1.7460 C.3   1 <1>   0.1200 
 11 N        4.0260     2.7930     0.3160 N.am  1 <1>  -0.7300 
 12 C        4.1480     0.3350     0.6130 C.3   1 <1>   0.1200 
 13 O        3.5800     0.0800     1.8580 O.3   1 <1>  -0.5600 
 14 C        3.7510     3.9630    -0.3330 C.2   1 <1>   0.5440 
 15 O        2.9920     3.9300    -1.2850 O.2   1 <1>  -0.5700 
 16 C        4.3130     5.2050     0.1360 C.ar  1 <1>   0.0860 
 17 C        3.5000     6.1770     0.7290 C.ar  1 <1>   0.0820 
 18 C        5.6830     5.4780     0.0200 C.ar  1 <1>   0.0820 
 19 O        2.1820     5.9550     0.9030 O.3   1 <1>  -0.3630 
 20 C        4.0240     7.3750     1.1850 C.ar  1 <1>  -0.1500 
 21 O        6.4710     4.5280    -0.5430 O.3   1 <1>  -0.3620 
 22 C        6.2010     6.6890     0.4760 C.ar  1 <1>  -0.1500 
 23 C        1.3210     6.4650    -0.0900 C.3   1 <1>   0.0400 
 24 C        5.3740     7.6340     1.0550 C.ar  1 <1>  -0.1500 
 25 C        7.8380     4.7360    -0.8210 C.3   1 <1>   0.0400 
 26 H        0.9040     2.3180    -0.7630 H     1 <1>   0.0800 
 27 H       -0.0690     1.6860     0.5070 H     1 <1>   0.0800 
 28 H       -2.1120    -1.4250     0.9550 H     1 <1>   0.0800 
 29 H       -2.2450    -0.9900    -0.7390 H     1 <1>   0.0800 
 30 H       -1.8860     0.2330     0.4590 H     1 <1>   0.0800 
 31 H       -0.5410    -3.0930     0.3750 H     1 <1>   0.0800 
 32 H        0.9910    -2.6710    -0.3440 H     1 <1>   0.0800 
 33 H       -0.4600    -2.6540    -1.3240 H     1 <1>   0.0800 
 34 H        1.9740     2.3260     1.4470 H     1 <1>   0.0800 
 35 H        3.2310     1.3890    -1.0260 H     1 <1>   0.0800 
 36 H        1.8080    -0.6550     1.3350 H     1 <1>   0.0800 
 37 H        1.7910     0.4270     2.7240 H     1 <1>   0.0800 
 38 H        4.6100     2.8120     1.1530 H     1 <1>   0.3700 
 39 H        5.1950     0.5510     0.7270 H     1 <1>   0.0800 
 40 H        4.0150    -0.5430     0.0040 H     1 <1>   0.0800 
 41 H        3.3730     8.0980     1.6440 H     1 <1>   0.1500 
 42 H        7.2470     6.9160     0.3920 H     1 <1>   0.1500 
 43 H        0.3150     6.1750     0.1550 H     1 <1>   0.0800 
 44 H        1.5990     6.0510    -1.0430 H     1 <1>   0.0800 
 45 H        1.4040     7.5360    -0.1090 H     1 <1>   0.0800 
 46 H        5.7800     8.5670     1.4070 H     1 <1>   0.1500 
 47 H        8.2160     3.8560    -1.3100 H     1 <1>   0.0800 
 48 H        8.3640     4.8930     0.1040 H     1 <1>   0.0800 
 49 H        7.9370     5.5850    -1.4730 H     1 <1>   0.0800 
@<TRIPOS>BOND
  1   1   2  2   
  2   1   3  2   
  3   1   4  am  
  4   1   5  1   
  5   4   6  1   
  6   4   7  1   
  7   5   8  1   
  8   5  26  1   
  9   5  27  1   
 10   6  28  1   
 11   6  29  1   
 12   6  30  1   
 13   7  31  1   
 14   7  32  1   
 15   7  33  1   
 16   8   9  1   
 17   8  10  1   
 18   8  34  1   
 19   9  11  1   
 20   9  12  1   
 21   9  35  1   
 22  10  13  1   
 23  10  36  1   
 24  10  37  1   
 25  11  14  am  
 26  11  38  1   
 27  12  13  1   
 28  12  39  1   
 29  12  40  1   
 30  14  15  2   
 31  14  16  1   
 32  16  17  ar  
 33  16  18  ar  
 34  17  19  1   
 35  17  20  ar  
 36  18  21  1   
 37  18  22  ar  
 38  19  23  1   
 39  20  24  ar  
 40  20  41  1   
 41  21  25  1   
 42  22  24  ar  
 43  22  42  1   
 44  23  43  1   
 45  23  44  1   
 46  23  45  1   
 47  24  46  1   
 48  25  47  1   
 49  25  48  1   
 50  25  49  1   
@<TRIPOS>SUBSTRUCTURE
  1 ****  11 GROUP 4 **** **** 0

# MOE 2024.06 (io_trps.svl 2023.06)
