@<TRIPOS>MOLECULE
NONAME
51 53 1 0 0 
SMALL
USER_CHARGES


@<TRIPOS>ATOM
  1 O        2.0720    -0.5250     1.0420 O.2   1 <1>  -0.5700 
  2 C        1.6760    -1.4260     0.3360 C.2   1 <1>   0.5690 
  3 N        2.5400    -2.1230    -0.4690 N.am  1 <1>  -0.6600 
  4 C        0.1820    -1.7740     0.3750 C.3   1 <1>  -0.0190 
  5 C        3.9640    -1.7730    -0.6260 C.3   1 <1>   0.2810 
  6 C        2.2860    -3.4540    -1.0020 C.3   1 <1>   0.1400 
  7 C       -0.7050    -0.5140     0.2910 C.3   1 <1>  -0.1600 
  8 C       -0.1640    -2.5870     1.6380 C.3   1 <1>  -0.1600 
  9 C        4.2880    -0.3960    -1.2890 C.2   1 <1>   0.5690 
 10 C        4.5600    -2.9620    -1.3990 C.3   1 <1>  -0.1600 
 11 C        3.6530    -4.1300    -1.0170 C.3   1 <1>  -0.1600 
 12 C       -2.1970    -0.8720     0.3350 C.3   1 <1>  -0.1600 
 13 C       -1.6560    -2.9460     1.6870 C.3   1 <1>  -0.1600 
 14 O        5.0320    -0.3210    -2.2660 O.2   1 <1>  -0.5700 
 15 N        3.7510     0.7340    -0.7550 N.am  1 <1>  -0.7300 
 16 C       -2.5320    -1.6900     1.5890 C.3   1 <1>  -0.1600 
 17 C        3.9270     2.1070    -1.2560 C.3   1 <1>   0.1400 
 18 C        4.7510     2.8970    -0.2420 C.3   1 <1>  -0.1600 
 19 C        5.0530     4.3040    -0.7700 C.3   1 <1>   0.0960 
 20 N        5.8260     5.0830     0.2160 N.pl3 1 <1>   0.3140 
 21 N        5.2880     6.0640     0.9460 N.2   1 <1>  -0.4180 
 22 C        7.1180     4.9580     0.5230 C.2   1 <1>  -0.3020 
 23 N        6.2040     6.5580     1.7050 N.2   1 <1>  -0.2270 
 24 C        7.3370     5.8920     1.4600 C.2   1 <1>   0.0770 
 25 H       -0.0530    -2.3720    -0.4860 H     1 <1>   0.0800 
 26 H        4.4080    -1.7550     0.3700 H     1 <1>   0.0800 
 27 H        1.5980    -4.0280    -0.3790 H     1 <1>   0.0800 
 28 H        1.8960    -3.3760    -2.0200 H     1 <1>   0.0800 
 29 H       -0.4760     0.1400     1.1150 H     1 <1>   0.0800 
 30 H       -0.4880     0.0170    -0.6190 H     1 <1>   0.0800 
 31 H        0.4230    -3.4880     1.6640 H     1 <1>   0.0800 
 32 H        0.0910    -2.0070     2.5090 H     1 <1>   0.0800 
 33 H        4.4840    -2.7870    -2.4740 H     1 <1>   0.0800 
 34 H        5.5990    -3.1390    -1.1190 H     1 <1>   0.0800 
 35 H        3.9010    -4.4890    -0.0170 H     1 <1>   0.0800 
 36 H        3.6980    -4.9390    -1.7470 H     1 <1>   0.0800 
 37 H       -2.7840     0.0310     0.3280 H     1 <1>   0.0800 
 38 H       -2.4560    -1.4400    -0.5420 H     1 <1>   0.0800 
 39 H       -1.8930    -3.6100     0.8730 H     1 <1>   0.0800 
 40 H       -1.8720    -3.4630     2.6070 H     1 <1>   0.0800 
 41 H        3.1100     0.6100     0.0460 H     1 <1>   0.3700 
 42 H       -3.5700    -1.9740     1.5690 H     1 <1>   0.0800 
 43 H       -2.3750    -1.0800     2.4630 H     1 <1>   0.0800 
 44 H        4.4340     2.0820    -2.2080 H     1 <1>   0.0800 
 45 H        2.9600     2.5600    -1.3950 H     1 <1>   0.0800 
 46 H        5.6760     2.3770    -0.0650 H     1 <1>   0.0800 
 47 H        4.2010     2.9700     0.6800 H     1 <1>   0.0800 
 48 H        4.1370     4.8300    -0.9690 H     1 <1>   0.0800 
 49 H        5.6230     4.2490    -1.6800 H     1 <1>   0.0800 
 50 H        7.7780     4.2400     0.0760 H     1 <1>   0.1500 
 51 H        8.2500     6.1260     1.9780 H     1 <1>   0.1500 
@<TRIPOS>BOND
  1   1   2  2   
  2   2   3  am  
  3   2   4  1   
  4   3   5  1   
  5   3   6  1   
  6   4   7  1   
  7   4   8  1   
  8   4  25  1   
  9   5   9  1   
 10   5  10  1   
 11   5  26  1   
 12   6  11  1   
 13   6  27  1   
 14   6  28  1   
 15   7  12  1   
 16   7  29  1   
 17   7  30  1   
 18   8  13  1   
 19   8  31  1   
 20   8  32  1   
 21   9  14  2   
 22   9  15  am  
 23  10  11  1   
 24  10  33  1   
 25  10  34  1   
 26  11  35  1   
 27  11  36  1   
 28  12  16  1   
 29  12  37  1   
 30  12  38  1   
 31  13  16  1   
 32  13  39  1   
 33  13  40  1   
 34  15  17  1   
 35  15  41  1   
 36  16  42  1   
 37  16  43  1   
 38  17  18  1   
 39  17  44  1   
 40  17  45  1   
 41  18  19  1   
 42  18  46  1   
 43  18  47  1   
 44  19  20  1   
 45  19  48  1   
 46  19  49  1   
 47  20  21  1   
 48  20  22  1   
 49  21  23  2   
 50  22  24  2   
 51  22  50  1   
 52  23  24  1   
 53  24  51  1   
@<TRIPOS>SUBSTRUCTURE
  1 ****  15 GROUP 4 **** **** 0

# MOE 2024.06 (io_trps.svl 2023.06)
