@<TRIPOS>MOLECULE
NONAME
36 37 1 0 0 
SMALL
USER_CHARGES


@<TRIPOS>ATOM
  1 S       -0.8650     0.4720     1.5020 S.o2  1 <1>   1.4470 
  2 O       -1.4960     1.7280     1.8520 O.2   1 <1>  -0.6500 
  3 O       -0.8540    -0.5940     2.4790 O.2   1 <1>  -0.6500 
  4 N       -1.5940    -0.0730     0.0660 N.am  1 <1>  -0.8490 
  5 C        0.8430     0.8430     0.9940 C.ar  1 <1>  -0.0090 
  6 C       -1.1850    -1.4130    -0.4060 C.3   1 <1>   0.1960 
  7 C       -3.0410     0.1470    -0.0220 C.3   1 <1>   0.1960 
  8 C        1.1820     2.0840     0.4700 C.ar  1 <1>  -0.1500 
  9 C        1.8540    -0.1040     1.1020 C.ar  1 <1>  -0.1500 
 10 C       -1.9660    -2.5620     0.2510 C.3   1 <1>  -0.1860 
 11 C       -3.8260    -0.9330     0.7220 C.3   1 <1>  -0.1600 
 12 C        2.4780     2.3780     0.0820 C.ar  1 <1>  -0.1500 
 13 C        3.1530     0.1800     0.7140 C.ar  1 <1>  -0.1500 
 14 C       -1.6140    -3.8790    -0.4100 C.2   1 <1>   0.9060 
 15 C       -3.4660    -2.2990     0.1520 C.3   1 <1>   0.2000 
 16 C        3.4860     1.4280     0.1990 C.ar  1 <1>  -0.1440 
 17 O       -0.6560    -3.9260    -1.1880 O.co2 1 <1>  -0.9000 
 18 O       -2.3070    -4.8730    -0.1570 O.co2 1 <1>  -0.9000 
 19 O       -4.1380    -3.2650     0.8660 O.3   1 <1>  -0.6800 
 20 C        4.9340     1.7410    -0.2170 C.3   1 <1>   1.1640 
 21 F        5.5310     0.7070    -0.7990 F     1 <1>  -0.3400 
 22 F        5.6890     2.0690     0.8230 F     1 <1>  -0.3400 
 23 F        5.0240     2.7500    -1.0760 F     1 <1>  -0.3400 
 24 H       -1.3510    -1.4590    -1.4700 H     1 <1>   0.0800 
 25 H       -0.1300    -1.5610    -0.2500 H     1 <1>   0.0800 
 26 H       -3.3010     1.1200     0.3600 H     1 <1>   0.0800 
 27 H       -3.3250     0.1270    -1.0610 H     1 <1>   0.0800 
 28 H        0.4140     2.8340     0.3690 H     1 <1>   0.1500 
 29 H        1.6190    -1.0800     1.4980 H     1 <1>   0.1500 
 30 H       -1.6800    -2.6430     1.2800 H     1 <1>   0.0800 
 31 H       -4.8780    -0.7610     0.5950 H     1 <1>   0.0800 
 32 H       -3.5940    -0.8960     1.7720 H     1 <1>   0.0800 
 33 H        2.6920     3.3590    -0.3110 H     1 <1>   0.1500 
 34 H        3.9050    -0.5860     0.8190 H     1 <1>   0.1500 
 35 H       -3.7820    -2.3760    -0.8750 H     1 <1>   0.0800 
 36 H       -3.6810    -4.1260     0.6360 H     1 <1>   0.4000 
@<TRIPOS>BOND
  1   1   2  2   
  2   1   3  2   
  3   1   4  am  
  4   1   5  1   
  5   4   6  1   
  6   4   7  1   
  7   5   8  ar  
  8   5   9  ar  
  9   6  10  1   
 10   6  24  1   
 11   6  25  1   
 12   7  11  1   
 13   7  26  1   
 14   7  27  1   
 15   8  12  ar  
 16   8  28  1   
 17   9  13  ar  
 18   9  29  1   
 19  10  14  1   
 20  10  15  1   
 21  10  30  1   
 22  11  15  1   
 23  11  31  1   
 24  11  32  1   
 25  12  16  ar  
 26  12  33  1   
 27  13  16  ar  
 28  13  34  1   
 29  14  17  ar  
 30  14  18  ar  
 31  15  19  1   
 32  15  35  1   
 33  16  20  1   
 34  19  36  1   
 35  20  21  1   
 36  20  22  1   
 37  20  23  1   
@<TRIPOS>SUBSTRUCTURE
  1 ****   5 GROUP 4 **** **** 0

# MOE 2024.06 (io_trps.svl 2023.06)
