@<TRIPOS>MOLECULE
NONAME
23 23 1 0 0 
SMALL
USER_CHARGES


@<TRIPOS>ATOM
  1 F        6.7110    -2.0580    -1.4590 F     1 <1>  -0.3400 
  2 C        6.7330    -2.2030    -0.1410 C.3   1 <1>   1.0200 
  3 F        6.2840    -3.4270     0.1070 F     1 <1>  -0.3400 
  4 F        8.0110    -2.1930     0.2160 F     1 <1>  -0.3400 
  5 C        5.9180    -1.1340     0.6050 C.3   1 <1>  -0.0800 
  6 C        4.4320    -1.1390     0.2310 C.3   1 <1>   0.1100 
  7 C        6.3730     0.3170     0.3860 C.3   1 <1>  -0.1600 
  8 N        4.0740     0.2520    -0.0340 N.3   1 <1>  -0.9000 
  9 C        5.0940     1.1260     0.5790 C.3   1 <1>   0.2510 
 10 C        5.1550     2.5760     0.0430 C.2   1 <1>   0.6590 
 11 O        6.1780     3.0820    -0.3500 O.2   1 <1>  -0.5700 
 12 O        4.0110     3.2550     0.0770 O.3   1 <1>  -0.4300 
 13 C        3.9250     4.5870    -0.3860 C.3   1 <1>   0.0400 
 14 H        5.9890    -1.3580     1.6540 H     1 <1>   0.0800 
 15 H        3.8420    -1.5280     1.0440 H     1 <1>   0.0800 
 16 H        4.2390    -1.7260    -0.6530 H     1 <1>   0.0800 
 17 H        6.7250     0.4590    -0.6220 H     1 <1>   0.0800 
 18 H        7.1450     0.6190     1.0710 H     1 <1>   0.0800 
 19 H        3.1380     0.4860     0.3240 H     1 <1>   0.3600 
 20 H        4.8890     1.1880     1.6330 H     1 <1>   0.0800 
 21 H        2.9110     4.9250    -0.2670 H     1 <1>   0.0800 
 22 H        4.2050     4.6120    -1.4250 H     1 <1>   0.0800 
 23 H        4.5930     5.2010     0.1930 H     1 <1>   0.0800 
@<TRIPOS>BOND
  1   1   2  1   
  2   2   3  1   
  3   2   4  1   
  4   2   5  1   
  5   5   6  1   
  6   5   7  1   
  7   5  14  1   
  8   6   8  1   
  9   6  15  1   
 10   6  16  1   
 11   7   9  1   
 12   7  17  1   
 13   7  18  1   
 14   8   9  1   
 15   8  19  1   
 16   9  10  1   
 17   9  20  1   
 18  10  11  2   
 19  10  12  1   
 20  12  13  1   
 21  13  21  1   
 22  13  22  1   
 23  13  23  1   
@<TRIPOS>SUBSTRUCTURE
  1 ****   7 GROUP 4 **** **** 0

# MOE 2024.06 (io_trps.svl 2023.06)
