@<TRIPOS>MOLECULE
NONAME
52 54 1 0 0 
SMALL
USER_CHARGES


@<TRIPOS>ATOM
  1 O       -2.4300     4.5610    -0.8400 O.co2 1 <1>  -0.9000 
  2 C       -1.3180     4.0110    -0.9000 C.2   1 <1>   0.9060 
  3 O       -0.6330     4.1010    -1.9250 O.co2 1 <1>  -0.9000 
  4 C       -0.8240     3.1920     0.3040 C.3   1 <1>  -0.1060 
  5 C       -1.2290     3.8810     1.6310 C.3   1 <1>   0.2000 
  6 C        0.7190     3.0980     0.2960 C.3   1 <1>   0.1400 
  7 C       -1.4390     1.7740     0.1680 C.3   1 <1>  -0.0650 
  8 O       -2.5980     4.0270     1.6980 O.3   1 <1>  -0.6800 
  9 C       -0.6100     5.2750     1.7740 C.3   1 <1>  -0.1600 
 10 N        1.3460     4.4330     0.4960 N.am  1 <1>  -0.6600 
 11 C       -1.0600     0.7730     1.2730 C.3   1 <1>  -0.1950 
 12 C        0.9140     5.2020     1.6910 C.3   1 <1>   0.1400 
 13 C        1.9940     5.0020    -0.5660 C.2   1 <1>   0.5690 
 14 C        0.1630    -0.0840     1.1770 C.3   1 <1>  -0.2000 
 15 C       -1.2000    -0.6940     1.0190 C.3   1 <1>  -0.2000 
 16 O        2.9450     4.4590    -1.0860 O.2   1 <1>  -0.5700 
 17 C        1.4750     6.3140    -1.1400 C.3   1 <1>   0.1810 
 18 O        2.0270     7.4350    -0.4580 O.3   1 <1>  -0.3630 
 19 C        1.6650     8.7080    -0.7700 C.ar  1 <1>   0.0820 
 20 C        2.3920     9.7540    -0.1970 C.ar  1 <1>  -0.1430 
 21 C        0.6020     8.9860    -1.6250 C.ar  1 <1>  -0.1500 
 22 C        2.0340    11.0720    -0.4740 C.ar  1 <1>  -0.1430 
 23 C        3.5630     9.4250     0.7300 C.3   1 <1>  -0.0970 
 24 C        0.2610    10.2950    -1.9030 C.ar  1 <1>  -0.1500 
 25 C        0.9730    11.3300    -1.3290 C.ar  1 <1>  -0.1500 
 26 C        2.7690    12.2590     0.1360 C.3   1 <1>  -0.0970 
 27 H       -0.9300     3.2810     2.4710 H     1 <1>   0.0800 
 28 H        1.0490     2.6820    -0.6420 H     1 <1>   0.0800 
 29 H        1.0590     2.4520     1.0830 H     1 <1>   0.0800 
 30 H       -2.5120     1.8650     0.1510 H     1 <1>   0.0800 
 31 H       -1.1500     1.3710    -0.7880 H     1 <1>   0.0800 
 32 H       -2.8690     4.3390     0.7820 H     1 <1>   0.4000 
 33 H       -0.9720     5.9280     1.0000 H     1 <1>   0.0800 
 34 H       -0.8900     5.6940     2.7230 H     1 <1>   0.0800 
 35 H       -1.3760     1.1000     2.2490 H     1 <1>   0.1000 
 36 H        1.2970     4.7080     2.5670 H     1 <1>   0.0800 
 37 H        1.3280     6.1950     1.6640 H     1 <1>   0.0800 
 38 H        0.7920    -0.0040     0.3070 H     1 <1>   0.1000 
 39 H        0.7230    -0.2820     2.0740 H     1 <1>   0.1000 
 40 H       -1.5870    -1.3170     1.8070 H     1 <1>   0.1000 
 41 H       -1.5070    -1.0260     0.0420 H     1 <1>   0.1000 
 42 H        0.4060     6.3340    -1.0370 H     1 <1>   0.0800 
 43 H        1.7380     6.3790    -2.1790 H     1 <1>   0.0800 
 44 H        0.0240     8.2040    -2.0800 H     1 <1>   0.1500 
 45 H        4.2930    10.2110     0.7490 H     1 <1>   0.0800 
 46 H        4.0690     8.5350     0.4010 H     1 <1>   0.0800 
 47 H        3.1970     9.2610     1.7270 H     1 <1>   0.0800 
 48 H       -0.5620    10.5050    -2.5640 H     1 <1>   0.1500 
 49 H        0.6910    12.3430    -1.5540 H     1 <1>   0.1500 
 50 H        2.2540    13.1800    -0.0690 H     1 <1>   0.0800 
 51 H        3.7600    12.3250    -0.2760 H     1 <1>   0.0800 
 52 H        2.8360    12.1450     1.2020 H     1 <1>   0.0800 
@<TRIPOS>BOND
  1   1   2  ar  
  2   2   3  ar  
  3   2   4  1   
  4   4   5  1   
  5   4   6  1   
  6   4   7  1   
  7   5   8  1   
  8   5   9  1   
  9   5  27  1   
 10   6  10  1   
 11   6  28  1   
 12   6  29  1   
 13   7  11  1   
 14   7  30  1   
 15   7  31  1   
 16   8  32  1   
 17   9  12  1   
 18   9  33  1   
 19   9  34  1   
 20  10  12  1   
 21  10  13  am  
 22  11  14  1   
 23  11  15  1   
 24  11  35  1   
 25  12  36  1   
 26  12  37  1   
 27  13  16  2   
 28  13  17  1   
 29  14  15  1   
 30  14  38  1   
 31  14  39  1   
 32  15  40  1   
 33  15  41  1   
 34  17  18  1   
 35  17  42  1   
 36  17  43  1   
 37  18  19  1   
 38  19  20  ar  
 39  19  21  ar  
 40  20  22  ar  
 41  20  23  1   
 42  21  24  ar  
 43  21  44  1   
 44  22  25  ar  
 45  22  26  1   
 46  23  45  1   
 47  23  46  1   
 48  23  47  1   
 49  24  25  ar  
 50  24  48  1   
 51  25  49  1   
 52  26  50  1   
 53  26  51  1   
 54  26  52  1   
@<TRIPOS>SUBSTRUCTURE
  1 ****  17 GROUP 4 **** **** 0

# MOE 2024.06 (io_trps.svl 2023.06)
