@<TRIPOS>MOLECULE
NONAME
42 43 1 0 0 
SMALL
USER_CHARGES


@<TRIPOS>ATOM
  1 O       -2.2490     1.9400     0.2610 O.2   1 <1>  -0.5700 
  2 C       -2.1240     0.7640     0.5020 C.2   1 <1>   0.5690 
  3 N       -2.5380    -0.1940    -0.3790 N.am  1 <1>  -0.6600 
  4 C       -1.4810     0.3850     1.8170 C.3   1 <1>  -0.1790 
  5 C       -2.4190    -1.6680    -0.1310 C.3   1 <1>   0.3640 
  6 C       -3.1500     0.2060    -1.6820 C.3   1 <1>   0.1400 
  7 C       -1.0330    -2.2060    -0.5180 C.ar  1 <1>  -0.1440 
  8 C       -3.5680    -2.4680    -0.8190 C.3   1 <1>   0.2000 
  9 C       -3.2180    -0.9670    -2.6710 C.3   1 <1>   0.1200 
 10 C       -0.6790    -3.4750    -0.0830 C.ar  1 <1>  -0.1500 
 11 C       -0.1060    -1.4890    -1.2620 C.ar  1 <1>  -0.1500 
 12 O       -3.9180    -2.0450    -2.1210 O.3   1 <1>  -0.5600 
 13 C       -4.8520    -2.4130     0.0190 C.3   1 <1>   0.1200 
 14 C        0.5490    -4.0410    -0.3810 C.ar  1 <1>   0.0820 
 15 C        1.1250    -2.0350    -1.5770 C.ar  1 <1>  -0.1500 
 16 O       -4.6760    -3.0960     1.2200 O.3   1 <1>  -0.6800 
 17 O        0.7240    -5.2930     0.1350 O.3   1 <1>  -0.3630 
 18 C        1.4720    -3.3160    -1.1540 C.ar  1 <1>   0.0820 
 19 C        1.9950    -5.8780     0.3020 C.3   1 <1>   0.0400 
 20 O        2.6760    -3.8660    -1.4910 O.3   1 <1>  -0.3630 
 21 C        3.5660    -3.2420    -2.3910 C.3   1 <1>   0.0400 
 22 H       -2.2000    -0.1010     2.4480 H     1 <1>   0.0800 
 23 H       -1.1310     1.2710     2.3150 H     1 <1>   0.0800 
 24 H       -0.6440    -0.2650     1.6470 H     1 <1>   0.0800 
 25 H       -2.5130    -1.8380     0.9270 H     1 <1>   0.0800 
 26 H       -4.1430     0.5810    -1.5040 H     1 <1>   0.0800 
 27 H       -2.5710     1.0030    -2.1160 H     1 <1>   0.0800 
 28 H       -3.2770    -3.4990    -0.9110 H     1 <1>   0.0800 
 29 H       -2.2340    -1.3020    -2.9440 H     1 <1>   0.0800 
 30 H       -3.7340    -0.6660    -3.5650 H     1 <1>   0.0800 
 31 H       -1.3640    -4.0540     0.5110 H     1 <1>   0.1500 
 32 H       -0.3260    -0.4940    -1.6060 H     1 <1>   0.1500 
 33 H       -5.6710    -2.8710    -0.5100 H     1 <1>   0.0800 
 34 H       -5.1000    -1.3920     0.2510 H     1 <1>   0.0800 
 35 H        1.8010    -1.4360    -2.1560 H     1 <1>   0.1500 
 36 H       -4.7730    -4.0600     1.0880 H     1 <1>   0.4000 
 37 H        1.8870    -6.7420     0.9310 H     1 <1>   0.0800 
 38 H        2.6520    -5.1640     0.7660 H     1 <1>   0.0800 
 39 H        2.3700    -6.1740    -0.6610 H     1 <1>   0.0800 
 40 H        4.4020    -3.9010    -2.5430 H     1 <1>   0.0800 
 41 H        3.9060    -2.3160    -1.9620 H     1 <1>   0.0800 
 42 H        3.0590    -3.0750    -3.3240 H     1 <1>   0.0800 
@<TRIPOS>BOND
  1   1   2  2   
  2   2   3  am  
  3   2   4  1   
  4   3   5  1   
  5   3   6  1   
  6   4  22  1   
  7   4  23  1   
  8   4  24  1   
  9   5   7  1   
 10   5   8  1   
 11   5  25  1   
 12   6   9  1   
 13   6  26  1   
 14   6  27  1   
 15   7  10  ar  
 16   7  11  ar  
 17   8  12  1   
 18   8  13  1   
 19   8  28  1   
 20   9  12  1   
 21   9  29  1   
 22   9  30  1   
 23  10  14  ar  
 24  10  31  1   
 25  11  15  ar  
 26  11  32  1   
 27  13  16  1   
 28  13  33  1   
 29  13  34  1   
 30  14  17  1   
 31  14  18  ar  
 32  15  18  ar  
 33  15  35  1   
 34  16  36  1   
 35  17  19  1   
 36  18  20  1   
 37  19  37  1   
 38  19  38  1   
 39  19  39  1   
 40  20  21  1   
 41  21  40  1   
 42  21  41  1   
 43  21  42  1   
@<TRIPOS>SUBSTRUCTURE
  1 ****   7 GROUP 4 **** **** 0

# MOE 2024.06 (io_trps.svl 2023.06)
