@<TRIPOS>MOLECULE
NONAME
23 24 1 0 0 
SMALL
USER_CHARGES


@<TRIPOS>ATOM
  1 F        0.2780    -0.7070    -0.9240 F     1 <1>  -0.3400 
  2 C       -0.3710    -1.4350    -0.0280 C.3   1 <1>   1.1640 
  3 F       -0.0690    -0.9690     1.1740 F     1 <1>  -0.3400 
  4 F       -1.6560    -1.1310    -0.2000 F     1 <1>  -0.3400 
  5 C       -0.1210    -2.9390    -0.1760 C.ar  1 <1>  -0.1440 
  6 C        1.1210    -3.5000     0.1210 C.ar  1 <1>   0.2780 
  7 C       -1.1410    -3.7810    -0.6020 C.ar  1 <1>  -0.1500 
  8 N        1.3750    -4.8020     0.0440 N.ar  1 <1>  -0.6200 
  9 C        2.3080    -2.6510     0.5770 C.3   1 <1>  -0.0680 
 10 C       -0.8700    -5.1270    -0.6940 C.ar  1 <1>  -0.1500 
 11 C        0.3900    -5.5800    -0.3590 C.ar  1 <1>   0.1600 
 12 C        3.0530    -1.7730    -0.3960 C.3   1 <1>  -0.2470 
 13 C        3.7100    -2.9990     0.1590 C.3   1 <1>  -0.2000 
 14 C        3.5380    -0.3860    -0.0070 C.2   1 <1>   0.9470 
 15 O        3.1790     0.0940     1.0730 O.co2 1 <1>  -0.9000 
 16 O        4.2810     0.2140    -0.7890 O.co2 1 <1>  -0.9000 
 17 H       -2.1220    -3.4160    -0.8570 H     1 <1>   0.1500 
 18 H        2.1960    -2.2990     1.5880 H     1 <1>   0.1000 
 19 H       -1.6250    -5.8200    -1.0180 H     1 <1>   0.1500 
 20 H        0.5990    -6.6340    -0.4270 H     1 <1>   0.1500 
 21 H        2.7760    -1.8000    -1.4310 H     1 <1>   0.1000 
 22 H        3.8770    -3.8300    -0.5030 H     1 <1>   0.1000 
 23 H        4.5080    -2.8640     0.8680 H     1 <1>   0.1000 
@<TRIPOS>BOND
  1   1   2  1   
  2   2   3  1   
  3   2   4  1   
  4   2   5  1   
  5   5   6  ar  
  6   5   7  ar  
  7   6   8  ar  
  8   6   9  1   
  9   7  10  ar  
 10   7  17  1   
 11   8  11  ar  
 12   9  12  1   
 13   9  13  1   
 14   9  18  1   
 15  10  11  ar  
 16  10  19  1   
 17  11  20  1   
 18  12  13  1   
 19  12  14  1   
 20  12  21  1   
 21  13  22  1   
 22  13  23  1   
 23  14  15  ar  
 24  14  16  ar  
@<TRIPOS>SUBSTRUCTURE
  1 ****   6 GROUP 4 **** **** 0

# MOE 2024.06 (io_trps.svl 2023.06)
