@<TRIPOS>MOLECULE
NONAME
37 38 1 0 0 
SMALL
USER_CHARGES


@<TRIPOS>ATOM
  1 S       -0.1410    -0.0770     0.7520 S.o2  1 <1>   1.3330 
  2 O        0.2450    -0.9690     1.8210 O.2   1 <1>  -0.6500 
  3 O       -0.8320     1.1540     1.0630 O.2   1 <1>  -0.6500 
  4 N       -1.0880    -0.9590    -0.3460 N.am  1 <1>  -0.8490 
  5 C        1.3010     0.3390    -0.2300 C.3   1 <1>  -0.0550 
  6 C       -0.7460    -2.3850    -0.3980 C.3   1 <1>   0.1160 
  7 C       -2.5250    -0.8000    -0.0980 C.3   1 <1>   0.1160 
  8 C        2.2960     1.2670     0.4960 C.3   1 <1>  -0.0800 
  9 C        3.4040     1.7180    -0.4440 C.3   1 <1>   0.2200 
 10 C        3.0620     0.5440     1.6160 C.3   1 <1>   0.1200 
 11 N        3.8930     3.0440    -0.0090 N.am  1 <1>  -0.7300 
 12 C        4.4800     0.6770    -0.1760 C.3   1 <1>   0.1200 
 13 O        4.3850     0.4090     1.1860 O.3   1 <1>  -0.5600 
 14 C        3.8000     4.2050    -0.7260 C.2   1 <1>   0.7160 
 15 O        3.2440     4.1550    -1.8080 O.2   1 <1>  -0.5700 
 16 C        4.3590     5.4330    -0.1860 C.2   1 <1>   0.1410 
 17 N        4.3570     6.6160    -0.8420 N.2   1 <1>  -0.2270 
 18 C        4.9650     5.6400     1.0110 C.2   1 <1>  -0.3020 
 19 N        4.9230     7.5060    -0.1090 N.2   1 <1>  -0.4180 
 20 N        5.2990     6.9260     1.0280 N.pl3 1 <1>   0.3000 
 21 H        1.7990    -0.5610    -0.5320 H     1 <1>   0.0800 
 22 H        0.9600     0.8380    -1.1170 H     1 <1>   0.0800 
 23 H       -1.3110    -2.8730    -1.1750 H     1 <1>   0.0800 
 24 H       -0.9650    -2.8600     0.5450 H     1 <1>   0.0800 
 25 H        0.3010    -2.5090    -0.6110 H     1 <1>   0.0800 
 26 H       -3.0930    -1.3600    -0.8210 H     1 <1>   0.0800 
 27 H       -2.8020     0.2380    -0.1860 H     1 <1>   0.0800 
 28 H       -2.7740    -1.1420     0.8930 H     1 <1>   0.0800 
 29 H        1.7520     2.1120     0.8830 H     1 <1>   0.0800 
 30 H        3.1080     1.7390    -1.4800 H     1 <1>   0.0800 
 31 H        2.6780    -0.4390     1.8250 H     1 <1>   0.0800 
 32 H        3.0680     1.1230     2.5230 H     1 <1>   0.0800 
 33 H        4.3880     3.0350     0.8820 H     1 <1>   0.3700 
 34 H        5.4700     1.0290    -0.4110 H     1 <1>   0.0800 
 35 H        4.2780    -0.2350    -0.7100 H     1 <1>   0.0800 
 36 H        5.1640     4.9630     1.8190 H     1 <1>   0.1500 
 37 H        5.7750     7.4450     1.7740 H     1 <1>   0.2700 
@<TRIPOS>BOND
  1   1   2  2   
  2   1   3  2   
  3   1   4  am  
  4   1   5  1   
  5   4   6  1   
  6   4   7  1   
  7   5   8  1   
  8   5  21  1   
  9   5  22  1   
 10   6  23  1   
 11   6  24  1   
 12   6  25  1   
 13   7  26  1   
 14   7  27  1   
 15   7  28  1   
 16   8   9  1   
 17   8  10  1   
 18   8  29  1   
 19   9  11  1   
 20   9  12  1   
 21   9  30  1   
 22  10  13  1   
 23  10  31  1   
 24  10  32  1   
 25  11  14  am  
 26  11  33  1   
 27  12  13  1   
 28  12  34  1   
 29  12  35  1   
 30  14  15  2   
 31  14  16  1   
 32  16  17  1   
 33  16  18  2   
 34  17  19  2   
 35  18  20  1   
 36  18  36  1   
 37  19  20  1   
 38  20  37  1   
@<TRIPOS>SUBSTRUCTURE
  1 ****   8 GROUP 4 **** **** 0

# MOE 2024.06 (io_trps.svl 2023.06)
