@<TRIPOS>MOLECULE
NONAME
53 56 1 0 0 
SMALL
USER_CHARGES


@<TRIPOS>ATOM
  1 O       -2.0500     3.0070     0.9570 O.3   1 <1>  -0.3630 
  2 C       -0.9510     2.4030     1.4050 C.ar  1 <1>   0.3920 
  3 C       -2.7910     2.1100     0.1410 C.3   1 <1>   0.2000 
  4 N        0.0440     3.0750     1.9120 N.ar  1 <1>  -0.6200 
  5 C       -0.9450     1.0640     1.1630 C.ar  1 <1>  -0.1440 
  6 C       -2.2410     0.7070     0.4870 C.3   1 <1>  -0.0160 
  7 C       -2.5630     2.5470    -1.3290 C.3   1 <1>   0.3430 
  8 C        1.0830     2.3160     2.2200 C.ar  1 <1>   0.4760 
  9 C        0.1790     0.3690     1.5260 C.ar  1 <1>   0.1660 
 10 N       -1.1370     2.9570    -1.5800 N.4   1 <1>  -0.9590 
 11 N        1.2080     1.0050     2.0500 N.ar  1 <1>  -0.6200 
 12 C        2.2780     3.0210     2.8180 C.3   1 <1>  -0.0970 
 13 C        0.3190    -1.1280     1.3430 C.3   1 <1>  -0.0970 
 14 C       -0.9940     4.2070    -2.3680 C.3   1 <1>   0.5240 
 15 C       -0.2530     1.8640    -2.0960 C.3   1 <1>   0.2630 
 16 C        0.3760     4.7490    -2.0320 C.2   1 <1>  -0.1810 
 17 C        1.3880     5.0870    -2.9210 C.2   1 <1>   0.1390 
 18 C        0.9120     4.9720    -0.8120 C.2   1 <1>  -0.3020 
 19 N        2.4650     5.4590    -2.3070 N.2   1 <1>  -0.7070 
 20 N        2.1870     5.4010    -0.9780 N.pl3 1 <1>   0.5930 
 21 C        3.1560     5.5560     0.0560 C.ar  1 <1>  -0.0230 
 22 C        2.9420     6.3670     1.1760 C.ar  1 <1>  -0.1440 
 23 C        4.3530     4.8490    -0.0410 C.ar  1 <1>  -0.1500 
 24 C        3.9040     6.4280     2.1720 C.ar  1 <1>  -0.1500 
 25 C        1.6800     7.2040     1.3490 C.3   1 <1>  -0.0970 
 26 C        5.3070     4.9200     0.9560 C.ar  1 <1>  -0.1500 
 27 C        5.0800     5.7080     2.0670 C.ar  1 <1>  -0.1500 
 28 H       -3.8330     2.1870     0.4020 H     1 <1>   0.0800 
 29 H       -2.1030     0.0880    -0.3810 H     1 <1>   0.0800 
 30 H       -2.8950     0.2090     1.1820 H     1 <1>   0.0800 
 31 H       -3.2110     3.3870    -1.5170 H     1 <1>   0.0800 
 32 H       -2.8550     1.7580    -2.0010 H     1 <1>   0.0800 
 33 H       -0.7590     3.2320    -0.6520 H     1 <1>   0.4500 
 34 H        2.0320     4.0350     3.0770 H     1 <1>   0.0800 
 35 H        3.0830     3.0290     2.1090 H     1 <1>   0.0800 
 36 H        2.5960     2.5050     3.7040 H     1 <1>   0.0800 
 37 H       -0.5780    -1.5620     0.9450 H     1 <1>   0.0800 
 38 H        0.5290    -1.5830     2.2940 H     1 <1>   0.0800 
 39 H        1.1380    -1.3360     0.6780 H     1 <1>   0.0800 
 40 H       -1.7420     4.9270    -2.0740 H     1 <1>   0.0800 
 41 H       -1.0840     4.0090    -3.4230 H     1 <1>   0.0800 
 42 H       -0.5780     1.5430    -3.0720 H     1 <1>   0.0800 
 43 H       -0.2680     1.0190    -1.4270 H     1 <1>   0.0800 
 44 H        0.7660     2.2120    -2.1690 H     1 <1>   0.0800 
 45 H        1.3180     5.0440    -3.9960 H     1 <1>   0.1500 
 46 H        0.4980     4.8510     0.1700 H     1 <1>   0.1500 
 47 H        4.5380     4.2380    -0.9080 H     1 <1>   0.1500 
 48 H        3.7470     7.0430     3.0410 H     1 <1>   0.1500 
 49 H        1.3750     7.6330     0.4110 H     1 <1>   0.0800 
 50 H        1.8530     8.0130     2.0360 H     1 <1>   0.0800 
 51 H        0.8830     6.5960     1.7390 H     1 <1>   0.0800 
 52 H        6.2250     4.3650     0.8650 H     1 <1>   0.1500 
 53 H        5.8190     5.7650     2.8480 H     1 <1>   0.1500 
@<TRIPOS>BOND
  1   1   2  1   
  2   1   3  1   
  3   2   4  ar  
  4   2   5  ar  
  5   3   6  1   
  6   3   7  1   
  7   3  28  1   
  8   4   8  ar  
  9   5   6  1   
 10   5   9  ar  
 11   6  29  1   
 12   6  30  1   
 13   7  10  1   
 14   7  31  1   
 15   7  32  1   
 16   8  11  ar  
 17   8  12  1   
 18   9  11  ar  
 19   9  13  1   
 20  10  14  1   
 21  10  15  1   
 22  10  33  1   
 23  12  34  1   
 24  12  35  1   
 25  12  36  1   
 26  13  37  1   
 27  13  38  1   
 28  13  39  1   
 29  14  16  1   
 30  14  40  1   
 31  14  41  1   
 32  15  42  1   
 33  15  43  1   
 34  15  44  1   
 35  16  17  1   
 36  16  18  2   
 37  17  19  2   
 38  17  45  1   
 39  18  20  1   
 40  18  46  1   
 41  19  20  1   
 42  20  21  1   
 43  21  22  ar  
 44  21  23  ar  
 45  22  24  ar  
 46  22  25  1   
 47  23  26  ar  
 48  23  47  1   
 49  24  27  ar  
 50  24  48  1   
 51  25  49  1   
 52  25  50  1   
 53  25  51  1   
 54  26  27  ar  
 55  26  52  1   
 56  27  53  1   
@<TRIPOS>SUBSTRUCTURE
  1 ****  18 GROUP 4 **** **** 0

# MOE 2024.06 (io_trps.svl 2023.06)
