@<TRIPOS>MOLECULE
NONAME
54 56 1 0 0 
SMALL
USER_CHARGES


@<TRIPOS>ATOM
  1 O        1.1820    -1.4780     2.3600 O.2   1 <1>  -0.5700 
  2 C        1.5560    -1.4380     1.1990 C.2   1 <1>   0.6900 
  3 N        1.0090    -2.3000     0.2780 N.am  1 <1>  -0.6600 
  4 N        2.5150    -0.5220     0.8300 N.am  1 <1>  -0.6600 
  5 C        1.8190    -2.9130    -0.8080 C.3   1 <1>   0.1400 
  6 C       -0.3080    -2.9410     0.5340 C.3   1 <1>   0.1400 
  7 C        2.4430     0.2260    -0.4520 C.3   1 <1>   0.0600 
  8 C        3.4190     0.0700     1.8510 C.3   1 <1>   0.0600 
  9 C        1.9940    -4.4130    -0.5520 C.3   1 <1>  -0.1600 
 10 C       -0.1190    -4.4360     0.8070 C.3   1 <1>  -0.1600 
 11 C        0.6420    -5.1240    -0.3410 C.3   1 <1>  -0.0190 
 12 C        0.7960    -6.6280    -0.0790 C.2   1 <1>   0.5690 
 13 O        1.8060    -7.0320     0.4490 O.2   1 <1>  -0.5700 
 14 N       -0.1990    -7.5000    -0.4360 N.am  1 <1>  -0.6600 
 15 C       -1.4880    -7.1750    -1.0960 C.3   1 <1>   0.1400 
 16 C       -0.1120    -8.9500    -0.1440 C.3   1 <1>   0.1400 
 17 C       -2.1910    -8.5210    -1.2820 C.3   1 <1>   0.2000 
 18 C       -1.5420    -9.4730    -0.2790 C.3   1 <1>  -0.0800 
 19 O       -3.5500    -8.4190    -1.0320 O.3   1 <1>  -0.6800 
 20 C       -1.6240   -10.9450    -0.7120 C.3   1 <1>  -0.0170 
 21 C       -0.9720   -11.8550     0.3170 C.ar  1 <1>  -0.1440 
 22 C       -1.6530   -12.2810     1.4400 C.ar  1 <1>  -0.1500 
 23 C        0.3280   -12.3020     0.1870 C.ar  1 <1>  -0.1500 
 24 C       -1.0180   -13.1060     2.3530 C.ar  1 <1>   0.1600 
 25 C        0.8690   -13.1250     1.1600 C.ar  1 <1>   0.1600 
 26 N        0.2270   -13.5380     2.2410 N.ar  1 <1>  -0.6200 
 27 H        1.3220    -2.7530    -1.7490 H     1 <1>   0.0800 
 28 H        2.7910    -2.4550    -0.8550 H     1 <1>   0.0800 
 29 H       -0.7930    -2.4770     1.3760 H     1 <1>   0.0800 
 30 H       -0.9360    -2.8000    -0.3280 H     1 <1>   0.0800 
 31 H        3.3230     0.0270    -1.0370 H     1 <1>   0.0800 
 32 H        2.3800     1.2820    -0.2540 H     1 <1>   0.0800 
 33 H        1.5720    -0.0680    -1.0110 H     1 <1>   0.0800 
 34 H        4.3940     0.2310     1.4280 H     1 <1>   0.0800 
 35 H        3.5130    -0.5970     2.6920 H     1 <1>   0.0800 
 36 H        3.0140     1.0050     2.1940 H     1 <1>   0.0800 
 37 H        2.5130    -4.8590    -1.3810 H     1 <1>   0.0800 
 38 H        2.6110    -4.5390     0.3220 H     1 <1>   0.0800 
 39 H        0.4300    -4.5520     1.7260 H     1 <1>   0.0800 
 40 H       -1.0810    -4.8930     0.9420 H     1 <1>   0.0800 
 41 H        0.0780    -4.9990    -1.2460 H     1 <1>   0.0800 
 42 H       -2.0640    -6.5270    -0.4600 H     1 <1>   0.0800 
 43 H       -1.3150    -6.7090    -2.0500 H     1 <1>   0.0800 
 44 H        0.5400    -9.4090    -0.8670 H     1 <1>   0.0800 
 45 H        0.2790    -9.1220     0.8460 H     1 <1>   0.0800 
 46 H       -2.0570    -8.8630    -2.2950 H     1 <1>   0.0800 
 47 H       -2.0120    -9.3570     0.6810 H     1 <1>   0.0800 
 48 H       -3.7100    -8.1950    -0.0950 H     1 <1>   0.4000 
 49 H       -1.1460   -11.0760    -1.6670 H     1 <1>   0.0800 
 50 H       -2.6570   -11.2240    -0.8280 H     1 <1>   0.0800 
 51 H       -2.6690   -11.9790     1.6130 H     1 <1>   0.1500 
 52 H        0.9270   -12.0190    -0.6590 H     1 <1>   0.1500 
 53 H       -1.5650   -13.4280     3.2230 H     1 <1>   0.1500 
 54 H        1.8850   -13.4620     1.0430 H     1 <1>   0.1500 
@<TRIPOS>BOND
  1   1   2  2   
  2   2   3  am  
  3   2   4  am  
  4   3   5  1   
  5   3   6  1   
  6   4   7  1   
  7   4   8  1   
  8   5   9  1   
  9   5  27  1   
 10   5  28  1   
 11   6  10  1   
 12   6  29  1   
 13   6  30  1   
 14   7  31  1   
 15   7  32  1   
 16   7  33  1   
 17   8  34  1   
 18   8  35  1   
 19   8  36  1   
 20   9  11  1   
 21   9  37  1   
 22   9  38  1   
 23  10  11  1   
 24  10  39  1   
 25  10  40  1   
 26  11  12  1   
 27  11  41  1   
 28  12  13  2   
 29  12  14  am  
 30  14  15  1   
 31  14  16  1   
 32  15  17  1   
 33  15  42  1   
 34  15  43  1   
 35  16  18  1   
 36  16  44  1   
 37  16  45  1   
 38  17  18  1   
 39  17  19  1   
 40  17  46  1   
 41  18  20  1   
 42  18  47  1   
 43  19  48  1   
 44  20  21  1   
 45  20  49  1   
 46  20  50  1   
 47  21  22  ar  
 48  21  23  ar  
 49  22  24  ar  
 50  22  51  1   
 51  23  25  ar  
 52  23  52  1   
 53  24  26  ar  
 54  24  53  1   
 55  25  26  ar  
 56  25  54  1   
@<TRIPOS>SUBSTRUCTURE
  1 ****  12 GROUP 4 **** **** 0

# MOE 2024.06 (io_trps.svl 2023.06)
