@<TRIPOS>MOLECULE
NONAME
27 26 1 0 0 
SMALL
USER_CHARGES


@<TRIPOS>ATOM
  1 O       -1.5240    -1.6050    -1.2750 O.2   1 <1>  -0.5200 
  2 N       -1.9330    -0.5610    -0.7550 N.pl3 1 <1>   0.8000 
  3 O       -1.1760     0.2880    -0.2660 O.2   1 <1>  -0.5200 
  4 C       -3.3770    -0.3350    -0.6620 C.3   1 <1>   0.0800 
  5 C       -3.8790    -0.8200     0.6990 C.3   1 <1>   0.1400 
  6 N       -5.3040    -0.4550     0.8890 N.am  1 <1>  -0.7300 
  7 C       -6.3440    -0.9850     0.2070 C.2   1 <1>   0.7800 
  8 O       -6.1780    -1.7250    -0.7400 O.2   1 <1>  -0.5700 
  9 O       -7.5490    -0.6330     0.6430 O.3   1 <1>  -0.4300 
 10 C       -8.7940    -1.0390     0.1150 C.3   1 <1>   0.2800 
 11 C       -8.9400    -0.5550    -1.3330 C.3   1 <1>  -0.2400 
 12 C       -8.9530    -2.5590     0.2410 C.3   1 <1>  -0.2400 
 13 C       -9.8440    -0.3480     0.9860 C.3   1 <1>  -0.2400 
 14 H       -3.8560    -0.8750    -1.4560 H     1 <1>   0.0800 
 15 H       -3.5610     0.7160    -0.7760 H     1 <1>   0.0800 
 16 H       -3.2980    -0.3700     1.4870 H     1 <1>   0.0800 
 17 H       -3.7810    -1.8920     0.7610 H     1 <1>   0.0800 
 18 H       -5.5460     0.1040     1.7080 H     1 <1>   0.3700 
 19 H       -8.2630    -1.0730    -1.9860 H     1 <1>   0.0800 
 20 H       -8.7540     0.5020    -1.3940 H     1 <1>   0.0800 
 21 H       -9.9370    -0.7460    -1.6830 H     1 <1>   0.0800 
 22 H       -8.2760    -3.0770    -0.4130 H     1 <1>   0.0800 
 23 H       -9.9520    -2.8470    -0.0340 H     1 <1>   0.0800 
 24 H       -8.7760    -2.8720     1.2540 H     1 <1>   0.0800 
 25 H       -9.7310     0.7200     0.9300 H     1 <1>   0.0800 
 26 H       -9.7420    -0.6590     2.0100 H     1 <1>   0.0800 
 27 H      -10.8330    -0.6020     0.6520 H     1 <1>   0.0800 
@<TRIPOS>BOND
  1   1   2  2   
  2   2   3  2   
  3   2   4  1   
  4   4   5  1   
  5   4  14  1   
  6   4  15  1   
  7   5   6  1   
  8   5  16  1   
  9   5  17  1   
 10   6   7  am  
 11   6  18  1   
 12   7   8  2   
 13   7   9  1   
 14   9  10  1   
 15  10  11  1   
 16  10  12  1   
 17  10  13  1   
 18  11  19  1   
 19  11  20  1   
 20  11  21  1   
 21  12  22  1   
 22  12  23  1   
 23  12  24  1   
 24  13  25  1   
 25  13  26  1   
 26  13  27  1   
@<TRIPOS>SUBSTRUCTURE
  1 ****   7 GROUP 4 **** **** 0

# MOE 2024.06 (io_trps.svl 2023.06)
