@<TRIPOS>MOLECULE
NONAME
52 54 1 0 0 
SMALL
USER_CHARGES


@<TRIPOS>ATOM
  1 F       -6.4350    -0.3480    -0.5090 F     1 <1>  -0.1900 
  2 C       -5.2750     0.2620    -0.4520 C.ar  1 <1>   0.1900 
  3 C       -4.1600    -0.4480    -0.0110 C.ar  1 <1>   0.1170 
  4 C       -5.2220     1.5870    -0.8370 C.ar  1 <1>  -0.1500 
  5 N       -4.2890    -1.7980     0.3680 N.am  1 <1>  -0.5470 
  6 C       -2.9530     0.2430     0.0320 C.ar  1 <1>  -0.1500 
  7 C       -4.0060     2.2450    -0.7850 C.ar  1 <1>  -0.1500 
  8 C       -3.3950    -2.7980     0.6170 C.2   1 <1>   0.5690 
  9 C       -2.8710     1.5750    -0.3520 C.ar  1 <1>  -0.1440 
 10 O       -2.1950    -2.6680     0.5830 O.2   1 <1>  -0.5700 
 11 C       -3.9890    -4.1700     0.9510 C.3   1 <1>   0.1710 
 12 C       -1.5390     2.3010    -0.2950 C.3   1 <1>  -0.0970 
 13 N       -5.4300    -4.3130     0.5690 N.3   1 <1>  -0.8100 
 14 C       -6.0640    -5.4120     1.3250 C.3   1 <1>   0.1100 
 15 C       -5.5750    -4.4800    -0.8880 C.3   1 <1>   0.1100 
 16 C       -7.5850    -5.5280     1.1090 C.3   1 <1>   0.2090 
 17 C       -6.9760    -4.0440    -1.3190 C.3   1 <1>  -0.1600 
 18 N       -7.9280    -6.1430    -0.2190 N.pl3 1 <1>  -0.8380 
 19 C       -8.0070    -5.1780    -1.3620 C.3   1 <1>   0.2090 
 20 C       -8.2830    -7.4550    -0.3500 C.ar  1 <1>   0.1000 
 21 C       -9.1730    -7.8890    -1.3450 C.ar  1 <1>  -0.1500 
 22 C       -7.7840    -8.4480     0.5060 C.ar  1 <1>  -0.1500 
 23 C       -9.5250    -9.2090    -1.4730 C.ar  1 <1>   0.2170 
 24 C       -8.1510    -9.7600     0.3610 C.ar  1 <1>   0.2110 
 25 N       -9.0100   -10.1270    -0.6200 N.ar  1 <1>  -0.1790 
 26 C      -10.4880    -9.6830    -2.5480 C.3   1 <1>  -0.0970 
 27 H       -6.1120     2.0890    -1.1690 H     1 <1>   0.1500 
 28 H       -5.2520    -2.1550     0.3890 H     1 <1>   0.3700 
 29 H       -2.0670    -0.2610     0.3710 H     1 <1>   0.1500 
 30 H       -3.9450     3.2790    -1.0810 H     1 <1>   0.1500 
 31 H       -3.8840    -4.2980     2.0140 H     1 <1>   0.0800 
 32 H       -3.4020    -4.9320     0.4680 H     1 <1>   0.0800 
 33 H       -0.7240     1.6010    -0.3340 H     1 <1>   0.0800 
 34 H       -1.4700     2.8620     0.6190 H     1 <1>   0.0800 
 35 H       -1.4450     2.9760    -1.1270 H     1 <1>   0.0800 
 36 H       -5.9050    -5.2310     2.3740 H     1 <1>   0.0800 
 37 H       -5.5940    -6.3480     1.0770 H     1 <1>   0.0800 
 38 H       -5.3770    -5.4980    -1.1800 H     1 <1>   0.0800 
 39 H       -4.8640    -3.8480    -1.3940 H     1 <1>   0.0800 
 40 H       -8.0380    -4.5560     1.1990 H     1 <1>   0.0800 
 41 H       -7.9990    -6.1380     1.8920 H     1 <1>   0.0800 
 42 H       -6.9110    -3.6390    -2.3120 H     1 <1>   0.0800 
 43 H       -7.3260    -3.2470    -0.6870 H     1 <1>   0.0800 
 44 H       -7.8510    -5.7220    -2.2780 H     1 <1>   0.0800 
 45 H       -8.9950    -4.7510    -1.3950 H     1 <1>   0.0800 
 46 H       -9.5940    -7.1610    -2.0130 H     1 <1>   0.1500 
 47 H       -7.0940    -8.1720     1.2810 H     1 <1>   0.1500 
 48 H       -7.7620   -10.5200     1.0210 H     1 <1>   0.1500 
 49 H       -9.2780   -11.1110    -0.7210 H     1 <1>   0.4570 
 50 H      -10.8210    -8.8560    -3.1500 H     1 <1>   0.0800 
 51 H      -11.3540   -10.1400    -2.1020 H     1 <1>   0.0800 
 52 H      -10.0070   -10.3950    -3.1960 H     1 <1>   0.0800 
@<TRIPOS>BOND
  1   1   2  1   
  2   2   3  ar  
  3   2   4  ar  
  4   3   5  1   
  5   3   6  ar  
  6   4   7  ar  
  7   4  27  1   
  8   5   8  am  
  9   5  28  1   
 10   6   9  ar  
 11   6  29  1   
 12   7   9  ar  
 13   7  30  1   
 14   8  10  2   
 15   8  11  1   
 16   9  12  1   
 17  11  13  1   
 18  11  31  1   
 19  11  32  1   
 20  12  33  1   
 21  12  34  1   
 22  12  35  1   
 23  13  14  1   
 24  13  15  1   
 25  14  16  1   
 26  14  36  1   
 27  14  37  1   
 28  15  17  1   
 29  15  38  1   
 30  15  39  1   
 31  16  18  1   
 32  16  40  1   
 33  16  41  1   
 34  17  19  1   
 35  17  42  1   
 36  17  43  1   
 37  18  19  1   
 38  18  20  1   
 39  19  44  1   
 40  19  45  1   
 41  20  21  ar  
 42  20  22  ar  
 43  21  23  ar  
 44  21  46  1   
 45  22  24  ar  
 46  22  47  1   
 47  23  25  ar  
 48  23  26  1   
 49  24  25  ar  
 50  24  48  1   
 51  25  49  1   
 52  26  50  1   
 53  26  51  1   
 54  26  52  1   
@<TRIPOS>SUBSTRUCTURE
  1 ****  15 GROUP 4 **** **** 0

# MOE 2024.06 (io_trps.svl 2023.06)
