@<TRIPOS>MOLECULE
NONAME
37 39 1 0 0 
SMALL
USER_CHARGES


@<TRIPOS>ATOM
  1 O        0.6860     2.9150     0.6260 O.co2 1 <1>  -0.9000 
  2 C        1.9000     2.9820     0.3990 C.2   1 <1>   0.9470 
  3 O        2.4840     4.0740     0.3580 O.co2 1 <1>  -0.9000 
  4 C        2.6520     1.7280    -0.0540 C.3   1 <1>  -0.2420 
  5 C        3.4980     0.7220     0.7020 C.3   1 <1>  -0.2420 
  6 C        3.3370     1.9630    -1.3870 C.3   1 <1>   0.2350 
  7 C        2.0850     0.3860     0.3300 C.3   1 <1>  -0.2000 
  8 C        3.9570     0.8240     2.1540 C.2   1 <1>   0.9470 
  9 C        4.6350     0.2830    -0.2000 C.3   1 <1>   0.2350 
 10 N        4.6620     1.2800    -1.2990 N.am  1 <1>  -0.6600 
 11 O        3.4850     0.0430     2.9900 O.co2 1 <1>  -0.9000 
 12 O        4.9030     1.5760     2.4250 O.co2 1 <1>  -0.9000 
 13 C        5.8600     1.8870    -1.5220 C.2   1 <1>   0.5690 
 14 O        6.8320     1.2450    -1.8510 O.2   1 <1>  -0.5700 
 15 C        6.0400     3.3760    -1.3070 C.3   1 <1>  -0.0990 
 16 C        5.8860     3.7300     0.1810 C.3   1 <1>   0.0960 
 17 N        6.1130     5.1750     0.3880 N.pl3 1 <1>   0.3140 
 18 N        7.3030     5.7790     0.1460 N.2   1 <1>  -0.7070 
 19 C        5.1930     6.0720     0.7900 C.2   1 <1>  -0.3020 
 20 C        7.0970     7.0320     0.4120 C.2   1 <1>   0.1390 
 21 C        5.7910     7.2800     0.8200 C.2   1 <1>  -0.1810 
 22 C        5.1780     8.6080     1.2080 C.3   1 <1>  -0.0590 
 23 H        3.4440     3.0120    -1.5900 H     1 <1>   0.0800 
 24 H        2.7530     1.5220    -2.1750 H     1 <1>   0.0800 
 25 H        1.8860    -0.3350    -0.4400 H     1 <1>   0.1000 
 26 H        1.3590     0.3520     1.1250 H     1 <1>   0.1000 
 27 H        4.4490    -0.6990    -0.5950 H     1 <1>   0.0800 
 28 H        5.5730     0.2800     0.3310 H     1 <1>   0.0800 
 29 H        7.0290     3.6470    -1.6280 H     1 <1>   0.0800 
 30 H        5.3350     3.9280    -1.8960 H     1 <1>   0.0800 
 31 H        6.5960     3.1840     0.7740 H     1 <1>   0.0800 
 32 H        4.9020     3.4810     0.5360 H     1 <1>   0.0800 
 33 H        4.1800     5.7830     1.0220 H     1 <1>   0.1500 
 34 H        7.8580     7.7860     0.3220 H     1 <1>   0.1500 
 35 H        5.7030     9.0210     2.0500 H     1 <1>   0.0800 
 36 H        4.1460     8.4660     1.4750 H     1 <1>   0.0800 
 37 H        5.2340     9.2920     0.3820 H     1 <1>   0.0800 
@<TRIPOS>BOND
  1   1   2  ar  
  2   2   3  ar  
  3   2   4  1   
  4   4   5  1   
  5   4   6  1   
  6   4   7  1   
  7   5   7  1   
  8   5   8  1   
  9   5   9  1   
 10   6  10  1   
 11   6  23  1   
 12   6  24  1   
 13   7  25  1   
 14   7  26  1   
 15   8  11  ar  
 16   8  12  ar  
 17   9  10  1   
 18   9  27  1   
 19   9  28  1   
 20  10  13  am  
 21  13  14  2   
 22  13  15  1   
 23  15  16  1   
 24  15  29  1   
 25  15  30  1   
 26  16  17  1   
 27  16  31  1   
 28  16  32  1   
 29  17  18  1   
 30  17  19  1   
 31  18  20  2   
 32  19  21  2   
 33  19  33  1   
 34  20  21  1   
 35  20  34  1   
 36  21  22  1   
 37  22  35  1   
 38  22  36  1   
 39  22  37  1   
@<TRIPOS>SUBSTRUCTURE
  1 ****  16 GROUP 4 **** **** 0

# MOE 2024.06 (io_trps.svl 2023.06)
