@<TRIPOS>MOLECULE
NONAME
49 52 1 0 0 
SMALL
USER_CHARGES


@<TRIPOS>ATOM
  1 O       -0.3170    -0.2740    -0.3580 O.2   1 <1>  -0.5700 
  2 C       -1.2520     0.3490     0.1050 C.2   1 <1>   0.7160 
  3 N       -2.2800    -0.3430     0.6660 N.am  1 <1>  -0.7300 
  4 C       -1.2990     1.7800     0.0680 C.2   1 <1>  -0.0860 
  5 C       -2.4230    -1.8110     0.7770 C.3   1 <1>   0.1400 
  6 C       -2.4600     2.5600     0.1530 C.2   1 <1>   0.3720 
  7 C       -0.3100     2.7090    -0.0560 C.2   1 <1>   0.0870 
  8 C       -3.5230    -2.3050    -0.1730 C.3   1 <1>  -0.0800 
  9 N       -2.1860     3.8140     0.0900 N.2   1 <1>  -0.4100 
 10 N       -3.7700     2.0640     0.2590 N.pl3 1 <1>  -0.8210 
 11 O       -0.8900     3.8830    -0.0400 O.3   1 <1>  -0.0190 
 12 C        1.1250     2.6340    -0.1740 C.ar  1 <1>   0.0530 
 13 C       -4.9010    -1.8190     0.2580 C.3   1 <1>   0.1200 
 14 C       -3.7010    -3.8140    -0.0720 C.3   1 <1>  -0.1600 
 15 C       -4.6900     2.8390     1.1580 C.3   1 <1>   0.2090 
 16 C       -4.4070     1.7760    -1.0670 C.3   1 <1>   0.2090 
 17 C        1.8190     3.5490    -0.9670 C.ar  1 <1>  -0.1500 
 18 C        1.8770     1.6720     0.5000 C.ar  1 <1>  -0.1500 
 19 O       -5.3050    -2.7160     1.2370 O.3   1 <1>  -0.5600 
 20 C       -4.8050    -3.9890     0.9700 C.3   1 <1>   0.1200 
 21 C       -5.4050     3.9970     0.4310 C.3   1 <1>   0.1200 
 22 C       -5.0970     3.0170    -1.6610 C.3   1 <1>   0.1200 
 23 C        3.1960     3.5030    -1.0870 C.ar  1 <1>  -0.1500 
 24 C        3.2530     1.6190     0.3840 C.ar  1 <1>  -0.1500 
 25 O       -6.0110     3.5510    -0.7490 O.3   1 <1>  -0.5600 
 26 C        3.9170     2.5360    -0.4110 C.ar  1 <1>  -0.1500 
 27 H       -3.0970     0.2280     0.9220 H     1 <1>   0.3700 
 28 H       -2.6680    -2.0660     1.7940 H     1 <1>   0.0800 
 29 H       -1.4880    -2.2840     0.5270 H     1 <1>   0.0800 
 30 H       -3.2890    -2.0060    -1.1800 H     1 <1>   0.0800 
 31 H       -5.6040    -1.8810    -0.5560 H     1 <1>   0.0800 
 32 H       -4.9010    -0.8250     0.6680 H     1 <1>   0.0800 
 33 H       -2.8000    -4.3290     0.2110 H     1 <1>   0.0800 
 34 H       -4.0410    -4.2120    -1.0110 H     1 <1>   0.0800 
 35 H       -4.1330     3.2370     1.9890 H     1 <1>   0.0800 
 36 H       -5.4330     2.1710     1.5570 H     1 <1>   0.0800 
 37 H       -5.1390     0.9980    -0.9460 H     1 <1>   0.0800 
 38 H       -3.6620     1.4210    -1.7590 H     1 <1>   0.0800 
 39 H        1.2700     4.3060    -1.4990 H     1 <1>   0.1500 
 40 H        1.3790     0.9530     1.1260 H     1 <1>   0.1500 
 41 H       -4.4260    -4.3970     1.8910 H     1 <1>   0.0800 
 42 H       -5.6090    -4.6030     0.5990 H     1 <1>   0.0800 
 43 H       -4.7080     4.7790     0.1870 H     1 <1>   0.0800 
 44 H       -6.1740     4.4090     1.0600 H     1 <1>   0.0800 
 45 H       -5.6390     2.7510    -2.5510 H     1 <1>   0.0800 
 46 H       -4.3710     3.7720    -1.9100 H     1 <1>   0.0800 
 47 H        3.7080     4.2190    -1.7060 H     1 <1>   0.1500 
 48 H        3.8090     0.8630     0.9110 H     1 <1>   0.1500 
 49 H        4.9890     2.4960    -0.5030 H     1 <1>   0.1500 
@<TRIPOS>BOND
  1   1   2  2   
  2   2   3  am  
  3   2   4  1   
  4   3   5  1   
  5   3  27  1   
  6   4   6  1   
  7   4   7  2   
  8   5   8  1   
  9   5  28  1   
 10   5  29  1   
 11   6   9  2   
 12   6  10  1   
 13   7  11  1   
 14   7  12  1   
 15   8  13  1   
 16   8  14  1   
 17   8  30  1   
 18   9  11  1   
 19  10  15  1   
 20  10  16  1   
 21  12  17  ar  
 22  12  18  ar  
 23  13  19  1   
 24  13  31  1   
 25  13  32  1   
 26  14  20  1   
 27  14  33  1   
 28  14  34  1   
 29  15  21  1   
 30  15  35  1   
 31  15  36  1   
 32  16  22  1   
 33  16  37  1   
 34  16  38  1   
 35  17  23  ar  
 36  17  39  1   
 37  18  24  ar  
 38  18  40  1   
 39  19  20  1   
 40  20  41  1   
 41  20  42  1   
 42  21  25  1   
 43  21  43  1   
 44  21  44  1   
 45  22  25  1   
 46  22  45  1   
 47  22  46  1   
 48  23  26  ar  
 49  23  47  1   
 50  24  26  ar  
 51  24  48  1   
 52  26  49  1   
@<TRIPOS>SUBSTRUCTURE
  1 ****   4 GROUP 4 **** **** 0

# MOE 2024.06 (io_trps.svl 2023.06)
