@<TRIPOS>MOLECULE
NONAME
61 64 1 0 0 
SMALL
USER_CHARGES


@<TRIPOS>ATOM
  1 O       -0.1300    -0.8650     0.0730 O.2   1 <1>  -0.5700 
  2 C        0.9500    -1.3740    -0.1180 C.2   1 <1>   0.5690 
  3 N        1.0850    -2.6480    -0.6100 N.am  1 <1>  -0.6600 
  4 C        2.1770    -0.5460     0.2300 C.3   1 <1>  -0.0990 
  5 C        2.3940    -3.2600    -0.9730 C.3   1 <1>   0.1400 
  6 C       -0.1110    -3.4740    -0.9190 C.3   1 <1>   0.1400 
  7 C        3.4640    -1.0360    -0.4440 C.3   1 <1>  -0.1600 
  8 C        3.5690    -2.5550    -0.2910 C.3   1 <1>  -0.1600 
  9 C       -0.3470    -4.4890     0.2010 C.3   1 <1>  -0.1600 
 10 C       -1.6680    -5.2540    -0.0080 C.3   1 <1>  -0.0990 
 11 C       -1.9510    -6.3300     1.0370 C.2   1 <1>   0.5690 
 12 O       -1.0700    -6.6260     1.8100 O.2   1 <1>  -0.5700 
 13 N       -3.1760    -6.9510     1.0700 N.am  1 <1>  -0.6600 
 14 C       -4.2860    -6.7400     0.1000 C.3   1 <1>   0.1400 
 15 C       -3.5030    -7.9570     2.1210 C.3   1 <1>   0.1400 
 16 C       -4.5950    -8.0670    -0.5980 C.3   1 <1>  -0.1600 
 17 C       -3.8170    -9.2990     1.4550 C.3   1 <1>  -0.1600 
 18 C       -4.9380    -9.1760     0.4120 C.3   1 <1>   0.4240 
 19 O       -6.0740    -8.7650     1.1360 O.3   1 <1>  -0.5600 
 20 C       -5.1650   -10.5290    -0.2980 C.ar  1 <1>  -0.1440 
 21 C       -7.3240    -9.0090     0.5700 C.3   1 <1>   0.1200 
 22 C       -6.4010   -11.1650    -0.2570 C.ar  1 <1>  -0.1440 
 23 C       -4.1300   -11.1360    -1.0020 C.ar  1 <1>  -0.1500 
 24 C       -7.5460   -10.5160     0.4950 C.3   1 <1>  -0.0170 
 25 C       -6.5940   -12.3800    -0.8950 C.ar  1 <1>  -0.1500 
 26 C       -4.3220   -12.3470    -1.6410 C.ar  1 <1>  -0.1500 
 27 C       -5.5510   -12.9800    -1.5920 C.ar  1 <1>   0.0820 
 28 O       -5.6560   -14.1650    -2.2430 O.3   1 <1>  -0.3620 
 29 C       -6.8590   -14.9010    -2.2380 C.3   1 <1>   0.0400 
 30 H        2.2950    -0.5850     1.2970 H     1 <1>   0.0800 
 31 H        1.9930     0.4770    -0.0420 H     1 <1>   0.0800 
 32 H        2.5110    -3.1980    -2.0420 H     1 <1>   0.0800 
 33 H        2.4000    -4.3000    -0.6950 H     1 <1>   0.0800 
 34 H        0.0330    -3.9790    -1.8590 H     1 <1>   0.0800 
 35 H       -0.9750    -2.8390    -1.0170 H     1 <1>   0.0800 
 36 H        4.3170    -0.5550     0.0030 H     1 <1>   0.0800 
 37 H        3.4410    -0.7810    -1.4900 H     1 <1>   0.0800 
 38 H        4.4890    -2.9030    -0.7250 H     1 <1>   0.0800 
 39 H        3.5800    -2.8190     0.7530 H     1 <1>   0.0800 
 40 H       -0.3900    -3.9730     1.1450 H     1 <1>   0.0800 
 41 H        0.4680    -5.1900     0.2330 H     1 <1>   0.0800 
 42 H       -1.6540    -5.7260    -0.9720 H     1 <1>   0.0800 
 43 H       -2.4720    -4.5420     0.0160 H     1 <1>   0.0800 
 44 H       -4.0330    -6.0020    -0.6380 H     1 <1>   0.0800 
 45 H       -5.1560    -6.3930     0.6330 H     1 <1>   0.0800 
 46 H       -4.3550    -7.6160     2.6830 H     1 <1>   0.0800 
 47 H       -2.6820    -8.0780     2.8070 H     1 <1>   0.0800 
 48 H       -3.7320    -8.3550    -1.1680 H     1 <1>   0.0800 
 49 H       -5.4030    -7.9390    -1.2920 H     1 <1>   0.0800 
 50 H       -4.1080   -10.0170     2.2010 H     1 <1>   0.0800 
 51 H       -2.9160    -9.6590     0.9960 H     1 <1>   0.0800 
 52 H       -7.3660    -8.5630    -0.4070 H     1 <1>   0.0800 
 53 H       -8.0660    -8.5510     1.2000 H     1 <1>   0.0800 
 54 H       -3.1610   -10.6740    -1.0600 H     1 <1>   0.1500 
 55 H       -8.4780   -10.7120    -0.0030 H     1 <1>   0.0800 
 56 H       -7.6020   -10.9200     1.4900 H     1 <1>   0.0800 
 57 H       -7.5580   -12.8480    -0.8400 H     1 <1>   0.1500 
 58 H       -3.5180   -12.8120    -2.1820 H     1 <1>   0.1500 
 59 H       -6.7020   -15.8000    -2.8060 H     1 <1>   0.0800 
 60 H       -7.6310   -14.3090    -2.6960 H     1 <1>   0.0800 
 61 H       -7.1120   -15.1480    -1.2220 H     1 <1>   0.0800 
@<TRIPOS>BOND
  1   1   2  2   
  2   2   3  am  
  3   2   4  1   
  4   3   5  1   
  5   3   6  1   
  6   4   7  1   
  7   4  30  1   
  8   4  31  1   
  9   5   8  1   
 10   5  32  1   
 11   5  33  1   
 12   6   9  1   
 13   6  34  1   
 14   6  35  1   
 15   7   8  1   
 16   7  36  1   
 17   7  37  1   
 18   8  38  1   
 19   8  39  1   
 20   9  10  1   
 21   9  40  1   
 22   9  41  1   
 23  10  11  1   
 24  10  42  1   
 25  10  43  1   
 26  11  12  2   
 27  11  13  am  
 28  13  14  1   
 29  13  15  1   
 30  14  16  1   
 31  14  44  1   
 32  14  45  1   
 33  15  17  1   
 34  15  46  1   
 35  15  47  1   
 36  16  18  1   
 37  16  48  1   
 38  16  49  1   
 39  17  18  1   
 40  17  50  1   
 41  17  51  1   
 42  18  19  1   
 43  18  20  1   
 44  19  21  1   
 45  20  22  ar  
 46  20  23  ar  
 47  21  24  1   
 48  21  52  1   
 49  21  53  1   
 50  22  24  1   
 51  22  25  ar  
 52  23  26  ar  
 53  23  54  1   
 54  24  55  1   
 55  24  56  1   
 56  25  27  ar  
 57  25  57  1   
 58  26  27  ar  
 59  26  58  1   
 60  27  28  1   
 61  28  29  1   
 62  29  59  1   
 63  29  60  1   
 64  29  61  1   
@<TRIPOS>SUBSTRUCTURE
  1 ****  13 GROUP 4 **** **** 0

# MOE 2024.06 (io_trps.svl 2023.06)
