@<TRIPOS>MOLECULE
NONAME
48 52 1 0 0 
SMALL
USER_CHARGES


@<TRIPOS>ATOM
  1 O       -0.8710     0.2770     1.3160 O.2   1 <1>  -0.5700 
  2 C       -1.8080     0.9420     0.8950 C.2   1 <1>   0.7160 
  3 N       -3.0460     0.3180     0.8620 N.am  1 <1>  -0.6600 
  4 C       -1.6090     2.3330     0.4500 C.2   1 <1>   0.4300 
  5 C       -4.3190     0.9670     0.4780 C.3   1 <1>   0.1400 
  6 C       -3.2520    -1.0770     1.3000 C.3   1 <1>   0.1400 
  7 N       -2.1910     2.8640    -0.6140 N.2   1 <1>  -0.7070 
  8 N       -0.8020     3.1880     1.1220 N.2   1 <1>  -0.5650 
  9 C       -5.4170    -0.0510     0.8120 C.3   1 <1>  -0.0800 
 10 C       -4.7090    -1.4130     0.9740 C.3   1 <1>  -0.0800 
 11 N       -1.7260     4.0970    -0.6210 N.pl3 1 <1>   0.6010 
 12 C       -0.8930     4.2750     0.4370 C.2   1 <1>   0.3120 
 13 C       -6.6410    -0.0470    -0.1450 C.3   1 <1>   0.4240 
 14 C       -4.8480    -2.2940    -0.2780 C.3   1 <1>  -0.1600 
 15 C       -1.9740     5.1360    -1.4940 C.2   1 <1>  -0.1810 
 16 N       -0.2590     5.4670     0.7040 N.2   1 <1>  -0.5760 
 17 O       -6.2150     0.1540    -1.4470 O.3   1 <1>  -0.6800 
 18 C       -7.6350     1.0670     0.2450 C.ar  1 <1>  -0.1430 
 19 C       -7.2890    -1.4430    -0.1630 C.3   1 <1>  -0.1600 
 20 C       -6.3270    -2.5650    -0.6250 C.3   1 <1>  -0.1600 
 21 C       -1.3550     6.3200    -1.2460 C.2   1 <1>  -0.1360 
 22 C       -0.4940     6.4370    -0.1170 C.2   1 <1>   0.3760 
 23 C       -7.7940     2.2190    -0.5210 C.ar  1 <1>  -0.1500 
 24 C       -8.3990     0.9460     1.4030 C.ar  1 <1>  -0.1500 
 25 C       -8.6880     3.2090    -0.1490 C.ar  1 <1>  -0.1500 
 26 C       -9.2930     1.9330     1.7780 C.ar  1 <1>  -0.1500 
 27 C       -9.4400     3.0670     1.0010 C.ar  1 <1>  -0.1500 
 28 H       -4.4640     1.8810     1.0280 H     1 <1>   0.0800 
 29 H       -4.2780     1.1980    -0.5720 H     1 <1>   0.0800 
 30 H       -2.5620    -1.7350     0.7990 H     1 <1>   0.0800 
 31 H       -3.0820    -1.1340     2.3620 H     1 <1>   0.0800 
 32 H       -5.7750     0.2090     1.7920 H     1 <1>   0.0800 
 33 H       -5.1340    -1.9510     1.8040 H     1 <1>   0.0800 
 34 H       -4.3610    -1.8040    -1.1050 H     1 <1>   0.0800 
 35 H       -4.3410    -3.2320    -0.1250 H     1 <1>   0.0800 
 36 H       -2.6420     4.9330    -2.3100 H     1 <1>   0.1500 
 37 H       -5.6770    -0.6160    -1.7020 H     1 <1>   0.4000 
 38 H       -7.6180    -1.6800     0.8320 H     1 <1>   0.0800 
 39 H       -8.1670    -1.4250    -0.7860 H     1 <1>   0.0800 
 40 H       -6.6380    -3.4870    -0.1640 H     1 <1>   0.0800 
 41 H       -6.4150    -2.7000    -1.6900 H     1 <1>   0.0800 
 42 H       -1.4890     7.1830    -1.8730 H     1 <1>   0.1500 
 43 H       -0.0190     7.3880     0.0500 H     1 <1>   0.0600 
 44 H       -7.2230     2.3610    -1.4220 H     1 <1>   0.1500 
 45 H       -8.3060     0.0810     2.0330 H     1 <1>   0.1500 
 46 H       -8.7960     4.0890    -0.7580 H     1 <1>   0.1500 
 47 H       -9.8770     1.8200     2.6750 H     1 <1>   0.1500 
 48 H      -10.1370     3.8350     1.2900 H     1 <1>   0.1500 
@<TRIPOS>BOND
  1   1   2  2   
  2   2   3  am  
  3   2   4  1   
  4   3   5  1   
  5   3   6  1   
  6   4   7  2   
  7   4   8  1   
  8   5   9  1   
  9   5  28  1   
 10   5  29  1   
 11   6  10  1   
 12   6  30  1   
 13   6  31  1   
 14   7  11  1   
 15   8  12  2   
 16   9  10  1   
 17   9  13  1   
 18   9  32  1   
 19  10  14  1   
 20  10  33  1   
 21  11  12  1   
 22  11  15  1   
 23  12  16  1   
 24  13  17  1   
 25  13  18  1   
 26  13  19  1   
 27  14  20  1   
 28  14  34  1   
 29  14  35  1   
 30  15  21  2   
 31  15  36  1   
 32  16  22  2   
 33  17  37  1   
 34  18  23  ar  
 35  18  24  ar  
 36  19  20  1   
 37  19  38  1   
 38  19  39  1   
 39  20  40  1   
 40  20  41  1   
 41  21  22  1   
 42  21  42  1   
 43  22  43  1   
 44  23  25  ar  
 45  23  44  1   
 46  24  26  ar  
 47  24  45  1   
 48  25  27  ar  
 49  25  46  1   
 50  26  27  ar  
 51  26  47  1   
 52  27  48  1   
@<TRIPOS>SUBSTRUCTURE
  1 ****   5 GROUP 4 **** **** 0

# MOE 2024.06 (io_trps.svl 2023.06)
