@<TRIPOS>MOLECULE
NONAME
55 57 1 0 0 
SMALL
USER_CHARGES


@<TRIPOS>ATOM
  1 S       -0.7680    -0.2380    -1.2720 S.o2  1 <1>   1.3330 
  2 O       -1.2580    -1.2210    -2.2070 O.2   1 <1>  -0.6500 
  3 O       -1.2360     1.1270    -1.3020 O.2   1 <1>  -0.6500 
  4 N       -1.0420    -0.8310     0.3370 N.am  1 <1>  -0.6930 
  5 C        1.0090    -0.2130    -1.3590 C.3   1 <1>  -0.1350 
  6 C       -1.4120    -2.1480     0.5800 C.ar  1 <1>   0.1990 
  7 C       -1.1920     0.1920     1.4010 C.3   1 <1>   0.1160 
  8 C       -2.5820    -2.4510     1.2710 C.ar  1 <1>  -0.1500 
  9 C       -0.6290    -3.2110     0.1400 C.ar  1 <1>  -0.1500 
 10 C       -2.9540    -3.7590     1.5080 C.ar  1 <1>  -0.1500 
 11 C       -1.0030    -4.5190     0.3750 C.ar  1 <1>  -0.1500 
 12 C       -2.1800    -4.8300     1.0560 C.ar  1 <1>   0.0860 
 13 C       -2.5740    -6.2070     1.2770 C.2   1 <1>   0.5440 
 14 O       -1.7290    -7.0600     1.4960 O.2   1 <1>  -0.5700 
 15 N       -3.8900    -6.6100     1.2160 N.am  1 <1>  -0.6600 
 16 C       -4.2750    -7.9590     1.7170 C.3   1 <1>   0.1400 
 17 C       -4.8150    -6.1020     0.1610 C.3   1 <1>   0.1400 
 18 C       -4.1700    -8.9560     0.5400 C.3   1 <1>   0.4230 
 19 C       -4.8030    -7.0880    -1.0180 C.3   1 <1>  -0.1600 
 20 N       -4.3840   -10.3930     0.9200 N.4   1 <1>  -0.9590 
 21 C       -5.1490    -8.5420    -0.5810 C.3   1 <1>  -0.1060 
 22 C       -4.1480   -11.3070    -0.2250 C.3   1 <1>   0.3430 
 23 C       -3.6700   -10.8290     2.1500 C.3   1 <1>   0.2630 
 24 C       -6.5860    -8.6210    -0.0290 C.2   1 <1>   0.9060 
 25 C       -4.9740    -9.4820    -1.7980 C.3   1 <1>  -0.1600 
 26 C       -5.0790   -10.9590    -1.3890 C.3   1 <1>  -0.1600 
 27 O       -6.8580    -9.4930     0.8140 O.co2 1 <1>  -0.9000 
 28 O       -7.4300    -7.8120    -0.4120 O.co2 1 <1>  -0.9000 
 29 H        1.4050    -1.2020    -1.2410 H     1 <1>   0.0800 
 30 H        1.4090     0.4160    -0.5890 H     1 <1>   0.0800 
 31 H        1.3220     0.1680    -2.3110 H     1 <1>   0.0800 
 32 H       -1.2040    -0.2750     2.3710 H     1 <1>   0.0800 
 33 H       -2.1110     0.7330     1.2550 H     1 <1>   0.0800 
 34 H       -0.3710     0.8860     1.3610 H     1 <1>   0.0800 
 35 H       -3.2110    -1.6510     1.6170 H     1 <1>   0.1500 
 36 H        0.2800    -3.0120    -0.3940 H     1 <1>   0.1500 
 37 H       -3.8620    -3.9650     2.0480 H     1 <1>   0.1500 
 38 H       -0.3790    -5.3240     0.0260 H     1 <1>   0.1500 
 39 H       -3.6080    -8.2350     2.5120 H     1 <1>   0.0800 
 40 H       -5.2760    -7.9220     2.1110 H     1 <1>   0.0800 
 41 H       -5.8120    -6.0170     0.5650 H     1 <1>   0.0800 
 42 H       -4.5130    -5.1290    -0.1850 H     1 <1>   0.0800 
 43 H       -3.1680    -8.8640     0.1570 H     1 <1>   0.0800 
 44 H       -5.5170    -6.7530    -1.7520 H     1 <1>   0.0800 
 45 H       -3.8320    -7.0550    -1.4790 H     1 <1>   0.0800 
 46 H       -5.4260   -10.3960     1.0940 H     1 <1>   0.4500 
 47 H       -3.1230   -11.2250    -0.5460 H     1 <1>   0.0800 
 48 H       -4.3320   -12.3250     0.0790 H     1 <1>   0.0800 
 49 H       -2.6070   -10.7060     2.0270 H     1 <1>   0.0800 
 50 H       -3.8840   -11.8660     2.3530 H     1 <1>   0.0800 
 51 H       -3.9950   -10.2450     2.9950 H     1 <1>   0.0800 
 52 H       -5.7310    -9.2580    -2.5320 H     1 <1>   0.0800 
 53 H       -4.0130    -9.3120    -2.2530 H     1 <1>   0.0800 
 54 H       -4.8370   -11.5810    -2.2320 H     1 <1>   0.0800 
 55 H       -6.0930   -11.1870    -1.1070 H     1 <1>   0.0800 
@<TRIPOS>BOND
  1   1   2  2   
  2   1   3  2   
  3   1   4  am  
  4   1   5  1   
  5   4   6  1   
  6   4   7  1   
  7   5  29  1   
  8   5  30  1   
  9   5  31  1   
 10   6   8  ar  
 11   6   9  ar  
 12   7  32  1   
 13   7  33  1   
 14   7  34  1   
 15   8  10  ar  
 16   8  35  1   
 17   9  11  ar  
 18   9  36  1   
 19  10  12  ar  
 20  10  37  1   
 21  11  12  ar  
 22  11  38  1   
 23  12  13  1   
 24  13  14  2   
 25  13  15  am  
 26  15  16  1   
 27  15  17  1   
 28  16  18  1   
 29  16  39  1   
 30  16  40  1   
 31  17  19  1   
 32  17  41  1   
 33  17  42  1   
 34  18  20  1   
 35  18  21  1   
 36  18  43  1   
 37  19  21  1   
 38  19  44  1   
 39  19  45  1   
 40  20  22  1   
 41  20  23  1   
 42  20  46  1   
 43  21  24  1   
 44  21  25  1   
 45  22  26  1   
 46  22  47  1   
 47  22  48  1   
 48  23  49  1   
 49  23  50  1   
 50  23  51  1   
 51  24  27  ar  
 52  24  28  ar  
 53  25  26  1   
 54  25  52  1   
 55  25  53  1   
 56  26  54  1   
 57  26  55  1   
@<TRIPOS>SUBSTRUCTURE
  1 ****  13 GROUP 4 **** **** 0

# MOE 2024.06 (io_trps.svl 2023.06)
