@<TRIPOS>MOLECULE
NONAME
50 54 1 0 0 
SMALL
USER_CHARGES


@<TRIPOS>ATOM
  1 O       -0.6950    -4.1860     1.6020 O.2   1 <1>  -0.5700 
  2 C        0.3320    -3.6600     1.2340 C.2   1 <1>   0.6900 
  3 N        0.5190    -3.0510     0.0280 N.am  1 <1>  -0.4200 
  4 N        1.4540    -3.6190     1.9790 N.am  1 <1>  -0.7300 
  5 C        1.8080    -2.6240    -0.0760 C.2   1 <1>   0.5690 
  6 C       -0.4410    -3.0960    -1.1050 C.3   1 <1>   0.2010 
  7 C        2.5510    -2.9920     1.2000 C.3   1 <1>   0.2010 
  8 O        2.2960    -2.0370    -1.0100 O.2   1 <1>  -0.5700 
  9 C       -0.6770    -4.5240    -1.6040 C.2   1 <1>   0.5690 
 10 O        0.2490    -5.0630    -2.1680 O.2   1 <1>  -0.5700 
 11 N       -1.8800    -5.1740    -1.4460 N.am  1 <1>  -0.6600 
 12 C       -3.0060    -4.6800    -0.5920 C.3   1 <1>   0.1400 
 13 C       -2.0410    -6.5360    -2.0430 C.3   1 <1>   0.1400 
 14 C       -3.6110    -5.8520     0.1760 C.3   1 <1>  -0.1600 
 15 C       -3.5130    -6.9340    -2.1390 C.3   1 <1>  -0.1600 
 16 C       -4.2350    -6.8790    -0.7820 C.3   1 <1>   0.4600 
 17 O       -5.5490    -6.4620    -1.0860 O.3   1 <1>  -0.5600 
 18 C       -4.2720    -8.2660    -0.1460 C.2   1 <1>  -0.3320 
 19 C       -6.5870    -6.8100    -0.2000 C.3   1 <1>   0.1200 
 20 N       -3.1910    -9.0250     0.2090 N.pl3 1 <1>   0.0330 
 21 C       -5.4020    -8.9390     0.1480 C.2   1 <1>  -0.1810 
 22 C       -6.7580    -8.3360    -0.1130 C.3   1 <1>   0.0210 
 23 C       -3.6550   -10.2090     0.7290 C.ar  1 <1>  -0.1520 
 24 C       -5.0480   -10.1870     0.7000 C.ar  1 <1>   0.0000 
 25 C       -2.9660   -11.3150     1.2300 C.ar  1 <1>  -0.1500 
 26 C       -5.7660   -11.2890     1.1750 C.ar  1 <1>  -0.1500 
 27 C       -3.6860   -12.3920     1.6960 C.ar  1 <1>  -0.1500 
 28 C       -5.0860   -12.3790     1.6680 C.ar  1 <1>  -0.1500 
 29 H        1.5810    -4.1950     2.8120 H     1 <1>   0.3700 
 30 H       -0.0380    -2.5280    -1.9250 H     1 <1>   0.0800 
 31 H       -1.3580    -2.6280    -0.8110 H     1 <1>   0.0800 
 32 H        3.3370    -3.6960     0.9940 H     1 <1>   0.0800 
 33 H        2.9290    -2.1140     1.6930 H     1 <1>   0.0800 
 34 H       -3.7580    -4.2260    -1.2150 H     1 <1>   0.0800 
 35 H       -2.6640    -3.9510     0.1180 H     1 <1>   0.0800 
 36 H       -1.5050    -7.2440    -1.4350 H     1 <1>   0.0800 
 37 H       -1.6040    -6.5490    -3.0270 H     1 <1>   0.0800 
 38 H       -4.3420    -5.4960     0.8760 H     1 <1>   0.0800 
 39 H       -2.8240    -6.3070     0.7490 H     1 <1>   0.0800 
 40 H       -3.5910    -7.9250    -2.5490 H     1 <1>   0.0800 
 41 H       -3.9870    -6.2620    -2.8310 H     1 <1>   0.0800 
 42 H       -7.4920    -6.3550    -0.5610 H     1 <1>   0.0800 
 43 H       -6.3600    -6.4080     0.7700 H     1 <1>   0.0800 
 44 H       -2.2040    -8.7650     0.1250 H     1 <1>   0.2700 
 45 H       -7.1570    -8.7170    -1.0350 H     1 <1>   0.0800 
 46 H       -7.4330    -8.5800     0.6860 H     1 <1>   0.0800 
 47 H       -1.8910   -11.3160     1.2480 H     1 <1>   0.1500 
 48 H       -6.8400   -11.2640     1.1470 H     1 <1>   0.1500 
 49 H       -3.1790   -13.2570     2.0870 H     1 <1>   0.1500 
 50 H       -5.6250   -13.2340     2.0370 H     1 <1>   0.1500 
@<TRIPOS>BOND
  1   1   2  2   
  2   2   3  am  
  3   2   4  am  
  4   3   5  am  
  5   3   6  1   
  6   4   7  1   
  7   4  29  1   
  8   5   7  1   
  9   5   8  2   
 10   6   9  1   
 11   6  30  1   
 12   6  31  1   
 13   7  32  1   
 14   7  33  1   
 15   9  10  2   
 16   9  11  am  
 17  11  12  1   
 18  11  13  1   
 19  12  14  1   
 20  12  34  1   
 21  12  35  1   
 22  13  15  1   
 23  13  36  1   
 24  13  37  1   
 25  14  16  1   
 26  14  38  1   
 27  14  39  1   
 28  15  16  1   
 29  15  40  1   
 30  15  41  1   
 31  16  17  1   
 32  16  18  1   
 33  17  19  1   
 34  18  20  1   
 35  18  21  2   
 36  19  22  1   
 37  19  42  1   
 38  19  43  1   
 39  20  23  1   
 40  20  44  1   
 41  21  22  1   
 42  21  24  1   
 43  22  45  1   
 44  22  46  1   
 45  23  24  ar  
 46  23  25  ar  
 47  24  26  ar  
 48  25  27  ar  
 49  25  47  1   
 50  26  28  ar  
 51  26  48  1   
 52  27  28  ar  
 53  27  49  1   
 54  28  50  1   
@<TRIPOS>SUBSTRUCTURE
  1 ****  14 GROUP 4 **** **** 0

# MOE 2024.06 (io_trps.svl 2023.06)
