@<TRIPOS>MOLECULE
NONAME
50 52 1 0 0 
SMALL
USER_CHARGES


@<TRIPOS>ATOM
  1 O        0.0210    -1.7020    -0.7280 O.3   1 <1>  -0.5600 
  2 C       -0.6430    -2.5480     0.1730 C.3   1 <1>   0.2800 
  3 C       -0.1690    -0.3040    -0.6570 C.3   1 <1>   0.1200 
  4 C       -2.1740    -2.2840     0.1840 C.3   1 <1>  -0.1600 
  5 C        0.0200    -2.4090     1.5560 C.3   1 <1>  -0.1600 
  6 C       -0.3550    -3.9770    -0.3230 C.3   1 <1>  -0.1600 
  7 C       -1.5870     0.1350    -0.2400 C.3   1 <1>   0.2000 
  8 C       -2.6200    -0.9820    -0.5030 C.3   1 <1>   0.2800 
  9 C        1.5370    -2.6310     1.5150 C.3   1 <1>   0.3430 
 10 C        1.0700    -4.4710    -0.0380 C.3   1 <1>   0.3430 
 11 O       -1.5650     0.4750     1.1170 O.3   1 <1>  -0.6800 
 12 O       -2.6790    -1.2080    -1.8640 O.3   1 <1>  -0.6800 
 13 C       -4.0450    -0.5920    -0.0950 C.3   1 <1>  -0.2400 
 14 N        1.9660    -3.3180     0.2550 N.4   1 <1>  -0.9590 
 15 C        3.4300    -3.6050     0.1670 C.3   1 <1>   0.4230 
 16 C        4.2420    -2.3280     0.4580 C.3   1 <1>  -0.1600 
 17 C        3.7800    -4.1480    -1.2330 C.3   1 <1>  -0.1600 
 18 C        5.7520    -2.5400     0.2700 C.3   1 <1>  -0.1600 
 19 C        5.2910    -4.3540    -1.4180 C.3   1 <1>  -0.1600 
 20 C        6.0670    -3.0660    -1.1330 C.3   1 <1>  -0.1600 
 21 H        0.5650     0.1130     0.0090 H     1 <1>   0.0800 
 22 H        0.0220     0.0710    -1.6470 H     1 <1>   0.0800 
 23 H       -2.7120    -3.1070    -0.2490 H     1 <1>   0.0800 
 24 H       -2.4870    -2.2430     1.2110 H     1 <1>   0.0800 
 25 H       -0.1820    -1.4490     1.9900 H     1 <1>   0.0800 
 26 H       -0.4110    -3.1340     2.2240 H     1 <1>   0.0800 
 27 H       -1.0300    -4.6690     0.1490 H     1 <1>   0.0800 
 28 H       -0.5490    -4.0260    -1.3800 H     1 <1>   0.0800 
 29 H       -1.8590     1.0260    -0.7780 H     1 <1>   0.0800 
 30 H        1.8440    -3.2020     2.3760 H     1 <1>   0.0800 
 31 H        2.0150    -1.6660     1.5660 H     1 <1>   0.0800 
 32 H        1.4160    -5.0210    -0.8960 H     1 <1>   0.0800 
 33 H        1.0610    -5.1390     0.8090 H     1 <1>   0.0800 
 34 H       -2.3970     0.9290     1.3600 H     1 <1>   0.4000 
 35 H       -3.3850    -1.8480    -2.0680 H     1 <1>   0.4000 
 36 H       -4.1010    -0.4170     0.9640 H     1 <1>   0.0800 
 37 H       -4.7390    -1.3770    -0.3350 H     1 <1>   0.0800 
 38 H       -4.3440     0.3090    -0.6010 H     1 <1>   0.0800 
 39 H        1.7290    -2.6310    -0.4870 H     1 <1>   0.4500 
 40 H        3.6940    -4.3510     0.8990 H     1 <1>   0.0800 
 41 H        3.9230    -1.5400    -0.2030 H     1 <1>   0.0800 
 42 H        4.0930    -2.0080     1.4730 H     1 <1>   0.0800 
 43 H        3.3120    -5.1000    -1.3990 H     1 <1>   0.0800 
 44 H        3.4340    -3.4580    -1.9830 H     1 <1>   0.0800 
 45 H        6.2700    -1.6080     0.4260 H     1 <1>   0.0800 
 46 H        6.1140    -3.2410     1.0030 H     1 <1>   0.0800 
 47 H        5.6360    -5.1310    -0.7570 H     1 <1>   0.0800 
 48 H        5.4910    -4.6740    -2.4270 H     1 <1>   0.0800 
 49 H        7.1240    -3.2550    -1.2180 H     1 <1>   0.0800 
 50 H        5.8100    -2.3190    -1.8650 H     1 <1>   0.0800 
@<TRIPOS>BOND
  1   1   2  1   
  2   1   3  1   
  3   2   4  1   
  4   2   5  1   
  5   2   6  1   
  6   3   7  1   
  7   3  21  1   
  8   3  22  1   
  9   4   8  1   
 10   4  23  1   
 11   4  24  1   
 12   5   9  1   
 13   5  25  1   
 14   5  26  1   
 15   6  10  1   
 16   6  27  1   
 17   6  28  1   
 18   7   8  1   
 19   7  11  1   
 20   7  29  1   
 21   8  12  1   
 22   8  13  1   
 23   9  14  1   
 24   9  30  1   
 25   9  31  1   
 26  10  14  1   
 27  10  32  1   
 28  10  33  1   
 29  11  34  1   
 30  12  35  1   
 31  13  36  1   
 32  13  37  1   
 33  13  38  1   
 34  14  15  1   
 35  14  39  1   
 36  15  16  1   
 37  15  17  1   
 38  15  40  1   
 39  16  18  1   
 40  16  41  1   
 41  16  42  1   
 42  17  19  1   
 43  17  43  1   
 44  17  44  1   
 45  18  20  1   
 46  18  45  1   
 47  18  46  1   
 48  19  20  1   
 49  19  47  1   
 50  19  48  1   
 51  20  49  1   
 52  20  50  1   
@<TRIPOS>SUBSTRUCTURE
  1 ****   1 GROUP 4 **** **** 0

# MOE 2024.06 (io_trps.svl 2023.06)
