@<TRIPOS>MOLECULE
NONAME
47 49 1 0 0 
SMALL
USER_CHARGES


@<TRIPOS>ATOM
  1 O       -0.4080     0.2230    -0.3120 O.2   1 <1>  -0.5700 
  2 C       -1.4910     0.7800    -0.3280 C.2   1 <1>   0.7160 
  3 N       -2.6250     0.0040    -0.2330 N.am  1 <1>  -0.6600 
  4 C       -1.5740     2.2190    -0.4540 C.2   1 <1>  -0.0860 
  5 C       -3.9870     0.4530    -0.6080 C.3   1 <1>   0.1400 
  6 C       -2.5660    -1.4760    -0.1430 C.3   1 <1>   0.1400 
  7 C       -0.7390     3.0410    -1.2220 C.2   1 <1>   0.1080 
  8 C       -2.4350     3.1110     0.1140 C.2   1 <1>  -0.3020 
  9 C       -4.7620    -0.8340    -0.8930 C.3   1 <1>   0.2000 
 10 C       -4.0270    -1.9330    -0.1290 C.3   1 <1>  -0.0800 
 11 N       -1.0570     4.2930    -1.1480 N.2   1 <1>  -0.7070 
 12 C        0.4220     2.5650    -2.0690 C.3   1 <1>  -0.0590 
 13 N       -2.1060     4.3370    -0.3140 N.pl3 1 <1>   0.3140 
 14 O       -6.0740    -0.7490    -0.4540 O.3   1 <1>  -0.6800 
 15 C       -4.2580    -3.3290    -0.7340 C.3   1 <1>  -0.0170 
 16 C       -2.7570     5.6110     0.0490 C.3   1 <1>   0.0960 
 17 C       -3.5650    -4.4150     0.0730 C.ar  1 <1>   0.1670 
 18 C       -2.2560     6.1120     1.4120 C.3   1 <1>  -0.1600 
 19 N       -2.2790    -4.6050    -0.1740 N.ar  1 <1>  -0.6200 
 20 C       -4.2830    -5.1470     1.0170 C.ar  1 <1>   0.1600 
 21 C       -2.9330     7.4300     1.8050 C.3   1 <1>  -0.2400 
 22 C       -1.7640    -5.5640     0.5780 C.ar  1 <1>   0.1600 
 23 N       -3.7710    -6.1050     1.7720 N.ar  1 <1>  -0.6200 
 24 C       -2.4860    -6.2890     1.5190 C.ar  1 <1>   0.1600 
 25 H       -4.4230     0.9840     0.2200 H     1 <1>   0.0800 
 26 H       -3.9540     1.0820    -1.4810 H     1 <1>   0.0800 
 27 H       -2.0490    -1.8610    -1.0070 H     1 <1>   0.0800 
 28 H       -2.0440    -1.7860     0.7460 H     1 <1>   0.0800 
 29 H       -3.2410     2.9280     0.7980 H     1 <1>   0.1500 
 30 H       -4.7680    -1.0280    -1.9520 H     1 <1>   0.0800 
 31 H       -4.3480    -1.9310     0.8980 H     1 <1>   0.0800 
 32 H        0.1100     1.7550    -2.7010 H     1 <1>   0.0800 
 33 H        1.2170     2.2270    -1.4300 H     1 <1>   0.0800 
 34 H        0.7840     3.3690    -2.6820 H     1 <1>   0.0800 
 35 H       -6.1030    -0.5820     0.5080 H     1 <1>   0.4000 
 36 H       -3.8930    -3.3570    -1.7460 H     1 <1>   0.0800 
 37 H       -5.3150    -3.5280    -0.7680 H     1 <1>   0.0800 
 38 H       -2.5310     6.3320    -0.7150 H     1 <1>   0.0800 
 39 H       -3.8190     5.4560     0.0740 H     1 <1>   0.0800 
 40 H       -2.4580     5.3710     2.1660 H     1 <1>   0.0800 
 41 H       -1.1900     6.2630     1.3600 H     1 <1>   0.0800 
 42 H       -5.3270    -4.9300     1.1560 H     1 <1>   0.1500 
 43 H       -3.9990     7.3010     1.8800 H     1 <1>   0.0800 
 44 H       -2.7240     8.1920     1.0750 H     1 <1>   0.0800 
 45 H       -2.5610     7.7620     2.7590 H     1 <1>   0.0800 
 46 H       -0.7210    -5.7870     0.4440 H     1 <1>   0.1500 
 47 H       -1.9780    -7.0510     2.0840 H     1 <1>   0.1500 
@<TRIPOS>BOND
  1   1   2  2   
  2   2   3  am  
  3   2   4  1   
  4   3   5  1   
  5   3   6  1   
  6   4   7  1   
  7   4   8  2   
  8   5   9  1   
  9   5  25  1   
 10   5  26  1   
 11   6  10  1   
 12   6  27  1   
 13   6  28  1   
 14   7  11  2   
 15   7  12  1   
 16   8  13  1   
 17   8  29  1   
 18   9  10  1   
 19   9  14  1   
 20   9  30  1   
 21  10  15  1   
 22  10  31  1   
 23  11  13  1   
 24  12  32  1   
 25  12  33  1   
 26  12  34  1   
 27  13  16  1   
 28  14  35  1   
 29  15  17  1   
 30  15  36  1   
 31  15  37  1   
 32  16  18  1   
 33  16  38  1   
 34  16  39  1   
 35  17  19  ar  
 36  17  20  ar  
 37  18  21  1   
 38  18  40  1   
 39  18  41  1   
 40  19  22  ar  
 41  20  23  ar  
 42  20  42  1   
 43  21  43  1   
 44  21  44  1   
 45  21  45  1   
 46  22  24  ar  
 47  22  46  1   
 48  23  24  ar  
 49  24  47  1   
@<TRIPOS>SUBSTRUCTURE
  1 ****   3 GROUP 4 **** **** 0

# MOE 2024.06 (io_trps.svl 2023.06)
