@<TRIPOS>MOLECULE
NONAME
58 61 1 0 0 
SMALL
USER_CHARGES


@<TRIPOS>ATOM
  1 O       -2.6040     0.3760    -2.8070 O.2   1 <1>  -0.5700 
  2 C       -1.8140     0.4840    -1.8990 C.2   1 <1>   0.5690 
  3 N       -1.4830    -0.5780    -1.1190 N.am  1 <1>  -0.7300 
  4 C       -1.2080     1.8470    -1.6000 C.3   1 <1>   0.1810 
  5 C       -2.1660    -1.8880    -1.1720 C.3   1 <1>   0.2200 
  6 O       -0.9680     1.9910    -0.2070 O.3   1 <1>  -0.3630 
  7 C       -3.3330    -1.8560    -0.2040 C.3   1 <1>  -0.0800 
  8 C       -1.2830    -2.9890    -0.5880 C.3   1 <1>   0.1200 
  9 C       -1.4060     3.1430     0.3480 C.ar  1 <1>   0.0820 
 10 C       -2.6720    -2.2700     1.1100 C.3   1 <1>   0.1200 
 11 C       -4.4620    -2.8130    -0.6260 C.3   1 <1>  -0.0160 
 12 O       -1.5770    -3.0700     0.7760 O.3   1 <1>  -0.5600 
 13 C       -0.5470     4.2380     0.4430 C.ar  1 <1>  -0.1440 
 14 C       -2.7170     3.2110     0.8130 C.ar  1 <1>  -0.1440 
 15 C       -5.6950    -2.6070     0.2480 C.ar  1 <1>  -0.1440 
 16 C       -1.0290     5.4300     0.9770 C.ar  1 <1>  -0.1440 
 17 C        0.9010     4.1310    -0.0360 C.3   1 <1>  -0.0970 
 18 C       -3.1750     4.4010     1.3490 C.ar  1 <1>  -0.1500 
 19 C       -3.6520     2.0110     0.7480 C.3   1 <1>  -0.0970 
 20 C       -6.5300    -1.4710     0.1160 C.ar  1 <1>   0.0000 
 21 C       -6.0200    -3.5230     1.2050 C.ar  1 <1>  -0.1500 
 22 C       -2.3390     5.4990     1.4260 C.ar  1 <1>  -0.1500 
 23 C       -0.1600     6.6760     1.0890 C.3   1 <1>  -0.0970 
 24 C       -7.6240    -1.3550     1.0070 C.ar  1 <1>   0.3100 
 25 C       -6.3450    -0.4460    -0.8420 C.ar  1 <1>  -0.1500 
 26 C       -7.1360    -3.3180     2.0250 C.ar  1 <1>   0.1600 
 27 N       -7.9140    -2.2860     1.9510 N.ar  1 <1>  -0.6200 
 28 C       -8.4550    -0.2260     0.9190 C.ar  1 <1>  -0.1500 
 29 C       -7.1750     0.6400    -0.9020 C.ar  1 <1>  -0.1500 
 30 C       -8.2420     0.7560    -0.0090 C.ar  1 <1>  -0.1500 
 31 H       -0.9140    -0.4070    -0.2840 H     1 <1>   0.3700 
 32 H       -1.8840     2.6180    -1.9270 H     1 <1>   0.0800 
 33 H       -0.2710     1.9540    -2.1140 H     1 <1>   0.0800 
 34 H       -2.4610    -2.1040    -2.1860 H     1 <1>   0.0800 
 35 H       -3.7330    -0.8640    -0.1210 H     1 <1>   0.0800 
 36 H       -0.2340    -2.7890    -0.7190 H     1 <1>   0.0800 
 37 H       -1.5300    -3.9390    -1.0260 H     1 <1>   0.0800 
 38 H       -3.3290    -2.8210     1.7600 H     1 <1>   0.0800 
 39 H       -2.2940    -1.4070     1.6320 H     1 <1>   0.0800 
 40 H       -4.1220    -3.8320    -0.5530 H     1 <1>   0.0800 
 41 H       -4.7300    -2.6420    -1.6540 H     1 <1>   0.0800 
 42 H        1.5620     4.6490     0.6330 H     1 <1>   0.0800 
 43 H        0.9910     4.5570    -1.0180 H     1 <1>   0.0800 
 44 H        1.2290     3.1080    -0.0720 H     1 <1>   0.0800 
 45 H       -4.1840     4.4810     1.7110 H     1 <1>   0.1500 
 46 H       -4.5420     2.1820     1.3260 H     1 <1>   0.0800 
 47 H       -3.1570     1.1430     1.1430 H     1 <1>   0.0800 
 48 H       -3.9390     1.8210    -0.2700 H     1 <1>   0.0800 
 49 H       -5.4350    -4.4120     1.3570 H     1 <1>   0.1500 
 50 H       -2.7210     6.4140     1.8430 H     1 <1>   0.1500 
 51 H       -0.7500     7.5340     1.3570 H     1 <1>   0.0800 
 52 H        0.3180     6.8820     0.1480 H     1 <1>   0.0800 
 53 H        0.5910     6.5320     1.8430 H     1 <1>   0.0800 
 54 H       -5.5360    -0.5130    -1.5460 H     1 <1>   0.1500 
 55 H       -7.3580    -4.0670     2.7670 H     1 <1>   0.1500 
 56 H       -9.2730    -0.1620     1.6130 H     1 <1>   0.1500 
 57 H       -7.0170     1.4140    -1.6340 H     1 <1>   0.1500 
 58 H       -8.8880     1.6150    -0.0650 H     1 <1>   0.1500 
@<TRIPOS>BOND
  1   1   2  2   
  2   2   3  am  
  3   2   4  1   
  4   3   5  1   
  5   3  31  1   
  6   4   6  1   
  7   4  32  1   
  8   4  33  1   
  9   5   7  1   
 10   5   8  1   
 11   5  34  1   
 12   6   9  1   
 13   7  10  1   
 14   7  11  1   
 15   7  35  1   
 16   8  12  1   
 17   8  36  1   
 18   8  37  1   
 19   9  13  ar  
 20   9  14  ar  
 21  10  12  1   
 22  10  38  1   
 23  10  39  1   
 24  11  15  1   
 25  11  40  1   
 26  11  41  1   
 27  13  16  ar  
 28  13  17  1   
 29  14  18  ar  
 30  14  19  1   
 31  15  20  ar  
 32  15  21  ar  
 33  16  22  ar  
 34  16  23  1   
 35  17  42  1   
 36  17  43  1   
 37  17  44  1   
 38  18  22  ar  
 39  18  45  1   
 40  19  46  1   
 41  19  47  1   
 42  19  48  1   
 43  20  24  ar  
 44  20  25  ar  
 45  21  26  ar  
 46  21  49  1   
 47  22  50  1   
 48  23  51  1   
 49  23  52  1   
 50  23  53  1   
 51  24  27  ar  
 52  24  28  ar  
 53  25  29  ar  
 54  25  54  1   
 55  26  27  ar  
 56  26  55  1   
 57  28  30  ar  
 58  28  56  1   
 59  29  30  ar  
 60  29  57  1   
 61  30  58  1   
@<TRIPOS>SUBSTRUCTURE
  1 ****  19 GROUP 4 **** **** 0

# MOE 2024.06 (io_trps.svl 2023.06)
