@<TRIPOS>MOLECULE
NONAME
53 55 1 0 0 
SMALL
USER_CHARGES


@<TRIPOS>ATOM
  1 O       -0.1550    -1.0290     0.0030 O.3   1 <1>  -0.5600 
  2 C       -0.5150    -2.3530     0.2660 C.3   1 <1>   0.2000 
  3 C        0.3120    -0.7880    -1.2840 C.3   1 <1>   0.1200 
  4 C       -1.5780    -2.3480     1.3740 C.3   1 <1>   0.2090 
  5 C        0.7330    -3.1370     0.7010 C.3   1 <1>  -0.1600 
  6 C        0.6470     0.6990    -1.3880 C.3   1 <1>  -0.1600 
  7 N       -1.9160    -3.7430     1.7910 N.pl3 1 <1>  -0.8380 
  8 C        0.3440    -4.5560     1.1480 C.3   1 <1>  -0.1600 
  9 C        1.1720     1.0590    -2.7820 C.3   1 <1>  -0.2400 
 10 C       -3.0090    -4.3570     1.2100 C.ar  1 <1>   0.4100 
 11 C       -0.7450    -4.5520     2.2300 C.3   1 <1>   0.2090 
 12 N       -2.8110    -5.4360     0.5060 N.ar  1 <1>  -0.6200 
 13 C       -4.2820    -3.7860     1.3910 C.ar  1 <1>  -0.1500 
 14 C       -3.8890    -6.0050    -0.0820 C.ar  1 <1>   0.3100 
 15 C       -5.3880    -4.3320     0.8160 C.ar  1 <1>  -0.1430 
 16 C       -5.2040    -5.4950     0.0370 C.ar  1 <1>   0.0000 
 17 C       -3.6730    -7.1560    -0.8530 C.ar  1 <1>  -0.1500 
 18 C       -6.7620    -3.7100     1.0150 C.3   1 <1>  -0.0970 
 19 C       -6.2450    -6.1760    -0.6240 C.ar  1 <1>  -0.1500 
 20 C       -4.7000    -7.8090    -1.4960 C.ar  1 <1>   0.0830 
 21 C       -6.0120    -7.3060    -1.3610 C.ar  1 <1>   0.0830 
 22 O       -4.5050    -8.9130    -2.2680 O.3   1 <1>  -0.3630 
 23 O       -7.0740    -7.8990    -1.9600 O.3   1 <1>  -0.3620 
 24 C       -3.2110    -9.3900    -2.5630 C.3   1 <1>   0.0400 
 25 C       -7.4390    -9.1790    -1.4950 C.3   1 <1>   0.0400 
 26 H       -0.9510    -2.7860    -0.6190 H     1 <1>   0.0800 
 27 H       -0.4590    -1.0520    -1.9890 H     1 <1>   0.0800 
 28 H        1.1910    -1.3840    -1.4590 H     1 <1>   0.0800 
 29 H       -2.4560    -1.8460     1.0100 H     1 <1>   0.0800 
 30 H       -1.2020    -1.8100     2.2270 H     1 <1>   0.0800 
 31 H        1.2020    -2.6230     1.5220 H     1 <1>   0.0800 
 32 H        1.4320    -3.2040    -0.1120 H     1 <1>   0.0800 
 33 H        1.3930     0.9430    -0.6520 H     1 <1>   0.0800 
 34 H       -0.2390     1.2740    -1.1820 H     1 <1>   0.0800 
 35 H        1.2110    -5.0680     1.5230 H     1 <1>   0.0800 
 36 H       -0.0210    -5.1120     0.3020 H     1 <1>   0.0800 
 37 H        2.0680     0.5050    -3.0010 H     1 <1>   0.0800 
 38 H        1.4010     2.1100    -2.8270 H     1 <1>   0.0800 
 39 H        0.4330     0.8380    -3.5310 H     1 <1>   0.0800 
 40 H       -1.0570    -5.5610     2.4390 H     1 <1>   0.0800 
 41 H       -0.3540    -4.1300     3.1390 H     1 <1>   0.0800 
 42 H       -4.3420    -2.9090     2.0050 H     1 <1>   0.1500 
 43 H       -2.6590    -7.4940    -0.9120 H     1 <1>   0.1500 
 44 H       -6.7000    -2.8360     1.6380 H     1 <1>   0.0800 
 45 H       -7.4210    -4.4170     1.4870 H     1 <1>   0.0800 
 46 H       -7.1760    -3.4210     0.0650 H     1 <1>   0.0800 
 47 H       -7.2510    -5.8080    -0.5530 H     1 <1>   0.1500 
 48 H       -3.3080   -10.2290    -3.2280 H     1 <1>   0.0800 
 49 H       -2.7360    -9.7020    -1.6490 H     1 <1>   0.0800 
 50 H       -2.6500    -8.6070    -3.0410 H     1 <1>   0.0800 
 51 H       -8.3940    -9.4300    -1.9200 H     1 <1>   0.0800 
 52 H       -7.5060    -9.1550    -0.4220 H     1 <1>   0.0800 
 53 H       -6.7030    -9.8960    -1.8100 H     1 <1>   0.0800 
@<TRIPOS>BOND
  1   1   2  1   
  2   1   3  1   
  3   2   4  1   
  4   2   5  1   
  5   2  26  1   
  6   3   6  1   
  7   3  27  1   
  8   3  28  1   
  9   4   7  1   
 10   4  29  1   
 11   4  30  1   
 12   5   8  1   
 13   5  31  1   
 14   5  32  1   
 15   6   9  1   
 16   6  33  1   
 17   6  34  1   
 18   7  10  1   
 19   7  11  1   
 20   8  11  1   
 21   8  35  1   
 22   8  36  1   
 23   9  37  1   
 24   9  38  1   
 25   9  39  1   
 26  10  12  ar  
 27  10  13  ar  
 28  11  40  1   
 29  11  41  1   
 30  12  14  ar  
 31  13  15  ar  
 32  13  42  1   
 33  14  16  ar  
 34  14  17  ar  
 35  15  16  ar  
 36  15  18  1   
 37  16  19  ar  
 38  17  20  ar  
 39  17  43  1   
 40  18  44  1   
 41  18  45  1   
 42  18  46  1   
 43  19  21  ar  
 44  19  47  1   
 45  20  21  ar  
 46  20  22  1   
 47  21  23  1   
 48  22  24  1   
 49  23  25  1   
 50  24  48  1   
 51  24  49  1   
 52  24  50  1   
 53  25  51  1   
 54  25  52  1   
 55  25  53  1   
@<TRIPOS>SUBSTRUCTURE
  1 ****  12 GROUP 4 **** **** 0

# MOE 2024.06 (io_trps.svl 2023.06)
