@<TRIPOS>MOLECULE
NONAME
55 57 1 0 0 
SMALL
USER_CHARGES


@<TRIPOS>ATOM
  1 O        0.2480    -1.0710     0.1070 O.3   1 <1>  -0.5600 
  2 C        1.2290    -1.9800    -0.2910 C.3   1 <1>   0.1200 
  3 C       -0.8200    -1.6510     0.7990 C.3   1 <1>   0.1200 
  4 C        0.6320    -3.0370    -1.2400 C.3   1 <1>   0.2090 
  5 C       -1.5330    -2.6920    -0.0800 C.3   1 <1>   0.2090 
  6 N       -0.5590    -3.7150    -0.6170 N.pl3 1 <1>  -0.8380 
  7 C       -0.7810    -5.0520    -0.4840 C.ar  1 <1>   0.7710 
  8 N       -1.8120    -5.4720     0.2310 N.ar  1 <1>  -0.6200 
  9 N        0.0530    -5.9170    -1.0890 N.ar  1 <1>  -0.1790 
 10 C       -2.0060    -6.7700     0.3710 C.ar  1 <1>   0.4100 
 11 C       -0.1060    -7.2570    -0.9910 C.ar  1 <1>   0.2180 
 12 N       -3.0590    -7.1780     1.1360 N.pl3 1 <1>  -0.8380 
 13 C       -1.1480    -7.7000    -0.2520 C.ar  1 <1>  -0.1500 
 14 C        0.8720    -8.1800    -1.7070 C.3   1 <1>  -0.0170 
 15 C       -3.1750    -8.5510     1.6990 C.3   1 <1>   0.2090 
 16 C       -4.1520    -6.2520     1.5670 C.3   1 <1>   0.1290 
 17 C        2.3040    -8.0320    -1.1750 C.3   1 <1>  -0.2400 
 18 C       -3.9850    -9.4260     0.7390 C.3   1 <1>  -0.1600 
 19 C       -3.6940   -10.9130     0.9440 C.3   1 <1>   0.3430 
 20 O       -2.3680   -11.1490     0.6370 O.3   1 <1>  -0.6800 
 21 C       -4.5430   -11.8020     0.0450 C.ar  1 <1>  -0.1440 
 22 C       -5.4930   -12.6440     0.6060 C.ar  1 <1>  -0.1500 
 23 C       -4.3850   -11.7890    -1.3350 C.ar  1 <1>  -0.1500 
 24 C       -6.2720   -13.4580    -0.1980 C.ar  1 <1>  -0.1500 
 25 C       -5.1630   -12.6020    -2.1400 C.ar  1 <1>  -0.1500 
 26 C       -6.1070   -13.4380    -1.5720 C.ar  1 <1>  -0.1500 
 27 H        1.6470    -2.4410     0.5870 H     1 <1>   0.0800 
 28 H        2.0030    -1.4240    -0.7900 H     1 <1>   0.0800 
 29 H       -1.5020    -0.8640     1.0680 H     1 <1>   0.0800 
 30 H       -0.4450    -2.1050     1.7000 H     1 <1>   0.0800 
 31 H        1.4050    -3.7400    -1.4890 H     1 <1>   0.0800 
 32 H        0.3250    -2.5440    -2.1480 H     1 <1>   0.0800 
 33 H       -2.0010    -2.1830    -0.9050 H     1 <1>   0.0800 
 34 H       -2.3170    -3.1440     0.5010 H     1 <1>   0.0800 
 35 H        0.7960    -5.5100    -1.6360 H     1 <1>   0.4570 
 36 H       -1.3360    -8.7510    -0.1420 H     1 <1>   0.1500 
 37 H        0.8530    -7.9790    -2.7650 H     1 <1>   0.0800 
 38 H        0.5590    -9.2020    -1.5720 H     1 <1>   0.0800 
 39 H       -3.6550    -8.5170     2.6630 H     1 <1>   0.0800 
 40 H       -2.1900    -8.9560     1.8540 H     1 <1>   0.0800 
 41 H       -4.2220    -5.4060     0.9070 H     1 <1>   0.0800 
 42 H       -3.9550    -5.9010     2.5650 H     1 <1>   0.0800 
 43 H       -5.0980    -6.7640     1.5530 H     1 <1>   0.0800 
 44 H        2.6940    -7.0460    -1.3550 H     1 <1>   0.0800 
 45 H        2.9490    -8.7410    -1.6660 H     1 <1>   0.0800 
 46 H        2.3340    -8.2320    -0.1180 H     1 <1>   0.0800 
 47 H       -3.7660    -9.1680    -0.2810 H     1 <1>   0.0800 
 48 H       -5.0320    -9.2500     0.9040 H     1 <1>   0.0800 
 49 H       -3.8430   -11.1830     1.9760 H     1 <1>   0.0800 
 50 H       -2.2730   -12.1060     0.4570 H     1 <1>   0.4000 
 51 H       -5.6360   -12.6720     1.6720 H     1 <1>   0.1500 
 52 H       -3.6530   -11.1440    -1.7890 H     1 <1>   0.1500 
 53 H       -7.0070   -14.1080     0.2440 H     1 <1>   0.1500 
 54 H       -5.0340   -12.5850    -3.2080 H     1 <1>   0.1500 
 55 H       -6.7130   -14.0700    -2.1970 H     1 <1>   0.1500 
@<TRIPOS>BOND
  1   1   2  1   
  2   1   3  1   
  3   2   4  1   
  4   2  27  1   
  5   2  28  1   
  6   3   5  1   
  7   3  29  1   
  8   3  30  1   
  9   4   6  1   
 10   4  31  1   
 11   4  32  1   
 12   5   6  1   
 13   5  33  1   
 14   5  34  1   
 15   6   7  1   
 16   7   8  ar  
 17   7   9  ar  
 18   8  10  ar  
 19   9  11  ar  
 20   9  35  1   
 21  10  12  1   
 22  10  13  ar  
 23  11  13  ar  
 24  11  14  1   
 25  12  15  1   
 26  12  16  1   
 27  13  36  1   
 28  14  17  1   
 29  14  37  1   
 30  14  38  1   
 31  15  18  1   
 32  15  39  1   
 33  15  40  1   
 34  16  41  1   
 35  16  42  1   
 36  16  43  1   
 37  17  44  1   
 38  17  45  1   
 39  17  46  1   
 40  18  19  1   
 41  18  47  1   
 42  18  48  1   
 43  19  20  1   
 44  19  21  1   
 45  19  49  1   
 46  20  50  1   
 47  21  22  ar  
 48  21  23  ar  
 49  22  24  ar  
 50  22  51  1   
 51  23  25  ar  
 52  23  52  1   
 53  24  26  ar  
 54  24  53  1   
 55  25  26  ar  
 56  25  54  1   
 57  26  55  1   
@<TRIPOS>SUBSTRUCTURE
  1 ****  10 GROUP 4 **** **** 0

# MOE 2024.06 (io_trps.svl 2023.06)
