@<TRIPOS>MOLECULE
NONAME
46 47 1 0 0 
SMALL
USER_CHARGES


@<TRIPOS>ATOM
  1 S        0.5130    -0.3990    -0.7260 S.o2  1 <1>   1.3330 
  2 O        0.3660    -1.3020     0.3940 O.2   1 <1>  -0.6500 
  3 O       -0.1250    -0.7140    -1.9840 O.2   1 <1>  -0.6500 
  4 N       -0.0450     1.1290    -0.2400 N.am  1 <1>  -0.8490 
  5 C        2.2660    -0.1500    -1.0050 C.3   1 <1>  -0.0550 
  6 C       -0.0930     2.1090    -1.3310 C.3   1 <1>   0.1160 
  7 C       -1.3520     1.0470     0.4150 C.3   1 <1>   0.1160 
  8 C        3.0130     0.3970     0.2240 C.3   1 <1>  -0.0800 
  9 C        4.4010     0.9200    -0.1340 C.3   1 <1>   0.2200 
 10 C        3.2780    -0.6360     1.3180 C.3   1 <1>   0.1200 
 11 N        4.4170     2.3860     0.0650 N.am  1 <1>  -0.7300 
 12 C        5.3270     0.2010     0.8460 C.3   1 <1>   0.1200 
 13 O        4.5050    -0.2750     1.8620 O.3   1 <1>  -0.5600 
 14 C        3.9010     3.2840    -0.8250 C.2   1 <1>   0.5440 
 15 O        3.6110     2.8770    -1.9380 O.2   1 <1>  -0.5700 
 16 C        3.6910     4.6740    -0.4560 C.ar  1 <1>   0.0860 
 17 C        3.6260     5.6950    -1.4140 C.ar  1 <1>   0.0820 
 18 C        3.5390     5.0530     0.8800 C.ar  1 <1>  -0.1500 
 19 O        3.7260     5.4120    -2.7240 O.3   1 <1>  -0.5330 
 20 C        3.4490     7.0190    -1.0540 C.ar  1 <1>  -0.1500 
 21 C        3.3540     6.3720     1.2510 C.ar  1 <1>   0.0820 
 22 C        3.3130     7.3660     0.2760 C.ar  1 <1>  -0.1500 
 23 O        3.2190     6.6130     2.5800 O.3   1 <1>  -0.3620 
 24 C        2.9940     7.9180     3.0660 C.3   1 <1>   0.0400 
 25 H        2.7130    -1.0740    -1.3160 H     1 <1>   0.0800 
 26 H        2.3810     0.5470    -1.8120 H     1 <1>   0.0800 
 27 H       -0.4070     3.0670    -0.9540 H     1 <1>   0.0800 
 28 H       -0.7830     1.7900    -2.0960 H     1 <1>   0.0800 
 29 H        0.8820     2.2290    -1.7720 H     1 <1>   0.0800 
 30 H       -1.6670     2.0220     0.7420 H     1 <1>   0.0800 
 31 H       -1.2910     0.4050     1.2780 H     1 <1>   0.0800 
 32 H       -2.0860     0.6450    -0.2640 H     1 <1>   0.0800 
 33 H        2.4310     1.1870     0.6670 H     1 <1>   0.0800 
 34 H        4.6850     0.6880    -1.1470 H     1 <1>   0.0800 
 35 H        3.3700    -1.6320     0.9190 H     1 <1>   0.0800 
 36 H        2.5270    -0.6200     2.0900 H     1 <1>   0.0800 
 37 H        4.6090     2.6780     1.0260 H     1 <1>   0.3700 
 38 H        6.0800     0.8450     1.2650 H     1 <1>   0.0800 
 39 H        5.7890    -0.6490     0.3760 H     1 <1>   0.0800 
 40 H        3.5530     4.3150     1.6600 H     1 <1>   0.1500 
 41 H        3.7480     4.4350    -2.8750 H     1 <1>   0.4500 
 42 H        3.4150     7.7730    -1.8210 H     1 <1>   0.1500 
 43 H        3.1760     8.3990     0.5310 H     1 <1>   0.1500 
 44 H        2.9060     7.8640     4.1360 H     1 <1>   0.0800 
 45 H        2.0800     8.2960     2.6430 H     1 <1>   0.0800 
 46 H        3.8310     8.5390     2.7990 H     1 <1>   0.0800 
@<TRIPOS>BOND
  1   1   2  2   
  2   1   3  2   
  3   1   4  am  
  4   1   5  1   
  5   4   6  1   
  6   4   7  1   
  7   5   8  1   
  8   5  25  1   
  9   5  26  1   
 10   6  27  1   
 11   6  28  1   
 12   6  29  1   
 13   7  30  1   
 14   7  31  1   
 15   7  32  1   
 16   8   9  1   
 17   8  10  1   
 18   8  33  1   
 19   9  11  1   
 20   9  12  1   
 21   9  34  1   
 22  10  13  1   
 23  10  35  1   
 24  10  36  1   
 25  11  14  am  
 26  11  37  1   
 27  12  13  1   
 28  12  38  1   
 29  12  39  1   
 30  14  15  2   
 31  14  16  1   
 32  16  17  ar  
 33  16  18  ar  
 34  17  19  1   
 35  17  20  ar  
 36  18  21  ar  
 37  18  40  1   
 38  19  41  1   
 39  20  22  ar  
 40  20  42  1   
 41  21  22  ar  
 42  21  23  1   
 43  22  43  1   
 44  23  24  1   
 45  24  44  1   
 46  24  45  1   
 47  24  46  1   
@<TRIPOS>SUBSTRUCTURE
  1 ****  14 GROUP 4 **** **** 0

# MOE 2024.06 (io_trps.svl 2023.06)
