@<TRIPOS>MOLECULE
NONAME
44 46 1 0 0 
SMALL
USER_CHARGES


@<TRIPOS>ATOM
  1 F       -0.6400    -1.3160     0.3520 F     1 <1>  -0.3400 
  2 C        0.5880    -1.8190     0.3720 C.3   1 <1>   0.8800 
  3 F        1.3790    -0.8630    -0.0950 F     1 <1>  -0.3400 
  4 O        0.6460    -2.9060    -0.5200 O.3   1 <1>  -0.3630 
  5 C        0.1300    -4.1130    -0.1960 C.ar  1 <1>   0.0830 
  6 C        0.4210    -5.1640    -1.0500 C.ar  1 <1>  -0.1500 
  7 C       -0.6580    -4.3510     0.9280 C.ar  1 <1>  -0.1500 
  8 C       -0.0670    -6.4320    -0.7960 C.ar  1 <1>  -0.1500 
  9 C       -1.1410    -5.6230     1.1740 C.ar  1 <1>  -0.1500 
 10 C       -0.8690    -6.6880     0.3150 C.ar  1 <1>   0.0860 
 11 C       -1.4080    -8.0100     0.5590 C.2   1 <1>   0.5440 
 12 O       -0.6390    -8.9400     0.7220 O.2   1 <1>  -0.5700 
 13 N       -2.7690    -8.2490     0.6040 N.am  1 <1>  -0.6600 
 14 C       -3.7530    -7.2820     0.0300 C.3   1 <1>   0.2200 
 15 C       -3.2680    -9.5710     1.0920 C.3   1 <1>   0.0600 
 16 C       -4.7210    -7.8980    -0.9780 C.3   1 <1>  -0.1600 
 17 C       -4.6560    -6.6560     1.0870 C.3   1 <1>  -0.1600 
 18 C       -5.8730    -6.8880    -1.0550 C.3   1 <1>  -0.0800 
 19 C       -5.8680    -6.1380     0.3010 C.3   1 <1>  -0.0800 
 20 C       -7.2130    -7.5350    -1.4620 C.3   1 <1>   0.1400 
 21 C       -7.1880    -6.2470     1.0890 C.3   1 <1>  -0.0990 
 22 N       -8.3360    -6.6780    -1.0300 N.am  1 <1>  -0.7300 
 23 C       -8.3710    -6.0550     0.1650 C.2   1 <1>   0.5690 
 24 O       -9.3070    -5.3760     0.4960 O.2   1 <1>  -0.5700 
 25 H        0.8750    -2.0760     1.3760 H     1 <1>   0.0800 
 26 H        1.0350    -4.9840    -1.9160 H     1 <1>   0.1500 
 27 H       -0.9150    -3.5680     1.6170 H     1 <1>   0.1500 
 28 H        0.1700    -7.2450    -1.4610 H     1 <1>   0.1500 
 29 H       -1.7430    -5.8080     2.0470 H     1 <1>   0.1500 
 30 H       -3.2360    -6.4860    -0.4790 H     1 <1>   0.0800 
 31 H       -4.2350    -9.4720     1.5510 H     1 <1>   0.0800 
 32 H       -2.5880    -9.9780     1.8210 H     1 <1>   0.0800 
 33 H       -3.3330   -10.2580     0.2660 H     1 <1>   0.0800 
 34 H       -4.2520    -8.0430    -1.9340 H     1 <1>   0.0800 
 35 H       -5.0980    -8.8370    -0.6150 H     1 <1>   0.0800 
 36 H       -4.9660    -7.4020     1.7960 H     1 <1>   0.0800 
 37 H       -4.1600    -5.8580     1.6070 H     1 <1>   0.0800 
 38 H       -5.6230    -6.1680    -1.8170 H     1 <1>   0.0800 
 39 H       -5.7090    -5.0940     0.0830 H     1 <1>   0.0800 
 40 H       -7.3230    -8.4970    -0.9900 H     1 <1>   0.0800 
 41 H       -7.2460    -7.6740    -2.5300 H     1 <1>   0.0800 
 42 H       -7.2180    -5.5080     1.8690 H     1 <1>   0.0800 
 43 H       -7.2820    -7.2180     1.5380 H     1 <1>   0.0800 
 44 H       -9.1500    -6.5780    -1.6400 H     1 <1>   0.3700 
@<TRIPOS>BOND
  1   1   2  1   
  2   2   3  1   
  3   2   4  1   
  4   2  25  1   
  5   4   5  1   
  6   5   6  ar  
  7   5   7  ar  
  8   6   8  ar  
  9   6  26  1   
 10   7   9  ar  
 11   7  27  1   
 12   8  10  ar  
 13   8  28  1   
 14   9  10  ar  
 15   9  29  1   
 16  10  11  1   
 17  11  12  2   
 18  11  13  am  
 19  13  14  1   
 20  13  15  1   
 21  14  16  1   
 22  14  17  1   
 23  14  30  1   
 24  15  31  1   
 25  15  32  1   
 26  15  33  1   
 27  16  18  1   
 28  16  34  1   
 29  16  35  1   
 30  17  19  1   
 31  17  36  1   
 32  17  37  1   
 33  18  19  1   
 34  18  20  1   
 35  18  38  1   
 36  19  21  1   
 37  19  39  1   
 38  20  22  1   
 39  20  40  1   
 40  20  41  1   
 41  21  23  1   
 42  21  42  1   
 43  21  43  1   
 44  22  23  am  
 45  22  44  1   
 46  23  24  2   
@<TRIPOS>SUBSTRUCTURE
  1 ****  14 GROUP 4 **** **** 0

# MOE 2024.06 (io_trps.svl 2023.06)
