@<TRIPOS>MOLECULE
NONAME
58 62 1 0 0 
SMALL
USER_CHARGES


@<TRIPOS>ATOM
  1 O       -2.0990    -0.3430     1.2270 O.3   1 <1>  -0.3630 
  2 C       -2.9100    -1.4250     1.0510 C.ar  1 <1>   0.0830 
  3 C       -2.0000     0.3610     2.4450 C.3   1 <1>   0.0400 
  4 C       -3.9020    -1.8960     1.9290 C.ar  1 <1>   0.0830 
  5 C       -2.7000    -2.1050    -0.1360 C.ar  1 <1>  -0.1500 
  6 O       -4.1870    -1.3030     3.1080 O.3   1 <1>  -0.5330 
  7 C       -4.6500    -3.0150     1.5920 C.ar  1 <1>  -0.1500 
  8 C       -3.4470    -3.2190    -0.4690 C.ar  1 <1>  -0.1500 
  9 C       -4.4350    -3.6760     0.3900 C.ar  1 <1>  -0.1430 
 10 C       -5.2800    -4.8730     0.0010 C.3   1 <1>   0.4860 
 11 N       -6.2520    -4.4220    -1.0300 N.4   1 <1>  -0.9590 
 12 C       -7.2470    -3.4530    -0.4480 C.3   1 <1>   0.3430 
 13 C       -6.9340    -5.5650    -1.6990 C.3   1 <1>   0.3430 
 14 C       -8.1790    -2.8690    -1.5220 C.3   1 <1>   0.1430 
 15 C       -7.8290    -5.0410    -2.8270 C.3   1 <1>  -0.1600 
 16 C       -9.2240    -2.0260    -0.8310 C.ar  1 <1>   0.1670 
 17 C       -8.8510    -4.0040    -2.3240 C.3   1 <1>  -0.1600 
 18 C       -7.4680    -1.8390    -2.4410 C.3   1 <1>  -0.1600 
 19 N       -9.9150    -2.4120     0.2130 N.ar  1 <1>  -0.6200 
 20 C       -9.3560    -0.8030    -1.4090 C.ar  1 <1>  -0.1430 
 21 C       -8.4240    -0.6370    -2.5830 C.3   1 <1>  -0.0170 
 22 C      -10.7940    -1.5140     0.6850 C.ar  1 <1>   0.6200 
 23 C      -10.2690     0.0600    -0.8640 C.ar  1 <1>   0.1600 
 24 N      -10.9870    -0.2870     0.1810 N.ar  1 <1>  -0.6200 
 25 C      -11.5940    -1.9010     1.8370 C.ar  1 <1>   0.0000 
 26 C      -12.0130    -3.2200     2.0280 C.ar  1 <1>  -0.1500 
 27 C      -11.9820    -0.9690     2.8040 C.ar  1 <1>  -0.1500 
 28 C      -12.7720    -3.5910     3.1240 C.ar  1 <1>  -0.1500 
 29 C      -12.7400    -1.3320     3.9020 C.ar  1 <1>  -0.1500 
 30 C      -13.1360    -2.6470     4.0650 C.ar  1 <1>  -0.1500 
 31 H       -1.2130     1.0860     2.3490 H     1 <1>   0.0800 
 32 H       -1.7650    -0.3340     3.2320 H     1 <1>   0.0800 
 33 H       -2.9330     0.8590     2.6370 H     1 <1>   0.0800 
 34 H       -1.9330    -1.7480    -0.8020 H     1 <1>   0.1500 
 35 H       -4.8630    -1.7610     3.6360 H     1 <1>   0.4500 
 36 H       -5.4040    -3.3650     2.2740 H     1 <1>   0.1500 
 37 H       -3.2400    -3.7180    -1.4010 H     1 <1>   0.1500 
 38 H       -5.7970    -5.2650     0.8620 H     1 <1>   0.0800 
 39 H       -4.6410    -5.6440    -0.3990 H     1 <1>   0.0800 
 40 H       -5.7080    -3.9070    -1.7330 H     1 <1>   0.4500 
 41 H       -6.7360    -2.6400     0.0420 H     1 <1>   0.0800 
 42 H       -7.8510    -3.9560     0.2900 H     1 <1>   0.0800 
 43 H       -7.5380    -6.1000    -0.9830 H     1 <1>   0.0800 
 44 H       -6.2050    -6.2480    -2.1070 H     1 <1>   0.0800 
 45 H       -8.3580    -5.8710    -3.2630 H     1 <1>   0.0800 
 46 H       -7.2150    -4.6180    -3.6030 H     1 <1>   0.0800 
 47 H       -9.4030    -3.5940    -3.1540 H     1 <1>   0.0800 
 48 H       -9.5630    -4.5040    -1.6880 H     1 <1>   0.0800 
 49 H       -7.2100    -2.2400    -3.4050 H     1 <1>   0.0800 
 50 H       -6.5670    -1.4880    -1.9660 H     1 <1>   0.0800 
 51 H       -8.9850    -0.6990    -3.5010 H     1 <1>   0.0800 
 52 H       -7.8950     0.3000    -2.5430 H     1 <1>   0.0800 
 53 H      -10.4150     1.0420    -1.2820 H     1 <1>   0.1500 
 54 H      -11.7440    -3.9680     1.3030 H     1 <1>   0.1500 
 55 H      -11.6850     0.0600     2.6920 H     1 <1>   0.1500 
 56 H      -13.0820    -4.6150     3.2450 H     1 <1>   0.1500 
 57 H      -13.0240    -0.5910     4.6300 H     1 <1>   0.1500 
 58 H      -13.7280    -2.9320     4.9180 H     1 <1>   0.1500 
@<TRIPOS>BOND
  1   1   2  1   
  2   1   3  1   
  3   2   4  ar  
  4   2   5  ar  
  5   3  31  1   
  6   3  32  1   
  7   3  33  1   
  8   4   6  1   
  9   4   7  ar  
 10   5   8  ar  
 11   5  34  1   
 12   6  35  1   
 13   7   9  ar  
 14   7  36  1   
 15   8   9  ar  
 16   8  37  1   
 17   9  10  1   
 18  10  11  1   
 19  10  38  1   
 20  10  39  1   
 21  11  12  1   
 22  11  13  1   
 23  11  40  1   
 24  12  14  1   
 25  12  41  1   
 26  12  42  1   
 27  13  15  1   
 28  13  43  1   
 29  13  44  1   
 30  14  16  1   
 31  14  17  1   
 32  14  18  1   
 33  15  17  1   
 34  15  45  1   
 35  15  46  1   
 36  16  19  ar  
 37  16  20  ar  
 38  17  47  1   
 39  17  48  1   
 40  18  21  1   
 41  18  49  1   
 42  18  50  1   
 43  19  22  ar  
 44  20  21  1   
 45  20  23  ar  
 46  21  51  1   
 47  21  52  1   
 48  22  24  ar  
 49  22  25  1   
 50  23  24  ar  
 51  23  53  1   
 52  25  26  ar  
 53  25  27  ar  
 54  26  28  ar  
 55  26  54  1   
 56  27  29  ar  
 57  27  55  1   
 58  28  30  ar  
 59  28  56  1   
 60  29  30  ar  
 61  29  57  1   
 62  30  58  1   
@<TRIPOS>SUBSTRUCTURE
  1 ****  12 GROUP 4 **** **** 0

# MOE 2024.06 (io_trps.svl 2023.06)
