@<TRIPOS>MOLECULE
NONAME
45 47 1 0 0 
SMALL
USER_CHARGES


@<TRIPOS>ATOM
  1 S        1.1600    -0.2020    -1.2940 S.3   1 <1>  -0.0800 
  2 C        1.7830    -0.3690     0.3450 C.2   1 <1>  -0.1400 
  3 C       -0.3750    -0.9160    -0.8330 C.2   1 <1>  -0.1100 
  4 C        0.8520    -0.9260     1.1430 C.2   1 <1>  -0.1500 
  5 C        3.1980     0.1100     0.6360 C.3   1 <1>   0.4000 
  6 C       -0.3740    -1.2380     0.4730 C.2   1 <1>  -0.1500 
  7 N        3.2360     1.5490     0.3290 N.am  1 <1>  -0.7300 
  8 C        4.2700    -0.6540    -0.1800 C.3   1 <1>  -0.0800 
  9 C        3.7340     2.4990     1.1510 C.2   1 <1>   0.5690 
 10 C        4.1900    -2.1750     0.0800 C.3   1 <1>  -0.1600 
 11 C        5.6970    -0.1460     0.1250 C.3   1 <1>  -0.1600 
 12 O        4.2530     2.2310     2.2050 O.2   1 <1>  -0.5700 
 13 C        3.6580     3.9440     0.7170 C.3   1 <1>  -0.0990 
 14 C        5.2590    -2.9490    -0.7020 C.3   1 <1>  -0.1600 
 15 C        6.7650    -0.9240    -0.6540 C.3   1 <1>  -0.1600 
 16 C        5.0050     4.4090     0.1570 C.3   1 <1>   0.0210 
 17 C        6.6640    -2.4290    -0.3820 C.3   1 <1>  -0.1600 
 18 C        4.9130     5.8430    -0.3250 C.2   1 <1>  -0.1810 
 19 C        4.3280     6.2900    -1.5060 C.2   1 <1>   0.1390 
 20 C        5.3680     6.9620     0.2760 C.2   1 <1>  -0.3020 
 21 N        4.4050     7.5790    -1.6370 N.2   1 <1>  -0.7070 
 22 N        5.0510     7.9940    -0.5310 N.pl3 1 <1>   0.3000 
 23 H       -1.1240    -1.0190    -1.5970 H     1 <1>   0.1500 
 24 H        0.9730    -1.1360     2.1920 H     1 <1>   0.1500 
 25 H        3.3980    -0.0340     1.6850 H     1 <1>   0.0800 
 26 H       -1.1940    -1.6890     1.0060 H     1 <1>   0.1500 
 27 H        2.7420     1.7950    -0.5280 H     1 <1>   0.3700 
 28 H        4.0730    -0.4910    -1.2250 H     1 <1>   0.0800 
 29 H        3.2220    -2.5500    -0.2060 H     1 <1>   0.0800 
 30 H        4.3180    -2.3660     1.1320 H     1 <1>   0.0800 
 31 H        5.8910    -0.2360     1.1810 H     1 <1>   0.0800 
 32 H        5.7820     0.8950    -0.1310 H     1 <1>   0.0800 
 33 H        3.3970     4.5470     1.5680 H     1 <1>   0.0800 
 34 H        2.8890     4.0620    -0.0240 H     1 <1>   0.0800 
 35 H        5.0720    -2.8470    -1.7580 H     1 <1>   0.0800 
 36 H        5.1980    -3.9950    -0.4570 H     1 <1>   0.0800 
 37 H        7.7430    -0.5730    -0.3720 H     1 <1>   0.0800 
 38 H        6.6410    -0.7430    -1.7080 H     1 <1>   0.0800 
 39 H        5.3030     3.7760    -0.6610 H     1 <1>   0.0800 
 40 H        5.7550     4.3350     0.9250 H     1 <1>   0.0800 
 41 H        7.3890    -2.9540    -0.9810 H     1 <1>   0.0800 
 42 H        6.8890    -2.6210     0.6530 H     1 <1>   0.0800 
 43 H        3.8620     5.6510    -2.2370 H     1 <1>   0.1500 
 44 H        5.8860     7.0820     1.2100 H     1 <1>   0.1500 
 45 H        5.2600     8.9860    -0.3600 H     1 <1>   0.2700 
@<TRIPOS>BOND
  1   1   2  1   
  2   1   3  1   
  3   2   4  2   
  4   2   5  1   
  5   3   6  2   
  6   3  23  1   
  7   4   6  1   
  8   4  24  1   
  9   5   7  1   
 10   5   8  1   
 11   5  25  1   
 12   6  26  1   
 13   7   9  am  
 14   7  27  1   
 15   8  10  1   
 16   8  11  1   
 17   8  28  1   
 18   9  12  2   
 19   9  13  1   
 20  10  14  1   
 21  10  29  1   
 22  10  30  1   
 23  11  15  1   
 24  11  31  1   
 25  11  32  1   
 26  13  16  1   
 27  13  33  1   
 28  13  34  1   
 29  14  17  1   
 30  14  35  1   
 31  14  36  1   
 32  15  17  1   
 33  15  37  1   
 34  15  38  1   
 35  16  18  1   
 36  16  39  1   
 37  16  40  1   
 38  17  41  1   
 39  17  42  1   
 40  18  19  1   
 41  18  20  2   
 42  19  21  2   
 43  19  43  1   
 44  20  22  1   
 45  20  44  1   
 46  21  22  1   
 47  22  45  1   
@<TRIPOS>SUBSTRUCTURE
  1 ****   7 GROUP 4 **** **** 0

# MOE 2024.06 (io_trps.svl 2023.06)
