@<TRIPOS>MOLECULE
NONAME
52 54 1 0 0 
SMALL
USER_CHARGES


@<TRIPOS>ATOM
  1 O       -1.4290    -1.4620    -0.8810 O.2   1 <1>  -0.5700 
  2 C       -2.5420    -1.0630    -0.6250 C.2   1 <1>   0.6900 
  3 N       -3.4870    -0.9680    -1.5880 N.am  1 <1>  -0.4900 
  4 N       -2.8820    -0.6920     0.6410 N.am  1 <1>  -0.5390 
  5 C       -4.7440    -0.5100    -1.3400 C.2   1 <1>   0.6160 
  6 C       -4.1440    -0.2390     0.9830 C.2   1 <1>  -0.0290 
  7 O       -5.5010    -0.4250    -2.2860 O.2   1 <1>  -0.5700 
  8 C       -5.0890    -0.1400     0.0060 C.2   1 <1>  -0.1240 
  9 C       -4.3050     0.0840     2.4610 C.3   1 <1>  -0.1020 
 10 C       -6.5240     0.3400     0.2580 C.3   1 <1>   0.0390 
 11 C       -7.4170    -0.7940     0.7530 C.2   1 <1>   0.5690 
 12 O       -7.3140    -1.0700     1.9260 O.2   1 <1>  -0.5700 
 13 N       -8.3110    -1.4640    -0.0540 N.am  1 <1>  -0.6600 
 14 C       -9.0960    -2.6180     0.4870 C.3   1 <1>   0.1400 
 15 C       -8.6320    -1.1180    -1.4680 C.3   1 <1>   0.1400 
 16 C      -10.6050    -2.3350     0.5210 C.3   1 <1>   0.1400 
 17 C       -9.9050    -0.2680    -1.5060 C.3   1 <1>  -0.1600 
 18 N      -11.2080    -2.3560    -0.8490 N.am  1 <1>  -0.6600 
 19 C      -11.2020    -1.0810    -1.6260 C.3   1 <1>   0.1400 
 20 C      -11.9690    -3.4230    -1.2880 C.2   1 <1>   0.7160 
 21 O      -12.7150    -3.2670    -2.2370 O.2   1 <1>  -0.5700 
 22 C      -11.9190    -4.7070    -0.6310 C.2   1 <1>  -0.0860 
 23 C      -12.9080    -5.3790     0.0180 C.2   1 <1>  -0.0400 
 24 C      -10.7980    -5.5560    -0.5220 C.2   1 <1>  -0.1500 
 25 O      -12.4670    -6.5110     0.5080 O.3   1 <1>  -0.2800 
 26 C      -14.3610    -5.0130     0.2370 C.3   1 <1>  -0.0600 
 27 C      -11.1980    -6.6300     0.1860 C.2   1 <1>  -0.0400 
 28 C      -10.4530    -7.8700     0.6230 C.3   1 <1>  -0.0600 
 29 H       -3.2390    -1.2270    -2.5340 H     1 <1>   0.3700 
 30 H       -2.1370    -0.7970     1.3320 H     1 <1>   0.3700 
 31 H       -3.6050     0.8470     2.7480 H     1 <1>   0.0800 
 32 H       -4.1150    -0.7980     3.0450 H     1 <1>   0.0800 
 33 H       -5.2920     0.4270     2.7050 H     1 <1>   0.0800 
 34 H       -6.9330     0.8110    -0.6130 H     1 <1>   0.0800 
 35 H       -6.5190     1.1030     1.0110 H     1 <1>   0.0800 
 36 H       -8.7770    -2.8460     1.4890 H     1 <1>   0.0800 
 37 H       -8.9000    -3.4880    -0.1100 H     1 <1>   0.0800 
 38 H       -8.7570    -2.0160    -2.0490 H     1 <1>   0.0800 
 39 H       -7.8310    -0.5660    -1.9160 H     1 <1>   0.0800 
 40 H      -10.7830    -1.3830     0.9900 H     1 <1>   0.0800 
 41 H      -11.0770    -3.0810     1.1360 H     1 <1>   0.0800 
 42 H       -9.8560     0.3780    -2.3640 H     1 <1>   0.0800 
 43 H       -9.9490     0.3700    -0.6410 H     1 <1>   0.0800 
 44 H      -11.3480    -1.3140    -2.6680 H     1 <1>   0.0800 
 45 H      -12.0360    -0.4770    -1.3130 H     1 <1>   0.0800 
 46 H       -9.8310    -5.3570    -0.9450 H     1 <1>   0.1500 
 47 H      -14.5860    -4.0690    -0.2250 H     1 <1>   0.0800 
 48 H      -14.5650    -4.9490     1.2900 H     1 <1>   0.0800 
 49 H      -14.9900    -5.7700    -0.1960 H     1 <1>   0.0800 
 50 H       -9.4330    -7.8310     0.2860 H     1 <1>   0.0800 
 51 H      -10.9260    -8.7410     0.2080 H     1 <1>   0.0800 
 52 H      -10.4670    -7.9430     1.6950 H     1 <1>   0.0800 
@<TRIPOS>BOND
  1   1   2  2   
  2   2   3  am  
  3   2   4  am  
  4   3   5  am  
  5   3  29  1   
  6   4   6  1   
  7   4  30  1   
  8   5   7  2   
  9   5   8  1   
 10   6   8  2   
 11   6   9  1   
 12   8  10  1   
 13   9  31  1   
 14   9  32  1   
 15   9  33  1   
 16  10  11  1   
 17  10  34  1   
 18  10  35  1   
 19  11  12  2   
 20  11  13  am  
 21  13  14  1   
 22  13  15  1   
 23  14  16  1   
 24  14  36  1   
 25  14  37  1   
 26  15  17  1   
 27  15  38  1   
 28  15  39  1   
 29  16  18  1   
 30  16  40  1   
 31  16  41  1   
 32  17  19  1   
 33  17  42  1   
 34  17  43  1   
 35  18  19  1   
 36  18  20  am  
 37  19  44  1   
 38  19  45  1   
 39  20  21  2   
 40  20  22  1   
 41  22  23  2   
 42  22  24  1   
 43  23  25  1   
 44  23  26  1   
 45  24  27  2   
 46  24  46  1   
 47  25  27  1   
 48  26  47  1   
 49  26  48  1   
 50  26  49  1   
 51  27  28  1   
 52  28  50  1   
 53  28  51  1   
 54  28  52  1   
@<TRIPOS>SUBSTRUCTURE
  1 ****  13 GROUP 4 **** **** 0

# MOE 2024.06 (io_trps.svl 2023.06)
