@<TRIPOS>MOLECULE
Untitled Document
31 33 1 0 0 
SMALL
USER_CHARGES


@<TRIPOS>ATOM
  1 O        0.1480    -0.8210     1.6960 O.2   1 <1>  -0.5700 
  2 C        0.4560    -1.5760     0.7920 C.2   1 <1>   0.7160 
  3 N       -0.3510    -1.6710    -0.2980 N.am  1 <1>  -0.4900 
  4 C        1.6150    -2.3930     0.7760 C.2   1 <1>  -0.0860 
  5 C       -0.0530    -2.5150    -1.3410 C.2   1 <1>   0.4500 
  6 C        1.8420    -3.1940    -0.2990 C.2   1 <1>  -0.0260 
  7 C        2.6870    -2.6400     1.6310 C.2   1 <1>   0.1390 
  8 N        0.9910    -3.2680    -1.3820 N.2   1 <1>  -0.5760 
  9 N        3.0000    -3.8540    -0.0710 N.pl3 1 <1>   0.3140 
 10 N        3.5170    -3.5140     1.1470 N.2   1 <1>  -0.7070 
 11 C        3.5950    -4.8630    -0.9980 C.3   1 <1>   0.4560 
 12 O        4.7840    -4.3600    -1.5630 O.3   1 <1>  -0.5600 
 13 C        3.9930    -6.1410    -0.2560 C.3   1 <1>   0.2000 
 14 C        5.9130    -4.8370    -0.8750 C.3   1 <1>   0.2000 
 15 O        4.0110    -7.2390    -1.1380 O.3   1 <1>  -0.6800 
 16 C        5.4090    -5.8090     0.2020 C.3   1 <1>   0.2000 
 17 C        6.7200    -3.6670    -0.2990 C.3   1 <1>   0.1200 
 18 O        6.2140    -6.9440     0.2700 O.3   1 <1>  -0.6800 
 19 O        7.9170    -4.1430     0.2280 O.3   1 <1>  -0.6800 
 20 H       -1.1830    -1.0870    -0.2930 H     1 <1>   0.3700 
 21 H       -0.7520    -2.5270    -2.1600 H     1 <1>   0.0600 
 22 H        2.8090    -2.1590     2.5890 H     1 <1>   0.1500 
 23 H        2.8910    -5.0680    -1.7840 H     1 <1>   0.0800 
 24 H        3.3270    -6.3630     0.5590 H     1 <1>   0.0800 
 25 H        6.5110    -5.3580    -1.6020 H     1 <1>   0.0800 
 26 H        4.5420    -7.0240    -1.9340 H     1 <1>   0.4000 
 27 H        5.4040    -5.3370     1.1700 H     1 <1>   0.0800 
 28 H        6.1760    -3.1750     0.4900 H     1 <1>   0.0800 
 29 H        6.9610    -2.9570    -1.0700 H     1 <1>   0.0800 
 30 H        5.6910    -7.7030    -0.0740 H     1 <1>   0.4000 
 31 H        7.7660    -4.9630     0.7450 H     1 <1>   0.4000 
@<TRIPOS>BOND
  1   1   2  2   
  2   2   3  am  
  3   2   4  1   
  4   3   5  1   
  5   3  20  1   
  6   4   6  2   
  7   4   7  1   
  8   5   8  2   
  9   5  21  1   
 10   6   8  1   
 11   6   9  1   
 12   7  10  2   
 13   7  22  1   
 14   9  10  1   
 15   9  11  1   
 16  11  12  1   
 17  11  13  1   
 18  11  23  1   
 19  12  14  1   
 20  13  15  1   
 21  13  16  1   
 22  13  24  1   
 23  14  16  1   
 24  14  17  1   
 25  14  25  1   
 26  15  26  1   
 27  16  18  1   
 28  16  27  1   
 29  17  19  1   
 30  17  28  1   
 31  17  29  1   
 32  18  30  1   
 33  19  31  1   
@<TRIPOS>SUBSTRUCTURE
  1 ****   9 GROUP 4 **** **** 0

# MOE 2024.06 (io_trps.svl 2023.06)
