@<TRIPOS>MOLECULE
NONAME
43 44 1 0 0 
SMALL
USER_CHARGES


@<TRIPOS>ATOM
  1 S        0.5490     0.0100     0.7450 S.o2  1 <1>   1.3330 
  2 O       -0.0500     0.0110     2.0600 O.2   1 <1>  -0.6500 
  3 O        1.9840     0.1210     0.6100 O.2   1 <1>  -0.6500 
  4 N        0.0600    -1.3990    -0.0660 N.am  1 <1>  -0.8490 
  5 C       -0.2340     1.3080    -0.2100 C.3   1 <1>  -0.0550 
  6 C        0.9010    -1.7290    -1.2220 C.3   1 <1>   0.1160 
  7 C       -0.0280    -2.5540     0.8320 C.3   1 <1>   0.1160 
  8 C        0.0090     2.7130     0.3650 C.3   1 <1>  -0.0800 
  9 C       -0.7180     3.7950    -0.4260 C.3   1 <1>   0.2000 
 10 C        1.4720     3.1560     0.3310 C.3   1 <1>   0.2090 
 11 O       -2.0380     3.8790    -0.0090 O.3   1 <1>  -0.6800 
 12 C        0.0600     5.0840    -0.1590 C.3   1 <1>   0.2090 
 13 N        1.4290     4.6390     0.2130 N.pl3 1 <1>  -0.8380 
 14 C        2.5660     5.3840    -0.0860 C.ar  1 <1>   0.4100 
 15 N        3.6490     4.6970    -0.4090 N.ar  1 <1>  -0.6200 
 16 C        2.6300     6.7800    -0.0590 C.ar  1 <1>   0.1900 
 17 C        4.7320     5.3990    -0.6940 C.ar  1 <1>   0.4700 
 18 F        1.5770     7.4950     0.2800 F     1 <1>  -0.1900 
 19 C        3.8070     7.4140    -0.3780 C.ar  1 <1>   0.1670 
 20 N        4.8820     6.7140    -0.7050 N.ar  1 <1>  -0.6200 
 21 C        3.9540     8.9310    -0.3710 C.3   1 <1>  -0.0170 
 22 C        4.5900     9.4260     0.9330 C.3   1 <1>  -0.2400 
 23 H        0.1220     1.2710    -1.2210 H     1 <1>   0.0800 
 24 H       -1.2910     1.1260    -0.2290 H     1 <1>   0.0800 
 25 H        0.4900    -2.5740    -1.7480 H     1 <1>   0.0800 
 26 H        1.9030    -1.9690    -0.9030 H     1 <1>   0.0800 
 27 H        0.9460    -0.8950    -1.9000 H     1 <1>   0.0800 
 28 H       -0.3550    -3.4250     0.2910 H     1 <1>   0.0800 
 29 H       -0.7410    -2.3580     1.6160 H     1 <1>   0.0800 
 30 H        0.9320    -2.7530     1.2810 H     1 <1>   0.0800 
 31 H       -0.3090     2.7430     1.3930 H     1 <1>   0.0800 
 32 H       -0.7080     3.5830    -1.4810 H     1 <1>   0.0800 
 33 H        1.9750     2.7420    -0.5270 H     1 <1>   0.0800 
 34 H        1.9990     2.8630     1.2250 H     1 <1>   0.0800 
 35 H       -2.0810     4.0390     0.9550 H     1 <1>   0.4000 
 36 H       -0.3690     5.6270     0.6660 H     1 <1>   0.0800 
 37 H        0.0840     5.7020    -1.0390 H     1 <1>   0.0800 
 38 H        5.6060     4.8250    -0.9530 H     1 <1>   0.1500 
 39 H        4.5710     9.2240    -1.2030 H     1 <1>   0.0800 
 40 H        2.9950     9.4000    -0.5010 H     1 <1>   0.0800 
 41 H        5.5640     8.9860     1.0580 H     1 <1>   0.0800 
 42 H        3.9760     9.1520     1.7730 H     1 <1>   0.0800 
 43 H        4.6940    10.4960     0.9130 H     1 <1>   0.0800 
@<TRIPOS>BOND
  1   1   2  2   
  2   1   3  2   
  3   1   4  am  
  4   1   5  1   
  5   4   6  1   
  6   4   7  1   
  7   5   8  1   
  8   5  23  1   
  9   5  24  1   
 10   6  25  1   
 11   6  26  1   
 12   6  27  1   
 13   7  28  1   
 14   7  29  1   
 15   7  30  1   
 16   8   9  1   
 17   8  10  1   
 18   8  31  1   
 19   9  11  1   
 20   9  12  1   
 21   9  32  1   
 22  10  13  1   
 23  10  33  1   
 24  10  34  1   
 25  11  35  1   
 26  12  13  1   
 27  12  36  1   
 28  12  37  1   
 29  13  14  1   
 30  14  15  ar  
 31  14  16  ar  
 32  15  17  ar  
 33  16  18  1   
 34  16  19  ar  
 35  17  20  ar  
 36  17  38  1   
 37  19  20  ar  
 38  19  21  1   
 39  21  22  1   
 40  21  39  1   
 41  21  40  1   
 42  22  41  1   
 43  22  42  1   
 44  22  43  1   
@<TRIPOS>SUBSTRUCTURE
  1 ****  10 GROUP 4 **** **** 0

# MOE 2024.06 (io_trps.svl 2023.06)
