@<TRIPOS>MOLECULE
NONAME
52 55 1 0 0 
SMALL
USER_CHARGES


@<TRIPOS>ATOM
  1 O       -4.5160     1.2220     0.5680 O.co2 1 <1>  -0.9000 
  2 C       -4.7940     1.5560    -0.5850 C.2   1 <1>   0.9060 
  3 O       -5.8740     1.2240    -1.0910 O.co2 1 <1>  -0.9000 
  4 C       -3.9650     2.6190    -1.2800 C.3   1 <1>   0.0140 
  5 O       -4.7330     3.8080    -1.4900 O.3   1 <1>  -0.3630 
  6 C       -4.5910     4.8290    -0.6190 C.ar  1 <1>   0.0830 
  7 C       -5.2250     4.8580     0.6250 C.ar  1 <1>  -0.1440 
  8 C       -3.8090     5.8960    -1.0320 C.ar  1 <1>  -0.1500 
  9 C       -5.0320     5.9640     1.4420 C.ar  1 <1>  -0.1500 
 10 C       -6.1100     3.7360     1.1600 C.3   1 <1>   0.4870 
 11 C       -3.6340     6.9940    -0.2110 C.ar  1 <1>  -0.1500 
 12 C       -4.2440     7.0260     1.0290 C.ar  1 <1>  -0.1500 
 13 N       -7.1400     3.2710     0.1910 N.4   1 <1>  -0.9590 
 14 C       -7.8900     4.3260    -0.5520 C.3   1 <1>   0.3430 
 15 C       -7.9920     2.1990     0.7740 C.3   1 <1>   0.3430 
 16 C       -8.9120     5.0760     0.3340 C.3   1 <1>   0.1430 
 17 C       -9.3980     2.7050     1.1400 C.3   1 <1>  -0.1600 
 18 C      -10.0770     5.4960    -0.5410 C.ar  1 <1>   0.1670 
 19 C       -9.4280     4.2000     1.5070 C.3   1 <1>  -0.1600 
 20 C       -8.3830     6.4450     0.8400 C.3   1 <1>  -0.1600 
 21 N      -10.7040     4.7130    -1.3890 N.ar  1 <1>  -0.6200 
 22 C      -10.4120     6.8030    -0.3500 C.ar  1 <1>  -0.1430 
 23 C       -9.5280     7.4610     0.6770 C.3   1 <1>  -0.0170 
 24 C      -11.6950     5.2990    -2.0460 C.ar  1 <1>   0.4770 
 25 C      -11.4570     7.3090    -1.0830 C.ar  1 <1>   0.1600 
 26 N      -12.1110     6.5540    -1.9420 N.ar  1 <1>  -0.6200 
 27 C      -12.4460     4.4370    -3.0310 C.3   1 <1>  -0.0970 
 28 H       -3.6630     2.2470    -2.2390 H     1 <1>   0.0800 
 29 H       -3.0980     2.8510    -0.6900 H     1 <1>   0.0800 
 30 H       -3.3400     5.8590    -1.9990 H     1 <1>   0.1500 
 31 H       -5.4880     6.0120     2.4150 H     1 <1>   0.1500 
 32 H       -6.6070     4.0910     2.0450 H     1 <1>   0.0800 
 33 H       -5.4900     2.9100     1.4590 H     1 <1>   0.0800 
 34 H       -3.0210     7.8180    -0.5360 H     1 <1>   0.1500 
 35 H       -4.1020     7.8770     1.6730 H     1 <1>   0.1500 
 36 H       -6.5870     2.7320    -0.5230 H     1 <1>   0.4500 
 37 H       -8.4290     3.8430    -1.3500 H     1 <1>   0.0800 
 38 H       -7.2060     5.0220    -1.0070 H     1 <1>   0.0800 
 39 H       -7.5040     1.7930     1.6450 H     1 <1>   0.0800 
 40 H       -8.0780     1.3930     0.0600 H     1 <1>   0.0800 
 41 H       -9.7770     2.1150     1.9560 H     1 <1>   0.0800 
 42 H      -10.0500     2.5320     0.3010 H     1 <1>   0.0800 
 43 H      -10.4300     4.4910     1.7710 H     1 <1>   0.0800 
 44 H       -8.8120     4.3410     2.3760 H     1 <1>   0.0800 
 45 H       -7.5690     6.7660     0.2120 H     1 <1>   0.0800 
 46 H       -8.0290     6.4130     1.8550 H     1 <1>   0.0800 
 47 H       -9.1670     8.4170     0.3400 H     1 <1>   0.0800 
 48 H      -10.0710     7.5780     1.6000 H     1 <1>   0.0800 
 49 H      -11.7620     8.3350    -0.9680 H     1 <1>   0.1500 
 50 H      -11.8960     3.5400    -3.2430 H     1 <1>   0.0800 
 51 H      -12.5960     4.9790    -3.9460 H     1 <1>   0.0800 
 52 H      -13.4010     4.1760    -2.6160 H     1 <1>   0.0800 
@<TRIPOS>BOND
  1   1   2  ar  
  2   2   3  ar  
  3   2   4  1   
  4   4   5  1   
  5   4  28  1   
  6   4  29  1   
  7   5   6  1   
  8   6   7  ar  
  9   6   8  ar  
 10   7   9  ar  
 11   7  10  1   
 12   8  11  ar  
 13   8  30  1   
 14   9  12  ar  
 15   9  31  1   
 16  10  13  1   
 17  10  32  1   
 18  10  33  1   
 19  11  12  ar  
 20  11  34  1   
 21  12  35  1   
 22  13  14  1   
 23  13  15  1   
 24  13  36  1   
 25  14  16  1   
 26  14  37  1   
 27  14  38  1   
 28  15  17  1   
 29  15  39  1   
 30  15  40  1   
 31  16  18  1   
 32  16  19  1   
 33  16  20  1   
 34  17  19  1   
 35  17  41  1   
 36  17  42  1   
 37  18  21  ar  
 38  18  22  ar  
 39  19  43  1   
 40  19  44  1   
 41  20  23  1   
 42  20  45  1   
 43  20  46  1   
 44  21  24  ar  
 45  22  23  1   
 46  22  25  ar  
 47  23  47  1   
 48  23  48  1   
 49  24  26  ar  
 50  24  27  1   
 51  25  26  ar  
 52  25  49  1   
 53  27  50  1   
 54  27  51  1   
 55  27  52  1   
@<TRIPOS>SUBSTRUCTURE
  1 ****  14 GROUP 4 **** **** 0

# MOE 2024.06 (io_trps.svl 2023.06)
