@<TRIPOS>MOLECULE
NONAME
54 58 1 0 0 
SMALL
USER_CHARGES


@<TRIPOS>ATOM
  1 S       -1.3970    -0.4540    -1.1350 S.3   1 <1>  -0.4600 
  2 C       -1.6320     1.2020    -0.4770 C.3   1 <1>   0.0700 
  3 C       -2.7960    -1.3340    -0.4280 C.3   1 <1>   0.0700 
  4 C       -3.0020     1.6990    -0.9440 C.3   1 <1>  -0.1600 
  5 C       -4.0660    -0.6310    -0.9100 C.3   1 <1>  -0.1600 
  6 C       -4.1800     0.8360    -0.4410 C.3   1 <1>   0.4230 
  7 N       -5.4920     1.3950    -0.9300 N.4   1 <1>  -0.9590 
  8 C       -5.7170     2.8830    -0.7300 C.3   1 <1>   0.3430 
  9 C       -6.6950     0.6850    -0.3840 C.3   1 <1>   0.3430 
 10 C       -6.2740     3.3020     0.6570 C.3   1 <1>   0.1430 
 11 C       -6.7680     0.8130     1.1450 C.3   1 <1>  -0.1600 
 12 C       -7.6820     3.8180     0.4150 C.ar  1 <1>   0.1670 
 13 C       -6.2370     2.1550     1.6940 C.3   1 <1>  -0.1600 
 14 C       -5.5500     4.5600     1.2110 C.3   1 <1>  -0.1600 
 15 N       -8.7060     3.0740     0.0750 N.ar  1 <1>  -0.6200 
 16 C       -7.7620     5.1690     0.5470 C.ar  1 <1>  -0.1440 
 17 C       -6.4340     5.7840     0.9040 C.3   1 <1>  -0.0170 
 18 C       -9.8630     3.7250    -0.1110 C.ar  1 <1>   0.6200 
 19 C       -8.9790     5.7620     0.3330 C.ar  1 <1>   0.1600 
 20 N      -10.0300     5.0480     0.0010 N.ar  1 <1>  -0.6200 
 21 C      -11.0180     2.9250    -0.4780 C.ar  1 <1>   0.0000 
 22 C      -11.2650     1.6850     0.1160 C.ar  1 <1>  -0.1500 
 23 C      -11.9270     3.3600    -1.4450 C.ar  1 <1>  -0.1500 
 24 C      -12.3550     0.9130    -0.2440 C.ar  1 <1>  -0.1500 
 25 C      -13.0180     2.5940    -1.8100 C.ar  1 <1>  -0.1500 
 26 C      -13.2340     1.3660    -1.2100 C.ar  1 <1>  -0.1500 
 27 H       -0.8330     1.8110    -0.8650 H     1 <1>   0.0800 
 28 H       -1.5570     1.1400     0.5960 H     1 <1>   0.0800 
 29 H       -2.6900    -1.3140     0.6430 H     1 <1>   0.0800 
 30 H       -2.7410    -2.3490    -0.7840 H     1 <1>   0.0800 
 31 H       -3.0030     1.7340    -2.0190 H     1 <1>   0.0800 
 32 H       -3.0830     2.6990    -0.5660 H     1 <1>   0.0800 
 33 H       -4.8850    -1.2120    -0.5300 H     1 <1>   0.0800 
 34 H       -4.0900    -0.6770    -1.9840 H     1 <1>   0.0800 
 35 H       -4.1670     0.8470     0.6360 H     1 <1>   0.0800 
 36 H       -5.4940     1.2380    -1.9460 H     1 <1>   0.4500 
 37 H       -6.4330     3.2120    -1.4650 H     1 <1>   0.0800 
 38 H       -4.8150     3.4300    -0.9320 H     1 <1>   0.0800 
 39 H       -6.6960    -0.3550    -0.6660 H     1 <1>   0.0800 
 40 H       -7.5830     1.1290    -0.8080 H     1 <1>   0.0800 
 41 H       -6.2380    -0.0020     1.6060 H     1 <1>   0.0800 
 42 H       -7.8020     0.7050     1.4260 H     1 <1>   0.0800 
 43 H       -6.8080     2.4320     2.5650 H     1 <1>   0.0800 
 44 H       -5.2210     2.0170     2.0180 H     1 <1>   0.0800 
 45 H       -4.5590     4.6820     0.8100 H     1 <1>   0.0800 
 46 H       -5.4640     4.4860     2.2820 H     1 <1>   0.0800 
 47 H       -6.0510     6.3390     0.0640 H     1 <1>   0.0800 
 48 H       -6.5190     6.4350     1.7580 H     1 <1>   0.0800 
 49 H       -9.0960     6.8290     0.4290 H     1 <1>   0.1500 
 50 H      -10.5940     1.3240     0.8750 H     1 <1>   0.1500 
 51 H      -11.7740     4.3160    -1.9160 H     1 <1>   0.1500 
 52 H      -12.5240    -0.0380     0.2300 H     1 <1>   0.1500 
 53 H      -13.7020     2.9530    -2.5590 H     1 <1>   0.1500 
 54 H      -14.0830     0.7690    -1.4930 H     1 <1>   0.1500 
@<TRIPOS>BOND
  1   1   2  1   
  2   1   3  1   
  3   2   4  1   
  4   2  27  1   
  5   2  28  1   
  6   3   5  1   
  7   3  29  1   
  8   3  30  1   
  9   4   6  1   
 10   4  31  1   
 11   4  32  1   
 12   5   6  1   
 13   5  33  1   
 14   5  34  1   
 15   6   7  1   
 16   6  35  1   
 17   7   8  1   
 18   7   9  1   
 19   7  36  1   
 20   8  10  1   
 21   8  37  1   
 22   8  38  1   
 23   9  11  1   
 24   9  39  1   
 25   9  40  1   
 26  10  12  1   
 27  10  13  1   
 28  10  14  1   
 29  11  13  1   
 30  11  41  1   
 31  11  42  1   
 32  12  15  ar  
 33  12  16  ar  
 34  13  43  1   
 35  13  44  1   
 36  14  17  1   
 37  14  45  1   
 38  14  46  1   
 39  15  18  ar  
 40  16  17  1   
 41  16  19  ar  
 42  17  47  1   
 43  17  48  1   
 44  18  20  ar  
 45  18  21  1   
 46  19  20  ar  
 47  19  49  1   
 48  21  22  ar  
 49  21  23  ar  
 50  22  24  ar  
 51  22  50  1   
 52  23  25  ar  
 53  23  51  1   
 54  24  26  ar  
 55  24  52  1   
 56  25  26  ar  
 57  25  53  1   
 58  26  54  1   
@<TRIPOS>SUBSTRUCTURE
  1 ****  15 GROUP 4 **** **** 0

# MOE 2024.06 (io_trps.svl 2023.06)
