@<TRIPOS>MOLECULE
NONAME
43 44 1 0 0 
SMALL
USER_CHARGES


@<TRIPOS>ATOM
  1 CL       0.8030    -0.5690     0.1160 Cl    1 <1>  -0.1770 
  2 C        0.3710    -2.2600     0.1120 C.ar  1 <1>   0.1770 
  3 C       -0.9600    -2.6190     0.2230 C.ar  1 <1>  -0.1500 
  4 C        1.3650    -3.2140    -0.0010 C.ar  1 <1>  -0.1500 
  5 C       -1.3070    -3.9600     0.2200 C.ar  1 <1>  -0.1500 
  6 C        1.0160    -4.5540    -0.0030 C.ar  1 <1>  -0.1500 
  7 C       -0.3150    -4.9350     0.1070 C.ar  1 <1>   0.0830 
  8 O       -0.5650    -6.2680     0.0960 O.3   1 <1>  -0.3630 
  9 C       -1.8730    -6.7710     0.1980 C.3   1 <1>   0.1200 
 10 C       -1.7760    -8.2950     0.1490 C.3   1 <1>  -0.1600 
 11 C       -3.1560    -8.9340     0.2860 C.3   1 <1>   0.3430 
 12 N       -3.0650   -10.4090     0.1110 N.4   1 <1>  -0.9590 
 13 C       -4.3940   -11.0490    -0.1270 C.3   1 <1>   0.5230 
 14 C       -2.3120   -11.1130     1.1980 C.3   1 <1>   0.2630 
 15 C       -4.1810   -12.3400    -0.9000 C.2   1 <1>   0.0060 
 16 N       -3.1070   -12.5880    -1.5720 N.2   1 <1>  -0.3380 
 17 N       -5.0560   -13.3520    -0.9820 N.pl3 1 <1>   0.0480 
 18 N       -3.2520   -13.7930    -2.1110 N.2   1 <1>  -0.3380 
 19 C       -4.4100   -14.2280    -1.7530 C.2   1 <1>   0.0360 
 20 C       -6.4070   -13.5180    -0.3980 C.3   1 <1>   0.0960 
 21 C       -6.3160   -13.9360     1.0730 C.3   1 <1>  -0.2400 
 22 H       -1.7110    -1.8540     0.3090 H     1 <1>   0.1500 
 23 H        2.3920    -2.9100    -0.0860 H     1 <1>   0.1500 
 24 H       -2.3440    -4.2190     0.3070 H     1 <1>   0.1500 
 25 H        1.7750    -5.3110    -0.0910 H     1 <1>   0.1500 
 26 H       -2.4460    -6.3890    -0.6310 H     1 <1>   0.0800 
 27 H       -2.2900    -6.4350     1.1320 H     1 <1>   0.0800 
 28 H       -1.1370    -8.6140     0.9530 H     1 <1>   0.0800 
 29 H       -1.3360    -8.5780    -0.7920 H     1 <1>   0.0800 
 30 H       -3.8030    -8.5220    -0.4730 H     1 <1>   0.0800 
 31 H       -3.5740    -8.7000     1.2520 H     1 <1>   0.0800 
 32 H       -2.5520   -10.6160    -0.7680 H     1 <1>   0.4500 
 33 H       -5.0160   -10.3970    -0.7160 H     1 <1>   0.0800 
 34 H       -4.8860   -11.2480     0.8110 H     1 <1>   0.0800 
 35 H       -2.7970   -10.9720     2.1500 H     1 <1>   0.0800 
 36 H       -1.3040   -10.7350     1.2640 H     1 <1>   0.0800 
 37 H       -2.2570   -12.1700     0.9870 H     1 <1>   0.0800 
 38 H       -4.8170   -15.1830    -2.0370 H     1 <1>   0.1500 
 39 H       -6.9320   -14.2750    -0.9560 H     1 <1>   0.0800 
 40 H       -6.9520   -12.5960    -0.4940 H     1 <1>   0.0800 
 41 H       -5.7850   -14.8680     1.1650 H     1 <1>   0.0800 
 42 H       -7.3070   -14.0790     1.4690 H     1 <1>   0.0800 
 43 H       -5.8230   -13.1860     1.6640 H     1 <1>   0.0800 
@<TRIPOS>BOND
  1   1   2  1   
  2   2   3  ar  
  3   2   4  ar  
  4   3   5  ar  
  5   3  22  1   
  6   4   6  ar  
  7   4  23  1   
  8   5   7  ar  
  9   5  24  1   
 10   6   7  ar  
 11   6  25  1   
 12   7   8  1   
 13   8   9  1   
 14   9  10  1   
 15   9  26  1   
 16   9  27  1   
 17  10  11  1   
 18  10  28  1   
 19  10  29  1   
 20  11  12  1   
 21  11  30  1   
 22  11  31  1   
 23  12  13  1   
 24  12  14  1   
 25  12  32  1   
 26  13  15  1   
 27  13  33  1   
 28  13  34  1   
 29  14  35  1   
 30  14  36  1   
 31  14  37  1   
 32  15  16  2   
 33  15  17  1   
 34  16  18  1   
 35  17  19  1   
 36  17  20  1   
 37  18  19  2   
 38  19  38  1   
 39  20  21  1   
 40  20  39  1   
 41  20  40  1   
 42  21  41  1   
 43  21  42  1   
 44  21  43  1   
@<TRIPOS>SUBSTRUCTURE
  1 ****  10 GROUP 4 **** **** 0

# MOE 2024.06 (io_trps.svl 2023.06)
