@<TRIPOS>MOLECULE
NONAME
49 51 1 0 0 
SMALL
USER_CHARGES


@<TRIPOS>ATOM
  1 O       -0.3520    -0.7710     0.2690 O.3   1 <1>  -0.5600 
  2 C        0.6080    -0.2390    -0.5930 C.3   1 <1>   0.2640 
  3 C       -1.1540    -1.7590    -0.2780 C.3   1 <1>   0.1200 
  4 C        1.3400     0.8730     0.1370 C.ar  1 <1>  -0.1440 
  5 C       -2.1370    -2.1910     0.8150 C.3   1 <1>   0.3430 
  6 C        2.2310     0.5680     1.1550 C.ar  1 <1>  -0.1500 
  7 C        1.1290     2.2000    -0.2050 C.ar  1 <1>  -0.1500 
  8 N       -3.0870    -3.2430     0.3440 N.4   1 <1>  -0.9590 
  9 C        2.9070     1.5760     1.8200 C.ar  1 <1>  -0.1500 
 10 C        1.8040     3.2100     0.4600 C.ar  1 <1>  -0.1500 
 11 C       -4.0150    -2.8440    -0.7560 C.3   1 <1>   0.3430 
 12 C       -3.9230    -3.8410     1.4090 C.3   1 <1>   0.3430 
 13 C        2.6940     2.8980     1.4720 C.ar  1 <1>  -0.1500 
 14 C       -5.2690    -3.7120    -0.5890 C.3   1 <1>   0.2000 
 15 C       -5.0430    -4.5660     0.6640 C.3   1 <1>  -0.0800 
 16 O       -6.3730    -2.8920    -0.3880 O.3   1 <1>  -0.6800 
 17 C       -4.6860    -6.0340     0.3300 C.3   1 <1>   0.0210 
 18 C       -3.2760    -6.3000    -0.1890 C.2   1 <1>   0.1080 
 19 N       -2.6850    -5.6280    -1.1340 N.2   1 <1>  -0.7070 
 20 C       -2.4760    -7.3300     0.2920 C.2   1 <1>  -0.1500 
 21 N       -1.5010    -6.2600    -1.3140 N.pl3 1 <1>   0.3000 
 22 C       -1.3480    -7.2760    -0.4440 C.2   1 <1>  -0.3320 
 23 C       -0.1210    -8.1690    -0.3830 C.3   1 <1>  -0.0600 
 24 H        1.2970    -1.0170    -0.8730 H     1 <1>   0.0800 
 25 H        0.1170     0.1450    -1.4710 H     1 <1>   0.0800 
 26 H       -1.6740    -1.3440    -1.1240 H     1 <1>   0.0800 
 27 H       -0.5290    -2.5830    -0.5780 H     1 <1>   0.0800 
 28 H       -2.6890    -1.3270     1.1460 H     1 <1>   0.0800 
 29 H       -1.5680    -2.5700     1.6480 H     1 <1>   0.0800 
 30 H        2.3980    -0.4570     1.4360 H     1 <1>   0.1500 
 31 H        0.4380     2.4580    -0.9880 H     1 <1>   0.1500 
 32 H       -2.5630    -4.0540    -0.0570 H     1 <1>   0.4500 
 33 H        3.5960     1.3320     2.6100 H     1 <1>   0.1500 
 34 H        1.6360     4.2370     0.1910 H     1 <1>   0.1500 
 35 H       -4.2800    -1.8030    -0.6790 H     1 <1>   0.0800 
 36 H       -3.5580    -3.0360    -1.7130 H     1 <1>   0.0800 
 37 H       -3.3530    -4.5170     2.0270 H     1 <1>   0.0800 
 38 H       -4.3420    -3.0600     2.0240 H     1 <1>   0.0800 
 39 H        3.2190     3.6820     1.9890 H     1 <1>   0.1500 
 40 H       -5.4550    -4.3020    -1.4720 H     1 <1>   0.0800 
 41 H       -5.9320    -4.5870     1.2700 H     1 <1>   0.0800 
 42 H       -6.3630    -2.4370     0.4760 H     1 <1>   0.4000 
 43 H       -5.3860    -6.4140    -0.3940 H     1 <1>   0.0800 
 44 H       -4.8210    -6.6210     1.2210 H     1 <1>   0.0800 
 45 H       -2.7270    -8.0260     1.0750 H     1 <1>   0.1500 
 46 H       -0.8270    -5.9970    -2.0450 H     1 <1>   0.2700 
 47 H       -0.2410    -8.9120     0.3870 H     1 <1>   0.0800 
 48 H        0.7570    -7.5890    -0.1610 H     1 <1>   0.0800 
 49 H        0.0200    -8.6750    -1.3220 H     1 <1>   0.0800 
@<TRIPOS>BOND
  1   1   2  1   
  2   1   3  1   
  3   2   4  1   
  4   2  24  1   
  5   2  25  1   
  6   3   5  1   
  7   3  26  1   
  8   3  27  1   
  9   4   6  ar  
 10   4   7  ar  
 11   5   8  1   
 12   5  28  1   
 13   5  29  1   
 14   6   9  ar  
 15   6  30  1   
 16   7  10  ar  
 17   7  31  1   
 18   8  11  1   
 19   8  12  1   
 20   8  32  1   
 21   9  13  ar  
 22   9  33  1   
 23  10  13  ar  
 24  10  34  1   
 25  11  14  1   
 26  11  35  1   
 27  11  36  1   
 28  12  15  1   
 29  12  37  1   
 30  12  38  1   
 31  13  39  1   
 32  14  15  1   
 33  14  16  1   
 34  14  40  1   
 35  15  17  1   
 36  15  41  1   
 37  16  42  1   
 38  17  18  1   
 39  17  43  1   
 40  17  44  1   
 41  18  19  2   
 42  18  20  1   
 43  19  21  1   
 44  20  22  2   
 45  20  45  1   
 46  21  22  1   
 47  21  46  1   
 48  22  23  1   
 49  23  47  1   
 50  23  48  1   
 51  23  49  1   
@<TRIPOS>SUBSTRUCTURE
  1 ****   5 GROUP 4 **** **** 0

# MOE 2024.06 (io_trps.svl 2023.06)
