@<TRIPOS>MOLECULE
NONAME
48 50 1 0 0 
SMALL
USER_CHARGES


@<TRIPOS>ATOM
  1 O       -1.3400    -0.3910    -1.4750 O.co2 1 <1>  -0.9000 
  2 C       -2.1250    -0.1590    -0.5510 C.2   1 <1>   0.9060 
  3 O       -1.8100     0.4370     0.4820 O.co2 1 <1>  -0.9000 
  4 C       -3.4990    -0.8300    -0.5910 C.3   1 <1>   0.2370 
  5 N       -3.5110    -2.2860    -0.1450 N.4   1 <1>  -0.9590 
  6 C       -3.0550    -2.4210     1.2870 C.3   1 <1>   0.4230 
  7 C       -2.7840    -3.1380    -1.1390 C.3   1 <1>   0.3430 
  8 C       -1.5250    -2.5550     1.5100 C.3   1 <1>   0.1200 
  9 C       -3.8180    -3.6150     1.9190 C.3   1 <1>   0.1400 
 10 C       -2.2680    -4.5000    -0.6240 C.3   1 <1>  -0.0800 
 11 O       -1.0840    -3.8790     1.3820 O.3   1 <1>  -0.5600 
 12 N       -4.3130    -4.6100     0.8940 N.am  1 <1>  -0.6600 
 13 C       -0.9140    -4.3210     0.0800 C.3   1 <1>   0.1200 
 14 C       -3.2500    -5.3860     0.1890 C.3   1 <1>   0.1400 
 15 C       -5.5930    -4.5090     0.4190 C.2   1 <1>   0.5690 
 16 O       -6.1590    -3.4430     0.4500 O.2   1 <1>  -0.5700 
 17 C       -6.3090    -5.6890    -0.2110 C.3   1 <1>  -0.0990 
 18 C       -6.4720    -6.8530     0.7740 C.3   1 <1>  -0.0170 
 19 C       -7.1380    -8.0330     0.0870 C.ar  1 <1>  -0.1430 
 20 C       -8.5150    -8.0570    -0.0750 C.ar  1 <1>  -0.1500 
 21 C       -6.3790    -9.0920    -0.3880 C.ar  1 <1>  -0.1500 
 22 C       -9.1270    -9.1260    -0.7060 C.ar  1 <1>  -0.1500 
 23 C       -6.9900   -10.1620    -1.0190 C.ar  1 <1>  -0.1500 
 24 C       -8.3640   -10.1790    -1.1790 C.ar  1 <1>  -0.1500 
 25 H       -3.8610    -0.7540    -1.5990 H     1 <1>   0.0800 
 26 H       -4.1460    -0.2530     0.0430 H     1 <1>   0.0800 
 27 H       -4.4940    -2.6180    -0.1130 H     1 <1>   0.4500 
 28 H       -3.3530    -1.5280     1.8110 H     1 <1>   0.0800 
 29 H       -3.4400    -3.3120    -1.9750 H     1 <1>   0.0800 
 30 H       -1.9360    -2.5880    -1.5170 H     1 <1>   0.0800 
 31 H       -1.3060    -2.2610     2.5210 H     1 <1>   0.0800 
 32 H       -0.9490    -1.9190     0.8630 H     1 <1>   0.0800 
 33 H       -4.6610    -3.2200     2.4580 H     1 <1>   0.0800 
 34 H       -3.2020    -4.1170     2.6450 H     1 <1>   0.0800 
 35 H       -2.0280    -5.0590    -1.5100 H     1 <1>   0.0800 
 36 H       -0.2750    -3.6290    -0.4460 H     1 <1>   0.0800 
 37 H       -0.4050    -5.2680     0.1390 H     1 <1>   0.0800 
 38 H       -2.7020    -5.9630     0.9160 H     1 <1>   0.0800 
 39 H       -3.7030    -6.0920    -0.4830 H     1 <1>   0.0800 
 40 H       -7.2850    -5.3660    -0.5290 H     1 <1>   0.0800 
 41 H       -5.7840    -6.0140    -1.0880 H     1 <1>   0.0800 
 42 H       -7.0720    -6.5380     1.6110 H     1 <1>   0.0800 
 43 H       -5.5130    -7.1530     1.1580 H     1 <1>   0.0800 
 44 H       -9.1180    -7.2440     0.2900 H     1 <1>   0.1500 
 45 H       -5.3110    -9.0940    -0.2680 H     1 <1>   0.1500 
 46 H      -10.1960    -9.1380    -0.8290 H     1 <1>   0.1500 
 47 H       -6.3980   -10.9830    -1.3850 H     1 <1>   0.1500 
 48 H       -8.8400   -11.0100    -1.6700 H     1 <1>   0.1500 
@<TRIPOS>BOND
  1   1   2  ar  
  2   2   3  ar  
  3   2   4  1   
  4   4   5  1   
  5   4  25  1   
  6   4  26  1   
  7   5   6  1   
  8   5   7  1   
  9   5  27  1   
 10   6   8  1   
 11   6   9  1   
 12   6  28  1   
 13   7  10  1   
 14   7  29  1   
 15   7  30  1   
 16   8  11  1   
 17   8  31  1   
 18   8  32  1   
 19   9  12  1   
 20   9  33  1   
 21   9  34  1   
 22  10  13  1   
 23  10  14  1   
 24  10  35  1   
 25  11  13  1   
 26  12  14  1   
 27  12  15  am  
 28  13  36  1   
 29  13  37  1   
 30  14  38  1   
 31  14  39  1   
 32  15  16  2   
 33  15  17  1   
 34  17  18  1   
 35  17  40  1   
 36  17  41  1   
 37  18  19  1   
 38  18  42  1   
 39  18  43  1   
 40  19  20  ar  
 41  19  21  ar  
 42  20  22  ar  
 43  20  44  1   
 44  21  23  ar  
 45  21  45  1   
 46  22  24  ar  
 47  22  46  1   
 48  23  24  ar  
 49  23  47  1   
 50  24  48  1   
@<TRIPOS>SUBSTRUCTURE
  1 ****  12 GROUP 4 **** **** 0

# MOE 2024.06 (io_trps.svl 2023.06)
