@<TRIPOS>MOLECULE
NONAME
47 50 1 0 0 
SMALL
USER_CHARGES


@<TRIPOS>ATOM
  1 O       -2.7070    -0.6620    -3.0470 O.2   1 <1>  -0.5700 
  2 C       -2.6340    -1.0290    -1.9070 C.2   1 <1>   0.5690 
  3 N       -2.3370    -0.1570    -0.9290 N.am  1 <1>  -0.7300 
  4 C       -2.9180    -2.4670    -1.5680 C.3   1 <1>  -0.0190 
  5 C       -2.2230    -0.4780     0.5120 C.3   1 <1>   0.2200 
  6 C       -1.6890    -3.1560    -0.9320 C.3   1 <1>   0.1200 
  7 C       -4.2320    -2.5300    -0.7770 C.3   1 <1>   0.3430 
  8 C       -1.1100    -1.5340     0.7400 C.3   1 <1>   0.1200 
  9 C       -3.6080    -0.8940     1.0870 C.3   1 <1>   0.3430 
 10 O       -1.5190    -2.8440     0.4270 O.3   1 <1>  -0.5600 
 11 N       -4.0690    -2.2770     0.6990 N.4   1 <1>  -0.9590 
 12 C       -5.2340    -2.7380     1.4940 C.3   1 <1>   0.4810 
 13 C       -5.4450    -4.2100     1.2180 C.2   1 <1>  -0.2760 
 14 C       -6.4820    -4.7030     0.5240 C.2   1 <1>  -0.1780 
 15 C       -4.3930    -5.1570     1.8000 C.3   1 <1>   0.2580 
 16 C       -6.5890    -6.1130     0.2720 C.ar  1 <1>   0.0280 
 17 O       -4.3530    -6.3840     1.0910 O.3   1 <1>  -0.3630 
 18 C       -5.4880    -6.9200     0.5700 C.ar  1 <1>   0.0830 
 19 C       -7.7260    -6.7040    -0.2680 C.ar  1 <1>  -0.1500 
 20 C       -5.5210    -8.2810     0.3230 C.ar  1 <1>  -0.1500 
 21 C       -7.7640    -8.0730    -0.5120 C.ar  1 <1>   0.0830 
 22 C       -6.6570    -8.8540    -0.2150 C.ar  1 <1>  -0.1500 
 23 O       -8.8380    -8.7200    -1.0350 O.3   1 <1>  -0.3630 
 24 C      -10.0340    -8.0340    -1.3310 C.3   1 <1>   0.0400 
 25 H       -2.1010     0.7950    -1.2340 H     1 <1>   0.3700 
 26 H       -3.0970    -2.9590    -2.5070 H     1 <1>   0.0800 
 27 H       -1.9190     0.4270     1.0090 H     1 <1>   0.0800 
 28 H       -0.7870    -2.8990    -1.4630 H     1 <1>   0.0800 
 29 H       -1.8120    -4.2250    -0.9900 H     1 <1>   0.0800 
 30 H       -4.6380    -3.5190    -0.9180 H     1 <1>   0.0800 
 31 H       -4.9360    -1.8290    -1.1960 H     1 <1>   0.0800 
 32 H       -0.8370    -1.5390     1.7810 H     1 <1>   0.0800 
 33 H       -0.2280    -1.2950     0.1690 H     1 <1>   0.0800 
 34 H       -4.3410    -0.1650     0.7830 H     1 <1>   0.0800 
 35 H       -3.5350    -0.8510     2.1610 H     1 <1>   0.0800 
 36 H       -3.2630    -2.8840     0.9430 H     1 <1>   0.4500 
 37 H       -5.0620    -2.5840     2.5470 H     1 <1>   0.0800 
 38 H       -6.1130    -2.1840     1.2050 H     1 <1>   0.0800 
 39 H       -7.2700    -4.0910     0.1170 H     1 <1>   0.1500 
 40 H       -4.6170    -5.3830     2.8280 H     1 <1>   0.0800 
 41 H       -3.4030    -4.7400     1.7430 H     1 <1>   0.0800 
 42 H       -8.5690    -6.0810    -0.4930 H     1 <1>   0.1500 
 43 H       -4.6620    -8.8850     0.5530 H     1 <1>   0.1500 
 44 H       -6.6950    -9.9110    -0.4100 H     1 <1>   0.1500 
 45 H      -10.7430    -8.7490    -1.7100 H     1 <1>   0.0800 
 46 H       -9.8340    -7.2870    -2.0790 H     1 <1>   0.0800 
 47 H      -10.4140    -7.5880    -0.4290 H     1 <1>   0.0800 
@<TRIPOS>BOND
  1   1   2  2   
  2   2   3  am  
  3   2   4  1   
  4   3   5  1   
  5   3  25  1   
  6   4   6  1   
  7   4   7  1   
  8   4  26  1   
  9   5   8  1   
 10   5   9  1   
 11   5  27  1   
 12   6  10  1   
 13   6  28  1   
 14   6  29  1   
 15   7  11  1   
 16   7  30  1   
 17   7  31  1   
 18   8  10  1   
 19   8  32  1   
 20   8  33  1   
 21   9  11  1   
 22   9  34  1   
 23   9  35  1   
 24  11  12  1   
 25  11  36  1   
 26  12  13  1   
 27  12  37  1   
 28  12  38  1   
 29  13  14  2   
 30  13  15  1   
 31  14  16  1   
 32  14  39  1   
 33  15  17  1   
 34  15  40  1   
 35  15  41  1   
 36  16  18  ar  
 37  16  19  ar  
 38  17  18  1   
 39  18  20  ar  
 40  19  21  ar  
 41  19  42  1   
 42  20  22  ar  
 43  20  43  1   
 44  21  22  ar  
 45  21  23  1   
 46  22  44  1   
 47  23  24  1   
 48  24  45  1   
 49  24  46  1   
 50  24  47  1   
@<TRIPOS>SUBSTRUCTURE
  1 ****  13 GROUP 4 **** **** 0

# MOE 2024.06 (io_trps.svl 2023.06)
