@<TRIPOS>MOLECULE
NONAME
46 48 1 0 0 
SMALL
USER_CHARGES


@<TRIPOS>ATOM
  1 O        1.8090    -1.1610     1.5550 O.2   1 <1>  -0.5700 
  2 C        1.8860    -1.4310     0.3800 C.2   1 <1>   0.5690 
  3 N        1.9320    -0.4600    -0.5720 N.am  1 <1>  -0.7300 
  4 C        1.9420    -2.9060    -0.0470 C.3   1 <1>   0.1710 
  5 C        1.8420     1.0020    -0.2950 C.3   1 <1>   0.1400 
  6 N        0.6310    -3.5580    -0.3190 N.3   1 <1>  -0.8100 
  7 C        3.1030     1.5380     0.4000 C.3   1 <1>   0.2000 
  8 C       -0.2120    -3.5590     0.8950 C.3   1 <1>   0.2530 
  9 C       -0.0670    -2.9560    -1.4650 C.3   1 <1>   0.0300 
 10 O        3.0530     2.9260     0.4240 O.3   1 <1>  -0.5600 
 11 C        4.4160     1.2330    -0.3110 C.3   1 <1>  -0.1600 
 12 C       -1.4480    -4.4340     0.7140 C.ar  1 <1>  -0.1440 
 13 C        4.3280     3.4390     0.6420 C.3   1 <1>   0.1200 
 14 C        5.3020     2.4060     0.0790 C.3   1 <1>  -0.1600 
 15 C       -1.3510    -5.7070     0.2160 C.ar  1 <1>  -0.1500 
 16 C       -2.7080    -3.9300     1.0660 C.ar  1 <1>  -0.1500 
 17 C       -2.4880    -6.5210     0.0470 C.ar  1 <1>   0.0000 
 18 C       -3.8270    -4.7040     0.9110 C.ar  1 <1>  -0.1500 
 19 C       -3.7560    -6.0100     0.4020 C.ar  1 <1>   0.3100 
 20 C       -2.4240    -7.8290    -0.4640 C.ar  1 <1>  -0.1500 
 21 N       -4.9010    -6.7280     0.2690 N.ar  1 <1>  -0.6200 
 22 C       -3.5860    -8.5280    -0.5880 C.ar  1 <1>  -0.1500 
 23 C       -4.7960    -7.9320    -0.2070 C.ar  1 <1>   0.1600 
 24 H        1.9930    -0.7210    -1.5570 H     1 <1>   0.3700 
 25 H        2.4400    -3.4530     0.7340 H     1 <1>   0.0800 
 26 H        2.5560    -2.9860    -0.9250 H     1 <1>   0.0800 
 27 H        0.9940     1.1870     0.3410 H     1 <1>   0.0800 
 28 H        1.6990     1.5270    -1.2230 H     1 <1>   0.0800 
 29 H        3.1360     1.1970     1.4210 H     1 <1>   0.0800 
 30 H       -0.5060    -2.5510     1.1350 H     1 <1>   0.0800 
 31 H        0.3560    -3.9440     1.7250 H     1 <1>   0.0800 
 32 H        0.5770    -2.9500    -2.3270 H     1 <1>   0.0800 
 33 H       -0.3720    -1.9480    -1.2390 H     1 <1>   0.0800 
 34 H       -0.9430    -3.5330    -1.7080 H     1 <1>   0.0800 
 35 H        4.2610     1.2230    -1.3760 H     1 <1>   0.0800 
 36 H        4.8200     0.2860     0.0000 H     1 <1>   0.0800 
 37 H        4.4610     3.5640     1.7030 H     1 <1>   0.0800 
 38 H        4.4050     4.3900     0.1440 H     1 <1>   0.0800 
 39 H        5.8330     2.7980    -0.7700 H     1 <1>   0.0800 
 40 H        6.0110     2.1250     0.8380 H     1 <1>   0.0800 
 41 H       -0.3900    -6.1030    -0.0610 H     1 <1>   0.1500 
 42 H       -2.7890    -2.9320     1.4590 H     1 <1>   0.1500 
 43 H       -4.7990    -4.3320     1.1760 H     1 <1>   0.1500 
 44 H       -1.4730    -8.2440    -0.7430 H     1 <1>   0.1500 
 45 H       -3.5980    -9.5320    -0.9720 H     1 <1>   0.1500 
 46 H       -5.6970    -8.5110    -0.3170 H     1 <1>   0.1500 
@<TRIPOS>BOND
  1   1   2  2   
  2   2   3  am  
  3   2   4  1   
  4   3   5  1   
  5   3  24  1   
  6   4   6  1   
  7   4  25  1   
  8   4  26  1   
  9   5   7  1   
 10   5  27  1   
 11   5  28  1   
 12   6   8  1   
 13   6   9  1   
 14   7  10  1   
 15   7  11  1   
 16   7  29  1   
 17   8  12  1   
 18   8  30  1   
 19   8  31  1   
 20   9  32  1   
 21   9  33  1   
 22   9  34  1   
 23  10  13  1   
 24  11  14  1   
 25  11  35  1   
 26  11  36  1   
 27  12  15  ar  
 28  12  16  ar  
 29  13  14  1   
 30  13  37  1   
 31  13  38  1   
 32  14  39  1   
 33  14  40  1   
 34  15  17  ar  
 35  15  41  1   
 36  16  18  ar  
 37  16  42  1   
 38  17  19  ar  
 39  17  20  ar  
 40  18  19  ar  
 41  18  43  1   
 42  19  21  ar  
 43  20  22  ar  
 44  20  44  1   
 45  21  23  ar  
 46  22  23  ar  
 47  22  45  1   
 48  23  46  1   
@<TRIPOS>SUBSTRUCTURE
  1 ****   8 GROUP 4 **** **** 0

# MOE 2024.06 (io_trps.svl 2023.06)
