@<TRIPOS>MOLECULE
NONAME
45 47 1 0 0 
SMALL
USER_CHARGES


@<TRIPOS>ATOM
  1 CL      -0.5140    -0.3630     0.0840 Cl    1 <1>  -0.1770 
  2 C       -2.1280    -1.0350     0.0160 C.ar  1 <1>   0.1770 
  3 C       -3.2490    -0.2430     0.2420 C.ar  1 <1>  -0.1440 
  4 C       -2.2310    -2.3820    -0.2780 C.ar  1 <1>  -0.1500 
  5 C       -4.5130    -0.8350     0.1500 C.ar  1 <1>   0.1170 
  6 C       -3.1100     1.2420     0.5840 C.3   1 <1>  -0.0970 
  7 C       -3.4810    -2.9660    -0.3570 C.ar  1 <1>  -0.1500 
  8 N       -5.6680    -0.0580     0.3250 N.am  1 <1>  -0.5470 
  9 C       -4.6070    -2.1930    -0.1470 C.ar  1 <1>  -0.1500 
 10 C       -6.9020    -0.3760     0.8160 C.2   1 <1>   0.6900 
 11 O       -7.1060    -1.4620     1.3270 O.2   1 <1>  -0.5700 
 12 N       -7.9020     0.5630     0.7500 N.am  1 <1>  -0.6600 
 13 C       -9.1880     0.3640     1.4830 C.3   1 <1>   0.1400 
 14 C       -7.9370     1.6960    -0.2140 C.3   1 <1>   0.1400 
 15 C      -10.3360     0.0660     0.5000 C.3   1 <1>   0.0000 
 16 C       -9.0540     1.4670    -1.2390 C.3   1 <1>  -0.1600 
 17 C      -11.6560    -0.1420     1.2670 C.3   1 <1>   0.2000 
 18 C      -10.4120     1.2000    -0.5630 C.3   1 <1>  -0.1600 
 19 C      -10.1740    -1.3090    -0.1750 C.3   1 <1>  -0.1600 
 20 O      -12.2990     1.0440     1.5730 O.3   1 <1>  -0.6800 
 21 C      -12.5430    -1.0110     0.3750 C.3   1 <1>  -0.1600 
 22 C      -11.5870    -1.7520    -0.5690 C.3   1 <1>  -0.1600 
 23 H       -1.3420    -2.9630    -0.4410 H     1 <1>   0.1500 
 24 H       -3.8050     1.5170     1.3570 H     1 <1>   0.0800 
 25 H       -3.2990     1.8370    -0.2910 H     1 <1>   0.0800 
 26 H       -2.1290     1.4790     0.9500 H     1 <1>   0.0800 
 27 H       -3.5800    -4.0140    -0.5820 H     1 <1>   0.1500 
 28 H       -5.5450     0.9380     0.2000 H     1 <1>   0.3700 
 29 H       -5.5770    -2.6530    -0.2180 H     1 <1>   0.1500 
 30 H       -9.0950    -0.4370     2.1960 H     1 <1>   0.0800 
 31 H       -9.4160     1.2600     2.0350 H     1 <1>   0.0800 
 32 H       -8.1230     2.6070     0.3280 H     1 <1>   0.0800 
 33 H       -7.0010     1.7980    -0.7320 H     1 <1>   0.0800 
 34 H       -9.1360     2.3350    -1.8680 H     1 <1>   0.0800 
 35 H       -8.7810     0.6420    -1.8720 H     1 <1>   0.0800 
 36 H      -11.4640    -0.6620     2.1910 H     1 <1>   0.0800 
 37 H      -11.1460     0.9670    -1.3140 H     1 <1>   0.0800 
 38 H      -10.7130     2.1150    -0.0850 H     1 <1>   0.0800 
 39 H       -9.5050    -1.3000    -1.0160 H     1 <1>   0.0800 
 40 H       -9.7830    -2.0110     0.5430 H     1 <1>   0.0800 
 41 H      -12.5550     1.4950     0.7480 H     1 <1>   0.4000 
 42 H      -13.1010    -1.7070     0.9770 H     1 <1>   0.0800 
 43 H      -13.2250    -0.4100    -0.2010 H     1 <1>   0.0800 
 44 H      -11.6920    -2.8200    -0.4820 H     1 <1>   0.0800 
 45 H      -11.7880    -1.4660    -1.5870 H     1 <1>   0.0800 
@<TRIPOS>BOND
  1   1   2  1   
  2   2   3  ar  
  3   2   4  ar  
  4   3   5  ar  
  5   3   6  1   
  6   4   7  ar  
  7   4  23  1   
  8   5   8  1   
  9   5   9  ar  
 10   6  24  1   
 11   6  25  1   
 12   6  26  1   
 13   7   9  ar  
 14   7  27  1   
 15   8  10  am  
 16   8  28  1   
 17   9  29  1   
 18  10  11  2   
 19  10  12  am  
 20  12  13  1   
 21  12  14  1   
 22  13  15  1   
 23  13  30  1   
 24  13  31  1   
 25  14  16  1   
 26  14  32  1   
 27  14  33  1   
 28  15  17  1   
 29  15  18  1   
 30  15  19  1   
 31  16  18  1   
 32  16  34  1   
 33  16  35  1   
 34  17  20  1   
 35  17  21  1   
 36  17  36  1   
 37  18  37  1   
 38  18  38  1   
 39  19  22  1   
 40  19  39  1   
 41  19  40  1   
 42  20  41  1   
 43  21  22  1   
 44  21  42  1   
 45  21  43  1   
 46  22  44  1   
 47  22  45  1   
@<TRIPOS>SUBSTRUCTURE
  1 ****  10 GROUP 4 **** **** 0

# MOE 2024.06 (io_trps.svl 2023.06)
