@<TRIPOS>MOLECULE
NONAME
50 53 1 0 0 
SMALL
USER_CHARGES


@<TRIPOS>ATOM
  1 F       -0.2400    -0.6160     0.9140 F     1 <1>  -0.1900 
  2 C        0.9430    -1.1780     0.9750 C.ar  1 <1>   0.1900 
  3 C        1.0900    -2.4890     0.5100 C.ar  1 <1>   0.1170 
  4 C        1.9820    -0.4370     1.5010 C.ar  1 <1>  -0.1500 
  5 N       -0.0260    -3.1730    -0.0090 N.am  1 <1>  -0.5470 
  6 C        2.3600    -3.0600     0.6060 C.ar  1 <1>  -0.1500 
  7 C        3.2180    -1.0480     1.5650 C.ar  1 <1>   0.1900 
  8 C       -0.1430    -4.2750    -0.8050 C.2   1 <1>   0.6900 
  9 C        3.4260    -2.3440     1.1290 C.ar  1 <1>  -0.1500 
 10 F        4.2270    -0.3770     2.0580 F     1 <1>  -0.1900 
 11 O        0.8410    -4.8030    -1.2880 O.2   1 <1>  -0.5700 
 12 N       -1.3960    -4.7670    -1.0720 N.am  1 <1>  -0.6600 
 13 C       -1.6190    -5.7650    -2.1560 C.3   1 <1>   0.1400 
 14 C       -2.5920    -4.5480    -0.2130 C.3   1 <1>   0.1400 
 15 C       -2.0140    -7.1060    -1.5350 C.3   1 <1>  -0.1600 
 16 C       -2.9910    -5.8770     0.4330 C.3   1 <1>  -0.1600 
 17 C       -3.2380    -6.9750    -0.6160 C.3   1 <1>   0.4240 
 18 O       -4.2870    -6.5450    -1.4540 O.3   1 <1>  -0.5600 
 19 C       -3.5550    -8.3290     0.0550 C.ar  1 <1>  -0.1430 
 20 C       -5.5920    -6.7760    -1.0240 C.3   1 <1>   0.1200 
 21 C       -4.7880    -8.9500    -0.1220 C.ar  1 <1>  -0.1430 
 22 C       -2.6080    -8.9550     0.8590 C.ar  1 <1>  -0.1500 
 23 C       -5.8390    -8.2810    -0.9840 C.3   1 <1>  -0.0170 
 24 C       -5.0620   -10.1670     0.4820 C.ar  1 <1>  -0.1500 
 25 C       -2.8810   -10.1680     1.4640 C.ar  1 <1>  -0.1500 
 26 C       -4.1060   -10.7840     1.2810 C.ar  1 <1>   0.0830 
 27 O       -4.2930   -11.9730     1.9080 O.3   1 <1>  -0.3630 
 28 C       -5.4970   -12.6930     1.7700 C.3   1 <1>   0.0400 
 29 H        1.8380     0.5700     1.8470 H     1 <1>   0.1500 
 30 H       -0.9060    -2.6750     0.0900 H     1 <1>   0.3700 
 31 H        2.5230    -4.0700     0.2730 H     1 <1>   0.1500 
 32 H        4.4060    -2.7830     1.1980 H     1 <1>   0.1500 
 33 H       -0.7300    -5.8870    -2.7520 H     1 <1>   0.0800 
 34 H       -2.4040    -5.4130    -2.8030 H     1 <1>   0.0800 
 35 H       -3.4000    -4.1770    -0.8210 H     1 <1>   0.0800 
 36 H       -2.3930    -3.8270     0.5590 H     1 <1>   0.0800 
 37 H       -1.1710    -7.4760    -0.9840 H     1 <1>   0.0800 
 38 H       -2.2310    -7.8170    -2.3100 H     1 <1>   0.0800 
 39 H       -3.8660    -5.7460     1.0410 H     1 <1>   0.0800 
 40 H       -2.1960    -6.1810     1.0890 H     1 <1>   0.0800 
 41 H       -6.2580    -6.3040    -1.7240 H     1 <1>   0.0800 
 42 H       -5.7310    -6.3360    -0.0530 H     1 <1>   0.0800 
 43 H       -1.6460    -8.5050     1.0230 H     1 <1>   0.1500 
 44 H       -5.7950    -8.6770    -1.9830 H     1 <1>   0.0800 
 45 H       -6.8210    -8.4680    -0.5890 H     1 <1>   0.0800 
 46 H       -6.0200   -10.6220     0.3230 H     1 <1>   0.1500 
 47 H       -2.1440   -10.6460     2.0830 H     1 <1>   0.1500 
 48 H       -5.4120   -13.5980     2.3430 H     1 <1>   0.0800 
 49 H       -5.6440   -12.9300     0.7310 H     1 <1>   0.0800 
 50 H       -6.3070   -12.0940     2.1480 H     1 <1>   0.0800 
@<TRIPOS>BOND
  1   1   2  1   
  2   2   3  ar  
  3   2   4  ar  
  4   3   5  1   
  5   3   6  ar  
  6   4   7  ar  
  7   4  29  1   
  8   5   8  am  
  9   5  30  1   
 10   6   9  ar  
 11   6  31  1   
 12   7   9  ar  
 13   7  10  1   
 14   8  11  2   
 15   8  12  am  
 16   9  32  1   
 17  12  13  1   
 18  12  14  1   
 19  13  15  1   
 20  13  33  1   
 21  13  34  1   
 22  14  16  1   
 23  14  35  1   
 24  14  36  1   
 25  15  17  1   
 26  15  37  1   
 27  15  38  1   
 28  16  17  1   
 29  16  39  1   
 30  16  40  1   
 31  17  18  1   
 32  17  19  1   
 33  18  20  1   
 34  19  21  ar  
 35  19  22  ar  
 36  20  23  1   
 37  20  41  1   
 38  20  42  1   
 39  21  23  1   
 40  21  24  ar  
 41  22  25  ar  
 42  22  43  1   
 43  23  44  1   
 44  23  45  1   
 45  24  26  ar  
 46  24  46  1   
 47  25  26  ar  
 48  25  47  1   
 49  26  27  1   
 50  27  28  1   
 51  28  48  1   
 52  28  49  1   
 53  28  50  1   
@<TRIPOS>SUBSTRUCTURE
  1 ****  16 GROUP 4 **** **** 0

# MOE 2024.06 (io_trps.svl 2023.06)
