@<TRIPOS>MOLECULE
NONAME
45 47 1 0 0 
SMALL
USER_CHARGES


@<TRIPOS>ATOM
  1 O       -3.7000     2.7520    -2.4220 O.2   1 <1>  -0.5700 
  2 C       -2.6420     2.2080    -2.2230 C.2   1 <1>   0.5690 
  3 N       -2.4140     0.9250    -2.5980 N.am  1 <1>  -0.7300 
  4 C       -1.5340     2.9540    -1.5020 C.3   1 <1>   0.0440 
  5 C       -3.4320    -0.0330    -3.0770 C.3   1 <1>   0.2200 
  6 C       -0.9450     2.0980    -0.3840 C.ar  1 <1>  -0.1440 
  7 C       -3.7280    -1.0780    -2.0070 C.3   1 <1>  -0.0800 
  8 C       -2.8070    -0.9100    -4.1530 C.3   1 <1>   0.1200 
  9 C        0.1870     1.3280    -0.6010 C.ar  1 <1>  -0.1500 
 10 C       -1.5630     2.0600     0.8560 C.ar  1 <1>  -0.1500 
 11 C       -2.5860    -2.0830    -2.1900 C.3   1 <1>   0.1200 
 12 C       -3.8750    -0.5490    -0.5670 C.3   1 <1>  -0.0160 
 13 O       -2.0500    -1.8600    -3.4630 O.3   1 <1>  -0.5600 
 14 C        0.6850     0.5190     0.4060 C.ar  1 <1>  -0.1500 
 15 C       -1.0640     1.2520     1.8620 C.ar  1 <1>  -0.1500 
 16 C       -4.0840    -1.6820     0.4240 C.ar  1 <1>  -0.1440 
 17 C        0.0600     0.4730     1.6420 C.ar  1 <1>  -0.1440 
 18 C       -5.2900    -2.3410     0.5450 C.ar  1 <1>  -0.1500 
 19 C       -3.0690    -2.1080     1.2570 C.ar  1 <1>  -0.1500 
 20 C        0.6070    -0.4140     2.7440 C.3   1 <1>  -0.0970 
 21 C       -5.4170    -3.3700     1.4640 C.ar  1 <1>   0.1600 
 22 C       -3.3010    -3.1480     2.1410 C.ar  1 <1>   0.1600 
 23 N       -4.4510    -3.7910     2.2640 N.ar  1 <1>  -0.6200 
 24 H       -1.5270     0.4820    -2.3430 H     1 <1>   0.3700 
 25 H       -0.7740     3.2180    -2.2130 H     1 <1>   0.0800 
 26 H       -1.9320     3.8640    -1.0920 H     1 <1>   0.0800 
 27 H       -4.3130     0.4820    -3.4220 H     1 <1>   0.0800 
 28 H       -4.6410    -1.5790    -2.2750 H     1 <1>   0.0800 
 29 H       -2.1740    -0.3570    -4.8250 H     1 <1>   0.0800 
 30 H       -3.5660    -1.4330    -4.7080 H     1 <1>   0.0800 
 31 H        0.6880     1.3490    -1.5530 H     1 <1>   0.1500 
 32 H       -2.4410     2.6540     1.0420 H     1 <1>   0.1500 
 33 H       -2.9320    -3.1000    -2.1270 H     1 <1>   0.0800 
 34 H       -1.7980    -1.9220    -1.4740 H     1 <1>   0.0800 
 35 H       -4.7050     0.1340    -0.5160 H     1 <1>   0.0800 
 36 H       -2.9950    -0.0070    -0.2760 H     1 <1>   0.0800 
 37 H        1.5640    -0.0740     0.2250 H     1 <1>   0.1500 
 38 H       -1.5570     1.2340     2.8190 H     1 <1>   0.1500 
 39 H       -6.1300    -2.0630    -0.0640 H     1 <1>   0.1500 
 40 H       -2.1010    -1.6400     1.2260 H     1 <1>   0.1500 
 41 H        1.0340    -1.3090     2.3290 H     1 <1>   0.0800 
 42 H       -0.1740    -0.6950     3.4280 H     1 <1>   0.0800 
 43 H        1.3700     0.1140     3.2880 H     1 <1>   0.0800 
 44 H       -6.3660    -3.8730     1.5450 H     1 <1>   0.1500 
 45 H       -2.4970    -3.4670     2.7820 H     1 <1>   0.1500 
@<TRIPOS>BOND
  1   1   2  2   
  2   2   3  am  
  3   2   4  1   
  4   3   5  1   
  5   3  24  1   
  6   4   6  1   
  7   4  25  1   
  8   4  26  1   
  9   5   7  1   
 10   5   8  1   
 11   5  27  1   
 12   6   9  ar  
 13   6  10  ar  
 14   7  11  1   
 15   7  12  1   
 16   7  28  1   
 17   8  13  1   
 18   8  29  1   
 19   8  30  1   
 20   9  14  ar  
 21   9  31  1   
 22  10  15  ar  
 23  10  32  1   
 24  11  13  1   
 25  11  33  1   
 26  11  34  1   
 27  12  16  1   
 28  12  35  1   
 29  12  36  1   
 30  14  17  ar  
 31  14  37  1   
 32  15  17  ar  
 33  15  38  1   
 34  16  18  ar  
 35  16  19  ar  
 36  17  20  1   
 37  18  21  ar  
 38  18  39  1   
 39  19  22  ar  
 40  19  40  1   
 41  20  41  1   
 42  20  42  1   
 43  20  43  1   
 44  21  23  ar  
 45  21  44  1   
 46  22  23  ar  
 47  22  45  1   
@<TRIPOS>SUBSTRUCTURE
  1 ****  12 GROUP 4 **** **** 0

# MOE 2024.06 (io_trps.svl 2023.06)
