@<TRIPOS>MOLECULE
NONAME
32 33 1 0 0 
SMALL
USER_CHARGES


@<TRIPOS>ATOM
  1 O       -2.3130     4.2290     0.3670 O.2   1 <1>  -0.5700 
  2 C       -3.3890     3.9560    -0.1090 C.2   1 <1>   0.6590 
  3 O       -4.0080     4.7550    -0.9650 O.3   1 <1>  -0.4300 
  4 C       -4.0680     2.6280     0.2260 C.3   1 <1>   0.0610 
  5 C       -3.4720     5.9800    -1.4160 C.3   1 <1>   0.1200 
  6 C       -3.6730     1.5510    -0.8060 C.3   1 <1>  -0.0800 
  7 C       -5.5970     2.7780     0.3700 C.3   1 <1>   0.1200 
  8 C       -3.4530     2.0850     1.5120 C.3   1 <1>   0.3430 
  9 C       -2.5490     5.7070    -2.6030 C.3   1 <1>  -0.2400 
 10 C       -4.7760     0.4800    -0.9160 C.3   1 <1>  -0.1600 
 11 C       -2.3480     0.9620    -0.3050 C.3   1 <1>   0.3430 
 12 O       -6.1940     2.4560    -0.8440 O.3   1 <1>  -0.5600 
 13 N       -2.1760     1.4470     1.0930 N.4   1 <1>  -0.9060 
 14 C       -6.1490     1.1100    -1.2220 C.3   1 <1>   0.1200 
 15 H       -4.2960     6.6040    -1.7190 H     1 <1>   0.0800 
 16 H       -2.9460     6.4610    -0.6080 H     1 <1>   0.0800 
 17 H       -3.5380     1.9920    -1.7810 H     1 <1>   0.0800 
 18 H       -5.8720     3.7900     0.6150 H     1 <1>   0.0800 
 19 H       -6.0050     2.1210     1.1190 H     1 <1>   0.0800 
 20 H       -4.1070     1.3400     1.9370 H     1 <1>   0.0800 
 21 H       -3.2860     2.8700     2.2340 H     1 <1>   0.0800 
 22 H       -3.0910     5.2110    -3.3890 H     1 <1>   0.0800 
 23 H       -1.7120     5.1050    -2.3000 H     1 <1>   0.0800 
 24 H       -2.1730     6.6390    -2.9860 H     1 <1>   0.0800 
 25 H       -4.8580    -0.0740     0.0040 H     1 <1>   0.0800 
 26 H       -4.5400    -0.2300    -1.6900 H     1 <1>   0.0800 
 27 H       -1.5300     1.3060    -0.9190 H     1 <1>   0.0800 
 28 H       -2.3820    -0.1160    -0.3380 H     1 <1>   0.0800 
 29 H       -1.4640     2.1990     1.0810 H     1 <1>   0.4500 
 30 H       -1.8550     0.7160     1.7400 H     1 <1>   0.4500 
 31 H       -6.9400     0.5860    -0.7110 H     1 <1>   0.0800 
 32 H       -6.3490     1.0780    -2.2800 H     1 <1>   0.0800 
@<TRIPOS>BOND
  1   1   2  2   
  2   2   3  1   
  3   2   4  1   
  4   3   5  1   
  5   4   6  1   
  6   4   7  1   
  7   4   8  1   
  8   5   9  1   
  9   5  15  1   
 10   5  16  1   
 11   6  10  1   
 12   6  11  1   
 13   6  17  1   
 14   7  12  1   
 15   7  18  1   
 16   7  19  1   
 17   8  13  1   
 18   8  20  1   
 19   8  21  1   
 20   9  22  1   
 21   9  23  1   
 22   9  24  1   
 23  10  14  1   
 24  10  25  1   
 25  10  26  1   
 26  11  13  1   
 27  11  27  1   
 28  11  28  1   
 29  12  14  1   
 30  13  29  1   
 31  13  30  1   
 32  14  31  1   
 33  14  32  1   
@<TRIPOS>SUBSTRUCTURE
  1 ****   4 GROUP 4 **** **** 0

# MOE 2024.06 (io_trps.svl 2023.06)
