@<TRIPOS>MOLECULE
NONAME
48 50 1 0 0 
SMALL
USER_CHARGES


@<TRIPOS>ATOM
  1 O        2.1520    -1.0320     0.5460 O.3   1 <1>  -0.0190 
  2 N        2.5300     0.1910     0.7470 N.2   1 <1>  -0.4100 
  3 C        1.7250    -1.2130    -0.6730 C.2   1 <1>  -0.0400 
  4 C        2.3580     0.8160    -0.3660 C.2   1 <1>   0.1080 
  5 C        1.8330    -0.0470    -1.3280 C.2   1 <1>  -0.1500 
  6 C        1.2190    -2.5840    -1.0670 C.3   1 <1>   0.5230 
  7 C        2.6790     2.2890    -0.6040 C.3   1 <1>   0.1010 
  8 N        0.1690    -3.0180    -0.0960 N.4   1 <1>  -0.9590 
  9 C        4.1740     2.5710    -0.3780 C.3   1 <1>  -0.1600 
 10 C        1.8140     3.1920     0.2920 C.3   1 <1>  -0.1600 
 11 C       -0.1730    -4.4600    -0.3060 C.3   1 <1>   0.3430 
 12 C       -1.0340    -2.1240    -0.1680 C.3   1 <1>   0.2630 
 13 C        4.5070     4.0550    -0.5900 C.3   1 <1>  -0.1600 
 14 C        2.1420     4.6770     0.0810 C.3   1 <1>  -0.1600 
 15 C       -0.9970    -5.0440     0.8450 C.3   1 <1>  -0.0170 
 16 C        3.6360     4.9510     0.3010 C.3   1 <1>  -0.1600 
 17 C       -1.2970    -6.4980     0.5410 C.ar  1 <1>   0.1670 
 18 N       -1.7240    -6.7460    -0.6870 N.ar  1 <1>  -0.6200 
 19 C       -1.1220    -7.4680     1.5180 C.ar  1 <1>  -0.1500 
 20 C       -1.9950    -8.0160    -0.9530 C.ar  1 <1>   0.1600 
 21 C       -1.4030    -8.7850     1.2240 C.ar  1 <1>  -0.1500 
 22 C       -1.8530    -9.0550    -0.0500 C.ar  1 <1>  -0.1500 
 23 H        1.5910     0.2160    -2.3430 H     1 <1>   0.1500 
 24 H        2.0460    -3.2760    -1.0460 H     1 <1>   0.0800 
 25 H        0.8200    -2.5560    -2.0680 H     1 <1>   0.0800 
 26 H        2.4500     2.5210    -1.6300 H     1 <1>   0.0800 
 27 H        0.5970    -2.9010     0.8350 H     1 <1>   0.4500 
 28 H        4.7610     1.9710    -1.0500 H     1 <1>   0.0800 
 29 H        4.4400     2.2910     0.6280 H     1 <1>   0.0800 
 30 H        1.9870     2.9370     1.3240 H     1 <1>   0.0800 
 31 H        0.7730     3.0210     0.0820 H     1 <1>   0.0800 
 32 H        0.7310    -5.0410    -0.3980 H     1 <1>   0.0800 
 33 H       -0.7280    -4.5740    -1.2240 H     1 <1>   0.0800 
 34 H       -1.5040    -2.2010    -1.1350 H     1 <1>   0.0800 
 35 H       -0.7470    -1.0970    -0.0030 H     1 <1>   0.0800 
 36 H       -1.7530    -2.3970     0.5870 H     1 <1>   0.0800 
 37 H        4.3460     4.3160    -1.6230 H     1 <1>   0.0800 
 38 H        5.5460     4.2270    -0.3660 H     1 <1>   0.0800 
 39 H        1.5640     5.2750     0.7650 H     1 <1>   0.0800 
 40 H        1.8710     4.9670    -0.9200 H     1 <1>   0.0800 
 41 H       -1.9350    -4.5310     0.9390 H     1 <1>   0.0800 
 42 H       -0.4530    -4.9660     1.7690 H     1 <1>   0.0800 
 43 H        3.8480     5.9850     0.0910 H     1 <1>   0.0800 
 44 H        3.8810     4.7680     1.3340 H     1 <1>   0.0800 
 45 H       -0.7750    -7.2080     2.5010 H     1 <1>   0.1500 
 46 H       -2.3510    -8.2440    -1.9440 H     1 <1>   0.1500 
 47 H       -1.2810    -9.5670     1.9550 H     1 <1>   0.1500 
 48 H       -2.0930   -10.0620    -0.3420 H     1 <1>   0.1500 
@<TRIPOS>BOND
  1   1   2  1   
  2   1   3  1   
  3   2   4  2   
  4   3   5  2   
  5   3   6  1   
  6   4   5  1   
  7   4   7  1   
  8   5  23  1   
  9   6   8  1   
 10   6  24  1   
 11   6  25  1   
 12   7   9  1   
 13   7  10  1   
 14   7  26  1   
 15   8  11  1   
 16   8  12  1   
 17   8  27  1   
 18   9  13  1   
 19   9  28  1   
 20   9  29  1   
 21  10  14  1   
 22  10  30  1   
 23  10  31  1   
 24  11  15  1   
 25  11  32  1   
 26  11  33  1   
 27  12  34  1   
 28  12  35  1   
 29  12  36  1   
 30  13  16  1   
 31  13  37  1   
 32  13  38  1   
 33  14  16  1   
 34  14  39  1   
 35  14  40  1   
 36  15  17  1   
 37  15  41  1   
 38  15  42  1   
 39  16  43  1   
 40  16  44  1   
 41  17  18  ar  
 42  17  19  ar  
 43  18  20  ar  
 44  19  21  ar  
 45  19  45  1   
 46  20  22  ar  
 47  20  46  1   
 48  21  22  ar  
 49  21  47  1   
 50  22  48  1   
@<TRIPOS>SUBSTRUCTURE
  1 ****   6 GROUP 4 **** **** 0

# MOE 2024.06 (io_trps.svl 2023.06)
