@<TRIPOS>MOLECULE
NONAME
49 51 1 0 0 
SMALL
USER_CHARGES


@<TRIPOS>ATOM
  1 O        0.3240    -0.1240     1.1890 O.3   1 <1>  -0.6800 
  2 C        1.2510    -0.2000     0.1430 C.3   1 <1>   0.2000 
  3 C        2.1830    -1.4160     0.2970 C.3   1 <1>   0.1900 
  4 C        2.1840     1.0170     0.1330 C.3   1 <1>   0.2090 
  5 N        1.6380    -2.7220    -0.2050 N.3   1 <1>  -0.8100 
  6 C        3.4320    -0.9550    -0.4620 C.3   1 <1>   0.2090 
  7 N        3.5360     0.5130    -0.2240 N.pl3 1 <1>  -0.8380 
  8 C        0.3420    -3.0460     0.4380 C.3   1 <1>   0.1100 
  9 C        2.6180    -3.8120     0.0180 C.3   1 <1>   0.1100 
 10 C        4.5910     1.0700     0.5260 C.ar  1 <1>   0.4100 
 11 C       -0.2130    -4.4130    -0.0050 C.3   1 <1>   0.3430 
 12 C        2.0810    -5.1820    -0.4410 C.3   1 <1>   0.3430 
 13 N        5.2850     0.2080     1.2540 N.ar  1 <1>  -0.6200 
 14 C        4.8640     2.4880     0.5260 C.ar  1 <1>   0.4100 
 15 N        0.7790    -5.5180     0.2270 N.4   1 <1>  -0.9590 
 16 C        6.2380     0.7860     1.9700 C.ar  1 <1>   0.1600 
 17 N        5.8210     3.0320     1.2630 N.ar  1 <1>  -0.6200 
 18 N        4.1380     3.3990    -0.2660 N.pl3 1 <1>  -0.8380 
 19 C        0.2480    -6.8310    -0.2430 C.3   1 <1>   0.2630 
 20 C        6.4940     2.1420     1.9760 C.ar  1 <1>   0.1600 
 21 C        4.0200     4.8140     0.1820 C.3   1 <1>   0.1290 
 22 C        4.2990     3.2520    -1.7360 C.3   1 <1>   0.1290 
 23 H       -0.1650     0.7220     1.1510 H     1 <1>   0.4000 
 24 H        0.7210    -0.2520    -0.7920 H     1 <1>   0.0800 
 25 H        2.4520    -1.5040     1.3360 H     1 <1>   0.0800 
 26 H        2.2160     1.4750     1.1080 H     1 <1>   0.0800 
 27 H        1.8640     1.7410    -0.5950 H     1 <1>   0.0800 
 28 H        3.2970    -1.1160    -1.5160 H     1 <1>   0.0800 
 29 H        4.3070    -1.4870    -0.1370 H     1 <1>   0.0800 
 30 H        0.4460    -3.0230     1.5100 H     1 <1>   0.0800 
 31 H       -0.3870    -2.3020     0.1660 H     1 <1>   0.0800 
 32 H        3.5170    -3.6070    -0.5370 H     1 <1>   0.0800 
 33 H        2.8820    -3.8610     1.0620 H     1 <1>   0.0800 
 34 H       -0.4540    -4.3560    -1.0530 H     1 <1>   0.0800 
 35 H       -1.1230    -4.6160     0.5360 H     1 <1>   0.0800 
 36 H        2.8140    -5.9410    -0.2190 H     1 <1>   0.0800 
 37 H        1.9450    -5.1520    -1.5090 H     1 <1>   0.0800 
 38 H        0.9530    -5.5620     1.2400 H     1 <1>   0.4500 
 39 H        6.8410     0.1420     2.5830 H     1 <1>   0.1500 
 40 H        0.0570    -6.8000    -1.3040 H     1 <1>   0.0800 
 41 H       -0.6730    -7.0670     0.2660 H     1 <1>   0.0800 
 42 H        0.9600    -7.6160    -0.0440 H     1 <1>   0.0800 
 43 H        7.2890     2.5190     2.5930 H     1 <1>   0.1500 
 44 H        3.1970     5.2910    -0.3180 H     1 <1>   0.0800 
 45 H        4.9310     5.3440    -0.0370 H     1 <1>   0.0800 
 46 H        3.8470     4.8460     1.2440 H     1 <1>   0.0800 
 47 H        3.3880     3.5360    -2.2320 H     1 <1>   0.0800 
 48 H        4.5260     2.2310    -1.9910 H     1 <1>   0.0800 
 49 H        5.1040     3.8780    -2.0810 H     1 <1>   0.0800 
@<TRIPOS>BOND
  1   1   2  1   
  2   1  23  1   
  3   2   3  1   
  4   2   4  1   
  5   2  24  1   
  6   3   5  1   
  7   3   6  1   
  8   3  25  1   
  9   4   7  1   
 10   4  26  1   
 11   4  27  1   
 12   5   8  1   
 13   5   9  1   
 14   6   7  1   
 15   6  28  1   
 16   6  29  1   
 17   7  10  1   
 18   8  11  1   
 19   8  30  1   
 20   8  31  1   
 21   9  12  1   
 22   9  32  1   
 23   9  33  1   
 24  10  13  ar  
 25  10  14  ar  
 26  11  15  1   
 27  11  34  1   
 28  11  35  1   
 29  12  15  1   
 30  12  36  1   
 31  12  37  1   
 32  13  16  ar  
 33  14  17  ar  
 34  14  18  1   
 35  15  19  1   
 36  15  38  1   
 37  16  20  ar  
 38  16  39  1   
 39  17  20  ar  
 40  18  21  1   
 41  18  22  1   
 42  19  40  1   
 43  19  41  1   
 44  19  42  1   
 45  20  43  1   
 46  21  44  1   
 47  21  45  1   
 48  21  46  1   
 49  22  47  1   
 50  22  48  1   
 51  22  49  1   
@<TRIPOS>SUBSTRUCTURE
  1 ****   6 GROUP 4 **** **** 0

# MOE 2024.06 (io_trps.svl 2023.06)
