@<TRIPOS>MOLECULE
NONAME
48 51 1 0 0 
SMALL
USER_CHARGES


@<TRIPOS>ATOM
  1 F        0.2730    -1.0760     1.0630 F     1 <1>  -0.1900 
  2 C       -0.9280    -1.5540     1.2710 C.ar  1 <1>   0.1900 
  3 C       -1.3870    -2.6220     0.4600 C.ar  1 <1>   0.3100 
  4 C       -1.6660    -0.9820     2.2700 C.ar  1 <1>  -0.1500 
  5 N       -0.5960    -3.1420    -0.5180 N.ar  1 <1>  -0.6200 
  6 C       -2.6920    -3.1110     0.7190 C.ar  1 <1>   0.0000 
  7 C       -2.9410    -1.4930     2.4900 C.ar  1 <1>   0.1900 
  8 C       -1.0720    -4.1180    -1.2300 C.ar  1 <1>   0.1660 
  9 C       -3.1750    -4.1760    -0.0760 C.ar  1 <1>   0.1000 
 10 C       -3.4550    -2.5220     1.7510 C.ar  1 <1>  -0.1500 
 11 F       -3.6590    -0.9580     3.4400 F     1 <1>  -0.1900 
 12 C       -2.3410    -4.6630    -1.0470 C.ar  1 <1>  -0.1500 
 13 C       -0.1660    -4.6690    -2.3110 C.3   1 <1>  -0.0960 
 14 N       -4.4390    -4.7060     0.1300 N.pl3 1 <1>  -0.8380 
 15 C       -5.4770    -4.5720    -0.9320 C.3   1 <1>   0.2090 
 16 C       -4.5590    -6.0530     0.7370 C.3   1 <1>   0.2090 
 17 C       -6.2450    -5.9040    -0.9670 C.3   1 <1>   0.2000 
 18 C       -5.2840    -6.8970    -0.3100 C.3   1 <1>  -0.0800 
 19 O       -7.4070    -5.8220    -0.1880 O.3   1 <1>  -0.5600 
 20 C       -5.9510    -8.1560     0.2710 C.3   1 <1>   0.0200 
 21 C       -8.5170    -5.2730    -0.8280 C.3   1 <1>   0.0400 
 22 C       -4.9490    -9.1900     0.7590 C.2   1 <1>  -0.0400 
 23 O       -5.3940   -10.2470     1.3830 O.3   1 <1>  -0.0190 
 24 C       -3.6110    -9.2900     0.6940 C.2   1 <1>  -0.1500 
 25 N       -4.4300   -11.0450     1.7410 N.2   1 <1>  -0.4100 
 26 C       -3.3430   -10.4930     1.3390 C.2   1 <1>   0.1080 
 27 C       -1.9650   -11.0810     1.5450 C.3   1 <1>  -0.0590 
 28 H       -1.2900    -0.1730     2.8680 H     1 <1>   0.1500 
 29 H       -4.4460    -2.8910     1.9490 H     1 <1>   0.1500 
 30 H       -2.6660    -5.4710    -1.6710 H     1 <1>   0.1500 
 31 H       -0.6450    -5.4590    -2.8590 H     1 <1>   0.0800 
 32 H        0.7330    -5.0500    -1.8630 H     1 <1>   0.0800 
 33 H        0.0960    -3.8810    -2.9930 H     1 <1>   0.0800 
 34 H       -6.1290    -3.7460    -0.7090 H     1 <1>   0.0800 
 35 H       -4.9980    -4.3990    -1.8800 H     1 <1>   0.0800 
 36 H       -3.5940    -6.4560     0.9870 H     1 <1>   0.0800 
 37 H       -5.1540    -5.9740     1.6320 H     1 <1>   0.0800 
 38 H       -6.5100    -6.2030    -1.9670 H     1 <1>   0.0800 
 39 H       -4.5630    -7.1940    -1.0510 H     1 <1>   0.0800 
 40 H       -6.5690    -8.6130    -0.4810 H     1 <1>   0.0800 
 41 H       -6.5890    -7.8840     1.0940 H     1 <1>   0.0800 
 42 H       -9.3330    -5.2650    -0.1270 H     1 <1>   0.0800 
 43 H       -8.7760    -5.8820    -1.6760 H     1 <1>   0.0800 
 44 H       -8.2970    -4.2660    -1.1350 H     1 <1>   0.0800 
 45 H       -2.8810    -8.6320     0.2600 H     1 <1>   0.1500 
 46 H       -1.4870   -11.2330     0.5950 H     1 <1>   0.0800 
 47 H       -2.0420   -12.0270     2.0510 H     1 <1>   0.0800 
 48 H       -1.3700   -10.4150     2.1420 H     1 <1>   0.0800 
@<TRIPOS>BOND
  1   1   2  1   
  2   2   3  ar  
  3   2   4  ar  
  4   3   5  ar  
  5   3   6  ar  
  6   4   7  ar  
  7   4  28  1   
  8   5   8  ar  
  9   6   9  ar  
 10   6  10  ar  
 11   7  10  ar  
 12   7  11  1   
 13   8  12  ar  
 14   8  13  1   
 15   9  12  ar  
 16   9  14  1   
 17  10  29  1   
 18  12  30  1   
 19  13  31  1   
 20  13  32  1   
 21  13  33  1   
 22  14  15  1   
 23  14  16  1   
 24  15  17  1   
 25  15  34  1   
 26  15  35  1   
 27  16  18  1   
 28  16  36  1   
 29  16  37  1   
 30  17  18  1   
 31  17  19  1   
 32  17  38  1   
 33  18  20  1   
 34  18  39  1   
 35  19  21  1   
 36  20  22  1   
 37  20  40  1   
 38  20  41  1   
 39  21  42  1   
 40  21  43  1   
 41  21  44  1   
 42  22  23  1   
 43  22  24  2   
 44  23  25  1   
 45  24  26  1   
 46  24  45  1   
 47  25  26  2   
 48  26  27  1   
 49  27  46  1   
 50  27  47  1   
 51  27  48  1   
@<TRIPOS>SUBSTRUCTURE
  1 ****  14 GROUP 4 **** **** 0

# MOE 2024.06 (io_trps.svl 2023.06)
