@<TRIPOS>MOLECULE
NONAME
57 59 1 0 0 
SMALL
USER_CHARGES


@<TRIPOS>ATOM
  1 O        1.7240     2.2150     1.3030 O.3   1 <1>  -0.0190 
  2 N        2.3790     1.1890     1.7520 N.2   1 <1>  -0.4100 
  3 C        1.0080     1.9180     0.2510 C.2   1 <1>  -0.0400 
  4 C        2.0680     0.2040     0.9870 C.2   1 <1>   0.1080 
  5 C        1.1820     0.6130    -0.0070 C.2   1 <1>  -0.1500 
  6 C        0.1880     2.9930    -0.4350 C.3   1 <1>   0.0200 
  7 C        2.5980    -1.2030     1.1530 C.3   1 <1>  -0.0590 
  8 C        1.1050     4.0660    -1.0560 C.3   1 <1>  -0.0800 
  9 C        0.4040     5.1750    -1.8480 C.3   1 <1>   0.2000 
 10 C        1.9630     4.8100    -0.0200 C.3   1 <1>   0.3430 
 11 O       -0.7360     5.5900    -1.1650 O.3   1 <1>  -0.6800 
 12 C        1.4210     6.3140    -1.7830 C.3   1 <1>   0.3430 
 13 N        1.9200     6.2570    -0.3810 N.4   1 <1>  -0.9590 
 14 C        3.2020     6.9720    -0.1170 C.3   1 <1>   0.3430 
 15 C        3.0510     8.4840    -0.2900 C.3   1 <1>  -0.0220 
 16 C        4.3850     9.1660     0.0200 C.2   1 <1>  -0.2760 
 17 C        5.3620     9.2710    -0.8990 C.2   1 <1>  -0.2760 
 18 C        4.5140     9.7380     1.4520 C.3   1 <1>   0.1380 
 19 C        6.6840     9.9920    -0.6450 C.3   1 <1>  -0.0220 
 20 C        5.3400     8.7110    -2.3210 C.3   1 <1>  -0.1020 
 21 C        5.9800    10.1140     1.7570 C.3   1 <1>  -0.1600 
 22 C        4.0870     8.7270     2.5310 C.3   1 <1>  -0.2400 
 23 C        3.6290    10.9910     1.5740 C.3   1 <1>  -0.2400 
 24 C        6.6480    10.8690     0.6060 C.3   1 <1>  -0.1600 
 25 H        0.7640    -0.0070    -0.7790 H     1 <1>   0.1500 
 26 H       -0.4090     2.5370    -1.2040 H     1 <1>   0.0800 
 27 H       -0.4780     3.4300     0.2910 H     1 <1>   0.0800 
 28 H        1.7810    -1.8850     1.3000 H     1 <1>   0.0800 
 29 H        3.2480    -1.2530     2.0080 H     1 <1>   0.0800 
 30 H        3.1500    -1.4930     0.2790 H     1 <1>   0.0800 
 31 H        1.7860     3.5660    -1.7240 H     1 <1>   0.0800 
 32 H        0.1390     4.9030    -2.8570 H     1 <1>   0.0800 
 33 H        2.9730     4.4320    -0.0440 H     1 <1>   0.0800 
 34 H        1.5650     4.6670     0.9730 H     1 <1>   0.0800 
 35 H       -1.5120     5.0320    -1.3870 H     1 <1>   0.4000 
 36 H        0.9620     7.2620    -2.0130 H     1 <1>   0.0800 
 37 H        2.2280     6.1220    -2.4700 H     1 <1>   0.0800 
 38 H        1.1650     6.6700     0.1910 H     1 <1>   0.4500 
 39 H        3.5230     6.7720     0.8920 H     1 <1>   0.0800 
 40 H        3.9700     6.6150    -0.7820 H     1 <1>   0.0800 
 41 H        2.7660     8.7160    -1.2990 H     1 <1>   0.0800 
 42 H        2.2700     8.8540     0.3450 H     1 <1>   0.0800 
 43 H        7.4650     9.2580    -0.5420 H     1 <1>   0.0800 
 44 H        6.9320    10.6190    -1.4850 H     1 <1>   0.0800 
 45 H        6.2090     8.0970    -2.4830 H     1 <1>   0.0800 
 46 H        5.3630     9.5200    -3.0290 H     1 <1>   0.0800 
 47 H        4.4770     8.1120    -2.5290 H     1 <1>   0.0800 
 48 H        6.0330    10.7090     2.6530 H     1 <1>   0.0800 
 49 H        6.5480     9.2170     1.9350 H     1 <1>   0.0800 
 50 H        4.2710     9.1350     3.5100 H     1 <1>   0.0800 
 51 H        4.6560     7.8190     2.4390 H     1 <1>   0.0800 
 52 H        3.0410     8.4950     2.4720 H     1 <1>   0.0800 
 53 H        3.7960    11.4830     2.5150 H     1 <1>   0.0800 
 54 H        2.5860    10.7440     1.5130 H     1 <1>   0.0800 
 55 H        3.8510    11.6850     0.7840 H     1 <1>   0.0800 
 56 H        6.1060    11.7730     0.3940 H     1 <1>   0.0800 
 57 H        7.6510    11.1440     0.8800 H     1 <1>   0.0800 
@<TRIPOS>BOND
  1   1   2  1   
  2   1   3  1   
  3   2   4  2   
  4   3   5  2   
  5   3   6  1   
  6   4   5  1   
  7   4   7  1   
  8   5  25  1   
  9   6   8  1   
 10   6  26  1   
 11   6  27  1   
 12   7  28  1   
 13   7  29  1   
 14   7  30  1   
 15   8   9  1   
 16   8  10  1   
 17   8  31  1   
 18   9  11  1   
 19   9  12  1   
 20   9  32  1   
 21  10  13  1   
 22  10  33  1   
 23  10  34  1   
 24  11  35  1   
 25  12  13  1   
 26  12  36  1   
 27  12  37  1   
 28  13  14  1   
 29  13  38  1   
 30  14  15  1   
 31  14  39  1   
 32  14  40  1   
 33  15  16  1   
 34  15  41  1   
 35  15  42  1   
 36  16  17  2   
 37  16  18  1   
 38  17  19  1   
 39  17  20  1   
 40  18  21  1   
 41  18  22  1   
 42  18  23  1   
 43  19  24  1   
 44  19  43  1   
 45  19  44  1   
 46  20  45  1   
 47  20  46  1   
 48  20  47  1   
 49  21  24  1   
 50  21  48  1   
 51  21  49  1   
 52  22  50  1   
 53  22  51  1   
 54  22  52  1   
 55  23  53  1   
 56  23  54  1   
 57  23  55  1   
 58  24  56  1   
 59  24  57  1   
@<TRIPOS>SUBSTRUCTURE
  1 ****  14 GROUP 4 **** **** 0

# MOE 2024.06 (io_trps.svl 2023.06)
