@<TRIPOS>MOLECULE
NONAME
38 39 1 0 0 
SMALL
USER_CHARGES


@<TRIPOS>ATOM
  1 N       -0.4200    -0.3290    -0.0090 N.ar  1 <1>  -0.6200 
  2 C       -1.4200    -1.1790    -0.1800 C.ar  1 <1>   0.4100 
  3 C        0.7610    -0.9350    -0.0020 C.ar  1 <1>   0.1600 
  4 N       -2.7090    -0.6220    -0.2180 N.pl3 1 <1>  -0.8380 
  5 C       -1.2260    -2.5930    -0.3310 C.ar  1 <1>   0.4100 
  6 C        0.9430    -2.2980    -0.1490 C.ar  1 <1>   0.1600 
  7 C       -2.9880     0.5330     0.6790 C.3   1 <1>   0.1290 
  8 C       -3.2880    -0.4670    -1.5770 C.3   1 <1>   0.1290 
  9 N       -0.0400    -3.1740    -0.3150 N.ar  1 <1>  -0.6200 
 10 N       -2.3260    -3.4250    -0.4960 N.pl3 1 <1>  -0.8690 
 11 C       -2.3170    -4.7780     0.0870 C.3   1 <1>   0.2090 
 12 C       -3.7190    -5.3690    -0.0280 C.3   1 <1>  -0.1600 
 13 C       -3.7650    -6.8080     0.5030 C.3   1 <1>  -0.0170 
 14 C       -5.1680    -7.3830     0.4010 C.ar  1 <1>   0.1670 
 15 N       -6.0140    -7.0390     1.3600 N.ar  1 <1>  -0.6200 
 16 C       -5.4940    -8.2150    -0.6590 C.ar  1 <1>  -0.1500 
 17 C       -7.2330    -7.5440     1.2580 C.ar  1 <1>   0.1600 
 18 C       -6.7680    -8.7350    -0.7530 C.ar  1 <1>  -0.1500 
 19 C       -7.6550    -8.3820     0.2400 C.ar  1 <1>  -0.1500 
 20 H        1.6240    -0.3070     0.1290 H     1 <1>   0.1500 
 21 H        1.9430    -2.6930    -0.1300 H     1 <1>   0.1500 
 22 H       -2.5270     0.3690     1.6380 H     1 <1>   0.0800 
 23 H       -4.0490     0.6420     0.8180 H     1 <1>   0.0800 
 24 H       -2.5860     1.4360     0.2520 H     1 <1>   0.0800 
 25 H       -2.9950    -1.2940    -2.2030 H     1 <1>   0.0800 
 26 H       -2.9330     0.4460    -2.0240 H     1 <1>   0.0800 
 27 H       -4.3620    -0.4420    -1.5170 H     1 <1>   0.0800 
 28 H       -3.1740    -2.8920    -0.2700 H     1 <1>   0.4000 
 29 H       -2.0140    -4.7240     1.1190 H     1 <1>   0.0800 
 30 H       -1.6090    -5.3860    -0.4500 H     1 <1>   0.0800 
 31 H       -4.0220    -5.3650    -1.0610 H     1 <1>   0.0800 
 32 H       -4.4090    -4.7660     0.5360 H     1 <1>   0.0800 
 33 H       -3.4600    -6.8250     1.5350 H     1 <1>   0.0800 
 34 H       -3.0800    -7.4220    -0.0530 H     1 <1>   0.0800 
 35 H       -4.7610    -8.4540    -1.4080 H     1 <1>   0.1500 
 36 H       -7.9350    -7.2740     2.0280 H     1 <1>   0.1500 
 37 H       -7.0550    -9.3840    -1.5620 H     1 <1>   0.1500 
 38 H       -8.6640    -8.7510     0.2290 H     1 <1>   0.1500 
@<TRIPOS>BOND
  1   1   2  ar  
  2   1   3  ar  
  3   2   4  1   
  4   2   5  ar  
  5   3   6  ar  
  6   3  20  1   
  7   4   7  1   
  8   4   8  1   
  9   5   9  ar  
 10   5  10  1   
 11   6   9  ar  
 12   6  21  1   
 13   7  22  1   
 14   7  23  1   
 15   7  24  1   
 16   8  25  1   
 17   8  26  1   
 18   8  27  1   
 19  10  11  1   
 20  10  28  1   
 21  11  12  1   
 22  11  29  1   
 23  11  30  1   
 24  12  13  1   
 25  12  31  1   
 26  12  32  1   
 27  13  14  1   
 28  13  33  1   
 29  13  34  1   
 30  14  15  ar  
 31  14  16  ar  
 32  15  17  ar  
 33  16  18  ar  
 34  16  35  1   
 35  17  19  ar  
 36  17  36  1   
 37  18  19  ar  
 38  18  37  1   
 39  19  38  1   
@<TRIPOS>SUBSTRUCTURE
  1 ****  11 GROUP 4 **** **** 0

# MOE 2024.06 (io_trps.svl 2023.06)
