@<TRIPOS>MOLECULE
NONAME
51 53 1 0 0 
SMALL
USER_CHARGES


@<TRIPOS>ATOM
  1 O        2.1390    -0.2010     1.8250 O.3   1 <1>  -0.6800 
  2 C        1.8900    -0.3170     0.4590 C.3   1 <1>   0.2000 
  3 C        2.6390    -1.5210    -0.1110 C.3   1 <1>  -0.0800 
  4 C        2.5650     0.8560    -0.2580 C.3   1 <1>   0.3430 
  5 C        4.0690    -1.0130    -0.3360 C.3   1 <1>   0.3430 
  6 C        2.5950    -2.8100     0.7320 C.3   1 <1>   0.0210 
  7 N        4.0100     0.4800    -0.3740 N.4   1 <1>  -0.9590 
  8 C        3.3430    -3.9370     0.0460 C.2   1 <1>   0.1080 
  9 C        4.7980     1.0590     0.7470 C.3   1 <1>   0.4860 
 10 N        4.6040    -3.8690    -0.2560 N.2   1 <1>  -0.7070 
 11 C        2.7780    -5.1510    -0.3280 C.2   1 <1>  -0.1500 
 12 C        4.8560     2.5620     0.5640 C.ar  1 <1>  -0.1430 
 13 N        4.8810    -5.0610    -0.8260 N.pl3 1 <1>   0.3000 
 14 C        3.7890    -5.8490    -0.8850 C.2   1 <1>  -0.3320 
 15 C        4.0920     3.3920     1.3690 C.ar  1 <1>  -0.1500 
 16 C        5.6670     3.1210    -0.4120 C.ar  1 <1>  -0.1500 
 17 C        3.7790    -7.2480    -1.4730 C.3   1 <1>  -0.0600 
 18 C        4.1300     4.7640     1.1910 C.ar  1 <1>  -0.1500 
 19 C        5.7010     4.4930    -0.5870 C.ar  1 <1>  -0.1500 
 20 C        4.9320     5.3280     0.2110 C.ar  1 <1>  -0.1430 
 21 C        4.9620     6.8450     0.0300 C.3   1 <1>   0.0630 
 22 C        4.4770     7.2410    -1.3680 C.3   1 <1>  -0.2400 
 23 C        6.3650     7.3990     0.2960 C.3   1 <1>  -0.2400 
 24 H        1.5640    -0.8020     2.3430 H     1 <1>   0.4000 
 25 H        0.8260    -0.3440     0.2950 H     1 <1>   0.0800 
 26 H        2.2270    -1.7460    -1.0800 H     1 <1>   0.0800 
 27 H        2.4190     1.7800     0.2760 H     1 <1>   0.0800 
 28 H        2.1430     0.9520    -1.2450 H     1 <1>   0.0800 
 29 H        4.4680    -1.4180    -1.2520 H     1 <1>   0.0800 
 30 H        4.6950    -1.3430     0.4780 H     1 <1>   0.0800 
 31 H        1.5740    -3.1090     0.8880 H     1 <1>   0.0800 
 32 H        3.0490    -2.6510     1.6940 H     1 <1>   0.0800 
 33 H        4.3990     0.8540    -1.2470 H     1 <1>   0.4500 
 34 H        4.3390     0.8160     1.6920 H     1 <1>   0.0800 
 35 H        5.8000     0.6610     0.7420 H     1 <1>   0.0800 
 36 H        1.7540    -5.4530    -0.1890 H     1 <1>   0.1500 
 37 H        5.8210    -5.3120    -1.1600 H     1 <1>   0.2700 
 38 H        3.4630     2.9840     2.1430 H     1 <1>   0.1500 
 39 H        6.2830     2.5040    -1.0430 H     1 <1>   0.1500 
 40 H        2.7930    -7.6740    -1.4020 H     1 <1>   0.0800 
 41 H        4.4640    -7.8830    -0.9380 H     1 <1>   0.0800 
 42 H        4.0640    -7.2200    -2.5100 H     1 <1>   0.0800 
 43 H        3.5310     5.3950     1.8260 H     1 <1>   0.1500 
 44 H        6.3350     4.9130    -1.3480 H     1 <1>   0.1500 
 45 H        4.2940     7.2930     0.7460 H     1 <1>   0.0800 
 46 H        5.1390     6.8630    -2.1260 H     1 <1>   0.0800 
 47 H        4.4330     8.3120    -1.4560 H     1 <1>   0.0800 
 48 H        3.4930     6.8440    -1.5410 H     1 <1>   0.0800 
 49 H        7.0700     7.0260    -0.4250 H     1 <1>   0.0800 
 50 H        6.6930     7.1070     1.2780 H     1 <1>   0.0800 
 51 H        6.3580     8.4730     0.2440 H     1 <1>   0.0800 
@<TRIPOS>BOND
  1   1   2  1   
  2   1  24  1   
  3   2   3  1   
  4   2   4  1   
  5   2  25  1   
  6   3   5  1   
  7   3   6  1   
  8   3  26  1   
  9   4   7  1   
 10   4  27  1   
 11   4  28  1   
 12   5   7  1   
 13   5  29  1   
 14   5  30  1   
 15   6   8  1   
 16   6  31  1   
 17   6  32  1   
 18   7   9  1   
 19   7  33  1   
 20   8  10  2   
 21   8  11  1   
 22   9  12  1   
 23   9  34  1   
 24   9  35  1   
 25  10  13  1   
 26  11  14  2   
 27  11  36  1   
 28  12  15  ar  
 29  12  16  ar  
 30  13  14  1   
 31  13  37  1   
 32  14  17  1   
 33  15  18  ar  
 34  15  38  1   
 35  16  19  ar  
 36  16  39  1   
 37  17  40  1   
 38  17  41  1   
 39  17  42  1   
 40  18  20  ar  
 41  18  43  1   
 42  19  20  ar  
 43  19  44  1   
 44  20  21  1   
 45  21  22  1   
 46  21  23  1   
 47  21  45  1   
 48  22  46  1   
 49  22  47  1   
 50  22  48  1   
 51  23  49  1   
 52  23  50  1   
 53  23  51  1   
@<TRIPOS>SUBSTRUCTURE
  1 ****   7 GROUP 4 **** **** 0

# MOE 2024.06 (io_trps.svl 2023.06)
