@<TRIPOS>MOLECULE
NONAME
44 46 1 0 0 
SMALL
USER_CHARGES


@<TRIPOS>ATOM
  1 S       -0.2480    -0.0960     0.4460 S.3   1 <1>  -0.4600 
  2 C       -1.8230     0.3250     1.2420 C.3   1 <1>   0.0700 
  3 C        0.3270     1.3780    -0.4730 C.3   1 <1>   0.0700 
  4 C       -2.8370     0.7130     0.1500 C.3   1 <1>   0.4230 
  5 C       -0.2330     2.6990     0.0730 C.3   1 <1>   0.0700 
  6 N       -4.0950    -0.1020     0.2330 N.4   1 <1>  -0.9590 
  7 C       -3.1080     2.2240     0.2130 C.3   1 <1>   0.0700 
  8 S       -1.8220     3.0780    -0.7390 S.3   1 <1>  -0.4600 
  9 C       -5.1020     0.1670    -0.8350 C.3   1 <1>   0.3430 
 10 C       -3.8600    -1.5810     0.1670 C.3   1 <1>   0.3430 
 11 C       -6.0350    -1.0390    -0.7630 C.3   1 <1>   0.2000 
 12 C       -5.0530    -2.1970    -0.5780 C.3   1 <1>  -0.0800 
 13 O       -6.8160    -0.8900     0.3800 O.3   1 <1>  -0.6800 
 14 C       -5.6010    -3.4570     0.1210 C.3   1 <1>   0.0210 
 15 C       -4.5410    -4.5400     0.1880 C.2   1 <1>   0.1080 
 16 N       -3.4120    -4.3820     0.8100 N.2   1 <1>  -0.7070 
 17 C       -4.6480    -5.7980    -0.3960 C.2   1 <1>  -0.1500 
 18 N       -2.7660    -5.5560     0.6440 N.pl3 1 <1>   0.3000 
 19 C       -3.4940    -6.4240    -0.0860 C.2   1 <1>  -0.3320 
 20 C       -3.0370    -7.8260    -0.4460 C.3   1 <1>  -0.0600 
 21 H       -2.1190    -0.5470     1.7940 H     1 <1>   0.0800 
 22 H       -1.6250     1.1220     1.9350 H     1 <1>   0.0800 
 23 H        1.3990     1.3710    -0.3840 H     1 <1>   0.0800 
 24 H        0.0660     1.2420    -1.5080 H     1 <1>   0.0800 
 25 H       -2.3840     0.5070    -0.8060 H     1 <1>   0.0800 
 26 H        0.4250     3.5050    -0.2010 H     1 <1>   0.0800 
 27 H       -0.3590     2.7020     1.1400 H     1 <1>   0.0800 
 28 H       -4.5900     0.0660     1.1220 H     1 <1>   0.4500 
 29 H       -3.0840     2.6130     1.2160 H     1 <1>   0.0800 
 30 H       -4.0340     2.4950    -0.2590 H     1 <1>   0.0800 
 31 H       -5.6420     1.0840    -0.6670 H     1 <1>   0.0800 
 32 H       -4.6210     0.1980    -1.7990 H     1 <1>   0.0800 
 33 H       -2.9470    -1.8090    -0.3600 H     1 <1>   0.0800 
 34 H       -3.7880    -1.9900     1.1630 H     1 <1>   0.0800 
 35 H       -6.6740    -1.1330    -1.6250 H     1 <1>   0.0800 
 36 H       -4.6950    -2.4920    -1.5490 H     1 <1>   0.0800 
 37 H       -7.5620    -1.5280     0.3900 H     1 <1>   0.4000 
 38 H       -6.4530    -3.8330    -0.4160 H     1 <1>   0.0800 
 39 H       -5.9090    -3.2330     1.1270 H     1 <1>   0.0800 
 40 H       -5.4820    -6.1720    -0.9640 H     1 <1>   0.1500 
 41 H       -1.8350    -5.7370     1.0420 H     1 <1>   0.2700 
 42 H       -3.7910    -8.3240    -1.0290 H     1 <1>   0.0800 
 43 H       -2.8610    -8.4010     0.4460 H     1 <1>   0.0800 
 44 H       -2.1300    -7.7870    -1.0230 H     1 <1>   0.0800 
@<TRIPOS>BOND
  1   1   2  1   
  2   1   3  1   
  3   2   4  1   
  4   2  21  1   
  5   2  22  1   
  6   3   5  1   
  7   3  23  1   
  8   3  24  1   
  9   4   6  1   
 10   4   7  1   
 11   4  25  1   
 12   5   8  1   
 13   5  26  1   
 14   5  27  1   
 15   6   9  1   
 16   6  10  1   
 17   6  28  1   
 18   7   8  1   
 19   7  29  1   
 20   7  30  1   
 21   9  11  1   
 22   9  31  1   
 23   9  32  1   
 24  10  12  1   
 25  10  33  1   
 26  10  34  1   
 27  11  12  1   
 28  11  13  1   
 29  11  35  1   
 30  12  14  1   
 31  12  36  1   
 32  13  37  1   
 33  14  15  1   
 34  14  38  1   
 35  14  39  1   
 36  15  16  2   
 37  15  17  1   
 38  16  18  1   
 39  17  19  2   
 40  17  40  1   
 41  18  19  1   
 42  18  41  1   
 43  19  20  1   
 44  20  42  1   
 45  20  43  1   
 46  20  44  1   
@<TRIPOS>SUBSTRUCTURE
  1 ****  10 GROUP 4 **** **** 0

# MOE 2024.06 (io_trps.svl 2023.06)
