@<TRIPOS>MOLECULE
NONAME
45 47 1 0 0 
SMALL
USER_CHARGES


@<TRIPOS>ATOM
  1 F        1.0110    -0.1730     1.6670 F     1 <1>  -0.1900 
  2 C        1.7410     0.6560     0.9490 C.ar  1 <1>   0.1900 
  3 C        2.9260     0.2520     0.3360 C.ar  1 <1>   0.4100 
  4 C        1.3260     1.9520     0.8150 C.ar  1 <1>   0.1600 
  5 N        3.6260     1.1310    -0.3600 N.ar  1 <1>  -0.6200 
  6 N        3.4390    -1.0420     0.4080 N.pl3 1 <1>  -0.8380 
  7 N        2.0220     2.8330     0.1210 N.ar  1 <1>  -0.6200 
  8 C        3.1350     2.3550    -0.4300 C.ar  1 <1>   0.7200 
  9 C        2.5640    -2.2210     0.1680 C.3   1 <1>   0.1290 
 10 C        4.8950    -1.2860     0.1980 C.3   1 <1>   0.1290 
 11 N        3.8810     3.2100    -1.1580 N.pl3 1 <1>  -0.8690 
 12 C        4.0150     4.6260    -0.7800 C.3   1 <1>   0.3890 
 13 C        5.4650     5.0860    -0.8930 C.2   1 <1>   0.0070 
 14 N        6.4510     4.3600    -1.3100 N.2   1 <1>  -0.3380 
 15 N        5.8750     6.3170    -0.5610 N.pl3 1 <1>   0.0480 
 16 N        7.5480     5.1140    -1.2570 N.2   1 <1>  -0.3380 
 17 C        7.1860     6.2650    -0.8120 C.2   1 <1>   0.0370 
 18 C        5.0940     7.4650    -0.0330 C.3   1 <1>   0.1760 
 19 C        5.2200     8.6820    -0.9650 C.3   1 <1>  -0.1600 
 20 C        5.5440     7.8080     1.3970 C.3   1 <1>  -0.1600 
 21 C        4.4340     9.8800    -0.4120 C.3   1 <1>  -0.1600 
 22 C        4.7610     9.0070     1.9480 C.3   1 <1>  -0.1600 
 23 C        4.8760    10.2220     1.0170 C.3   1 <1>  -0.1600 
 24 H        0.4140     2.2740     1.2850 H     1 <1>   0.1500 
 25 H        1.5830    -1.9070    -0.1450 H     1 <1>   0.0800 
 26 H        2.4760    -2.7950     1.0740 H     1 <1>   0.0800 
 27 H        2.9830    -2.8410    -0.6050 H     1 <1>   0.0800 
 28 H        5.4680    -0.4620     0.5880 H     1 <1>   0.0800 
 29 H        5.0990    -1.3830    -0.8540 H     1 <1>   0.0800 
 30 H        5.1960    -2.1840     0.7080 H     1 <1>   0.0800 
 31 H        4.7940     2.8090    -1.3910 H     1 <1>   0.4000 
 32 H        3.6820     4.7690     0.2330 H     1 <1>   0.0800 
 33 H        3.3970     5.2150    -1.4340 H     1 <1>   0.0800 
 34 H        7.8500     7.0950    -0.6550 H     1 <1>   0.1500 
 35 H        4.0580     7.1820     0.0030 H     1 <1>   0.0800 
 36 H        4.8430     8.4320    -1.9420 H     1 <1>   0.0800 
 37 H        6.2540     8.9640    -1.0620 H     1 <1>   0.0800 
 38 H        6.5940     8.0490     1.4010 H     1 <1>   0.0800 
 39 H        5.3900     6.9580     2.0390 H     1 <1>   0.0800 
 40 H        3.3810     9.6530    -0.4150 H     1 <1>   0.0800 
 41 H        4.5860    10.7360    -1.0490 H     1 <1>   0.0800 
 42 H        5.1370     9.2660     2.9240 H     1 <1>   0.0800 
 43 H        3.7230     8.7410     2.0590 H     1 <1>   0.0800 
 44 H        4.2680    11.0260     1.3980 H     1 <1>   0.0800 
 45 H        5.8970    10.5650     1.0030 H     1 <1>   0.0800 
@<TRIPOS>BOND
  1   1   2  1   
  2   2   3  ar  
  3   2   4  ar  
  4   3   5  ar  
  5   3   6  1   
  6   4   7  ar  
  7   4  24  1   
  8   5   8  ar  
  9   6   9  1   
 10   6  10  1   
 11   7   8  ar  
 12   8  11  1   
 13   9  25  1   
 14   9  26  1   
 15   9  27  1   
 16  10  28  1   
 17  10  29  1   
 18  10  30  1   
 19  11  12  1   
 20  11  31  1   
 21  12  13  1   
 22  12  32  1   
 23  12  33  1   
 24  13  14  2   
 25  13  15  1   
 26  14  16  1   
 27  15  17  1   
 28  15  18  1   
 29  16  17  2   
 30  17  34  1   
 31  18  19  1   
 32  18  20  1   
 33  18  35  1   
 34  19  21  1   
 35  19  36  1   
 36  19  37  1   
 37  20  22  1   
 38  20  38  1   
 39  20  39  1   
 40  21  23  1   
 41  21  40  1   
 42  21  41  1   
 43  22  23  1   
 44  22  42  1   
 45  22  43  1   
 46  23  44  1   
 47  23  45  1   
@<TRIPOS>SUBSTRUCTURE
  1 ****  12 GROUP 4 **** **** 0

# MOE 2024.06 (io_trps.svl 2023.06)
