@<TRIPOS>MOLECULE
NONAME
51 53 1 0 0 
SMALL
USER_CHARGES


@<TRIPOS>ATOM
  1 O        0.7980     1.6000    -0.8690 O.3   1 <1>  -0.0190 
  2 N        1.6240     0.6920    -1.2920 N.2   1 <1>  -0.4100 
  3 C        0.9260     1.8140     0.4130 C.2   1 <1>  -0.0400 
  4 C        2.2780     0.2930    -0.2610 C.2   1 <1>   0.1080 
  5 C        1.8740     0.9870     0.8770 C.2   1 <1>  -0.1500 
  6 C        0.0810     2.8770     1.0880 C.3   1 <1>   0.0200 
  7 C        3.3400    -0.7850    -0.2910 C.3   1 <1>  -0.0590 
  8 C        0.0860     4.1720     0.2490 C.3   1 <1>  -0.0800 
  9 C       -0.5010     5.4150     0.9100 C.3   1 <1>   0.2000 
 10 C        1.4780     4.6190    -0.1940 C.3   1 <1>   0.3430 
 11 O       -0.0410     5.5350     2.2170 O.3   1 <1>  -0.6800 
 12 C        0.0640     6.5660     0.0700 C.3   1 <1>   0.3430 
 13 N        1.3600     6.0750    -0.5260 N.4   1 <1>  -0.9590 
 14 C        2.5660     6.8440    -0.0700 C.3   1 <1>   0.3430 
 15 C        2.5770     8.2870    -0.5820 C.3   1 <1>   0.1200 
 16 O        3.7230     8.9000    -0.0490 O.3   1 <1>  -0.3630 
 17 C        4.0280    10.2030    -0.2980 C.ar  1 <1>   0.0830 
 18 C        5.1640    10.7400     0.3110 C.ar  1 <1>  -0.1430 
 19 C        3.2490    10.9970    -1.1370 C.ar  1 <1>  -0.1500 
 20 C        5.5140    12.0660     0.0620 C.ar  1 <1>  -0.1430 
 21 C        6.0320     9.8890     1.2400 C.3   1 <1>  -0.0970 
 22 C        3.5980    12.3110    -1.3710 C.ar  1 <1>  -0.1500 
 23 C        4.7250    12.8410    -0.7740 C.ar  1 <1>  -0.1500 
 24 C        6.7500    12.7060     0.6810 C.3   1 <1>  -0.0970 
 25 H        2.2600     0.8560     1.8720 H     1 <1>   0.1500 
 26 H       -0.9290     2.5160     1.1860 H     1 <1>   0.0800 
 27 H        0.4680     3.0430     2.0780 H     1 <1>   0.0800 
 28 H        4.2630    -0.4060     0.1060 H     1 <1>   0.0800 
 29 H        3.5040    -1.1110    -1.3030 H     1 <1>   0.0800 
 30 H        3.0210    -1.6270     0.2950 H     1 <1>   0.0800 
 31 H       -0.4790     3.9770    -0.6470 H     1 <1>   0.0800 
 32 H       -1.5790     5.4150     0.9340 H     1 <1>   0.0800 
 33 H        1.8200     4.0420    -1.0400 H     1 <1>   0.0800 
 34 H        2.1690     4.4810     0.6220 H     1 <1>   0.0800 
 35 H        0.9310     5.4960     2.2920 H     1 <1>   0.4000 
 36 H        0.1980     7.4450     0.6790 H     1 <1>   0.0800 
 37 H       -0.6300     6.7920    -0.7230 H     1 <1>   0.0800 
 38 H        1.2950     6.1490    -1.5520 H     1 <1>   0.4500 
 39 H        2.5970     6.8620     1.0070 H     1 <1>   0.0800 
 40 H        3.4580     6.3560    -0.4280 H     1 <1>   0.0800 
 41 H        1.7200     8.8350    -0.2350 H     1 <1>   0.0800 
 42 H        2.6520     8.3150    -1.6550 H     1 <1>   0.0800 
 43 H        2.3700    10.6230    -1.6220 H     1 <1>   0.1500 
 44 H        6.2980    10.4450     2.1200 H     1 <1>   0.0800 
 45 H        6.9300     9.5970     0.7270 H     1 <1>   0.0800 
 46 H        5.5260     9.0020     1.5690 H     1 <1>   0.0800 
 47 H        2.9970    12.9270    -2.0170 H     1 <1>   0.1500 
 48 H        4.9860    13.8670    -0.9680 H     1 <1>   0.1500 
 49 H        6.9380    13.6750     0.2550 H     1 <1>   0.0800 
 50 H        7.6150    12.0930     0.5040 H     1 <1>   0.0800 
 51 H        6.6100    12.8230     1.7400 H     1 <1>   0.0800 
@<TRIPOS>BOND
  1   1   2  1   
  2   1   3  1   
  3   2   4  2   
  4   3   5  2   
  5   3   6  1   
  6   4   5  1   
  7   4   7  1   
  8   5  25  1   
  9   6   8  1   
 10   6  26  1   
 11   6  27  1   
 12   7  28  1   
 13   7  29  1   
 14   7  30  1   
 15   8   9  1   
 16   8  10  1   
 17   8  31  1   
 18   9  11  1   
 19   9  12  1   
 20   9  32  1   
 21  10  13  1   
 22  10  33  1   
 23  10  34  1   
 24  11  35  1   
 25  12  13  1   
 26  12  36  1   
 27  12  37  1   
 28  13  14  1   
 29  13  38  1   
 30  14  15  1   
 31  14  39  1   
 32  14  40  1   
 33  15  16  1   
 34  15  41  1   
 35  15  42  1   
 36  16  17  1   
 37  17  18  ar  
 38  17  19  ar  
 39  18  20  ar  
 40  18  21  1   
 41  19  22  ar  
 42  19  43  1   
 43  20  23  ar  
 44  20  24  1   
 45  21  44  1   
 46  21  45  1   
 47  21  46  1   
 48  22  23  ar  
 49  22  47  1   
 50  23  48  1   
 51  24  49  1   
 52  24  50  1   
 53  24  51  1   
@<TRIPOS>SUBSTRUCTURE
  1 ****  14 GROUP 4 **** **** 0

# MOE 2024.06 (io_trps.svl 2023.06)
