@<TRIPOS>MOLECULE
NONAME
54 57 1 0 0 
SMALL
USER_CHARGES


@<TRIPOS>ATOM
  1 S       -0.5130    -0.4490    -0.0330 S.3   1 <1>  -0.0800 
  2 C       -0.1970     1.2840     0.0720 C.2   1 <1>   0.0410 
  3 C       -2.1240    -0.2820     0.6360 C.2   1 <1>  -0.1400 
  4 C        1.0770     1.7870    -0.3760 C.2   1 <1>   0.2880 
  5 C       -1.2920     1.8880     0.5980 C.2   1 <1>  -0.1500 
  6 C       -2.3740     1.0140     0.9150 C.2   1 <1>  -0.1500 
  7 C       -2.8900    -1.5830     0.7640 C.3   1 <1>   0.5230 
  8 N        2.0270     1.0490    -0.8980 N.2   1 <1>  -0.7070 
  9 C        1.4740     3.1280    -0.3200 C.2   1 <1>  -0.1500 
 10 N       -4.3300    -1.3070     1.0150 N.4   1 <1>  -0.9590 
 11 N        3.0280     1.9000    -1.1750 N.pl3 1 <1>   0.3000 
 12 C        2.7180     3.1650    -0.8350 C.2   1 <1>  -0.3020 
 13 C       -5.0020    -2.5470     1.5480 C.3   1 <1>   0.3430 
 14 C       -4.9520    -0.7380    -0.2280 C.3   1 <1>   0.3430 
 15 C       -6.5200    -2.4140     1.8010 C.3   1 <1>   0.1400 
 16 C       -6.1810     0.0980     0.1340 C.3   1 <1>  -0.1600 
 17 N       -7.2340    -2.1410     0.5240 N.am  1 <1>  -0.6600 
 18 C       -7.4830    -0.7070     0.2120 C.3   1 <1>   0.1400 
 19 C       -7.3940    -3.0890    -0.4530 C.2   1 <1>   0.5690 
 20 O       -7.2680    -2.7950    -1.6160 O.2   1 <1>  -0.5700 
 21 C       -7.6640    -4.5400    -0.0860 C.3   1 <1>  -0.0990 
 22 C       -8.5320    -5.2640    -1.1270 C.3   1 <1>  -0.0170 
 23 C       -8.8050    -6.6920    -0.6810 C.ar  1 <1>  -0.1430 
 24 C       -9.9240    -6.9990     0.0810 C.ar  1 <1>   0.1600 
 25 C       -7.9380    -7.7100    -1.0250 C.ar  1 <1>  -0.1500 
 26 N      -10.2340    -8.2060     0.5240 N.ar  1 <1>  -0.6200 
 27 C       -8.2480    -8.9760    -0.5760 C.ar  1 <1>  -0.1500 
 28 C       -9.3900    -9.1660     0.1840 C.ar  1 <1>   0.1600 
 29 H       -1.3690     2.9470     0.7740 H     1 <1>   0.1500 
 30 H       -3.2750     1.4220     1.3380 H     1 <1>   0.1500 
 31 H       -2.4680    -2.1510     1.5770 H     1 <1>   0.0800 
 32 H       -2.7780    -2.1560    -0.1430 H     1 <1>   0.0800 
 33 H        0.8830     3.9400     0.0630 H     1 <1>   0.1500 
 34 H       -4.3530    -0.5750     1.7330 H     1 <1>   0.4500 
 35 H        3.9120     1.5870    -1.5970 H     1 <1>   0.2700 
 36 H        3.3850     3.9950    -0.9760 H     1 <1>   0.1500 
 37 H       -4.5310    -2.8280     2.4760 H     1 <1>   0.0800 
 38 H       -4.8530    -3.3580     0.8540 H     1 <1>   0.0800 
 39 H       -5.2210    -1.5210    -0.9210 H     1 <1>   0.0800 
 40 H       -4.2420    -0.0920    -0.7210 H     1 <1>   0.0800 
 41 H       -6.7120    -1.6280     2.5110 H     1 <1>   0.0800 
 42 H       -6.8860    -3.3300     2.2310 H     1 <1>   0.0800 
 43 H       -6.3170     0.8400    -0.6340 H     1 <1>   0.0800 
 44 H       -6.0200     0.6350     1.0510 H     1 <1>   0.0800 
 45 H       -7.9960    -0.6360    -0.7350 H     1 <1>   0.0800 
 46 H       -8.1380    -0.2840     0.9550 H     1 <1>   0.0800 
 47 H       -8.1740    -4.5780     0.8580 H     1 <1>   0.0800 
 48 H       -6.7270    -5.0540     0.0090 H     1 <1>   0.0800 
 49 H       -8.0320    -5.2740    -2.0810 H     1 <1>   0.0800 
 50 H       -9.4620    -4.7370    -1.2560 H     1 <1>   0.0800 
 51 H      -10.6050    -6.2070     0.3430 H     1 <1>   0.1500 
 52 H       -7.0590    -7.5320    -1.6190 H     1 <1>   0.1500 
 53 H       -7.6130    -9.8100    -0.8120 H     1 <1>   0.1500 
 54 H       -9.6210   -10.1590     0.5290 H     1 <1>   0.1500 
@<TRIPOS>BOND
  1   1   2  1   
  2   1   3  1   
  3   2   4  1   
  4   2   5  2   
  5   3   6  2   
  6   3   7  1   
  7   4   8  2   
  8   4   9  1   
  9   5   6  1   
 10   5  29  1   
 11   6  30  1   
 12   7  10  1   
 13   7  31  1   
 14   7  32  1   
 15   8  11  1   
 16   9  12  2   
 17   9  33  1   
 18  10  13  1   
 19  10  14  1   
 20  10  34  1   
 21  11  12  1   
 22  11  35  1   
 23  12  36  1   
 24  13  15  1   
 25  13  37  1   
 26  13  38  1   
 27  14  16  1   
 28  14  39  1   
 29  14  40  1   
 30  15  17  1   
 31  15  41  1   
 32  15  42  1   
 33  16  18  1   
 34  16  43  1   
 35  16  44  1   
 36  17  18  1   
 37  17  19  am  
 38  18  45  1   
 39  18  46  1   
 40  19  20  2   
 41  19  21  1   
 42  21  22  1   
 43  21  47  1   
 44  21  48  1   
 45  22  23  1   
 46  22  49  1   
 47  22  50  1   
 48  23  24  ar  
 49  23  25  ar  
 50  24  26  ar  
 51  24  51  1   
 52  25  27  ar  
 53  25  52  1   
 54  26  28  ar  
 55  27  28  ar  
 56  27  53  1   
 57  28  54  1   
@<TRIPOS>SUBSTRUCTURE
  1 ****  10 GROUP 4 **** **** 0

# MOE 2024.06 (io_trps.svl 2023.06)
