@<TRIPOS>MOLECULE
NONAME
47 49 1 0 0 
SMALL
USER_CHARGES


@<TRIPOS>ATOM
  1 O       -2.4440    -0.0490     1.7470 O.2   1 <1>  -0.5700 
  2 C       -2.0130    -0.7890     0.8900 C.2   1 <1>   0.7800 
  3 O       -1.0300    -0.4320     0.0790 O.3   1 <1>  -0.4300 
  4 N       -2.4670    -2.0280     0.6100 N.am  1 <1>  -0.6600 
  5 C       -0.7600    -1.4520    -0.8660 C.3   1 <1>   0.1200 
  6 C       -1.7640    -2.5700    -0.5530 C.3   1 <1>   0.1400 
  7 C       -3.6810    -2.6840     1.1840 C.3   1 <1>   0.2010 
  8 C       -4.7850    -2.9210     0.1490 C.2   1 <1>   0.5690 
  9 O       -4.8530    -4.0340    -0.3250 O.2   1 <1>  -0.5700 
 10 N       -5.6450    -1.9180    -0.2360 N.am  1 <1>  -0.6600 
 11 C       -5.5590    -0.4980     0.2060 C.3   1 <1>   0.1400 
 12 C       -6.7470    -2.1650    -1.2060 C.3   1 <1>   0.1400 
 13 C       -6.8870    -0.0760     0.8360 C.3   1 <1>  -0.1600 
 14 C       -8.0810    -1.7500    -0.5800 C.3   1 <1>  -0.1600 
 15 C       -8.0810    -0.2760    -0.1200 C.3   1 <1>   0.2800 
 16 O       -7.8530     0.4950    -1.2830 O.3   1 <1>  -0.5600 
 17 C       -9.4120     0.1730     0.5640 C.3   1 <1>   0.2000 
 18 C       -8.1910     1.8500    -1.2330 C.3   1 <1>   0.1200 
 19 O      -10.0380    -0.8470     1.2850 O.3   1 <1>  -0.6800 
 20 C      -10.4040     0.8380    -0.4280 C.3   1 <1>   0.2800 
 21 C       -9.7170     2.0170    -1.1400 C.3   1 <1>  -0.1600 
 22 O      -11.4640     1.3420     0.3080 O.3   1 <1>  -0.6800 
 23 C      -11.0350    -0.1230    -1.4470 C.3   1 <1>  -0.2400 
 24 H       -0.9010    -1.0550    -1.8560 H     1 <1>   0.0800 
 25 H        0.2550    -1.7820    -0.7370 H     1 <1>   0.0800 
 26 H       -1.2650    -3.4910    -0.3070 H     1 <1>   0.0800 
 27 H       -2.4410    -2.7260    -1.3760 H     1 <1>   0.0800 
 28 H       -3.3940    -3.6350     1.5940 H     1 <1>   0.0800 
 29 H       -4.0700    -2.0910     1.9920 H     1 <1>   0.0800 
 30 H       -4.7720    -0.3530     0.9200 H     1 <1>   0.0800 
 31 H       -5.3460     0.1210    -0.6490 H     1 <1>   0.0800 
 32 H       -6.5650    -1.5930    -2.1000 H     1 <1>   0.0800 
 33 H       -6.7890    -3.2060    -1.4790 H     1 <1>   0.0800 
 34 H       -6.8200     0.9480     1.1500 H     1 <1>   0.0800 
 35 H       -7.0470    -0.6660     1.7220 H     1 <1>   0.0800 
 36 H       -8.2640    -2.3930     0.2610 H     1 <1>   0.0800 
 37 H       -8.8690    -1.9230    -1.2850 H     1 <1>   0.0800 
 38 H       -9.1590     0.9250     1.2900 H     1 <1>   0.0800 
 39 H       -7.7010     2.2980    -0.3850 H     1 <1>   0.0800 
 40 H       -7.8160     2.3170    -2.1270 H     1 <1>   0.0800 
 41 H      -10.9250    -0.5170     1.5380 H     1 <1>   0.4000 
 42 H      -10.1080     2.1300    -2.1350 H     1 <1>   0.0800 
 43 H       -9.9080     2.9360    -0.6140 H     1 <1>   0.0800 
 44 H      -12.1350     1.7070    -0.2990 H     1 <1>   0.4000 
 45 H      -10.2940    -0.4510    -2.1520 H     1 <1>   0.0800 
 46 H      -11.8150     0.3640    -2.0020 H     1 <1>   0.0800 
 47 H      -11.4390    -0.9890    -0.9550 H     1 <1>   0.0800 
@<TRIPOS>BOND
  1   1   2  2   
  2   2   3  1   
  3   2   4  am  
  4   3   5  1   
  5   4   6  1   
  6   4   7  1   
  7   5   6  1   
  8   5  24  1   
  9   5  25  1   
 10   6  26  1   
 11   6  27  1   
 12   7   8  1   
 13   7  28  1   
 14   7  29  1   
 15   8   9  2   
 16   8  10  am  
 17  10  11  1   
 18  10  12  1   
 19  11  13  1   
 20  11  30  1   
 21  11  31  1   
 22  12  14  1   
 23  12  32  1   
 24  12  33  1   
 25  13  15  1   
 26  13  34  1   
 27  13  35  1   
 28  14  15  1   
 29  14  36  1   
 30  14  37  1   
 31  15  16  1   
 32  15  17  1   
 33  16  18  1   
 34  17  19  1   
 35  17  20  1   
 36  17  38  1   
 37  18  21  1   
 38  18  39  1   
 39  18  40  1   
 40  19  41  1   
 41  20  21  1   
 42  20  22  1   
 43  20  23  1   
 44  21  42  1   
 45  21  43  1   
 46  22  44  1   
 47  23  45  1   
 48  23  46  1   
 49  23  47  1   
@<TRIPOS>SUBSTRUCTURE
  1 ****  11 GROUP 4 **** **** 0

# MOE 2024.06 (io_trps.svl 2023.06)
