@<TRIPOS>MOLECULE
NONAME
54 57 1 0 0 
SMALL
USER_CHARGES


@<TRIPOS>ATOM
  1 O       -3.6240     2.4340    -1.2430 O.2   1 <1>  -0.5700 
  2 C       -3.1030     1.5420    -0.6000 C.2   1 <1>   0.5440 
  3 N       -3.5680     0.2500    -0.7580 N.am  1 <1>  -0.6600 
  4 C       -2.0220     1.8640     0.3080 C.ar  1 <1>   0.0860 
  5 C       -2.9650    -0.9140    -0.0080 C.3   1 <1>   0.3640 
  6 C       -4.8200     0.0210    -1.5400 C.3   1 <1>   0.1400 
  7 C       -0.7190     2.0260    -0.1700 C.ar  1 <1>  -0.1500 
  8 C       -2.2440     1.9790     1.6860 C.ar  1 <1>  -0.1500 
  9 C       -1.4870    -1.0470    -0.3910 C.ar  1 <1>  -0.1430 
 10 C       -3.6590    -2.2980    -0.2070 C.3   1 <1>   0.2000 
 11 C       -5.0410    -1.4490    -1.8930 C.3   1 <1>   0.1200 
 12 C        0.3160     2.2370     0.7170 C.ar  1 <1>  -0.1440 
 13 C       -1.2030     2.2060     2.5710 C.ar  1 <1>  -0.1500 
 14 C       -0.5180    -1.1060     0.6010 C.ar  1 <1>  -0.1500 
 15 C       -1.0910    -1.0830    -1.7200 C.ar  1 <1>  -0.1500 
 16 O       -4.9540    -2.2130    -0.7350 O.3   1 <1>  -0.5600 
 17 C       -3.7810    -3.0860     1.1070 C.3   1 <1>   0.1200 
 18 C        0.0770     2.3190     2.0620 C.ar  1 <1>   0.0830 
 19 C        1.7890     2.3770     0.4800 C.3   1 <1>  -0.0170 
 20 C        0.8340    -1.1830     0.2800 C.ar  1 <1>   0.0830 
 21 C        0.2480    -1.1680    -2.0550 C.ar  1 <1>  -0.1500 
 22 O       -2.5480    -3.2240     1.7390 O.3   1 <1>  -0.6800 
 23 O        1.1940     2.4950     2.7790 O.3   1 <1>  -0.3630 
 24 C        2.3260     2.4780     1.9180 C.3   1 <1>   0.1200 
 25 O        1.8110    -1.2190     1.2330 O.3   1 <1>  -0.3630 
 26 C        1.2220    -1.2130    -1.0620 C.ar  1 <1>   0.0830 
 27 C        1.5030    -1.1470     2.6080 C.3   1 <1>   0.0400 
 28 O        2.5550    -1.2750    -1.3440 O.3   1 <1>  -0.3630 
 29 C        3.0290    -1.3900    -2.6670 C.3   1 <1>   0.0400 
 30 H       -3.0220    -0.6740     1.0400 H     1 <1>   0.0800 
 31 H       -5.6570     0.3730    -0.9630 H     1 <1>   0.0800 
 32 H       -4.7860     0.5970    -2.4490 H     1 <1>   0.0800 
 33 H       -0.5290     1.9560    -1.2260 H     1 <1>   0.1500 
 34 H       -3.2490     1.8820     2.0580 H     1 <1>   0.1500 
 35 H       -3.0850    -2.8870    -0.9000 H     1 <1>   0.0800 
 36 H       -4.3130    -1.7940    -2.6070 H     1 <1>   0.0800 
 37 H       -6.0260    -1.5850    -2.3060 H     1 <1>   0.0800 
 38 H       -1.3660     2.2900     3.6300 H     1 <1>   0.1500 
 39 H       -0.8350    -1.0760     1.6260 H     1 <1>   0.1500 
 40 H       -1.8290    -1.0310    -2.5020 H     1 <1>   0.1500 
 41 H       -4.1730    -4.0710     0.9180 H     1 <1>   0.0800 
 42 H       -4.4360    -2.5670     1.7860 H     1 <1>   0.0800 
 43 H        2.0100     3.2680    -0.0800 H     1 <1>   0.0800 
 44 H        2.1910     1.5160    -0.0230 H     1 <1>   0.0800 
 45 H        0.5110    -1.1890    -3.0950 H     1 <1>   0.1500 
 46 H       -1.9350    -3.7660     1.2010 H     1 <1>   0.4000 
 47 H        2.8860     3.3830     2.0740 H     1 <1>   0.0800 
 48 H        2.9230     1.6190     2.1690 H     1 <1>   0.0800 
 49 H        2.4260    -1.1650     3.1580 H     1 <1>   0.0800 
 50 H        0.9010    -1.9970     2.8760 H     1 <1>   0.0800 
 51 H        0.9800    -0.2280     2.8040 H     1 <1>   0.0800 
 52 H        4.1010    -1.4560    -2.6310 H     1 <1>   0.0800 
 53 H        2.7360    -0.5160    -3.2200 H     1 <1>   0.0800 
 54 H        2.6230    -2.2830    -3.1070 H     1 <1>   0.0800 
@<TRIPOS>BOND
  1   1   2  2   
  2   2   3  am  
  3   2   4  1   
  4   3   5  1   
  5   3   6  1   
  6   4   7  ar  
  7   4   8  ar  
  8   5   9  1   
  9   5  10  1   
 10   5  30  1   
 11   6  11  1   
 12   6  31  1   
 13   6  32  1   
 14   7  12  ar  
 15   7  33  1   
 16   8  13  ar  
 17   8  34  1   
 18   9  14  ar  
 19   9  15  ar  
 20  10  16  1   
 21  10  17  1   
 22  10  35  1   
 23  11  16  1   
 24  11  36  1   
 25  11  37  1   
 26  12  18  ar  
 27  12  19  1   
 28  13  18  ar  
 29  13  38  1   
 30  14  20  ar  
 31  14  39  1   
 32  15  21  ar  
 33  15  40  1   
 34  17  22  1   
 35  17  41  1   
 36  17  42  1   
 37  18  23  1   
 38  19  24  1   
 39  19  43  1   
 40  19  44  1   
 41  20  25  1   
 42  20  26  ar  
 43  21  26  ar  
 44  21  45  1   
 45  22  46  1   
 46  23  24  1   
 47  24  47  1   
 48  24  48  1   
 49  25  27  1   
 50  26  28  1   
 51  27  49  1   
 52  27  50  1   
 53  27  51  1   
 54  28  29  1   
 55  29  52  1   
 56  29  53  1   
 57  29  54  1   
@<TRIPOS>SUBSTRUCTURE
  1 ****   9 GROUP 4 **** **** 0

# MOE 2024.06 (io_trps.svl 2023.06)
