@<TRIPOS>MOLECULE
NONAME
51 54 1 0 0 
SMALL
USER_CHARGES


@<TRIPOS>ATOM
  1 O        1.0500     1.2050     0.1390 O.3   1 <1>  -0.6800 
  2 C        0.6580     2.4350     0.6250 C.3   1 <1>   0.2000 
  3 C       -0.5660     2.9070    -0.1580 C.3   1 <1>  -0.1600 
  4 C        1.8260     3.4060     0.4650 C.3   1 <1>  -0.1600 
  5 C       -0.9660     4.3170     0.2780 C.3   1 <1>   0.2090 
  6 C        1.4140     4.8110     0.9020 C.3   1 <1>   0.2090 
  7 N        0.2000     5.2320     0.1540 N.pl3 1 <1>  -0.8380 
  8 C       -0.0190     6.5830    -0.0330 C.ar  1 <1>   0.4100 
  9 N       -1.1260     7.1040     0.4670 N.ar  1 <1>  -0.6200 
 10 C        0.8880     7.3650    -0.7070 C.ar  1 <1>  -0.1500 
 11 C       -1.2730     8.4010     0.2790 C.ar  1 <1>   0.4700 
 12 C        0.6290     8.7060    -0.8330 C.ar  1 <1>   0.4100 
 13 N       -0.4660     9.2450    -0.3330 N.ar  1 <1>  -0.6200 
 14 N        1.5040     9.5290    -1.4880 N.pl3 1 <1>  -0.8690 
 15 C        1.6880    10.9380    -1.0850 C.3   1 <1>   0.3900 
 16 C        3.1810    11.2740    -1.0860 C.2   1 <1>   0.1080 
 17 N        4.1240    10.3860    -1.2550 N.2   1 <1>  -0.7070 
 18 C        3.7050    12.5560    -0.9070 C.2   1 <1>  -0.1810 
 19 N        5.2690    11.0870    -1.1870 N.pl3 1 <1>   0.3000 
 20 C        5.0420    12.3990    -0.9780 C.2   1 <1>  -0.3320 
 21 C        2.9520    13.8560    -0.6850 C.3   1 <1>   0.0210 
 22 C        6.1350    13.4440    -0.8580 C.3   1 <1>   0.0200 
 23 C        3.4310    14.5870     0.5760 C.3   1 <1>  -0.1600 
 24 C        5.9990    14.2590     0.4340 C.3   1 <1>  -0.1600 
 25 C        4.8160    15.2440     0.4420 C.3   1 <1>  -0.1600 
 26 H        0.3100     0.5720     0.1790 H     1 <1>   0.4000 
 27 H        0.4130     2.3190     1.6680 H     1 <1>   0.0800 
 28 H       -1.3930     2.2420     0.0080 H     1 <1>   0.0800 
 29 H       -0.3420     2.9280    -1.2100 H     1 <1>   0.0800 
 30 H        2.1350     3.4400    -0.5650 H     1 <1>   0.0800 
 31 H        2.6550     3.0760     1.0630 H     1 <1>   0.0800 
 32 H       -1.3040     4.3130     1.3000 H     1 <1>   0.0800 
 33 H       -1.7720     4.6720    -0.3430 H     1 <1>   0.0800 
 34 H        2.2220     5.4990     0.7210 H     1 <1>   0.0800 
 35 H        1.1950     4.8200     1.9560 H     1 <1>   0.0800 
 36 H        1.7720     6.9350    -1.1290 H     1 <1>   0.1500 
 37 H       -2.1750     8.8290     0.6820 H     1 <1>   0.1500 
 38 H        2.4510     9.1550    -1.6420 H     1 <1>   0.4000 
 39 H        1.2920    11.1010    -0.0980 H     1 <1>   0.0800 
 40 H        1.1690    11.5730    -1.7800 H     1 <1>   0.0800 
 41 H        6.1880    10.6410    -1.2860 H     1 <1>   0.2700 
 42 H        1.9030    13.6490    -0.5810 H     1 <1>   0.0800 
 43 H        3.0750    14.4880    -1.5460 H     1 <1>   0.0800 
 44 H        6.1020    14.0980    -1.7120 H     1 <1>   0.0800 
 45 H        7.0940    12.9560    -0.8570 H     1 <1>   0.0800 
 46 H        3.4280    13.9050     1.4090 H     1 <1>   0.0800 
 47 H        2.7180    15.3630     0.7960 H     1 <1>   0.0800 
 48 H        6.9030    14.8280     0.5600 H     1 <1>   0.0800 
 49 H        5.9210    13.5900     1.2730 H     1 <1>   0.0800 
 50 H        4.9470    15.8990     1.2860 H     1 <1>   0.0800 
 51 H        4.8460    15.8590    -0.4410 H     1 <1>   0.0800 
@<TRIPOS>BOND
  1   1   2  1   
  2   1  26  1   
  3   2   3  1   
  4   2   4  1   
  5   2  27  1   
  6   3   5  1   
  7   3  28  1   
  8   3  29  1   
  9   4   6  1   
 10   4  30  1   
 11   4  31  1   
 12   5   7  1   
 13   5  32  1   
 14   5  33  1   
 15   6   7  1   
 16   6  34  1   
 17   6  35  1   
 18   7   8  1   
 19   8   9  ar  
 20   8  10  ar  
 21   9  11  ar  
 22  10  12  ar  
 23  10  36  1   
 24  11  13  ar  
 25  11  37  1   
 26  12  13  ar  
 27  12  14  1   
 28  14  15  1   
 29  14  38  1   
 30  15  16  1   
 31  15  39  1   
 32  15  40  1   
 33  16  17  2   
 34  16  18  1   
 35  17  19  1   
 36  18  20  2   
 37  18  21  1   
 38  19  20  1   
 39  19  41  1   
 40  20  22  1   
 41  21  23  1   
 42  21  42  1   
 43  21  43  1   
 44  22  24  1   
 45  22  44  1   
 46  22  45  1   
 47  23  25  1   
 48  23  46  1   
 49  23  47  1   
 50  24  25  1   
 51  24  48  1   
 52  24  49  1   
 53  25  50  1   
 54  25  51  1   
@<TRIPOS>SUBSTRUCTURE
  1 ****  14 GROUP 4 **** **** 0

# MOE 2024.06 (io_trps.svl 2023.06)
