@<TRIPOS>MOLECULE
NONAME
57 59 1 0 0 
SMALL
USER_CHARGES


@<TRIPOS>ATOM
  1 O        0.9570    -0.0770    -1.0880 O.2   1 <1>  -0.5700 
  2 C        1.8800    -0.4380    -0.3810 C.2   1 <1>   0.7150 
  3 N        2.6060     0.5410     0.2870 N.am  1 <1>  -0.6600 
  4 C        2.1750    -1.8540    -0.2780 C.2   1 <1>   0.0550 
  5 C        3.5550     0.2250     1.3970 C.3   1 <1>   0.1400 
  6 C        2.2930     1.9870     0.0870 C.3   1 <1>   0.1400 
  7 O        3.4210    -2.2980    -0.1380 O.3   1 <1>  -0.2800 
  8 C        1.3450    -2.9180    -0.3190 C.2   1 <1>   0.0460 
  9 C        5.0050     0.1470     0.8810 C.3   1 <1>   0.3430 
 10 C        3.5500     2.8620     0.0390 C.3   1 <1>  -0.1600 
 11 C        3.2490    -3.6060    -0.1070 C.2   1 <1>   0.2980 
 12 N        2.0470    -4.0360    -0.2010 N.2   1 <1>  -0.5650 
 13 C       -0.1620    -2.9990    -0.4700 C.3   1 <1>  -0.0590 
 14 N        5.5510     1.4540     0.3970 N.4   1 <1>  -0.9590 
 15 C        4.7470     2.1810    -0.6250 C.3   1 <1>   0.3430 
 16 C        4.4940    -4.4710     0.0360 C.3   1 <1>   0.0200 
 17 C        6.9710     1.3460    -0.0260 C.3   1 <1>   0.5230 
 18 C        4.2050    -5.9790     0.0710 C.3   1 <1>  -0.2400 
 19 C        7.6500     2.6470     0.3810 C.2   1 <1>   0.0060 
 20 N        7.1490     3.4480     1.2750 N.2   1 <1>  -0.5650 
 21 N        8.8270     3.0780    -0.1420 N.pl3 1 <1>   0.0480 
 22 C        8.0420     4.4510     1.3440 C.2   1 <1>   0.0770 
 23 C        9.0650     4.2430     0.4890 C.2   1 <1>  -0.3020 
 24 C        9.6930     2.4910    -1.1930 C.3   1 <1>   0.0960 
 25 C       10.4530     1.2590    -0.6930 C.3   1 <1>   0.1200 
 26 O        9.5500     0.2300    -0.4200 O.3   1 <1>  -0.5600 
 27 C       10.1700    -0.9400     0.0190 C.3   1 <1>   0.0400 
 28 H        3.2890    -0.7180     1.8410 H     1 <1>   0.0800 
 29 H        3.4790     0.9670     2.1720 H     1 <1>   0.0800 
 30 H        1.6400     2.3240     0.8750 H     1 <1>   0.0800 
 31 H        1.7630     2.1170    -0.8430 H     1 <1>   0.0800 
 32 H        5.0440    -0.5770     0.0840 H     1 <1>   0.0800 
 33 H        5.6280    -0.2160     1.6820 H     1 <1>   0.0800 
 34 H        3.8090     3.2060     1.0250 H     1 <1>   0.0800 
 35 H        3.3030     3.7390    -0.5320 H     1 <1>   0.0800 
 36 H       -0.6060    -2.0210    -0.4920 H     1 <1>   0.0800 
 37 H       -0.5780    -3.5490     0.3540 H     1 <1>   0.0800 
 38 H       -0.4040    -3.5110    -1.3830 H     1 <1>   0.0800 
 39 H        5.6460     2.1150     1.1920 H     1 <1>   0.4500 
 40 H        5.3610     2.9480    -1.0700 H     1 <1>   0.0800 
 41 H        4.4170     1.5110    -1.4030 H     1 <1>   0.0800 
 42 H        5.0000    -4.1910     0.9420 H     1 <1>   0.0800 
 43 H        5.1480    -4.2600    -0.7910 H     1 <1>   0.0800 
 44 H        7.0500     1.1830    -1.0870 H     1 <1>   0.0800 
 45 H        7.4540     0.5330     0.4890 H     1 <1>   0.0800 
 46 H        3.5630    -6.2150     0.9010 H     1 <1>   0.0800 
 47 H        5.1210    -6.5340     0.1720 H     1 <1>   0.0800 
 48 H        3.7140    -6.2830    -0.8370 H     1 <1>   0.0800 
 49 H        7.9050     5.2850     2.0150 H     1 <1>   0.1500 
 50 H        9.9300     4.8560     0.3070 H     1 <1>   0.1500 
 51 H       10.4040     3.2370    -1.4990 H     1 <1>   0.0800 
 52 H        9.0980     2.2320    -2.0490 H     1 <1>   0.0800 
 53 H       11.0040     1.4960     0.2030 H     1 <1>   0.0800 
 54 H       11.1360     0.9200    -1.4530 H     1 <1>   0.0800 
 55 H        9.4120    -1.6800     0.2020 H     1 <1>   0.0800 
 56 H       10.7090    -0.7400     0.9300 H     1 <1>   0.0800 
 57 H       10.8430    -1.2960    -0.7440 H     1 <1>   0.0800 
@<TRIPOS>BOND
  1   1   2  2   
  2   2   3  am  
  3   2   4  1   
  4   3   5  1   
  5   3   6  1   
  6   4   7  1   
  7   4   8  2   
  8   5   9  1   
  9   5  28  1   
 10   5  29  1   
 11   6  10  1   
 12   6  30  1   
 13   6  31  1   
 14   7  11  1   
 15   8  12  1   
 16   8  13  1   
 17   9  14  1   
 18   9  32  1   
 19   9  33  1   
 20  10  15  1   
 21  10  34  1   
 22  10  35  1   
 23  11  12  2   
 24  11  16  1   
 25  13  36  1   
 26  13  37  1   
 27  13  38  1   
 28  14  15  1   
 29  14  17  1   
 30  14  39  1   
 31  15  40  1   
 32  15  41  1   
 33  16  18  1   
 34  16  42  1   
 35  16  43  1   
 36  17  19  1   
 37  17  44  1   
 38  17  45  1   
 39  18  46  1   
 40  18  47  1   
 41  18  48  1   
 42  19  20  2   
 43  19  21  1   
 44  20  22  1   
 45  21  23  1   
 46  21  24  1   
 47  22  23  2   
 48  22  49  1   
 49  23  50  1   
 50  24  25  1   
 51  24  51  1   
 52  24  52  1   
 53  25  26  1   
 54  25  53  1   
 55  25  54  1   
 56  26  27  1   
 57  27  55  1   
 58  27  56  1   
 59  27  57  1   
@<TRIPOS>SUBSTRUCTURE
  1 ****   9 GROUP 4 **** **** 0

# MOE 2024.06 (io_trps.svl 2023.06)
