@<TRIPOS>MOLECULE
NONAME
46 48 1 0 0 
SMALL
USER_CHARGES


@<TRIPOS>ATOM
  1 S        2.6410    -1.0220    -0.1790 S.3   1 <1>  -0.0800 
  2 C        2.3230     0.6160     0.3690 C.2   1 <1>  -0.1400 
  3 C        2.6300    -0.5080    -1.8570 C.2   1 <1>  -0.1100 
  4 C        2.2180     1.4530    -0.6800 C.2   1 <1>  -0.1500 
  5 C        2.2240     0.8510     1.8690 C.3   1 <1>   0.0810 
  6 C        2.3940     0.8140    -1.9480 C.2   1 <1>  -0.1500 
  7 C        2.9230     2.1350     2.2910 C.2   1 <1>   0.5690 
  8 O        2.2260     3.0500     2.6640 O.2   1 <1>  -0.5700 
  9 N        4.2920     2.2540     2.2440 N.am  1 <1>  -0.6600 
 10 C        5.2440     1.2030     1.7520 C.3   1 <1>   0.1400 
 11 C        4.9570     3.5230     2.6470 C.3   1 <1>   0.1400 
 12 C        5.7690     1.4890     0.3350 C.3   1 <1>   0.1400 
 13 C        4.9840     4.5290     1.4890 C.3   1 <1>  -0.1600 
 14 N        6.3480     2.8640     0.2080 N.am  1 <1>  -0.6600 
 15 C        5.3220     3.9410     0.1110 C.3   1 <1>   0.1400 
 16 C        7.7040     3.0620     0.2310 C.2   1 <1>   0.5690 
 17 O        8.4690     2.1460     0.4250 O.2   1 <1>  -0.5700 
 18 C        8.2730     4.4580     0.0230 C.3   1 <1>  -0.0990 
 19 C        9.8070     4.5050     0.0190 C.3   1 <1>   0.0210 
 20 C       10.2880     5.9270    -0.2000 C.2   1 <1>  -0.1810 
 21 C       10.2720     6.9640     0.7290 C.2   1 <1>   0.1390 
 22 C       10.8190     6.4750    -1.3140 C.2   1 <1>  -0.3020 
 23 N       10.7450     8.0690     0.2410 N.2   1 <1>  -0.7070 
 24 N       11.0870     7.7630    -1.0250 N.pl3 1 <1>   0.3000 
 25 H        2.8000    -1.2600    -2.6070 H     1 <1>   0.1500 
 26 H        2.0200     2.5100    -0.6160 H     1 <1>   0.1500 
 27 H        2.6530     0.0290     2.4080 H     1 <1>   0.0800 
 28 H        1.1860     0.9090     2.1420 H     1 <1>   0.0800 
 29 H        2.3330     1.3760    -2.8630 H     1 <1>   0.1500 
 30 H        4.7770     0.2360     1.7550 H     1 <1>   0.0800 
 31 H        6.0850     1.1450     2.4220 H     1 <1>   0.0800 
 32 H        5.9640     3.3130     2.9630 H     1 <1>   0.0800 
 33 H        4.4370     3.9540     3.4870 H     1 <1>   0.0800 
 34 H        4.9720     1.3680    -0.3750 H     1 <1>   0.0800 
 35 H        6.5160     0.7540     0.0910 H     1 <1>   0.0800 
 36 H        5.6880     5.3030     1.7290 H     1 <1>   0.0800 
 37 H        4.0190     5.0010     1.4260 H     1 <1>   0.0800 
 38 H        5.6550     4.7210    -0.5500 H     1 <1>   0.0800 
 39 H        4.4250     3.5270    -0.3160 H     1 <1>   0.0800 
 40 H        7.9090     5.0960     0.8040 H     1 <1>   0.0800 
 41 H        7.9210     4.8350    -0.9190 H     1 <1>   0.0800 
 42 H       10.1870     3.8730    -0.7650 H     1 <1>   0.0800 
 43 H       10.1910     4.1370     0.9560 H     1 <1>   0.0800 
 44 H        9.9110     6.8720     1.7400 H     1 <1>   0.1500 
 45 H       11.0170     6.0310    -2.2720 H     1 <1>   0.1500 
 46 H       11.5000     8.4550    -1.6620 H     1 <1>   0.2700 
@<TRIPOS>BOND
  1   1   2  1   
  2   1   3  1   
  3   2   4  2   
  4   2   5  1   
  5   3   6  2   
  6   3  25  1   
  7   4   6  1   
  8   4  26  1   
  9   5   7  1   
 10   5  27  1   
 11   5  28  1   
 12   6  29  1   
 13   7   8  2   
 14   7   9  am  
 15   9  10  1   
 16   9  11  1   
 17  10  12  1   
 18  10  30  1   
 19  10  31  1   
 20  11  13  1   
 21  11  32  1   
 22  11  33  1   
 23  12  14  1   
 24  12  34  1   
 25  12  35  1   
 26  13  15  1   
 27  13  36  1   
 28  13  37  1   
 29  14  15  1   
 30  14  16  am  
 31  15  38  1   
 32  15  39  1   
 33  16  17  2   
 34  16  18  1   
 35  18  19  1   
 36  18  40  1   
 37  18  41  1   
 38  19  20  1   
 39  19  42  1   
 40  19  43  1   
 41  20  21  1   
 42  20  22  2   
 43  21  23  2   
 44  21  44  1   
 45  22  24  1   
 46  22  45  1   
 47  23  24  1   
 48  24  46  1   
@<TRIPOS>SUBSTRUCTURE
  1 ****  14 GROUP 4 **** **** 0

# MOE 2024.06 (io_trps.svl 2023.06)
