@<TRIPOS>MOLECULE
NONAME
51 52 1 0 0 
SMALL
USER_CHARGES


@<TRIPOS>ATOM
  1 O        2.1030     2.7240     1.2790 O.2   1 <1>  -0.5700 
  2 C        2.5260     2.1750     0.2790 C.2   1 <1>   0.5440 
  3 N        1.7710     2.2390    -0.8600 N.am  1 <1>  -0.7300 
  4 C        3.8050     1.4870     0.2870 C.ar  1 <1>   0.0860 
  5 C        0.4130     2.8300    -0.9630 C.3   1 <1>   0.1400 
  6 C        4.2840     0.8770     1.4460 C.ar  1 <1>  -0.1500 
  7 C        4.6080     1.4060    -0.8530 C.ar  1 <1>  -0.1500 
  8 C        0.4460     4.1540    -1.7320 C.3   1 <1>  -0.0990 
  9 C        5.4900     0.2010     1.4640 C.ar  1 <1>  -0.1500 
 10 C        5.8170     0.7330    -0.8390 C.ar  1 <1>  -0.1500 
 11 C        1.3220     5.2260    -1.1150 C.2   1 <1>   0.5690 
 12 C        6.2650     0.1240     0.3200 C.ar  1 <1>  -0.1430 
 13 O        1.9190     5.9780    -1.8480 O.2   1 <1>  -0.5700 
 14 N        1.4530     5.3130     0.2330 N.am  1 <1>  -0.7300 
 15 C        7.5780    -0.6400     0.3290 C.3   1 <1>  -0.0970 
 16 C        2.2260     6.3450     0.9510 C.3   1 <1>   0.1400 
 17 C        3.6330     5.8240     1.2520 C.3   1 <1>  -0.1600 
 18 C        4.3530     5.3800    -0.0270 C.3   1 <1>   0.3540 
 19 N        5.7480     4.9660     0.2690 N.pl3 1 <1>  -0.4570 
 20 N        6.0050     3.9370     1.1170 N.2   1 <1>  -0.2600 
 21 C        6.8760     5.4370    -0.2250 C.cat 1 <1>   0.6560 
 22 C        7.2820     3.8240     1.1030 C.2   1 <1>   0.4850 
 23 N        7.8590     4.7380     0.2860 N.pl3 1 <1>  -0.7000 
 24 C        7.0300     6.5730    -1.2110 C.3   1 <1>  -0.0960 
 25 C        8.0820     2.8110     1.8880 C.3   1 <1>  -0.0720 
 26 H        2.0680     1.6890    -1.6700 H     1 <1>   0.3700 
 27 H        0.0030     2.9880     0.0210 H     1 <1>   0.0800 
 28 H       -0.2310     2.1340    -1.4720 H     1 <1>   0.0800 
 29 H        3.6900     0.9300     2.3430 H     1 <1>   0.1500 
 30 H        4.2850     1.8730    -1.7660 H     1 <1>   0.1500 
 31 H       -0.5520     4.5450    -1.7900 H     1 <1>   0.0800 
 32 H        0.7780     3.9700    -2.7370 H     1 <1>   0.0800 
 33 H        5.8180    -0.2710     2.3750 H     1 <1>   0.1500 
 34 H        6.4060     0.6770    -1.7390 H     1 <1>   0.1500 
 35 H        1.2440     4.4690     0.7920 H     1 <1>   0.3700 
 36 H        8.0090    -0.6430     1.3140 H     1 <1>   0.0800 
 37 H        8.2810    -0.1950    -0.3520 H     1 <1>   0.0800 
 38 H        7.4050    -1.6580     0.0280 H     1 <1>   0.0800 
 39 H        1.7190     6.5910     1.8690 H     1 <1>   0.0800 
 40 H        2.2790     7.2380     0.3490 H     1 <1>   0.0800 
 41 H        3.5570     4.9950     1.9340 H     1 <1>   0.0800 
 42 H        4.1940     6.6060     1.7280 H     1 <1>   0.0800 
 43 H        4.3470     6.1820    -0.7440 H     1 <1>   0.0800 
 44 H        3.8440     4.5400    -0.4640 H     1 <1>   0.0800 
 45 H        8.8580     4.8400     0.1140 H     1 <1>   0.4500 
 46 H        6.6090     7.4720    -0.8000 H     1 <1>   0.0800 
 47 H        6.5200     6.3320    -2.1260 H     1 <1>   0.0800 
 48 H        8.0680     6.7440    -1.4280 H     1 <1>   0.0800 
 49 H        7.4210     2.2040     2.4790 H     1 <1>   0.0800 
 50 H        8.7700     3.3120     2.5430 H     1 <1>   0.0800 
 51 H        8.6260     2.1740     1.2160 H     1 <1>   0.0800 
@<TRIPOS>BOND
  1   1   2  2   
  2   2   3  am  
  3   2   4  1   
  4   3   5  1   
  5   3  26  1   
  6   4   6  ar  
  7   4   7  ar  
  8   5   8  1   
  9   5  27  1   
 10   5  28  1   
 11   6   9  ar  
 12   6  29  1   
 13   7  10  ar  
 14   7  30  1   
 15   8  11  1   
 16   8  31  1   
 17   8  32  1   
 18   9  12  ar  
 19   9  33  1   
 20  10  12  ar  
 21  10  34  1   
 22  11  13  2   
 23  11  14  am  
 24  12  15  1   
 25  14  16  1   
 26  14  35  1   
 27  15  36  1   
 28  15  37  1   
 29  15  38  1   
 30  16  17  1   
 31  16  39  1   
 32  16  40  1   
 33  17  18  1   
 34  17  41  1   
 35  17  42  1   
 36  18  19  1   
 37  18  43  1   
 38  18  44  1   
 39  19  20  1   
 40  19  21  ar  
 41  20  22  2   
 42  21  23  ar  
 43  21  24  1   
 44  22  23  1   
 45  22  25  1   
 46  23  45  1   
 47  24  46  1   
 48  24  47  1   
 49  24  48  1   
 50  25  49  1   
 51  25  50  1   
 52  25  51  1   
@<TRIPOS>SUBSTRUCTURE
  1 ****   4 GROUP 4 **** **** 0

# MOE 2024.06 (io_trps.svl 2023.06)
