@<TRIPOS>MOLECULE
NONAME
56 58 1 0 0 
SMALL
USER_CHARGES


@<TRIPOS>ATOM
  1 O       -1.0330     0.7680    -0.0530 O.2   1 <1>  -0.5700 
  2 C       -0.7490     1.8940     0.2660 C.2   1 <1>   0.5690 
  3 N       -1.5880     2.9190    -0.0040 N.am  1 <1>  -0.7300 
  4 C        0.5940     2.1810     0.9500 C.3   1 <1>   0.1810 
  5 C       -1.3080     4.3220     0.3790 C.3   1 <1>   0.3640 
  6 O        0.6610     3.4590     1.5490 O.3   1 <1>  -0.5600 
  7 C       -1.7160     5.2390    -0.7720 C.ar  1 <1>  -0.1440 
  8 C        0.1860     4.5180     0.7310 C.3   1 <1>   0.2610 
  9 C       -2.4990     6.3550    -0.5160 C.ar  1 <1>  -0.1500 
 10 C       -1.3050     4.9880    -2.0750 C.ar  1 <1>  -0.1500 
 11 C        0.4300     5.8890     1.3850 C.2   1 <1>   0.5690 
 12 C       -2.8670     7.2070    -1.5430 C.ar  1 <1>  -0.1500 
 13 C       -1.6690     5.8410    -3.1020 C.ar  1 <1>  -0.1500 
 14 O       -0.4660     6.3820     2.0370 O.2   1 <1>  -0.5700 
 15 N        1.6280     6.5450     1.2200 N.am  1 <1>  -0.6600 
 16 C       -2.4510     6.9510    -2.8370 C.ar  1 <1>  -0.1500 
 17 C        1.8230     7.9150     1.7890 C.3   1 <1>   0.2840 
 18 C        2.8420     5.9040     0.6380 C.3   1 <1>   0.1400 
 19 C        2.3260     8.8990     0.7360 C.ar  1 <1>  -0.1430 
 20 C        2.8990     6.1090    -0.8820 C.3   1 <1>  -0.1600 
 21 C        1.5220     9.3410    -0.3140 C.ar  1 <1>  -0.1430 
 22 C        3.6310     9.3620     0.8350 C.ar  1 <1>  -0.1500 
 23 C        3.9340     5.1810    -1.5280 C.3   1 <1>  -0.1600 
 24 C        2.0410    10.2300    -1.2430 C.ar  1 <1>  -0.1500 
 25 C        0.0860     8.8660    -0.4860 C.3   1 <1>  -0.0970 
 26 C        4.1390    10.2490    -0.0960 C.ar  1 <1>  -0.1500 
 27 C        3.9850     5.3910    -3.0440 C.3   1 <1>  -0.2400 
 28 C        3.3430    10.6840    -1.1380 C.ar  1 <1>  -0.1500 
 29 H       -2.4820     2.7270    -0.4570 H     1 <1>   0.3700 
 30 H        1.3830     2.1070     0.2250 H     1 <1>   0.0800 
 31 H        0.7620     1.4510     1.7200 H     1 <1>   0.0800 
 32 H       -1.9050     4.5520     1.2460 H     1 <1>   0.0800 
 33 H        0.7400     4.4800    -0.1850 H     1 <1>   0.0800 
 34 H       -2.8220     6.5740     0.4890 H     1 <1>   0.1500 
 35 H       -0.7000     4.1260    -2.3000 H     1 <1>   0.1500 
 36 H       -3.4750     8.0690    -1.3340 H     1 <1>   0.1500 
 37 H       -1.3460     5.6400    -4.1090 H     1 <1>   0.1500 
 38 H       -2.7350     7.6130    -3.6360 H     1 <1>   0.1500 
 39 H        0.9060     8.2930     2.2040 H     1 <1>   0.0800 
 40 H        2.5280     7.8510     2.5990 H     1 <1>   0.0800 
 41 H        3.7260     6.3200     1.0910 H     1 <1>   0.0800 
 42 H        2.8310     4.8530     0.8660 H     1 <1>   0.0800 
 43 H        1.9350     5.9250    -1.3210 H     1 <1>   0.0800 
 44 H        3.1670     7.1280    -1.0940 H     1 <1>   0.0800 
 45 H        4.2640     9.0330     1.6400 H     1 <1>   0.1500 
 46 H        4.9070     5.3800    -1.1120 H     1 <1>   0.0800 
 47 H        3.6850     4.1540    -1.3230 H     1 <1>   0.0800 
 48 H        1.4310    10.5740    -2.0600 H     1 <1>   0.1500 
 49 H       -0.4420     9.4790    -1.1940 H     1 <1>   0.0800 
 50 H       -0.4460     8.9050     0.4470 H     1 <1>   0.0800 
 51 H        0.0800     7.8540    -0.8480 H     1 <1>   0.0800 
 52 H        5.1530    10.6010    -0.0100 H     1 <1>   0.1500 
 53 H        4.2530     6.4090    -3.2720 H     1 <1>   0.0800 
 54 H        3.0280     5.1780    -3.4870 H     1 <1>   0.0800 
 55 H        4.7190     4.7390    -3.4830 H     1 <1>   0.0800 
 56 H        3.7330    11.3740    -1.8650 H     1 <1>   0.1500 
@<TRIPOS>BOND
  1   1   2  2   
  2   2   3  am  
  3   2   4  1   
  4   3   5  1   
  5   3  29  1   
  6   4   6  1   
  7   4  30  1   
  8   4  31  1   
  9   5   7  1   
 10   5   8  1   
 11   5  32  1   
 12   6   8  1   
 13   7   9  ar  
 14   7  10  ar  
 15   8  11  1   
 16   8  33  1   
 17   9  12  ar  
 18   9  34  1   
 19  10  13  ar  
 20  10  35  1   
 21  11  14  2   
 22  11  15  am  
 23  12  16  ar  
 24  12  36  1   
 25  13  16  ar  
 26  13  37  1   
 27  15  17  1   
 28  15  18  1   
 29  16  38  1   
 30  17  19  1   
 31  17  39  1   
 32  17  40  1   
 33  18  20  1   
 34  18  41  1   
 35  18  42  1   
 36  19  21  ar  
 37  19  22  ar  
 38  20  23  1   
 39  20  43  1   
 40  20  44  1   
 41  21  24  ar  
 42  21  25  1   
 43  22  26  ar  
 44  22  45  1   
 45  23  27  1   
 46  23  46  1   
 47  23  47  1   
 48  24  28  ar  
 49  24  48  1   
 50  25  49  1   
 51  25  50  1   
 52  25  51  1   
 53  26  28  ar  
 54  26  52  1   
 55  27  53  1   
 56  27  54  1   
 57  27  55  1   
 58  28  56  1   
@<TRIPOS>SUBSTRUCTURE
  1 ****  11 GROUP 4 **** **** 0

# MOE 2024.06 (io_trps.svl 2023.06)
