@<TRIPOS>MOLECULE
NONAME
45 47 1 0 0 
SMALL
USER_CHARGES


@<TRIPOS>ATOM
  1 O        1.2640    -0.6180    -1.3190 O.2   1 <1>  -0.5700 
  2 C        1.7120    -0.6830    -0.2000 C.2   1 <1>   0.5690 
  3 N        2.3080     0.3960     0.3730 N.am  1 <1>  -0.7300 
  4 C        1.6070    -1.9800     0.5910 C.3   1 <1>  -0.0190 
  5 C        2.4960     1.6720    -0.3290 C.3   1 <1>   0.2200 
  6 C        2.3420    -3.1690    -0.0640 C.3   1 <1>  -0.0220 
  7 C        0.1570    -2.4470     0.8370 C.3   1 <1>  -0.0220 
  8 C        3.7380     2.3830     0.2000 C.3   1 <1>  -0.1600 
  9 C        1.2540     2.5390    -0.1400 C.3   1 <1>  -0.1600 
 10 C        1.4540    -4.3370     0.2860 C.2   1 <1>  -0.2880 
 11 C        0.2800    -3.9490     0.7700 C.2   1 <1>  -0.2880 
 12 C        3.9000     3.7380    -0.4860 C.3   1 <1>   0.3430 
 13 C        1.4410     3.8860    -0.8290 C.3   1 <1>   0.3430 
 14 N        2.6630     4.5600    -0.3000 N.4   1 <1>  -0.9590 
 15 C        2.8160     5.9230    -0.8850 C.3   1 <1>   0.4860 
 16 C        3.9270     6.6500    -0.1500 C.ar  1 <1>  -0.1430 
 17 C        3.7600     7.1350     1.1340 C.ar  1 <1>  -0.1500 
 18 C        5.1640     6.8630    -0.7300 C.ar  1 <1>  -0.1500 
 19 C        4.8140     7.7750     1.7640 C.ar  1 <1>   0.1600 
 20 C        6.1510     7.5160    -0.0120 C.ar  1 <1>   0.1600 
 21 N        6.0030     7.9670     1.2210 N.ar  1 <1>  -0.6200 
 22 H        2.6580     0.3300     1.3310 H     1 <1>   0.3700 
 23 H        2.0540    -1.8340     1.5570 H     1 <1>   0.0800 
 24 H        2.6270     1.4700    -1.3820 H     1 <1>   0.0800 
 25 H        3.3320    -3.2860     0.3410 H     1 <1>   0.0800 
 26 H        2.3930    -3.0650    -1.1350 H     1 <1>   0.0800 
 27 H       -0.5080    -2.1070     0.0610 H     1 <1>   0.0800 
 28 H       -0.2010    -2.1200     1.7970 H     1 <1>   0.0800 
 29 H        4.6070     1.7830    -0.0090 H     1 <1>   0.0800 
 30 H        3.6720     2.5260     1.2630 H     1 <1>   0.0800 
 31 H        1.0490     2.6880     0.9050 H     1 <1>   0.0800 
 32 H        0.4070     2.0400    -0.5810 H     1 <1>   0.0800 
 33 H        1.8150    -5.3370     0.1110 H     1 <1>   0.1500 
 34 H       -0.5520    -4.5550     1.0870 H     1 <1>   0.1500 
 35 H        4.0820     3.5870    -1.5390 H     1 <1>   0.0800 
 36 H        4.7520     4.2490    -0.0660 H     1 <1>   0.0800 
 37 H        0.5700     4.4990    -0.6560 H     1 <1>   0.0800 
 38 H        1.5380     3.7300    -1.8930 H     1 <1>   0.0800 
 39 H        2.5440     4.6930     0.7130 H     1 <1>   0.4500 
 40 H        1.8990     6.4790    -0.7760 H     1 <1>   0.0800 
 41 H        3.0510     5.8550    -1.9340 H     1 <1>   0.0800 
 42 H        2.8270     7.0340     1.6610 H     1 <1>   0.1500 
 43 H        5.3820     6.5360    -1.7310 H     1 <1>   0.1500 
 44 H        4.6750     8.1510     2.7650 H     1 <1>   0.1500 
 45 H        7.1120     7.6790    -0.4720 H     1 <1>   0.1500 
@<TRIPOS>BOND
  1   1   2  2   
  2   2   3  am  
  3   2   4  1   
  4   3   5  1   
  5   3  22  1   
  6   4   6  1   
  7   4   7  1   
  8   4  23  1   
  9   5   8  1   
 10   5   9  1   
 11   5  24  1   
 12   6  10  1   
 13   6  25  1   
 14   6  26  1   
 15   7  11  1   
 16   7  27  1   
 17   7  28  1   
 18   8  12  1   
 19   8  29  1   
 20   8  30  1   
 21   9  13  1   
 22   9  31  1   
 23   9  32  1   
 24  10  11  2   
 25  10  33  1   
 26  11  34  1   
 27  12  14  1   
 28  12  35  1   
 29  12  36  1   
 30  13  14  1   
 31  13  37  1   
 32  13  38  1   
 33  14  15  1   
 34  14  39  1   
 35  15  16  1   
 36  15  40  1   
 37  15  41  1   
 38  16  17  ar  
 39  16  18  ar  
 40  17  19  ar  
 41  17  42  1   
 42  18  20  ar  
 43  18  43  1   
 44  19  21  ar  
 45  19  44  1   
 46  20  21  ar  
 47  20  45  1   
@<TRIPOS>SUBSTRUCTURE
  1 ****   8 GROUP 4 **** **** 0

# MOE 2024.06 (io_trps.svl 2023.06)
