@<TRIPOS>MOLECULE
NONAME
46 47 1 0 0 
SMALL
USER_CHARGES


@<TRIPOS>ATOM
  1 F       -2.7100    -0.4500     1.9830 F     1 <1>  -0.1900 
  2 C       -2.6130     0.3280     0.9400 C.ar  1 <1>   0.1900 
  3 C       -2.6930    -0.2320    -0.3230 C.ar  1 <1>  -0.1440 
  4 C       -2.4200     1.6800     1.1470 C.ar  1 <1>  -0.1500 
  5 C       -2.5560     0.6140    -1.4140 C.ar  1 <1>  -0.1500 
  6 C       -2.9050    -1.7270    -0.4920 C.3   1 <1>   0.4870 
  7 C       -2.2860     2.5290     0.0520 C.ar  1 <1>  -0.1440 
  8 C       -2.3580     1.9740    -1.2250 C.ar  1 <1>  -0.1500 
  9 N       -4.3410    -2.0860    -0.5140 N.4   1 <1>  -0.9590 
 10 C       -2.0730     4.0420     0.2380 C.3   1 <1>   1.1630 
 11 C       -4.5510    -3.5560    -0.7880 C.3   1 <1>   0.3430 
 12 C       -5.2340    -1.2250    -1.3340 C.3   1 <1>   0.3430 
 13 F       -3.2110     4.7130     0.1270 F     1 <1>  -0.3400 
 14 F       -1.2460     4.5530    -0.6660 F     1 <1>  -0.3400 
 15 F       -1.5660     4.3530     1.4240 F     1 <1>  -0.3400 
 16 C       -6.0090    -3.9040    -1.1880 C.3   1 <1>   0.2000 
 17 C       -6.7080    -1.4950    -0.9800 C.3   1 <1>  -0.1600 
 18 O       -6.1400    -3.7870    -2.5740 O.3   1 <1>  -0.6800 
 19 C       -6.9960    -2.9500    -0.4830 C.3   1 <1>  -0.1060 
 20 C       -6.6460    -3.1330     1.0050 C.2   1 <1>   0.9060 
 21 C       -8.4720    -3.3460    -0.7650 C.3   1 <1>  -0.1600 
 22 O       -6.0230    -2.2330     1.5880 O.co2 1 <1>  -0.9000 
 23 O       -6.7720    -4.2520     1.5000 O.co2 1 <1>  -0.9000 
 24 C       -9.4950    -2.4880    -0.0030 C.3   1 <1>  -0.1600 
 25 C      -10.9250    -2.9410    -0.3080 C.3   1 <1>  -0.2400 
 26 H       -2.3770     2.0500     2.1580 H     1 <1>   0.1500 
 27 H       -2.5990     0.2250    -2.4180 H     1 <1>   0.1500 
 28 H       -2.4210    -2.2480     0.3180 H     1 <1>   0.0800 
 29 H       -2.4450    -2.0410    -1.4140 H     1 <1>   0.0800 
 30 H       -2.2570     2.6100    -2.0920 H     1 <1>   0.1500 
 31 H       -4.7230    -1.9550     0.4640 H     1 <1>   0.4500 
 32 H       -3.8950    -3.8970    -1.5690 H     1 <1>   0.0800 
 33 H       -4.3190    -4.1020     0.1130 H     1 <1>   0.0800 
 34 H       -5.0200    -0.1830    -1.1640 H     1 <1>   0.0800 
 35 H       -5.0740    -1.4470    -2.3760 H     1 <1>   0.0800 
 36 H       -6.2150    -4.9300    -0.9270 H     1 <1>   0.0800 
 37 H       -7.0210    -0.7890    -0.2300 H     1 <1>   0.0800 
 38 H       -7.2890    -1.2860    -1.8600 H     1 <1>   0.0800 
 39 H       -7.0530    -4.0320    -2.8280 H     1 <1>   0.4000 
 40 H       -8.6780    -3.2740    -1.8180 H     1 <1>   0.0800 
 41 H       -8.6120    -4.3740    -0.4740 H     1 <1>   0.0800 
 42 H       -9.3220    -2.5740     1.0580 H     1 <1>   0.0800 
 43 H       -9.3920    -1.4520    -0.2730 H     1 <1>   0.0800 
 44 H      -11.0620    -3.9670    -0.0150 H     1 <1>   0.0800 
 45 H      -11.1370    -2.8470    -1.3590 H     1 <1>   0.0800 
 46 H      -11.6260    -2.3350     0.2390 H     1 <1>   0.0800 
@<TRIPOS>BOND
  1   1   2  1   
  2   2   3  ar  
  3   2   4  ar  
  4   3   5  ar  
  5   3   6  1   
  6   4   7  ar  
  7   4  26  1   
  8   5   8  ar  
  9   5  27  1   
 10   6   9  1   
 11   6  28  1   
 12   6  29  1   
 13   7   8  ar  
 14   7  10  1   
 15   8  30  1   
 16   9  11  1   
 17   9  12  1   
 18   9  31  1   
 19  10  13  1   
 20  10  14  1   
 21  10  15  1   
 22  11  16  1   
 23  11  32  1   
 24  11  33  1   
 25  12  17  1   
 26  12  34  1   
 27  12  35  1   
 28  16  18  1   
 29  16  19  1   
 30  16  36  1   
 31  17  19  1   
 32  17  37  1   
 33  17  38  1   
 34  18  39  1   
 35  19  20  1   
 36  19  21  1   
 37  20  22  ar  
 38  20  23  ar  
 39  21  24  1   
 40  21  40  1   
 41  21  41  1   
 42  24  25  1   
 43  24  42  1   
 44  24  43  1   
 45  25  44  1   
 46  25  45  1   
 47  25  46  1   
@<TRIPOS>SUBSTRUCTURE
  1 ****  12 GROUP 4 **** **** 0

# MOE 2024.06 (io_trps.svl 2023.06)
