@<TRIPOS>MOLECULE
NONAME
53 55 1 0 0 
SMALL
USER_CHARGES


@<TRIPOS>ATOM
  1 O        1.8170    -1.5960    -0.5460 O.3   1 <1>  -0.5600 
  2 C        1.5050    -1.3180    -1.8900 C.3   1 <1>   0.2000 
  3 C        1.8400    -0.4960     0.3300 C.3   1 <1>   0.2640 
  4 C       -0.0250    -1.3700    -2.0690 C.3   1 <1>   0.3430 
  5 C        2.1540    -2.4400    -2.7240 C.3   1 <1>  -0.1600 
  6 C        0.4240    -0.0550     0.6890 C.ar  1 <1>   0.1660 
  7 N       -0.4840    -2.6460    -1.4510 N.4   1 <1>  -0.9590 
  8 C        1.1730    -3.5770    -3.1060 C.3   1 <1>  -0.1600 
  9 N       -0.0560     1.0080     0.0560 N.ar  1 <1>  -0.6200 
 10 C       -0.2910    -0.7840     1.6260 C.ar  1 <1>  -0.1500 
 11 C        0.0950    -3.8880    -2.0510 C.3   1 <1>   0.3430 
 12 C       -1.9370    -2.7130    -1.1290 C.3   1 <1>   0.4860 
 13 C       -1.2820     1.3760     0.3980 C.ar  1 <1>   0.1600 
 14 C       -1.5750    -0.4050     1.9540 C.ar  1 <1>  -0.1500 
 15 C       -2.1960    -3.8350    -0.1210 C.ar  1 <1>   0.1670 
 16 C       -2.0730     0.7130     1.3200 C.ar  1 <1>  -0.1500 
 17 N       -1.3540    -3.8610     0.9080 N.ar  1 <1>  -0.6200 
 18 C       -3.2300    -4.7450    -0.3160 C.ar  1 <1>  -0.1440 
 19 C       -1.5390    -4.8360     1.7840 C.ar  1 <1>   0.1600 
 20 C       -3.4050    -5.7430     0.6330 C.ar  1 <1>   0.0820 
 21 C       -4.1490    -4.6600    -1.5380 C.3   1 <1>  -0.0970 
 22 C       -2.5260    -5.7990     1.7010 C.ar  1 <1>  -0.1440 
 23 O       -4.3880    -6.6550     0.5120 O.3   1 <1>  -0.3620 
 24 C       -2.6210    -6.8890     2.7620 C.3   1 <1>  -0.0970 
 25 C       -5.6040    -6.3770     1.1710 C.3   1 <1>   0.0400 
 26 H        1.9110    -0.3590    -2.1650 H     1 <1>   0.0800 
 27 H        2.3960     0.3100    -0.1170 H     1 <1>   0.0800 
 28 H        2.3550    -0.8060     1.2220 H     1 <1>   0.0800 
 29 H       -0.2760    -1.3410    -3.1160 H     1 <1>   0.0800 
 30 H       -0.4860    -0.5260    -1.5900 H     1 <1>   0.0800 
 31 H        2.9940    -2.8450    -2.1850 H     1 <1>   0.0800 
 32 H        2.5430    -2.0160    -3.6340 H     1 <1>   0.0800 
 33 H       -0.0440    -2.6210    -0.5100 H     1 <1>   0.4500 
 34 H        1.7290    -4.4750    -3.3150 H     1 <1>   0.0800 
 35 H        0.6700    -3.3100    -4.0190 H     1 <1>   0.0800 
 36 H        0.1480    -1.6460     2.0980 H     1 <1>   0.1500 
 37 H       -0.6840    -4.4800    -2.5040 H     1 <1>   0.0800 
 38 H        0.5340    -4.4770    -1.2600 H     1 <1>   0.0800 
 39 H       -2.5070    -2.8650    -2.0280 H     1 <1>   0.0800 
 40 H       -2.2440    -1.7840    -0.6790 H     1 <1>   0.0800 
 41 H       -1.6800     2.2560    -0.0810 H     1 <1>   0.1500 
 42 H       -2.1550    -0.9530     2.6780 H     1 <1>   0.1500 
 43 H       -3.0610     1.0730     1.5440 H     1 <1>   0.1500 
 44 H       -0.8580    -4.8700     2.6180 H     1 <1>   0.1500 
 45 H       -3.5740    -4.6860    -2.4450 H     1 <1>   0.0800 
 46 H       -4.7270    -3.7540    -1.5070 H     1 <1>   0.0800 
 47 H       -4.8370    -5.4850    -1.5800 H     1 <1>   0.0800 
 48 H       -1.6880    -6.9980     3.2860 H     1 <1>   0.0800 
 49 H       -2.8600    -7.8340     2.3060 H     1 <1>   0.0800 
 50 H       -3.3880    -6.6450     3.4740 H     1 <1>   0.0800 
 51 H       -6.2870    -7.1830     0.9700 H     1 <1>   0.0800 
 52 H       -6.0020    -5.4520     0.7940 H     1 <1>   0.0800 
 53 H       -5.4230    -6.3020     2.2280 H     1 <1>   0.0800 
@<TRIPOS>BOND
  1   1   2  1   
  2   1   3  1   
  3   2   4  1   
  4   2   5  1   
  5   2  26  1   
  6   3   6  1   
  7   3  27  1   
  8   3  28  1   
  9   4   7  1   
 10   4  29  1   
 11   4  30  1   
 12   5   8  1   
 13   5  31  1   
 14   5  32  1   
 15   6   9  ar  
 16   6  10  ar  
 17   7  11  1   
 18   7  12  1   
 19   7  33  1   
 20   8  11  1   
 21   8  34  1   
 22   8  35  1   
 23   9  13  ar  
 24  10  14  ar  
 25  10  36  1   
 26  11  37  1   
 27  11  38  1   
 28  12  15  1   
 29  12  39  1   
 30  12  40  1   
 31  13  16  ar  
 32  13  41  1   
 33  14  16  ar  
 34  14  42  1   
 35  15  17  ar  
 36  15  18  ar  
 37  16  43  1   
 38  17  19  ar  
 39  18  20  ar  
 40  18  21  1   
 41  19  22  ar  
 42  19  44  1   
 43  20  22  ar  
 44  20  23  1   
 45  21  45  1   
 46  21  46  1   
 47  21  47  1   
 48  22  24  1   
 49  23  25  1   
 50  24  48  1   
 51  24  49  1   
 52  24  50  1   
 53  25  51  1   
 54  25  52  1   
 55  25  53  1   
@<TRIPOS>SUBSTRUCTURE
  1 ****  12 GROUP 4 **** **** 0

# MOE 2024.06 (io_trps.svl 2023.06)
