@<TRIPOS>MOLECULE
NONAME
49 51 1 0 0 
SMALL
USER_CHARGES


@<TRIPOS>ATOM
  1 O        1.2370    -0.1440     2.1820 O.co2 1 <1>  -0.9000 
  2 C        1.3310    -0.3550     0.9680 C.2   1 <1>   0.9060 
  3 O        0.7790    -1.3280     0.4320 O.co2 1 <1>  -0.9000 
  4 C        2.2420     0.5130     0.0950 C.3   1 <1>  -0.1060 
  5 C        3.4060    -0.4550    -0.2370 C.3   1 <1>   0.2000 
  6 C        2.7950     1.7670     0.8470 C.3   1 <1>  -0.1600 
  7 C        1.4780     0.9880    -1.1780 C.3   1 <1>  -0.0160 
  8 O        3.0300    -1.3300    -1.2440 O.3   1 <1>  -0.6800 
  9 C        4.7210     0.2490    -0.5980 C.3   1 <1>   0.2090 
 10 C        4.1300     1.4890     1.5330 C.3   1 <1>   0.2090 
 11 C        0.4820     2.1230    -0.9390 C.ar  1 <1>  -0.1440 
 12 N        5.1610     1.2310     0.4660 N.pl3 1 <1>  -0.8380 
 13 C        0.7210     3.3880    -1.4560 C.ar  1 <1>  -0.1500 
 14 C       -0.6760     1.9010    -0.2100 C.ar  1 <1>  -0.1500 
 15 C        6.3120     1.9430     0.3460 C.ar  1 <1>   0.1000 
 16 C       -0.1810     4.4170    -1.2430 C.ar  1 <1>  -0.1500 
 17 C       -1.5780     2.9280     0.0060 C.ar  1 <1>  -0.1500 
 18 C        7.4890     1.3490    -0.1250 C.ar  1 <1>  -0.1500 
 19 C        6.3840     3.3030     0.6740 C.ar  1 <1>  -0.1500 
 20 C       -1.3320     4.1870    -0.5100 C.ar  1 <1>  -0.1500 
 21 C        8.6500     2.0670    -0.2490 C.ar  1 <1>   0.2180 
 22 C        7.5540     4.0050     0.5450 C.ar  1 <1>   0.2170 
 23 N        8.6660     3.3800     0.0880 N.ar  1 <1>  -0.1790 
 24 C        9.9350     1.4350    -0.7540 C.3   1 <1>  -0.0970 
 25 C        7.6470     5.4810     0.8960 C.3   1 <1>  -0.0970 
 26 H        3.6080    -1.0690     0.6260 H     1 <1>   0.0800 
 27 H        2.0760     2.1050     1.5730 H     1 <1>   0.0800 
 28 H        2.9520     2.5800     0.1630 H     1 <1>   0.0800 
 29 H        2.1950     1.3050    -1.9110 H     1 <1>   0.0800 
 30 H        0.9390     0.1640    -1.6140 H     1 <1>   0.0800 
 31 H        2.1510    -1.6970    -0.9560 H     1 <1>   0.4000 
 32 H        4.5870     0.7800    -1.5240 H     1 <1>   0.0800 
 33 H        5.4740    -0.5040    -0.7320 H     1 <1>   0.0800 
 34 H        4.0370     0.6280     2.1750 H     1 <1>   0.0800 
 35 H        4.4080     2.3220     2.1520 H     1 <1>   0.0800 
 36 H        1.6120     3.5760    -2.0270 H     1 <1>   0.1500 
 37 H       -0.8770     0.9220     0.1960 H     1 <1>   0.1500 
 38 H        0.0140     5.3940    -1.6470 H     1 <1>   0.1500 
 39 H       -2.4680     2.7380     0.5800 H     1 <1>   0.1500 
 40 H        7.4670     0.3050    -0.3760 H     1 <1>   0.1500 
 41 H        5.4920     3.7930     1.0170 H     1 <1>   0.1500 
 42 H       -2.0330     4.9840    -0.3400 H     1 <1>   0.1500 
 43 H        9.5360     3.9090    -0.0070 H     1 <1>   0.4570 
 44 H        9.7800     0.3950    -0.9840 H     1 <1>   0.0800 
 45 H       10.7050     1.5000    -0.0050 H     1 <1>   0.0800 
 46 H       10.2710     1.9280    -1.6490 H     1 <1>   0.0800 
 47 H        6.6970     5.8470     1.2430 H     1 <1>   0.0800 
 48 H        7.9310     6.0550     0.0320 H     1 <1>   0.0800 
 49 H        8.3700     5.6360     1.6770 H     1 <1>   0.0800 
@<TRIPOS>BOND
  1   1   2  ar  
  2   2   3  ar  
  3   2   4  1   
  4   4   5  1   
  5   4   6  1   
  6   4   7  1   
  7   5   8  1   
  8   5   9  1   
  9   5  26  1   
 10   6  10  1   
 11   6  27  1   
 12   6  28  1   
 13   7  11  1   
 14   7  29  1   
 15   7  30  1   
 16   8  31  1   
 17   9  12  1   
 18   9  32  1   
 19   9  33  1   
 20  10  12  1   
 21  10  34  1   
 22  10  35  1   
 23  11  13  ar  
 24  11  14  ar  
 25  12  15  1   
 26  13  16  ar  
 27  13  36  1   
 28  14  17  ar  
 29  14  37  1   
 30  15  18  ar  
 31  15  19  ar  
 32  16  20  ar  
 33  16  38  1   
 34  17  20  ar  
 35  17  39  1   
 36  18  21  ar  
 37  18  40  1   
 38  19  22  ar  
 39  19  41  1   
 40  20  42  1   
 41  21  23  ar  
 42  21  24  1   
 43  22  23  ar  
 44  22  25  1   
 45  23  43  1   
 46  24  44  1   
 47  24  45  1   
 48  24  46  1   
 49  25  47  1   
 50  25  48  1   
 51  25  49  1   
@<TRIPOS>SUBSTRUCTURE
  1 ****   6 GROUP 4 **** **** 0

# MOE 2024.06 (io_trps.svl 2023.06)
