@<TRIPOS>MOLECULE
NONAME
54 57 1 0 0 
SMALL
USER_CHARGES


@<TRIPOS>ATOM
  1 S       -0.2870    -0.0610     0.5420 S.3   1 <1>  -0.3320 
  2 C        1.1920     0.8260     0.0710 C.ar  1 <1>   0.4120 
  3 C       -1.5960     0.6830    -0.5260 C.3   1 <1>   0.2140 
  4 N        1.0490     1.7560    -0.8590 N.ar  1 <1>  -0.6200 
  5 C        2.3740     0.4830     0.7040 C.ar  1 <1>  -0.1500 
  6 C       -2.9190     0.0060    -0.2090 C.ar  1 <1>  -0.1440 
  7 C        2.1710     2.3860    -1.1750 C.ar  1 <1>   0.1600 
  8 C        3.5290     1.1520     0.3590 C.ar  1 <1>  -0.1500 
  9 C       -3.6140     0.3330     0.9440 C.ar  1 <1>  -0.1500 
 10 C       -3.4450    -0.9490    -1.0660 C.ar  1 <1>  -0.1500 
 11 C        3.4110     2.1290    -0.6090 C.ar  1 <1>  -0.1500 
 12 C       -4.8210    -0.2790     1.2290 C.ar  1 <1>  -0.1500 
 13 C       -4.6520    -1.5570    -0.7760 C.ar  1 <1>  -0.1500 
 14 C       -5.3730    -1.2300     0.3710 C.ar  1 <1>   0.0860 
 15 C       -6.6460    -1.8660     0.6570 C.2   1 <1>   0.5440 
 16 O       -6.7170    -3.0800     0.6420 O.2   1 <1>  -0.5700 
 17 N       -7.7840    -1.1320     0.9310 N.am  1 <1>  -0.6600 
 18 C       -7.9590     0.3000     0.5640 C.3   1 <1>   0.1400 
 19 C       -9.0160    -1.7660     1.4780 C.3   1 <1>   0.1400 
 20 C       -9.0740     0.4170    -0.4770 C.3   1 <1>  -0.1600 
 21 C      -10.1430    -1.6600     0.4490 C.3   1 <1>  -0.1600 
 22 C      -10.3840    -0.2100     0.0200 C.3   1 <1>   0.4180 
 23 O      -10.8220     0.4750     1.1700 O.3   1 <1>  -0.5600 
 24 C      -11.4570    -0.1670    -1.0650 C.2   1 <1>  -0.2880 
 25 C      -11.5130     1.6780     0.9820 C.3   1 <1>   0.1200 
 26 C      -12.5750     0.5590    -0.9870 C.2   1 <1>  -0.2760 
 27 C      -12.8250     1.4360     0.2250 C.3   1 <1>  -0.0220 
 28 C      -13.6660     0.5750    -2.0430 C.3   1 <1>  -0.1020 
 29 H       -1.2990     0.5300    -1.5480 H     1 <1>   0.0800 
 30 H       -1.6280     1.7360    -0.3080 H     1 <1>   0.0800 
 31 H        2.3770    -0.2910     1.4480 H     1 <1>   0.1500 
 32 H        2.1000     3.1530    -1.9290 H     1 <1>   0.1500 
 33 H        4.4740     0.9240     0.8220 H     1 <1>   0.1500 
 34 H       -3.2090     1.0620     1.6260 H     1 <1>   0.1500 
 35 H       -2.9120    -1.2260    -1.9590 H     1 <1>   0.1500 
 36 H        4.2730     2.6900    -0.9240 H     1 <1>   0.1500 
 37 H       -5.3490    -0.0250     2.1310 H     1 <1>   0.1500 
 38 H       -5.0520    -2.3030    -1.4400 H     1 <1>   0.1500 
 39 H       -7.0530     0.7100     0.1570 H     1 <1>   0.0800 
 40 H       -8.2190     0.8600     1.4470 H     1 <1>   0.0800 
 41 H       -9.3000    -1.2590     2.3840 H     1 <1>   0.0800 
 42 H       -8.8400    -2.8010     1.7190 H     1 <1>   0.0800 
 43 H       -8.7600    -0.0920    -1.3700 H     1 <1>   0.0800 
 44 H       -9.2300     1.4450    -0.7390 H     1 <1>   0.0800 
 45 H      -11.0510    -2.0630     0.8590 H     1 <1>   0.0800 
 46 H       -9.8790    -2.2530    -0.4070 H     1 <1>   0.0800 
 47 H      -11.2220    -0.7970    -1.9040 H     1 <1>   0.1500 
 48 H      -10.8820     2.3560     0.4350 H     1 <1>   0.0800 
 49 H      -11.7130     2.0980     1.9520 H     1 <1>   0.0800 
 50 H      -13.2250     2.3870    -0.0780 H     1 <1>   0.0800 
 51 H      -13.5390     0.9630     0.8760 H     1 <1>   0.0800 
 52 H      -14.5980     0.2500    -1.6160 H     1 <1>   0.0800 
 53 H      -13.4150    -0.0830    -2.8540 H     1 <1>   0.0800 
 54 H      -13.7900     1.5690    -2.4350 H     1 <1>   0.0800 
@<TRIPOS>BOND
  1   1   2  1   
  2   1   3  1   
  3   2   4  ar  
  4   2   5  ar  
  5   3   6  1   
  6   3  29  1   
  7   3  30  1   
  8   4   7  ar  
  9   5   8  ar  
 10   5  31  1   
 11   6   9  ar  
 12   6  10  ar  
 13   7  11  ar  
 14   7  32  1   
 15   8  11  ar  
 16   8  33  1   
 17   9  12  ar  
 18   9  34  1   
 19  10  13  ar  
 20  10  35  1   
 21  11  36  1   
 22  12  14  ar  
 23  12  37  1   
 24  13  14  ar  
 25  13  38  1   
 26  14  15  1   
 27  15  16  2   
 28  15  17  am  
 29  17  18  1   
 30  17  19  1   
 31  18  20  1   
 32  18  39  1   
 33  18  40  1   
 34  19  21  1   
 35  19  41  1   
 36  19  42  1   
 37  20  22  1   
 38  20  43  1   
 39  20  44  1   
 40  21  22  1   
 41  21  45  1   
 42  21  46  1   
 43  22  23  1   
 44  22  24  1   
 45  23  25  1   
 46  24  26  2   
 47  24  47  1   
 48  25  27  1   
 49  25  48  1   
 50  25  49  1   
 51  26  27  1   
 52  26  28  1   
 53  27  50  1   
 54  27  51  1   
 55  28  52  1   
 56  28  53  1   
 57  28  54  1   
@<TRIPOS>SUBSTRUCTURE
  1 ****  14 GROUP 4 **** **** 0

# MOE 2024.06 (io_trps.svl 2023.06)
