@<TRIPOS>MOLECULE
NONAME
55 58 1 0 0 
SMALL
USER_CHARGES


@<TRIPOS>ATOM
  1 O       -0.7370     0.5100    -1.4010 O.2   1 <1>  -0.5700 
  2 C       -0.5410     1.5030    -0.7390 C.2   1 <1>   0.5690 
  3 N       -1.5440     2.1860    -0.1000 N.am  1 <1>  -0.5090 
  4 C        0.8960     2.0200    -0.6570 C.3   1 <1>   0.1810 
  5 C       -1.2850     3.4960     0.5800 C.3   1 <1>   0.3640 
  6 C       -2.9380     1.6830    -0.0270 C.3   1 <1>   0.0490 
  7 O        1.0960     2.9560     0.3730 O.3   1 <1>  -0.5600 
  8 C       -2.2630     4.5640     0.0770 C.ar  1 <1>  -0.1440 
  9 C        0.1580     4.0150     0.3720 C.3   1 <1>   0.2610 
 10 C       -3.5480     1.4480     1.3200 C.3   1 <1>  -0.2000 
 11 C       -3.2000     0.2870     0.4460 C.3   1 <1>  -0.2000 
 12 C       -2.8910     5.4040     0.9860 C.ar  1 <1>  -0.1500 
 13 C       -2.5220     4.7260    -1.2790 C.ar  1 <1>  -0.1500 
 14 C        0.5290     5.0880     1.4110 C.2   1 <1>   0.5690 
 15 C       -3.7590     6.3910     0.5540 C.ar  1 <1>  -0.1500 
 16 C       -3.3900     5.7120    -1.7130 C.ar  1 <1>  -0.1500 
 17 O       -0.0410     5.0820     2.4820 O.2   1 <1>  -0.5700 
 18 N        1.4660     6.0540     1.1190 N.am  1 <1>  -0.6600 
 19 C       -4.0120     6.5510    -0.8040 C.ar  1 <1>   0.0830 
 20 C        2.3700     6.0410    -0.0630 C.3   1 <1>   0.1400 
 21 C        1.6340     7.2590     1.9750 C.3   1 <1>   0.1400 
 22 O       -4.8440     7.4940    -1.3130 O.3   1 <1>  -0.3620 
 23 C        2.0700     7.2650    -0.9330 C.3   1 <1>  -0.1600 
 24 C        1.3390     8.5100     1.1400 C.3   1 <1>  -0.1600 
 25 C       -5.5150     8.4070    -0.4740 C.3   1 <1>   0.0400 
 26 C        2.2070     8.5690    -0.1290 C.3   1 <1>  -0.0800 
 27 C        1.8220     9.7770    -0.9890 C.3   1 <1>  -0.2400 
 28 H        1.1650     2.4780    -1.5910 H     1 <1>   0.0800 
 29 H        1.5580     1.1930    -0.4760 H     1 <1>   0.0800 
 30 H       -1.4470     3.3410     1.6310 H     1 <1>   0.0800 
 31 H       -3.5630     2.0780    -0.8120 H     1 <1>   0.1000 
 32 H        0.2000     4.4780    -0.5960 H     1 <1>   0.0800 
 33 H       -2.9630     1.5990     2.2090 H     1 <1>   0.1000 
 34 H       -4.5880     1.6840     1.4620 H     1 <1>   0.1000 
 35 H       -3.9950    -0.2680    -0.0180 H     1 <1>   0.1000 
 36 H       -2.3580    -0.3320     0.7020 H     1 <1>   0.1000 
 37 H       -2.6990     5.2980     2.0410 H     1 <1>   0.1500 
 38 H       -2.0540     4.0850    -2.0060 H     1 <1>   0.1500 
 39 H       -4.2230     7.0220     1.2870 H     1 <1>   0.1500 
 40 H       -3.5920     5.8370    -2.7610 H     1 <1>   0.1500 
 41 H        3.3890     6.0830     0.2820 H     1 <1>   0.0800 
 42 H        2.2600     5.1400    -0.6370 H     1 <1>   0.0800 
 43 H        0.9680     7.2250     2.8210 H     1 <1>   0.0800 
 44 H        2.6430     7.2900     2.3470 H     1 <1>   0.0800 
 45 H        2.7520     7.2810    -1.7650 H     1 <1>   0.0800 
 46 H        1.0720     7.1780    -1.3260 H     1 <1>   0.0800 
 47 H        0.2960     8.5030     0.8730 H     1 <1>   0.0800 
 48 H        1.5160     9.3830     1.7430 H     1 <1>   0.0800 
 49 H       -6.1070     9.0560    -1.0930 H     1 <1>   0.0800 
 50 H       -4.7860     8.9830     0.0690 H     1 <1>   0.0800 
 51 H       -6.1530     7.8600     0.1980 H     1 <1>   0.0800 
 52 H        3.2370     8.6790     0.1700 H     1 <1>   0.0800 
 53 H        0.7970     9.7060    -1.3070 H     1 <1>   0.0800 
 54 H        2.4490     9.8300    -1.8620 H     1 <1>   0.0800 
 55 H        1.9450    10.6880    -0.4300 H     1 <1>   0.0800 
@<TRIPOS>BOND
  1   1   2  2   
  2   2   3  am  
  3   2   4  1   
  4   3   5  1   
  5   3   6  1   
  6   4   7  1   
  7   4  28  1   
  8   4  29  1   
  9   5   8  1   
 10   5   9  1   
 11   5  30  1   
 12   6  10  1   
 13   6  11  1   
 14   6  31  1   
 15   7   9  1   
 16   8  12  ar  
 17   8  13  ar  
 18   9  14  1   
 19   9  32  1   
 20  10  11  1   
 21  10  33  1   
 22  10  34  1   
 23  11  35  1   
 24  11  36  1   
 25  12  15  ar  
 26  12  37  1   
 27  13  16  ar  
 28  13  38  1   
 29  14  17  2   
 30  14  18  am  
 31  15  19  ar  
 32  15  39  1   
 33  16  19  ar  
 34  16  40  1   
 35  18  20  1   
 36  18  21  1   
 37  19  22  1   
 38  20  23  1   
 39  20  41  1   
 40  20  42  1   
 41  21  24  1   
 42  21  43  1   
 43  21  44  1   
 44  22  25  1   
 45  23  26  1   
 46  23  45  1   
 47  23  46  1   
 48  24  26  1   
 49  24  47  1   
 50  24  48  1   
 51  25  49  1   
 52  25  50  1   
 53  25  51  1   
 54  26  27  1   
 55  26  52  1   
 56  27  53  1   
 57  27  54  1   
 58  27  55  1   
@<TRIPOS>SUBSTRUCTURE
  1 ****   8 GROUP 4 **** **** 0

# MOE 2024.06 (io_trps.svl 2023.06)
