@<TRIPOS>MOLECULE
NONAME
45 48 1 0 0 
SMALL
USER_CHARGES


@<TRIPOS>ATOM
  1 CL      -2.3340    -1.6690     1.9590 Cl    1 <1>  -0.1770 
  2 C       -2.5080    -0.1000     1.2050 C.ar  1 <1>   0.1770 
  3 C       -2.7770     0.0070    -0.1580 C.ar  1 <1>  -0.1430 
  4 C       -2.3720     1.0180     2.0060 C.ar  1 <1>  -0.1500 
  5 C       -2.9030     1.2720    -0.7240 C.ar  1 <1>  -0.1500 
  6 C       -2.9320    -1.2330    -1.0250 C.3   1 <1>   0.2540 
  7 C       -2.5090     2.2560     1.4120 C.ar  1 <1>   0.1900 
  8 C       -2.7700     2.4060     0.0630 C.ar  1 <1>  -0.1500 
  9 N       -4.1690    -1.9500    -0.6660 N.3   1 <1>  -0.8100 
 10 F       -2.3880     3.3240     2.1510 F     1 <1>  -0.1900 
 11 C       -5.4120    -1.1960    -0.9470 C.3   1 <1>   0.1100 
 12 C       -4.2270    -3.3080    -1.2470 C.3   1 <1>   0.1100 
 13 C       -6.6540    -1.8980    -0.3350 C.3   1 <1>   0.4230 
 14 C       -5.5300    -4.0540    -0.8640 C.3   1 <1>   0.3430 
 15 N       -6.3200    -3.2870     0.1600 N.4   1 <1>  -0.9590 
 16 C       -7.8380    -1.9290    -1.3270 C.3   1 <1>   0.1200 
 17 C       -7.5420    -3.9740     0.6800 C.3   1 <1>   0.5180 
 18 O       -8.9330    -2.5960    -0.7660 O.3   1 <1>  -0.5600 
 19 C       -7.1730    -5.3960     1.1500 C.3   1 <1>  -0.1950 
 20 C       -8.6860    -3.9180    -0.3630 C.3   1 <1>   0.1200 
 21 C       -7.1610    -6.6150     0.2730 C.3   1 <1>  -0.2000 
 22 C       -8.1920    -6.4760     1.3570 C.3   1 <1>  -0.2000 
 23 H       -2.1640     0.9280     3.0560 H     1 <1>   0.1500 
 24 H       -3.1030     1.3840    -1.7760 H     1 <1>   0.1500 
 25 H       -2.0820    -1.8750    -0.8600 H     1 <1>   0.0800 
 26 H       -2.9490    -0.9660    -2.0680 H     1 <1>   0.0800 
 27 H       -2.8640     3.3910    -0.3580 H     1 <1>   0.1500 
 28 H       -5.3490    -0.2070    -0.5270 H     1 <1>   0.0800 
 29 H       -5.5300    -1.0840    -2.0120 H     1 <1>   0.0800 
 30 H       -4.1500    -3.2580    -2.3200 H     1 <1>   0.0800 
 31 H       -3.3870    -3.8790    -0.8880 H     1 <1>   0.0800 
 32 H       -6.9690    -1.3040     0.5070 H     1 <1>   0.0800 
 33 H       -5.2670    -5.0260    -0.4810 H     1 <1>   0.0800 
 34 H       -6.1260    -4.2030    -1.7490 H     1 <1>   0.0800 
 35 H       -5.6550    -3.1310     0.9290 H     1 <1>   0.4500 
 36 H       -7.5680    -2.4210    -2.2450 H     1 <1>   0.0800 
 37 H       -8.1540    -0.9260    -1.5580 H     1 <1>   0.0800 
 38 H       -7.8910    -3.4350     1.5460 H     1 <1>   0.0800 
 39 H       -6.4240    -5.3470     1.9230 H     1 <1>   0.1000 
 40 H       -9.5970    -4.2940     0.0680 H     1 <1>   0.0800 
 41 H       -8.4540    -4.5040    -1.2340 H     1 <1>   0.0800 
 42 H       -7.5140    -6.5880    -0.7440 H     1 <1>   0.1000 
 43 H       -6.3890    -7.3540     0.4100 H     1 <1>   0.1000 
 44 H       -8.1060    -7.1110     2.2240 H     1 <1>   0.1000 
 45 H       -9.2180    -6.3480     1.0590 H     1 <1>   0.1000 
@<TRIPOS>BOND
  1   1   2  1   
  2   2   3  ar  
  3   2   4  ar  
  4   3   5  ar  
  5   3   6  1   
  6   4   7  ar  
  7   4  23  1   
  8   5   8  ar  
  9   5  24  1   
 10   6   9  1   
 11   6  25  1   
 12   6  26  1   
 13   7   8  ar  
 14   7  10  1   
 15   8  27  1   
 16   9  11  1   
 17   9  12  1   
 18  11  13  1   
 19  11  28  1   
 20  11  29  1   
 21  12  14  1   
 22  12  30  1   
 23  12  31  1   
 24  13  15  1   
 25  13  16  1   
 26  13  32  1   
 27  14  15  1   
 28  14  33  1   
 29  14  34  1   
 30  15  17  1   
 31  15  35  1   
 32  16  18  1   
 33  16  36  1   
 34  16  37  1   
 35  17  19  1   
 36  17  20  1   
 37  17  38  1   
 38  18  20  1   
 39  19  21  1   
 40  19  22  1   
 41  19  39  1   
 42  20  40  1   
 43  20  41  1   
 44  21  22  1   
 45  21  42  1   
 46  21  43  1   
 47  22  44  1   
 48  22  45  1   
@<TRIPOS>SUBSTRUCTURE
  1 ****   9 GROUP 4 **** **** 0

# MOE 2024.06 (io_trps.svl 2023.06)
