@<TRIPOS>MOLECULE
NONAME
48 51 1 0 0 
SMALL
USER_CHARGES


@<TRIPOS>ATOM
  1 O       -2.3190     0.3950    -2.0730 O.2   1 <1>  -0.5700 
  2 C       -2.2550    -0.5810    -1.3660 C.2   1 <1>   0.5690 
  3 N       -1.8070    -0.4770    -0.0980 N.am  1 <1>  -0.7300 
  4 C       -2.6400    -1.9420    -1.9170 C.3   1 <1>  -0.0190 
  5 C       -1.7480    -1.6220     0.8480 C.3   1 <1>   0.2200 
  6 C       -1.4280    -2.8900    -1.9080 C.3   1 <1>   0.1200 
  7 C       -3.8860    -2.5460    -1.2350 C.3   1 <1>   0.1100 
  8 C       -0.7230    -2.6640     0.3540 C.3   1 <1>   0.1200 
  9 C       -3.1410    -2.2570     1.1200 C.3   1 <1>   0.1100 
 10 O       -1.2210    -3.4880    -0.6620 O.3   1 <1>  -0.5600 
 11 N       -4.1840    -1.9820     0.1010 N.3   1 <1>  -0.8100 
 12 C       -5.5460    -2.3670     0.5480 C.3   1 <1>   0.2530 
 13 C       -5.7660    -3.8740     0.7310 C.ar  1 <1>   0.1670 
 14 N       -6.2230    -4.5590    -0.2790 N.ar  1 <1>  -0.6200 
 15 C       -5.4860    -4.4470     1.9830 C.ar  1 <1>  -0.1500 
 16 C       -6.4210    -5.8900    -0.1070 C.ar  1 <1>   0.3100 
 17 C       -5.6790    -5.7800     2.1840 C.ar  1 <1>  -0.1500 
 18 C       -6.1630    -6.5490     1.1140 C.ar  1 <1>   0.0000 
 19 C       -6.9050    -6.6490    -1.1850 C.ar  1 <1>  -0.1500 
 20 C       -6.4020    -7.9330     1.2070 C.ar  1 <1>  -0.1500 
 21 C       -7.1320    -7.9950    -1.0760 C.ar  1 <1>  -0.1500 
 22 C       -6.8780    -8.6520     0.1420 C.ar  1 <1>   0.0820 
 23 O       -7.0820    -9.9790     0.3260 O.3   1 <1>  -0.3630 
 24 C       -7.5810   -10.8040    -0.7000 C.3   1 <1>   0.1200 
 25 C       -7.6920   -12.2240    -0.1520 C.3   1 <1>  -0.2400 
 26 H       -1.7050     0.4670     0.2730 H     1 <1>   0.3700 
 27 H       -2.8890    -1.7930    -2.9510 H     1 <1>   0.0800 
 28 H       -1.3730    -1.2460     1.7830 H     1 <1>   0.0800 
 29 H       -0.5300    -2.3750    -2.2060 H     1 <1>   0.0800 
 30 H       -1.6050    -3.6910    -2.6040 H     1 <1>   0.0800 
 31 H       -3.7840    -3.6160    -1.1660 H     1 <1>   0.0800 
 32 H       -4.7300    -2.3480    -1.8730 H     1 <1>   0.0800 
 33 H       -0.4670    -3.3150     1.1710 H     1 <1>   0.0800 
 34 H        0.1780    -2.1860     0.0110 H     1 <1>   0.0800 
 35 H       -3.4850    -1.8680     2.0610 H     1 <1>   0.0800 
 36 H       -3.0280    -3.3220     1.2400 H     1 <1>   0.0800 
 37 H       -5.7650    -1.8640     1.4730 H     1 <1>   0.0800 
 38 H       -6.2580    -2.0080    -0.1750 H     1 <1>   0.0800 
 39 H       -5.1200    -3.8190     2.7750 H     1 <1>   0.1500 
 40 H       -5.4740    -6.2510     3.1280 H     1 <1>   0.1500 
 41 H       -7.0930    -6.1290    -2.1060 H     1 <1>   0.1500 
 42 H       -6.2070    -8.4350     2.1370 H     1 <1>   0.1500 
 43 H       -7.5020    -8.5370    -1.9250 H     1 <1>   0.1500 
 44 H       -8.5480   -10.4340    -0.9960 H     1 <1>   0.0800 
 45 H       -6.8960   -10.7700    -1.5300 H     1 <1>   0.0800 
 46 H       -8.3660   -12.2430     0.6860 H     1 <1>   0.0800 
 47 H       -6.7250   -12.5770     0.1560 H     1 <1>   0.0800 
 48 H       -8.0720   -12.8800    -0.9140 H     1 <1>   0.0800 
@<TRIPOS>BOND
  1   1   2  2   
  2   2   3  am  
  3   2   4  1   
  4   3   5  1   
  5   3  26  1   
  6   4   6  1   
  7   4   7  1   
  8   4  27  1   
  9   5   8  1   
 10   5   9  1   
 11   5  28  1   
 12   6  10  1   
 13   6  29  1   
 14   6  30  1   
 15   7  11  1   
 16   7  31  1   
 17   7  32  1   
 18   8  10  1   
 19   8  33  1   
 20   8  34  1   
 21   9  11  1   
 22   9  35  1   
 23   9  36  1   
 24  11  12  1   
 25  12  13  1   
 26  12  37  1   
 27  12  38  1   
 28  13  14  ar  
 29  13  15  ar  
 30  14  16  ar  
 31  15  17  ar  
 32  15  39  1   
 33  16  18  ar  
 34  16  19  ar  
 35  17  18  ar  
 36  17  40  1   
 37  18  20  ar  
 38  19  21  ar  
 39  19  41  1   
 40  20  22  ar  
 41  20  42  1   
 42  21  22  ar  
 43  21  43  1   
 44  22  23  1   
 45  23  24  1   
 46  24  25  1   
 47  24  44  1   
 48  24  45  1   
 49  25  46  1   
 50  25  47  1   
 51  25  48  1   
@<TRIPOS>SUBSTRUCTURE
  1 ****  14 GROUP 4 **** **** 0

# MOE 2024.06 (io_trps.svl 2023.06)
