@<TRIPOS>MOLECULE
NONAME
45 46 1 0 0 
SMALL
USER_CHARGES


@<TRIPOS>ATOM
  1 CL      -0.2740    -1.1280     0.7560 Cl    1 <1>  -0.1770 
  2 C       -1.8510    -1.7810     0.3900 C.ar  1 <1>   0.1770 
  3 C       -2.9510    -1.3270     1.0920 C.ar  1 <1>  -0.1500 
  4 C       -1.9750    -2.7410    -0.5950 C.ar  1 <1>  -0.1500 
  5 C       -4.2010    -1.8470     0.7990 C.ar  1 <1>  -0.1500 
  6 C       -3.2270    -3.2570    -0.8840 C.ar  1 <1>  -0.1500 
  7 C       -4.3440    -2.8110    -0.1900 C.ar  1 <1>  -0.1440 
  8 C       -5.7170    -3.3800    -0.5110 C.3   1 <1>  -0.0160 
  9 C       -5.9800    -4.6470     0.3120 C.3   1 <1>  -0.1600 
 10 C       -7.3610    -5.2540    -0.0020 C.3   1 <1>  -0.0990 
 11 C       -7.6960    -6.5170     0.7890 C.2   1 <1>   0.5690 
 12 O       -6.8400    -6.9950     1.4960 O.2   1 <1>  -0.5700 
 13 N       -8.9430    -7.0780     0.7000 N.am  1 <1>  -0.6600 
 14 C       -9.2620    -8.3290     1.4640 C.3   1 <1>   0.3210 
 15 C      -10.0450    -6.5830    -0.1940 C.3   1 <1>   0.1400 
 16 C       -9.6120    -9.4850     0.5330 C.2   1 <1>   0.0460 
 17 C      -11.2000    -5.9770     0.6120 C.3   1 <1>   0.1200 
 18 N      -10.8950    -9.7540     0.2080 N.2   1 <1>  -0.5650 
 19 C       -8.7690   -10.3580    -0.0670 C.2   1 <1>  -0.3320 
 20 O      -10.6980    -5.0420     1.5060 O.3   1 <1>  -0.6800 
 21 C      -10.8060   -10.7800    -0.5740 C.2   1 <1>   0.0360 
 22 N       -9.5400   -11.1970    -0.7820 N.pl3 1 <1>   0.0330 
 23 C       -7.2530   -10.4550    -0.0190 C.3   1 <1>  -0.0600 
 24 H       -2.8290    -0.5810     1.8550 H     1 <1>   0.1500 
 25 H       -1.1030    -3.0790    -1.1260 H     1 <1>   0.1500 
 26 H       -5.0610    -1.4990     1.3440 H     1 <1>   0.1500 
 27 H       -3.3290    -4.0070    -1.6480 H     1 <1>   0.1500 
 28 H       -5.7720    -3.6090    -1.5610 H     1 <1>   0.0800 
 29 H       -6.4720    -2.6440    -0.2970 H     1 <1>   0.0800 
 30 H       -5.9250    -4.4090     1.3610 H     1 <1>   0.0800 
 31 H       -5.2140    -5.3740     0.1010 H     1 <1>   0.0800 
 32 H       -7.4030    -5.4990    -1.0470 H     1 <1>   0.0800 
 33 H       -8.1150    -4.5180     0.2070 H     1 <1>   0.0800 
 34 H      -10.0910    -8.1480     2.1240 H     1 <1>   0.0800 
 35 H       -8.4300    -8.6270     2.0750 H     1 <1>   0.0800 
 36 H      -10.4200    -7.3920    -0.7950 H     1 <1>   0.0800 
 37 H       -9.6830    -5.8400    -0.8800 H     1 <1>   0.0800 
 38 H      -11.7150    -6.7420     1.1680 H     1 <1>   0.0800 
 39 H      -11.9030    -5.4840    -0.0360 H     1 <1>   0.0800 
 40 H       -9.9520    -5.4480     1.9940 H     1 <1>   0.4000 
 41 H      -11.6500   -11.2710    -1.0270 H     1 <1>   0.1500 
 42 H       -9.2360   -11.9840    -1.3610 H     1 <1>   0.2700 
 43 H       -6.8430    -9.6640     0.5850 H     1 <1>   0.0800 
 44 H       -6.8440   -10.3680    -1.0090 H     1 <1>   0.0800 
 45 H       -6.9530   -11.3970     0.4040 H     1 <1>   0.0800 
@<TRIPOS>BOND
  1   1   2  1   
  2   2   3  ar  
  3   2   4  ar  
  4   3   5  ar  
  5   3  24  1   
  6   4   6  ar  
  7   4  25  1   
  8   5   7  ar  
  9   5  26  1   
 10   6   7  ar  
 11   6  27  1   
 12   7   8  1   
 13   8   9  1   
 14   8  28  1   
 15   8  29  1   
 16   9  10  1   
 17   9  30  1   
 18   9  31  1   
 19  10  11  1   
 20  10  32  1   
 21  10  33  1   
 22  11  12  2   
 23  11  13  am  
 24  13  14  1   
 25  13  15  1   
 26  14  16  1   
 27  14  34  1   
 28  14  35  1   
 29  15  17  1   
 30  15  36  1   
 31  15  37  1   
 32  16  18  1   
 33  16  19  2   
 34  17  20  1   
 35  17  38  1   
 36  17  39  1   
 37  18  21  2   
 38  19  22  1   
 39  19  23  1   
 40  20  40  1   
 41  21  22  1   
 42  21  41  1   
 43  22  42  1   
 44  23  43  1   
 45  23  44  1   
 46  23  45  1   
@<TRIPOS>SUBSTRUCTURE
  1 ****  10 GROUP 4 **** **** 0

# MOE 2024.06 (io_trps.svl 2023.06)
