@<TRIPOS>MOLECULE
NONAME
60 63 1 0 0 
SMALL
USER_CHARGES


@<TRIPOS>ATOM
  1 F       -1.5340     1.5380    -2.8250 F     1 <1>  -0.1900 
  2 C       -2.5580     1.9910    -2.1550 C.ar  1 <1>   0.1900 
  3 C       -2.6540     1.7040    -0.8080 C.ar  1 <1>  -0.1500 
  4 C       -3.5090     2.7410    -2.8180 C.ar  1 <1>  -0.1500 
  5 C       -3.7410     2.1890    -0.1010 C.ar  1 <1>  -0.1500 
  6 C       -4.5930     3.2220    -2.1030 C.ar  1 <1>  -0.1500 
  7 C       -4.7150     2.9520    -0.7420 C.ar  1 <1>  -0.1430 
  8 C       -5.9140     3.5050     0.0280 C.3   1 <1>   0.6280 
  9 N       -5.4670     4.6410     0.9190 N.4   1 <1>  -0.9590 
 10 C       -6.6430     2.3930     0.8250 C.2   1 <1>   0.5690 
 11 C       -6.6520     5.2940     1.5500 C.3   1 <1>   0.3430 
 12 C       -4.5470     5.6120     0.2610 C.3   1 <1>   0.3430 
 13 O       -6.2830     2.2180     1.9710 O.2   1 <1>  -0.5700 
 14 N       -7.7230     1.7240     0.3030 N.am  1 <1>  -0.6600 
 15 C       -6.1900     6.3130     2.5910 C.3   1 <1>  -0.1600 
 16 C       -4.0590     6.6370     1.2870 C.3   1 <1>  -0.1600 
 17 C       -8.8680     1.4520     1.2010 C.3   1 <1>   0.1400 
 18 C       -8.0950     1.7020    -1.1470 C.3   1 <1>   0.1400 
 19 C       -5.2260     7.3430     1.9900 C.3   1 <1>  -0.1600 
 20 C       -9.8390     2.6420     1.1060 C.3   1 <1>  -0.1600 
 21 C       -9.4990     2.2930    -1.3690 C.3   1 <1>  -0.1600 
 22 C       -9.8790     3.3150    -0.2860 C.3   1 <1>   0.4180 
 23 O       -8.9090     4.3530    -0.2890 O.3   1 <1>  -0.5600 
 24 C      -11.2720     3.8900    -0.5270 C.2   1 <1>  -0.2880 
 25 C       -9.0760     5.3660    -1.2500 C.3   1 <1>   0.1200 
 26 C      -11.5200     5.1650    -0.8310 C.2   1 <1>  -0.2760 
 27 C      -10.3750     6.1410    -1.0010 C.3   1 <1>  -0.0220 
 28 C      -12.9090     5.7480    -1.0250 C.3   1 <1>  -0.1020 
 29 H       -1.8930     1.1110    -0.3300 H     1 <1>   0.1500 
 30 H       -3.3950     2.9370    -3.8700 H     1 <1>   0.1500 
 31 H       -3.8170     1.9570     0.9500 H     1 <1>   0.1500 
 32 H       -5.3340     3.8060    -2.6230 H     1 <1>   0.1500 
 33 H       -6.6180     3.8950    -0.6840 H     1 <1>   0.0800 
 34 H       -4.9620     4.1690     1.6820 H     1 <1>   0.4500 
 35 H       -7.2770     4.5550     2.0280 H     1 <1>   0.0800 
 36 H       -7.2410     5.7910     0.7970 H     1 <1>   0.0800 
 37 H       -5.0630     6.1200    -0.5370 H     1 <1>   0.0800 
 38 H       -3.6950     5.0980    -0.1560 H     1 <1>   0.0800 
 39 H       -5.7150     5.7950     3.4060 H     1 <1>   0.0800 
 40 H       -7.0510     6.8190     2.9910 H     1 <1>   0.0800 
 41 H       -3.4480     7.3690     0.7880 H     1 <1>   0.0800 
 42 H       -3.4380     6.1430     2.0140 H     1 <1>   0.0800 
 43 H       -8.5440     1.3120     2.2200 H     1 <1>   0.0800 
 44 H       -9.3550     0.5450     0.8830 H     1 <1>   0.0800 
 45 H       -8.0740     0.6840    -1.5000 H     1 <1>   0.0800 
 46 H       -7.3820     2.2560    -1.7290 H     1 <1>   0.0800 
 47 H       -4.8480     7.9870     2.7680 H     1 <1>   0.0800 
 48 H       -5.7540     7.9610     1.2820 H     1 <1>   0.0800 
 49 H       -9.5960     3.3790     1.8490 H     1 <1>   0.0800 
 50 H      -10.8150     2.2680     1.3550 H     1 <1>   0.0800 
 51 H      -10.2140     1.4900    -1.3410 H     1 <1>   0.0800 
 52 H       -9.5740     2.7260    -2.3480 H     1 <1>   0.0800 
 53 H      -12.0530     3.1580    -0.4190 H     1 <1>   0.1500 
 54 H       -9.0960     4.9170    -2.2270 H     1 <1>   0.0800 
 55 H       -8.2340     6.0310    -1.1910 H     1 <1>   0.0800 
 56 H      -10.5580     6.7840    -1.8440 H     1 <1>   0.0800 
 57 H      -10.2820     6.7560    -0.1230 H     1 <1>   0.0800 
 58 H      -13.0790     6.5430    -0.3210 H     1 <1>   0.0800 
 59 H      -13.6600     4.9930    -0.8720 H     1 <1>   0.0800 
 60 H      -13.0150     6.1360    -2.0220 H     1 <1>   0.0800 
@<TRIPOS>BOND
  1   1   2  1   
  2   2   3  ar  
  3   2   4  ar  
  4   3   5  ar  
  5   3  29  1   
  6   4   6  ar  
  7   4  30  1   
  8   5   7  ar  
  9   5  31  1   
 10   6   7  ar  
 11   6  32  1   
 12   7   8  1   
 13   8   9  1   
 14   8  10  1   
 15   8  33  1   
 16   9  11  1   
 17   9  12  1   
 18   9  34  1   
 19  10  13  2   
 20  10  14  am  
 21  11  15  1   
 22  11  35  1   
 23  11  36  1   
 24  12  16  1   
 25  12  37  1   
 26  12  38  1   
 27  14  17  1   
 28  14  18  1   
 29  15  19  1   
 30  15  39  1   
 31  15  40  1   
 32  16  19  1   
 33  16  41  1   
 34  16  42  1   
 35  17  20  1   
 36  17  43  1   
 37  17  44  1   
 38  18  21  1   
 39  18  45  1   
 40  18  46  1   
 41  19  47  1   
 42  19  48  1   
 43  20  22  1   
 44  20  49  1   
 45  20  50  1   
 46  21  22  1   
 47  21  51  1   
 48  21  52  1   
 49  22  23  1   
 50  22  24  1   
 51  23  25  1   
 52  24  26  2   
 53  24  53  1   
 54  25  27  1   
 55  25  54  1   
 56  25  55  1   
 57  26  27  1   
 58  26  28  1   
 59  27  56  1   
 60  27  57  1   
 61  28  58  1   
 62  28  59  1   
 63  28  60  1   
@<TRIPOS>SUBSTRUCTURE
  1 ****   8 GROUP 4 **** **** 0

# MOE 2024.06 (io_trps.svl 2023.06)
