@<TRIPOS>MOLECULE
NONAME
38 39 1 0 0 
SMALL
USER_CHARGES


@<TRIPOS>ATOM
  1 O        0.9670    -0.5730    -1.4420 O.2   1 <1>  -0.5700 
  2 C        1.3620    -0.6830    -0.2990 C.2   1 <1>   0.7150 
  3 N        1.8200     0.4210     0.3420 N.am  1 <1>  -0.7300 
  4 C        1.4120    -1.9380     0.3950 C.2   1 <1>  -0.2370 
  5 C        2.0950     1.7200    -0.2910 C.3   1 <1>   0.3210 
  6 N        0.4420    -2.9220     0.3940 N.pl3 1 <1>   0.0480 
  7 C        2.4450    -2.3730     1.1880 C.2   1 <1>  -0.1500 
  8 C        3.5660     2.0250    -0.1150 C.2   1 <1>  -0.1810 
  9 C        0.8950    -3.9350     1.1790 C.2   1 <1>  -0.3020 
 10 C       -0.9120    -2.9770    -0.2390 C.3   1 <1>   0.1760 
 11 C        2.1190    -3.6300     1.6790 C.2   1 <1>  -0.1500 
 12 C        4.1790     2.9510     0.6400 C.2   1 <1>  -0.0400 
 13 C        4.6270     1.3620    -0.7340 C.2   1 <1>   0.1080 
 14 C       -0.8190    -3.2970    -1.7350 C.3   1 <1>  -0.2400 
 15 C       -1.7440    -1.7180     0.0390 C.3   1 <1>  -0.2400 
 16 O        5.4670     2.8230     0.4640 O.3   1 <1>  -0.0190 
 17 C        3.6660     4.0220     1.5800 C.3   1 <1>  -0.0600 
 18 N        5.7510     1.8630    -0.3670 N.2   1 <1>  -0.4100 
 19 C        4.5040     0.2070    -1.7070 C.3   1 <1>  -0.0590 
 20 H        2.2390     0.2880     1.2610 H     1 <1>   0.3700 
 21 H        1.4950     2.4770     0.1810 H     1 <1>   0.0800 
 22 H        1.8480     1.6960    -1.3390 H     1 <1>   0.0800 
 23 H        3.3650    -1.8550     1.4020 H     1 <1>   0.1500 
 24 H        0.3270    -4.8310     1.3510 H     1 <1>   0.1500 
 25 H       -1.4310    -3.7970     0.2250 H     1 <1>   0.0800 
 26 H        2.7340    -4.2290     2.3290 H     1 <1>   0.1500 
 27 H       -0.3560    -2.4950    -2.2790 H     1 <1>   0.0800 
 28 H       -1.8040    -3.4490    -2.1380 H     1 <1>   0.0800 
 29 H       -0.2480    -4.1960    -1.8850 H     1 <1>   0.0800 
 30 H       -1.3760    -0.8730    -0.5110 H     1 <1>   0.0800 
 31 H       -1.7370    -1.4930     1.0900 H     1 <1>   0.0800 
 32 H       -2.7620    -1.8860    -0.2640 H     1 <1>   0.0800 
 33 H        2.5940     4.0030     1.6320 H     1 <1>   0.0800 
 34 H        3.9820     4.9890     1.2330 H     1 <1>   0.0800 
 35 H        4.0660     3.8600     2.5650 H     1 <1>   0.0800 
 36 H        3.7170     0.3960    -2.4140 H     1 <1>   0.0800 
 37 H        4.2850    -0.6980    -1.1710 H     1 <1>   0.0800 
 38 H        5.4270     0.0790    -2.2420 H     1 <1>   0.0800 
@<TRIPOS>BOND
  1   1   2  2   
  2   2   3  am  
  3   2   4  1   
  4   3   5  1   
  5   3  20  1   
  6   4   6  1   
  7   4   7  2   
  8   5   8  1   
  9   5  21  1   
 10   5  22  1   
 11   6   9  1   
 12   6  10  1   
 13   7  11  1   
 14   7  23  1   
 15   8  12  2   
 16   8  13  1   
 17   9  11  2   
 18   9  24  1   
 19  10  14  1   
 20  10  15  1   
 21  10  25  1   
 22  11  26  1   
 23  12  16  1   
 24  12  17  1   
 25  13  18  2   
 26  13  19  1   
 27  14  27  1   
 28  14  28  1   
 29  14  29  1   
 30  15  30  1   
 31  15  31  1   
 32  15  32  1   
 33  16  18  1   
 34  17  33  1   
 35  17  34  1   
 36  17  35  1   
 37  19  36  1   
 38  19  37  1   
 39  19  38  1   
@<TRIPOS>SUBSTRUCTURE
  1 ****   3 GROUP 4 **** **** 0

# MOE 2024.06 (io_trps.svl 2023.06)
