@<TRIPOS>MOLECULE
NONAME
44 46 1 0 0 
SMALL
USER_CHARGES


@<TRIPOS>ATOM
  1 O       -0.7170    -0.9860     0.8610 O.2   1 <1>  -0.5700 
  2 C       -1.6310    -0.5430     0.2090 C.2   1 <1>   0.5690 
  3 N       -2.6280    -1.2550    -0.4010 N.am  1 <1>  -0.4770 
  4 C       -1.7870     0.9350    -0.0260 C.3   1 <1>  -0.0990 
  5 C       -2.8500    -2.6420    -0.3690 C.ar  1 <1>   0.1170 
  6 C       -3.5440    -0.3480    -1.1250 C.3   1 <1>   0.1400 
  7 C       -3.1930     1.0570    -0.6250 C.3   1 <1>  -0.1600 
  8 C       -3.3770    -3.3140    -1.4690 C.ar  1 <1>  -0.1500 
  9 C       -2.5570    -3.3950     0.7640 C.ar  1 <1>  -0.1500 
 10 C       -3.6080    -4.6760    -1.4320 C.ar  1 <1>  -0.1500 
 11 C       -2.7870    -4.7570     0.7990 C.ar  1 <1>  -0.1500 
 12 C       -3.3290    -5.4320    -0.2950 C.ar  1 <1>   0.0860 
 13 C       -3.5820    -6.8590    -0.2650 C.2   1 <1>   0.5440 
 14 O       -3.2330    -7.5560    -1.2040 O.2   1 <1>  -0.5700 
 15 N       -4.2440    -7.4640     0.7810 N.am  1 <1>  -0.6600 
 16 C       -4.2160    -8.9480     0.9340 C.3   1 <1>   0.3200 
 17 C       -5.2990    -6.7690     1.5790 C.3   1 <1>   0.1400 
 18 C       -5.3350    -9.5800     0.1250 C.2   1 <1>   0.0060 
 19 C       -6.5520    -6.5120     0.7320 C.3   1 <1>   0.1200 
 20 N       -6.3610   -10.2000     0.6160 N.2   1 <1>  -0.5650 
 21 N       -5.3350    -9.5140    -1.2220 N.pl3 1 <1>   0.0330 
 22 O       -7.5490    -5.9870     1.5390 O.3   1 <1>  -0.6800 
 23 C       -7.0650   -10.5630    -0.4740 C.2   1 <1>   0.0770 
 24 C       -6.4550   -10.1500    -1.6070 C.2   1 <1>  -0.3020 
 25 H       -1.0360     1.2560    -0.7240 H     1 <1>   0.0800 
 26 H       -1.6920     1.4810     0.8950 H     1 <1>   0.0800 
 27 H       -4.5700    -0.5960    -0.9130 H     1 <1>   0.0800 
 28 H       -3.3570    -0.4280    -2.1820 H     1 <1>   0.0800 
 29 H       -3.2380     1.7860    -1.4150 H     1 <1>   0.0800 
 30 H       -3.8910     1.3360     0.1450 H     1 <1>   0.0800 
 31 H       -3.6000    -2.7720    -2.3690 H     1 <1>   0.1500 
 32 H       -2.1410    -2.9080     1.6280 H     1 <1>   0.1500 
 33 H       -4.0090    -5.1740    -2.2980 H     1 <1>   0.1500 
 34 H       -2.5390    -5.3120     1.6860 H     1 <1>   0.1500 
 35 H       -4.3280    -9.2120     1.9710 H     1 <1>   0.0800 
 36 H       -3.2700    -9.3330     0.5960 H     1 <1>   0.0800 
 37 H       -4.9250    -5.8310     1.9470 H     1 <1>   0.0800 
 38 H       -5.5650    -7.3800     2.4250 H     1 <1>   0.0800 
 39 H       -6.9240    -7.4200     0.2910 H     1 <1>   0.0800 
 40 H       -6.3420    -5.7920    -0.0400 H     1 <1>   0.0800 
 41 H       -4.6170    -9.0310    -1.7830 H     1 <1>   0.2700 
 42 H       -7.9670    -6.6980     2.0670 H     1 <1>   0.4000 
 43 H       -7.9890   -11.1110    -0.3850 H     1 <1>   0.1500 
 44 H       -6.7470   -10.2700    -2.6340 H     1 <1>   0.1500 
@<TRIPOS>BOND
  1   1   2  2   
  2   2   3  am  
  3   2   4  1   
  4   3   5  1   
  5   3   6  1   
  6   4   7  1   
  7   4  25  1   
  8   4  26  1   
  9   5   8  ar  
 10   5   9  ar  
 11   6   7  1   
 12   6  27  1   
 13   6  28  1   
 14   7  29  1   
 15   7  30  1   
 16   8  10  ar  
 17   8  31  1   
 18   9  11  ar  
 19   9  32  1   
 20  10  12  ar  
 21  10  33  1   
 22  11  12  ar  
 23  11  34  1   
 24  12  13  1   
 25  13  14  2   
 26  13  15  am  
 27  15  16  1   
 28  15  17  1   
 29  16  18  1   
 30  16  35  1   
 31  16  36  1   
 32  17  19  1   
 33  17  37  1   
 34  17  38  1   
 35  18  20  2   
 36  18  21  1   
 37  19  22  1   
 38  19  39  1   
 39  19  40  1   
 40  20  23  1   
 41  21  24  1   
 42  21  41  1   
 43  22  42  1   
 44  23  24  2   
 45  23  43  1   
 46  24  44  1   
@<TRIPOS>SUBSTRUCTURE
  1 ****  12 GROUP 4 **** **** 0

# MOE 2024.06 (io_trps.svl 2023.06)
