@<TRIPOS>MOLECULE
NONAME
48 50 1 0 0 
SMALL
USER_CHARGES


@<TRIPOS>ATOM
  1 O       -0.8660    -0.8590     0.5050 O.2   1 <1>  -0.5700 
  2 C       -1.6960     0.0170     0.4410 C.2   1 <1>   0.5690 
  3 N       -3.0370    -0.2600     0.3840 N.am  1 <1>  -0.6600 
  4 C       -1.2040     1.4540     0.4260 C.3   1 <1>  -0.0990 
  5 C       -4.0900     0.7640     0.1370 C.3   1 <1>   0.1400 
  6 C       -3.5160    -1.6690     0.4300 C.3   1 <1>   0.1400 
  7 C       -2.2210     2.4410    -0.1620 C.3   1 <1>  -0.1600 
  8 C       -3.5980     2.1800     0.4540 C.3   1 <1>  -0.1600 
  9 C       -3.4420    -2.3020    -0.9620 C.3   1 <1>   0.1400 
 10 N       -3.9670    -3.6870    -0.9220 N.am  1 <1>  -0.7300 
 11 C       -5.2810    -4.0360    -0.9190 C.2   1 <1>   0.5690 
 12 O       -6.1460    -3.1930    -0.9370 O.2   1 <1>  -0.5700 
 13 C       -5.6570    -5.5220    -0.8570 C.3   1 <1>   0.2610 
 14 O       -4.4770    -6.3240    -0.8930 O.3   1 <1>  -0.5600 
 15 C       -6.5160    -5.7840     0.4130 C.3   1 <1>   0.3640 
 16 C       -4.6990    -7.7120    -0.8030 C.3   1 <1>   0.1810 
 17 N       -6.3310    -7.1470     0.9730 N.am  1 <1>  -0.7300 
 18 C       -8.0050    -5.5930     0.1280 C.ar  1 <1>  -0.1440 
 19 C       -5.5230    -8.0810     0.4290 C.2   1 <1>   0.5690 
 20 C       -8.6370    -4.4180     0.5120 C.ar  1 <1>  -0.1500 
 21 C       -8.7500    -6.5740    -0.5170 C.ar  1 <1>  -0.1500 
 22 O       -5.4700    -9.1940     0.8860 O.2   1 <1>  -0.5700 
 23 C       -9.9850    -4.2280     0.2620 C.ar  1 <1>  -0.1500 
 24 C      -10.0970    -6.3850    -0.7680 C.ar  1 <1>  -0.1500 
 25 C      -10.7160    -5.2110    -0.3780 C.ar  1 <1>  -0.1500 
 26 H       -0.9820     1.7290     1.4400 H     1 <1>   0.0800 
 27 H       -0.2880     1.5020    -0.1350 H     1 <1>   0.0800 
 28 H       -4.3830     0.7100    -0.8980 H     1 <1>   0.0800 
 29 H       -4.9550     0.5480     0.7410 H     1 <1>   0.0800 
 30 H       -2.8990    -2.2310     1.1090 H     1 <1>   0.0800 
 31 H       -4.5310    -1.6950     0.7880 H     1 <1>   0.0800 
 32 H       -1.9080     3.4510     0.0380 H     1 <1>   0.0800 
 33 H       -2.2740     2.3090    -1.2300 H     1 <1>   0.0800 
 34 H       -4.3090     2.8930     0.0730 H     1 <1>   0.0800 
 35 H       -3.5510     2.3060     1.5220 H     1 <1>   0.0800 
 36 H       -2.4210    -2.3160    -1.3010 H     1 <1>   0.0800 
 37 H       -4.0330    -1.7230    -1.6510 H     1 <1>   0.0800 
 38 H       -3.2770    -4.4470    -0.8960 H     1 <1>   0.3700 
 39 H       -6.2330    -5.7550    -1.7340 H     1 <1>   0.0800 
 40 H       -6.2180    -5.0810     1.1720 H     1 <1>   0.0800 
 41 H       -5.2080    -8.0380    -1.6920 H     1 <1>   0.0800 
 42 H       -3.7420    -8.1970    -0.7500 H     1 <1>   0.0800 
 43 H       -6.9300    -7.4120     1.7560 H     1 <1>   0.3700 
 44 H       -8.0830    -3.6360     1.0030 H     1 <1>   0.1500 
 45 H       -8.2890    -7.4960    -0.8270 H     1 <1>   0.1500 
 46 H      -10.4630    -3.3120     0.5620 H     1 <1>   0.1500 
 47 H      -10.6650    -7.1510    -1.2660 H     1 <1>   0.1500 
 48 H      -11.7640    -5.0630    -0.5730 H     1 <1>   0.1500 
@<TRIPOS>BOND
  1   1   2  2   
  2   2   3  am  
  3   2   4  1   
  4   3   5  1   
  5   3   6  1   
  6   4   7  1   
  7   4  26  1   
  8   4  27  1   
  9   5   8  1   
 10   5  28  1   
 11   5  29  1   
 12   6   9  1   
 13   6  30  1   
 14   6  31  1   
 15   7   8  1   
 16   7  32  1   
 17   7  33  1   
 18   8  34  1   
 19   8  35  1   
 20   9  10  1   
 21   9  36  1   
 22   9  37  1   
 23  10  11  am  
 24  10  38  1   
 25  11  12  2   
 26  11  13  1   
 27  13  14  1   
 28  13  15  1   
 29  13  39  1   
 30  14  16  1   
 31  15  17  1   
 32  15  18  1   
 33  15  40  1   
 34  16  19  1   
 35  16  41  1   
 36  16  42  1   
 37  17  19  am  
 38  17  43  1   
 39  18  20  ar  
 40  18  21  ar  
 41  19  22  2   
 42  20  23  ar  
 43  20  44  1   
 44  21  24  ar  
 45  21  45  1   
 46  23  25  ar  
 47  23  46  1   
 48  24  25  ar  
 49  24  47  1   
 50  25  48  1   
@<TRIPOS>SUBSTRUCTURE
  1 ****  11 GROUP 4 **** **** 0

# MOE 2024.06 (io_trps.svl 2023.06)
