@<TRIPOS>MOLECULE
NONAME
46 48 1 0 0 
SMALL
USER_CHARGES


@<TRIPOS>ATOM
  1 S       -0.3080    -0.2880    -1.4960 S.o2  1 <1>   1.4470 
  2 O       -1.1760    -1.3680    -1.9150 O.2   1 <1>  -0.6500 
  3 O        0.4240     0.4400    -2.5080 O.2   1 <1>  -0.6500 
  4 N       -1.2810     0.8080    -0.6410 N.am  1 <1>  -0.8490 
  5 C        0.8360    -0.9100    -0.2440 C.ar  1 <1>  -0.0090 
  6 C       -2.2530     0.1360     0.2260 C.3   1 <1>   0.1960 
  7 C       -1.9240     1.7750    -1.5340 C.3   1 <1>   0.1960 
  8 C        1.7560    -0.0720     0.3730 C.ar  1 <1>   0.1900 
  9 C        0.8290    -2.2430     0.1550 C.ar  1 <1>  -0.1500 
 10 C       -3.0180     1.1620     1.0640 C.3   1 <1>  -0.1600 
 11 C       -2.6500     2.8390    -0.7080 C.3   1 <1>  -0.1600 
 12 F        1.8020     1.1900     0.0410 F     1 <1>  -0.1900 
 13 C        2.6480    -0.5000     1.3450 C.ar  1 <1>  -0.1500 
 14 C        1.7160    -2.6730     1.1270 C.ar  1 <1>   0.1900 
 15 C       -3.7330     2.2080     0.1900 C.3   1 <1>   0.2800 
 16 C        2.6290    -1.8290     1.7320 C.ar  1 <1>  -0.1500 
 17 F        1.6880    -3.9270     1.4870 F     1 <1>  -0.1900 
 18 O       -4.1510     3.2080     1.0870 O.3   1 <1>  -0.5600 
 19 C       -4.9500     1.5850    -0.5970 C.3   1 <1>   0.2000 
 20 C       -5.2440     3.9900     0.7330 C.3   1 <1>   0.1200 
 21 O       -5.1210     2.2030    -1.8490 O.3   1 <1>  -0.6800 
 22 C       -6.2790     1.6860     0.2050 C.3   1 <1>   0.2800 
 23 C       -6.5200     3.1330     0.6820 C.3   1 <1>  -0.1600 
 24 O       -6.1840     0.8800     1.3230 O.3   1 <1>  -0.6800 
 25 C       -7.4920     1.1410    -0.5600 C.3   1 <1>  -0.2400 
 26 H       -2.9360    -0.4500    -0.3660 H     1 <1>   0.0800 
 27 H       -1.7370    -0.5350     0.8920 H     1 <1>   0.0800 
 28 H       -1.1770     2.2650    -2.1350 H     1 <1>   0.0800 
 29 H       -2.6090     1.2700    -2.1970 H     1 <1>   0.0800 
 30 H        0.1410    -2.9450    -0.2850 H     1 <1>   0.1500 
 31 H       -2.3150     1.6580     1.7100 H     1 <1>   0.0800 
 32 H       -3.7220     0.6470     1.6890 H     1 <1>   0.0800 
 33 H       -3.0710     3.5720    -1.3690 H     1 <1>   0.0800 
 34 H       -1.9220     3.3390    -0.0940 H     1 <1>   0.0800 
 35 H        3.3390     0.1980     1.7860 H     1 <1>   0.1500 
 36 H        3.3020    -2.2050     2.4820 H     1 <1>   0.1500 
 37 H       -4.7610     0.5510    -0.8160 H     1 <1>   0.0800 
 38 H       -5.3450     4.7670     1.4710 H     1 <1>   0.0800 
 39 H       -5.0370     4.4490    -0.2180 H     1 <1>   0.0800 
 40 H       -5.3080     3.1510    -1.7240 H     1 <1>   0.4000 
 41 H       -7.1980     3.6260     0.0100 H     1 <1>   0.0800 
 42 H       -6.9890     3.1360     1.6500 H     1 <1>   0.0800 
 43 H       -6.9830     0.9840     1.8700 H     1 <1>   0.4000 
 44 H       -7.6640     1.7160    -1.4520 H     1 <1>   0.0800 
 45 H       -8.3800     1.1890     0.0440 H     1 <1>   0.0800 
 46 H       -7.3150     0.1220    -0.8540 H     1 <1>   0.0800 
@<TRIPOS>BOND
  1   1   2  2   
  2   1   3  2   
  3   1   4  am  
  4   1   5  1   
  5   4   6  1   
  6   4   7  1   
  7   5   8  ar  
  8   5   9  ar  
  9   6  10  1   
 10   6  26  1   
 11   6  27  1   
 12   7  11  1   
 13   7  28  1   
 14   7  29  1   
 15   8  12  1   
 16   8  13  ar  
 17   9  14  ar  
 18   9  30  1   
 19  10  15  1   
 20  10  31  1   
 21  10  32  1   
 22  11  15  1   
 23  11  33  1   
 24  11  34  1   
 25  13  16  ar  
 26  13  35  1   
 27  14  16  ar  
 28  14  17  1   
 29  15  18  1   
 30  15  19  1   
 31  16  36  1   
 32  18  20  1   
 33  19  21  1   
 34  19  22  1   
 35  19  37  1   
 36  20  23  1   
 37  20  38  1   
 38  20  39  1   
 39  21  40  1   
 40  22  23  1   
 41  22  24  1   
 42  22  25  1   
 43  23  41  1   
 44  23  42  1   
 45  24  43  1   
 46  25  44  1   
 47  25  45  1   
 48  25  46  1   
@<TRIPOS>SUBSTRUCTURE
  1 ****   6 GROUP 4 **** **** 0

# MOE 2024.06 (io_trps.svl 2023.06)
