@<TRIPOS>MOLECULE
NONAME
45 47 1 0 0 
SMALL
USER_CHARGES


@<TRIPOS>ATOM
  1 O       -1.7050     0.2540    -1.8860 O.2   1 <1>  -0.5700 
  2 C       -1.7360     0.5090    -0.6960 C.2   1 <1>   0.6160 
  3 N       -1.7690    -0.5450     0.1700 N.am  1 <1>  -0.7300 
  4 C       -1.7460     1.8720    -0.2240 C.2   1 <1>   0.0290 
  5 C       -1.8900    -1.9720    -0.2070 C.3   1 <1>   0.2200 
  6 C       -2.6150     2.1830     0.8760 C.2   1 <1>   0.6160 
  7 C       -0.9900     2.8940    -0.7670 C.2   1 <1>  -0.1380 
  8 C       -3.3270    -2.4560    -0.0770 C.3   1 <1>  -0.0800 
  9 C       -1.2120    -2.8250     0.8590 C.3   1 <1>   0.1200 
 10 O       -3.3140     1.3700     1.4690 O.2   1 <1>  -0.5700 
 11 N       -2.6830     3.4730     1.3250 N.am  1 <1>  -0.5390 
 12 C       -1.1120     4.2080    -0.2590 C.2   1 <1>  -0.1500 
 13 C       -0.0020     2.6930    -1.9120 C.3   1 <1>  -0.1020 
 14 C       -3.4440    -2.7570     1.4190 C.3   1 <1>   0.1200 
 15 C       -4.4160    -1.5100    -0.6170 C.3   1 <1>  -0.0170 
 16 O       -2.1430    -2.9540     1.8930 O.3   1 <1>  -0.5600 
 17 C       -1.9520     4.4840     0.7750 C.2   1 <1>  -0.0290 
 18 C       -5.7980    -2.1250    -0.4580 C.ar  1 <1>  -0.1430 
 19 C       -2.1280     5.8690     1.3640 C.3   1 <1>  -0.1020 
 20 C       -6.2830    -3.0690    -1.3400 C.ar  1 <1>  -0.1500 
 21 C       -6.6370    -1.7690     0.5780 C.ar  1 <1>  -0.1500 
 22 C       -7.5460    -3.6020    -1.1440 C.ar  1 <1>   0.1600 
 23 C       -7.8830    -2.3630     0.6840 C.ar  1 <1>   0.1600 
 24 N       -8.3580    -3.2730    -0.1520 N.ar  1 <1>  -0.6200 
 25 H       -2.0550    -0.3520     1.1380 H     1 <1>   0.3700 
 26 H       -1.4770    -2.1430    -1.1870 H     1 <1>   0.0800 
 27 H       -3.4080    -3.3930    -0.6000 H     1 <1>   0.0800 
 28 H       -0.3090    -2.3780     1.2360 H     1 <1>   0.0800 
 29 H       -1.0050    -3.8100     0.4810 H     1 <1>   0.0800 
 30 H       -3.3260     3.6230     2.1030 H     1 <1>   0.3700 
 31 H       -0.5250     4.9910    -0.7080 H     1 <1>   0.1500 
 32 H        0.7930     3.4150    -1.8640 H     1 <1>   0.0800 
 33 H       -0.5110     2.7990    -2.8530 H     1 <1>   0.0800 
 34 H        0.4430     1.7150    -1.8720 H     1 <1>   0.0800 
 35 H       -4.0290    -3.6400     1.6090 H     1 <1>   0.0800 
 36 H       -3.8600    -1.9210     1.9550 H     1 <1>   0.0800 
 37 H       -4.2310    -1.3070    -1.6580 H     1 <1>   0.0800 
 38 H       -4.3920    -0.5690    -0.0970 H     1 <1>   0.0800 
 39 H       -3.1530     6.1810     1.2690 H     1 <1>   0.0800 
 40 H       -1.5060     6.5810     0.8530 H     1 <1>   0.0800 
 41 H       -1.8590     5.8630     2.4050 H     1 <1>   0.0800 
 42 H       -5.6910    -3.3930    -2.1760 H     1 <1>   0.1500 
 43 H       -6.3330    -1.0360     1.3040 H     1 <1>   0.1500 
 44 H       -7.9090    -4.3370    -1.8420 H     1 <1>   0.1500 
 45 H       -8.5240    -2.0740     1.4990 H     1 <1>   0.1500 
@<TRIPOS>BOND
  1   1   2  2   
  2   2   3  am  
  3   2   4  1   
  4   3   5  1   
  5   3  25  1   
  6   4   6  1   
  7   4   7  2   
  8   5   8  1   
  9   5   9  1   
 10   5  26  1   
 11   6  10  2   
 12   6  11  am  
 13   7  12  1   
 14   7  13  1   
 15   8  14  1   
 16   8  15  1   
 17   8  27  1   
 18   9  16  1   
 19   9  28  1   
 20   9  29  1   
 21  11  17  1   
 22  11  30  1   
 23  12  17  2   
 24  12  31  1   
 25  13  32  1   
 26  13  33  1   
 27  13  34  1   
 28  14  16  1   
 29  14  35  1   
 30  14  36  1   
 31  15  18  1   
 32  15  37  1   
 33  15  38  1   
 34  17  19  1   
 35  18  20  ar  
 36  18  21  ar  
 37  19  39  1   
 38  19  40  1   
 39  19  41  1   
 40  20  22  ar  
 41  20  42  1   
 42  21  23  ar  
 43  21  43  1   
 44  22  24  ar  
 45  22  44  1   
 46  23  24  ar  
 47  23  45  1   
@<TRIPOS>SUBSTRUCTURE
  1 ****   3 GROUP 4 **** **** 0

# MOE 2024.06 (io_trps.svl 2023.06)
