@<TRIPOS>MOLECULE
NONAME
42 43 1 0 0 
SMALL
USER_CHARGES


@<TRIPOS>ATOM
  1 S        0.3520    -0.0380    -0.9360 S.o2  1 <1>   1.3330 
  2 O        1.5780    -0.7820    -1.1230 O.2   1 <1>  -0.6500 
  3 O       -0.5010     0.2240    -2.0730 O.2   1 <1>  -0.6500 
  4 N       -0.5940    -0.8720     0.2030 N.am  1 <1>  -0.8490 
  5 C        0.7220     1.5190    -0.1110 C.3   1 <1>  -0.0550 
  6 C       -2.0110    -0.4910     0.1770 C.3   1 <1>   0.1160 
  7 C       -0.4740    -2.3270     0.0660 C.3   1 <1>   0.1160 
  8 C        1.8660     1.5250     0.9290 C.3   1 <1>  -0.0800 
  9 C        3.2500     1.3060     0.3120 C.3   1 <1>   0.2200 
 10 C        1.7950     0.4830     2.0520 C.3   1 <1>   0.1200 
 11 N        4.0770     2.5100     0.5410 N.am  1 <1>  -0.7300 
 12 C        3.7990     0.1200     1.1000 C.3   1 <1>   0.1200 
 13 O        3.1180     0.1460     2.3120 O.3   1 <1>  -0.5600 
 14 C        4.0570     3.6310    -0.2340 C.2   1 <1>   0.7160 
 15 O        3.3340     3.6310    -1.2140 O.2   1 <1>  -0.5700 
 16 C        4.8590     4.7780     0.1430 C.2   1 <1>  -0.0860 
 17 C        5.2800     5.8650    -0.5920 C.2   1 <1>  -0.3320 
 18 C        5.3810     4.9950     1.4380 C.2   1 <1>  -0.1500 
 19 N        6.0070     6.7000     0.1860 N.pl3 1 <1>   0.0330 
 20 C        5.0300     6.1830    -2.0580 C.3   1 <1>  -0.0600 
 21 C        6.0670     6.1630     1.4280 C.2   1 <1>  -0.3020 
 22 H        0.9800     2.2390    -0.8640 H     1 <1>   0.0800 
 23 H       -0.1700     1.8770     0.3620 H     1 <1>   0.0800 
 24 H       -2.5400    -0.9770     0.9800 H     1 <1>   0.0800 
 25 H       -2.4610    -0.7750    -0.7600 H     1 <1>   0.0800 
 26 H       -2.1140     0.5740     0.2990 H     1 <1>   0.0800 
 27 H       -1.0780    -2.8250     0.8050 H     1 <1>   0.0800 
 28 H        0.5500    -2.6290     0.2120 H     1 <1>   0.0800 
 29 H       -0.7880    -2.6370    -0.9170 H     1 <1>   0.0800 
 30 H        1.8420     2.4900     1.4040 H     1 <1>   0.0800 
 31 H        3.2210     1.0840    -0.7420 H     1 <1>   0.0800 
 32 H        1.2920    -0.4190     1.7590 H     1 <1>   0.0800 
 33 H        1.3490     0.8740     2.9500 H     1 <1>   0.0800 
 34 H        4.5980     2.5270     1.4160 H     1 <1>   0.3700 
 35 H        4.8590     0.1820     1.2750 H     1 <1>   0.0800 
 36 H        3.5610    -0.8070     0.6060 H     1 <1>   0.0800 
 37 H        5.2420     4.3410     2.2800 H     1 <1>   0.1500 
 38 H        6.4370     7.5840    -0.1100 H     1 <1>   0.2700 
 39 H        4.5400     5.3670    -2.5560 H     1 <1>   0.0800 
 40 H        5.9630     6.3680    -2.5610 H     1 <1>   0.0800 
 41 H        4.4070     7.0550    -2.1450 H     1 <1>   0.0800 
 42 H        6.5930     6.6410     2.2370 H     1 <1>   0.1500 
@<TRIPOS>BOND
  1   1   2  2   
  2   1   3  2   
  3   1   4  am  
  4   1   5  1   
  5   4   6  1   
  6   4   7  1   
  7   5   8  1   
  8   5  22  1   
  9   5  23  1   
 10   6  24  1   
 11   6  25  1   
 12   6  26  1   
 13   7  27  1   
 14   7  28  1   
 15   7  29  1   
 16   8   9  1   
 17   8  10  1   
 18   8  30  1   
 19   9  11  1   
 20   9  12  1   
 21   9  31  1   
 22  10  13  1   
 23  10  32  1   
 24  10  33  1   
 25  11  14  am  
 26  11  34  1   
 27  12  13  1   
 28  12  35  1   
 29  12  36  1   
 30  14  15  2   
 31  14  16  1   
 32  16  17  2   
 33  16  18  1   
 34  17  19  1   
 35  17  20  1   
 36  18  21  2   
 37  18  37  1   
 38  19  21  1   
 39  19  38  1   
 40  20  39  1   
 41  20  40  1   
 42  20  41  1   
 43  21  42  1   
@<TRIPOS>SUBSTRUCTURE
  1 ****   9 GROUP 4 **** **** 0

# MOE 2024.06 (io_trps.svl 2023.06)
