@<TRIPOS>MOLECULE
NONAME
33 35 1 0 0 
SMALL
USER_CHARGES


@<TRIPOS>ATOM
  1 S        0.1890    -0.4720    -0.0460 S.3   1 <1>  -0.4600 
  2 C       -1.2450     0.6350     0.1440 C.3   1 <1>   0.2510 
  3 C       -0.6910    -2.0560    -0.1720 C.3   1 <1>   0.2510 
  4 C       -2.4190    -0.3140     0.0820 C.2   1 <1>   0.1080 
  5 C       -2.1450    -1.6560    -0.0760 C.2   1 <1>  -0.1810 
  6 N       -3.6850    -0.0600     0.1550 N.2   1 <1>  -0.7070 
  7 C       -3.3490    -2.2730    -0.0950 C.2   1 <1>  -0.0880 
  8 N       -4.2770    -1.2760     0.0490 N.pl3 1 <1>   0.3140 
  9 N       -3.5660    -3.6640    -0.2550 N.am  1 <1>  -0.4940 
 10 C       -5.7430    -1.3580     0.0040 C.3   1 <1>   0.0160 
 11 C       -4.5040    -4.5140     0.2750 C.2   1 <1>   0.7160 
 12 O       -5.4290    -4.0830     0.9330 O.2   1 <1>  -0.5700 
 13 C       -4.3750    -5.9240     0.0180 C.2   1 <1>  -0.0860 
 14 C       -3.2980    -6.7390    -0.0330 C.2   1 <1>  -0.0400 
 15 C       -5.3990    -6.8170    -0.2630 C.2   1 <1>   0.1080 
 16 O       -3.6230    -7.9710    -0.3400 O.3   1 <1>  -0.0190 
 17 C       -1.8290    -6.4570     0.2270 C.3   1 <1>  -0.0600 
 18 N       -4.9290    -7.9880    -0.4720 N.2   1 <1>  -0.4100 
 19 C       -6.8770    -6.4900    -0.3240 C.3   1 <1>  -0.0590 
 20 H       -1.2480     1.3360    -0.6710 H     1 <1>   0.0800 
 21 H       -1.1740     1.1290     1.0950 H     1 <1>   0.0800 
 22 H       -0.3810    -2.6750     0.6510 H     1 <1>   0.0800 
 23 H       -0.4460    -2.4980    -1.1200 H     1 <1>   0.0800 
 24 H       -2.8630    -4.1450    -0.8120 H     1 <1>   0.3700 
 25 H       -6.1410    -0.4080    -0.2990 H     1 <1>   0.0800 
 26 H       -6.1090    -1.6030     0.9840 H     1 <1>   0.0800 
 27 H       -6.0390    -2.1140    -0.6980 H     1 <1>   0.0800 
 28 H       -1.6820    -5.4630     0.6060 H     1 <1>   0.0800 
 29 H       -1.2670    -6.5810    -0.6810 H     1 <1>   0.0800 
 30 H       -1.4570    -7.1540     0.9560 H     1 <1>   0.0800 
 31 H       -7.0500    -5.6880    -1.0180 H     1 <1>   0.0800 
 32 H       -7.2250    -6.1960     0.6490 H     1 <1>   0.0800 
 33 H       -7.4330    -7.3530    -0.6440 H     1 <1>   0.0800 
@<TRIPOS>BOND
  1   1   2  1   
  2   1   3  1   
  3   2   4  1   
  4   2  20  1   
  5   2  21  1   
  6   3   5  1   
  7   3  22  1   
  8   3  23  1   
  9   4   5  1   
 10   4   6  2   
 11   5   7  2   
 12   6   8  1   
 13   7   8  1   
 14   7   9  1   
 15   8  10  1   
 16   9  11  am  
 17   9  24  1   
 18  10  25  1   
 19  10  26  1   
 20  10  27  1   
 21  11  12  2   
 22  11  13  1   
 23  13  14  2   
 24  13  15  1   
 25  14  16  1   
 26  14  17  1   
 27  15  18  2   
 28  15  19  1   
 29  16  18  1   
 30  17  28  1   
 31  17  29  1   
 32  17  30  1   
 33  19  31  1   
 34  19  32  1   
 35  19  33  1   
@<TRIPOS>SUBSTRUCTURE
  1 ****   9 GROUP 4 **** **** 0

# MOE 2024.06 (io_trps.svl 2023.06)
