@<TRIPOS>MOLECULE
NONAME
52 54 1 0 0 
SMALL
USER_CHARGES


@<TRIPOS>ATOM
  1 O        2.2250    -0.6990     1.9290 O.co2 1 <1>  -0.9000 
  2 C        1.7230     0.2130     1.2590 C.2   1 <1>   0.9060 
  3 O        1.0730     1.1140     1.7780 O.co2 1 <1>  -0.9000 
  4 C        2.1250     0.3320    -0.2230 C.3   1 <1>  -0.1060 
  5 C        3.5880    -0.1330    -0.3250 C.3   1 <1>   0.4230 
  6 C        2.0850     1.8140    -0.6830 C.3   1 <1>  -0.1600 
  7 C        1.2100    -0.5070    -1.1450 C.3   1 <1>  -0.1600 
  8 N        3.6840    -1.6160    -0.0530 N.4   1 <1>  -0.9590 
  9 C        4.4450     0.7590     0.6310 C.3   1 <1>   0.3430 
 10 C        2.8990     2.7190     0.2490 C.3   1 <1>   0.3430 
 11 C        1.3950    -2.0110    -0.9050 C.3   1 <1>  -0.1600 
 12 C        2.8620    -2.4320    -0.9910 C.3   1 <1>   0.3430 
 13 C        5.0500    -2.1870     0.1140 C.3   1 <1>   0.2630 
 14 N        4.3180     2.2430     0.3640 N.4   1 <1>  -0.9590 
 15 C        4.9710     3.0290     1.4310 C.3   1 <1>   0.5230 
 16 C        5.4450     4.2910     0.7540 C.2   1 <1>  -0.3320 
 17 N        6.7010     4.4680     0.2480 N.pl3 1 <1>   0.0480 
 18 C        4.7240     5.4230     0.5490 C.2   1 <1>  -0.1500 
 19 C        6.7410     5.7070    -0.2860 C.2   1 <1>  -0.3020 
 20 C        7.8500     3.5430     0.3040 C.3   1 <1>   0.0160 
 21 C        5.5360     6.3470    -0.1320 C.2   1 <1>  -0.0860 
 22 C        5.1100     7.6590    -0.5430 C.2   1 <1>   0.5950 
 23 O        3.9780     8.0500    -0.4140 O.2   1 <1>  -0.5700 
 24 C        6.1150     8.5950    -1.1760 C.3   1 <1>  -0.1790 
 25 H        3.9280     0.0390    -1.3310 H     1 <1>   0.0800 
 26 H        1.0650     2.1600    -0.6610 H     1 <1>   0.0800 
 27 H        2.4370     1.9220    -1.6940 H     1 <1>   0.0800 
 28 H        0.1800    -0.2430    -0.9630 H     1 <1>   0.0800 
 29 H        1.4250    -0.2890    -2.1770 H     1 <1>   0.0800 
 30 H        3.1770    -1.6840     0.8740 H     1 <1>   0.4500 
 31 H        5.4780     0.4730     0.5440 H     1 <1>   0.0800 
 32 H        4.1290     0.5640     1.6440 H     1 <1>   0.0800 
 33 H        2.4380     2.7290     1.2250 H     1 <1>   0.0800 
 34 H        2.8770     3.7300    -0.1260 H     1 <1>   0.0800 
 35 H        0.8270    -2.5620    -1.6340 H     1 <1>   0.0800 
 36 H        1.0070    -2.2790     0.0640 H     1 <1>   0.0800 
 37 H        3.2180    -2.3020    -1.9990 H     1 <1>   0.0800 
 38 H        2.9410    -3.4760    -0.7330 H     1 <1>   0.0800 
 39 H        5.6140    -2.0900    -0.7990 H     1 <1>   0.0800 
 40 H        4.9810    -3.2340     0.3660 H     1 <1>   0.0800 
 41 H        5.5730    -1.6870     0.9110 H     1 <1>   0.0800 
 42 H        4.7970     2.5260    -0.5000 H     1 <1>   0.4500 
 43 H        4.2680     3.2550     2.2180 H     1 <1>   0.0800 
 44 H        5.8090     2.4990     1.8530 H     1 <1>   0.0800 
 45 H        3.7060     5.6420     0.8340 H     1 <1>   0.1500 
 46 H        7.6260     6.1010    -0.7550 H     1 <1>   0.1500 
 47 H        8.7030     4.0020    -0.1630 H     1 <1>   0.0800 
 48 H        7.6120     2.6350    -0.2180 H     1 <1>   0.0800 
 49 H        8.0890     3.3280     1.3300 H     1 <1>   0.0800 
 50 H        6.9730     8.6950    -0.5370 H     1 <1>   0.0800 
 51 H        5.6730     9.5640    -1.3180 H     1 <1>   0.0800 
 52 H        6.4200     8.2070    -2.1290 H     1 <1>   0.0800 
@<TRIPOS>BOND
  1   1   2  ar  
  2   2   3  ar  
  3   2   4  1   
  4   4   5  1   
  5   4   6  1   
  6   4   7  1   
  7   5   8  1   
  8   5   9  1   
  9   5  25  1   
 10   6  10  1   
 11   6  26  1   
 12   6  27  1   
 13   7  11  1   
 14   7  28  1   
 15   7  29  1   
 16   8  12  1   
 17   8  13  1   
 18   8  30  1   
 19   9  14  1   
 20   9  31  1   
 21   9  32  1   
 22  10  14  1   
 23  10  33  1   
 24  10  34  1   
 25  11  12  1   
 26  11  35  1   
 27  11  36  1   
 28  12  37  1   
 29  12  38  1   
 30  13  39  1   
 31  13  40  1   
 32  13  41  1   
 33  14  15  1   
 34  14  42  1   
 35  15  16  1   
 36  15  43  1   
 37  15  44  1   
 38  16  17  1   
 39  16  18  2   
 40  17  19  1   
 41  17  20  1   
 42  18  21  1   
 43  18  45  1   
 44  19  21  2   
 45  19  46  1   
 46  20  47  1   
 47  20  48  1   
 48  20  49  1   
 49  21  22  1   
 50  22  23  2   
 51  22  24  1   
 52  24  50  1   
 53  24  51  1   
 54  24  52  1   
@<TRIPOS>SUBSTRUCTURE
  1 ****  14 GROUP 4 **** **** 0

# MOE 2024.06 (io_trps.svl 2023.06)
