@<TRIPOS>MOLECULE
NONAME
43 44 1 0 0 
SMALL
USER_CHARGES


@<TRIPOS>ATOM
  1 S        0.4650     0.1710    -1.4110 S.o2  1 <1>   1.3330 
  2 O       -0.3970     0.9690    -2.2530 O.2   1 <1>  -0.6500 
  3 O        0.7920    -1.1830    -1.8000 O.2   1 <1>  -0.6500 
  4 N       -0.2570     0.1060     0.1260 N.am  1 <1>  -0.8490 
  5 C        2.0020     1.0540    -1.1270 C.3   1 <1>  -0.0550 
  6 C       -0.9740     1.3360     0.4820 C.3   1 <1>   0.1160 
  7 C       -1.1550    -1.0450     0.2650 C.3   1 <1>   0.1160 
  8 C        3.0300     0.2760    -0.2770 C.3   1 <1>  -0.0800 
  9 C        4.4090     0.9130    -0.1980 C.3   1 <1>   0.2200 
 10 C        2.6560     0.0900     1.2000 C.3   1 <1>   0.1200 
 11 N        4.3020     2.3770     0.0250 N.am  1 <1>  -0.7300 
 12 C        4.9320     0.2720     1.0790 C.3   1 <1>   0.1200 
 13 O        3.8330     0.2620     1.9370 O.3   1 <1>  -0.5600 
 14 C        4.5050     3.3350    -0.9250 C.2   1 <1>   0.5440 
 15 O        4.6890     2.9700    -2.0680 O.2   1 <1>  -0.5700 
 16 C        4.4990     4.7470    -0.5940 C.ar  1 <1>   0.0860 
 17 C        3.8720     5.2340     0.5500 C.ar  1 <1>   0.1600 
 18 C        5.1150     5.6880    -1.4060 C.ar  1 <1>  -0.1500 
 19 N        3.8260     6.4990     0.9320 N.ar  1 <1>  -0.6200 
 20 C        5.0780     7.0130    -1.0290 C.ar  1 <1>  -0.1500 
 21 C        4.4310     7.3970     0.1440 C.ar  1 <1>   0.1670 
 22 C        4.4030     8.9000     0.5550 C.3   1 <1>   1.1630 
 23 F        5.0110     9.1280     1.7160 F     1 <1>  -0.3400 
 24 F        5.0070     9.6950    -0.3260 F     1 <1>  -0.3400 
 25 F        3.1680     9.3790     0.6790 F     1 <1>  -0.3400 
 26 H        2.4500     1.2570    -2.0810 H     1 <1>   0.0800 
 27 H        1.7890     1.9990    -0.6690 H     1 <1>   0.0800 
 28 H       -1.3330     1.2760     1.4950 H     1 <1>   0.0800 
 29 H       -1.8130     1.4880    -0.1780 H     1 <1>   0.0800 
 30 H       -0.3180     2.1860     0.4050 H     1 <1>   0.0800 
 31 H       -1.5900    -1.0640     1.2500 H     1 <1>   0.0800 
 32 H       -0.6060    -1.9610     0.1230 H     1 <1>   0.0800 
 33 H       -1.9420    -0.9970    -0.4690 H     1 <1>   0.0800 
 34 H        3.1490    -0.7040    -0.7070 H     1 <1>   0.0800 
 35 H        5.0250     0.6940    -1.0540 H     1 <1>   0.0800 
 36 H        2.2630    -0.8950     1.3900 H     1 <1>   0.0800 
 37 H        1.9530     0.8320     1.5350 H     1 <1>   0.0800 
 38 H        4.1850     2.6140     1.0140 H     1 <1>   0.3700 
 39 H        5.7420     0.8210     1.5250 H     1 <1>   0.0800 
 40 H        5.2290    -0.7480     0.9040 H     1 <1>   0.0800 
 41 H        3.3700     4.5330     1.1930 H     1 <1>   0.1500 
 42 H        5.6110     5.3800    -2.3120 H     1 <1>   0.1500 
 43 H        5.5600     7.7410    -1.6600 H     1 <1>   0.1500 
@<TRIPOS>BOND
  1   1   2  2   
  2   1   3  2   
  3   1   4  am  
  4   1   5  1   
  5   4   6  1   
  6   4   7  1   
  7   5   8  1   
  8   5  26  1   
  9   5  27  1   
 10   6  28  1   
 11   6  29  1   
 12   6  30  1   
 13   7  31  1   
 14   7  32  1   
 15   7  33  1   
 16   8   9  1   
 17   8  10  1   
 18   8  34  1   
 19   9  11  1   
 20   9  12  1   
 21   9  35  1   
 22  10  13  1   
 23  10  36  1   
 24  10  37  1   
 25  11  14  am  
 26  11  38  1   
 27  12  13  1   
 28  12  39  1   
 29  12  40  1   
 30  14  15  2   
 31  14  16  1   
 32  16  17  ar  
 33  16  18  ar  
 34  17  19  ar  
 35  17  41  1   
 36  18  20  ar  
 37  18  42  1   
 38  19  21  ar  
 39  20  21  ar  
 40  20  43  1   
 41  21  22  1   
 42  22  23  1   
 43  22  24  1   
 44  22  25  1   
@<TRIPOS>SUBSTRUCTURE
  1 ****  11 GROUP 4 **** **** 0

# MOE 2024.06 (io_trps.svl 2023.06)
