@<TRIPOS>MOLECULE
NONAME
43 46 1 0 0 
SMALL
USER_CHARGES


@<TRIPOS>ATOM
  1 F       -1.2570    -0.1630    -1.8410 F     1 <1>  -0.3400 
  2 C       -2.2980    -0.9290    -2.1340 C.3   1 <1>   1.2400 
  3 F       -2.6760    -0.6440    -3.3720 F     1 <1>  -0.3400 
  4 O       -1.9360    -2.3000    -2.0420 O.3   1 <1>  -0.3630 
  5 O       -3.3620    -0.6740    -1.2300 O.3   1 <1>  -0.3630 
  6 C       -2.7570    -2.8130    -1.1190 C.ar  1 <1>   0.0820 
  7 C       -3.6010    -1.8490    -0.6380 C.ar  1 <1>   0.0820 
  8 C       -2.8090    -4.1140    -0.6620 C.ar  1 <1>  -0.1500 
  9 C       -4.5420    -2.1380     0.3290 C.ar  1 <1>  -0.1500 
 10 C       -3.7560    -4.4310     0.3080 C.ar  1 <1>  -0.1440 
 11 C       -4.6110    -3.4430     0.8000 C.ar  1 <1>  -0.1500 
 12 C       -3.8660    -5.8500     0.8400 C.3   1 <1>   0.4870 
 13 N       -4.4840    -6.7230    -0.1980 N.4   1 <1>  -0.9590 
 14 C       -5.8810    -6.2830    -0.5100 C.3   1 <1>   0.3430 
 15 C       -4.5820    -8.1310     0.3040 C.3   1 <1>   0.3430 
 16 C       -6.7910    -7.1710     0.3410 C.3   1 <1>   0.2000 
 17 C       -6.0720    -8.5180     0.3190 C.3   1 <1>  -0.0800 
 18 O       -6.7770    -6.6910     1.6470 O.3   1 <1>  -0.6800 
 19 C       -6.4800    -9.3540    -0.9150 C.3   1 <1>  -0.0160 
 20 C       -5.8310   -10.7310    -0.9200 C.ar  1 <1>   0.1670 
 21 N       -4.5490   -10.7720    -1.2450 N.ar  1 <1>  -0.6200 
 22 C       -6.5820   -11.8630    -0.6000 C.ar  1 <1>   0.1600 
 23 C       -4.0750   -12.0100    -1.2410 C.ar  1 <1>   0.1600 
 24 N       -6.1050   -13.0940    -0.5820 N.ar  1 <1>  -0.6200 
 25 C       -4.8270   -13.1330    -0.9190 C.ar  1 <1>   0.1600 
 26 H       -2.1210    -4.8390    -1.0610 H     1 <1>   0.1500 
 27 H       -5.1940    -1.3660     0.7010 H     1 <1>   0.1500 
 28 H       -5.3400    -3.6790     1.5590 H     1 <1>   0.1500 
 29 H       -4.4710    -5.8560     1.7330 H     1 <1>   0.0800 
 30 H       -2.8840    -6.2130     1.0930 H     1 <1>   0.0800 
 31 H       -3.9060    -6.6760    -1.0460 H     1 <1>   0.4500 
 32 H       -6.0470    -5.2400    -0.3000 H     1 <1>   0.0800 
 33 H       -6.0880    -6.4650    -1.5520 H     1 <1>   0.0800 
 34 H       -4.0030    -8.7940    -0.3150 H     1 <1>   0.0800 
 35 H       -4.1980    -8.1890     1.3100 H     1 <1>   0.0800 
 36 H       -7.8080    -7.1950    -0.0140 H     1 <1>   0.0800 
 37 H       -6.2980    -9.0920     1.2010 H     1 <1>   0.0800 
 38 H       -7.4810    -7.1100     2.1880 H     1 <1>   0.4000 
 39 H       -6.2080    -8.8490    -1.8260 H     1 <1>   0.0800 
 40 H       -7.5490    -9.4750    -0.9240 H     1 <1>   0.0800 
 41 H       -7.6210   -11.7510    -0.3470 H     1 <1>   0.1500 
 42 H       -3.0410   -12.1470    -1.5050 H     1 <1>   0.1500 
 43 H       -4.3540   -14.0990    -0.9410 H     1 <1>   0.1500 
@<TRIPOS>BOND
  1   1   2  1   
  2   2   3  1   
  3   2   4  1   
  4   2   5  1   
  5   4   6  1   
  6   5   7  1   
  7   6   7  ar  
  8   6   8  ar  
  9   7   9  ar  
 10   8  10  ar  
 11   8  26  1   
 12   9  11  ar  
 13   9  27  1   
 14  10  11  ar  
 15  10  12  1   
 16  11  28  1   
 17  12  13  1   
 18  12  29  1   
 19  12  30  1   
 20  13  14  1   
 21  13  15  1   
 22  13  31  1   
 23  14  16  1   
 24  14  32  1   
 25  14  33  1   
 26  15  17  1   
 27  15  34  1   
 28  15  35  1   
 29  16  17  1   
 30  16  18  1   
 31  16  36  1   
 32  17  19  1   
 33  17  37  1   
 34  18  38  1   
 35  19  20  1   
 36  19  39  1   
 37  19  40  1   
 38  20  21  ar  
 39  20  22  ar  
 40  21  23  ar  
 41  22  24  ar  
 42  22  41  1   
 43  23  25  ar  
 44  23  42  1   
 45  24  25  ar  
 46  25  43  1   
@<TRIPOS>SUBSTRUCTURE
  1 ****  13 GROUP 4 **** **** 0

# MOE 2024.06 (io_trps.svl 2023.06)
