@<TRIPOS>MOLECULE
NONAME
46 48 1 0 0 
SMALL
USER_CHARGES


@<TRIPOS>ATOM
  1 O       -1.2820     0.5410     1.8440 O.2   1 <1>  -0.5700 
  2 C       -1.7570     0.9280     0.8030 C.2   1 <1>   0.5690 
  3 N       -2.4290     0.0730    -0.0400 N.am  1 <1>  -0.6600 
  4 C       -1.5880     2.4120     0.4770 C.3   1 <1>   0.0820 
  5 C       -2.4050    -1.4020     0.2630 C.3   1 <1>   0.3640 
  6 C       -3.2940     0.5340    -1.1740 C.3   1 <1>   0.1400 
  7 C       -0.1350     2.8700     0.3800 C.2   1 <1>  -0.1810 
  8 C       -1.1360    -2.0110    -0.3420 C.ar  1 <1>  -0.1440 
  9 C       -3.6740    -2.1920    -0.1770 C.3   1 <1>   0.2000 
 10 C       -4.2350    -0.5430    -1.7360 C.3   1 <1>   0.1200 
 11 C        0.4290     3.9880     0.8700 C.2   1 <1>  -0.0400 
 12 C        0.9330     2.2340    -0.2600 C.2   1 <1>   0.1080 
 13 C       -0.1830    -2.5570     0.5060 C.ar  1 <1>  -0.1500 
 14 C       -0.9010    -2.0310    -1.7110 C.ar  1 <1>  -0.1500 
 15 O       -4.6790    -1.3740    -0.7160 O.3   1 <1>  -0.5600 
 16 C       -4.3050    -2.9670     0.9880 C.3   1 <1>   0.1200 
 17 O        1.6890     3.9880     0.5290 O.3   1 <1>  -0.0190 
 18 C       -0.1060     5.1510     1.6790 C.3   1 <1>  -0.0600 
 19 N        2.0070     2.9330    -0.1590 N.2   1 <1>  -0.4100 
 20 C        0.8950     0.9000    -0.9750 C.3   1 <1>  -0.0590 
 21 C        0.9780    -3.1150     0.0000 C.ar  1 <1>  -0.1500 
 22 C        0.2590    -2.5890    -2.2210 C.ar  1 <1>  -0.1500 
 23 O       -3.4030    -3.8890     1.5140 O.3   1 <1>  -0.6800 
 24 C        1.2000    -3.1320    -1.3650 C.ar  1 <1>  -0.1500 
 25 H       -2.0650     2.6660    -0.4460 H     1 <1>   0.0800 
 26 H       -2.0800     2.9630     1.2550 H     1 <1>   0.0800 
 27 H       -2.3320    -1.5160     1.3310 H     1 <1>   0.0800 
 28 H       -3.9080     1.3470    -0.8270 H     1 <1>   0.0800 
 29 H       -2.6730     0.9060    -1.9700 H     1 <1>   0.0800 
 30 H       -3.4090    -2.9020    -0.9400 H     1 <1>   0.0800 
 31 H       -3.7490    -1.1410    -2.4860 H     1 <1>   0.0800 
 32 H       -5.0960    -0.0800    -2.1840 H     1 <1>   0.0800 
 33 H       -0.3390    -2.5440     1.5730 H     1 <1>   0.1500 
 34 H       -1.6120    -1.6100    -2.3940 H     1 <1>   0.1500 
 35 H       -5.1780    -3.5020     0.6580 H     1 <1>   0.0800 
 36 H       -4.5770    -2.2880     1.7780 H     1 <1>   0.0800 
 37 H       -1.1540     5.0300     1.8790 H     1 <1>   0.0800 
 38 H        0.0420     6.0670     1.1370 H     1 <1>   0.0800 
 39 H        0.4220     5.2110     2.6130 H     1 <1>   0.0800 
 40 H        0.0340     0.8390    -1.6110 H     1 <1>   0.0800 
 41 H        0.8600     0.1070    -0.2500 H     1 <1>   0.0800 
 42 H        1.7790     0.7770    -1.5730 H     1 <1>   0.0800 
 43 H        1.7090    -3.5310     0.6710 H     1 <1>   0.1500 
 44 H        0.4320    -2.6010    -3.2830 H     1 <1>   0.1500 
 45 H       -3.2150    -4.6050     0.8750 H     1 <1>   0.4000 
 46 H        2.1030    -3.5650    -1.7580 H     1 <1>   0.1500 
@<TRIPOS>BOND
  1   1   2  2   
  2   2   3  am  
  3   2   4  1   
  4   3   5  1   
  5   3   6  1   
  6   4   7  1   
  7   4  25  1   
  8   4  26  1   
  9   5   8  1   
 10   5   9  1   
 11   5  27  1   
 12   6  10  1   
 13   6  28  1   
 14   6  29  1   
 15   7  11  2   
 16   7  12  1   
 17   8  13  ar  
 18   8  14  ar  
 19   9  15  1   
 20   9  16  1   
 21   9  30  1   
 22  10  15  1   
 23  10  31  1   
 24  10  32  1   
 25  11  17  1   
 26  11  18  1   
 27  12  19  2   
 28  12  20  1   
 29  13  21  ar  
 30  13  33  1   
 31  14  22  ar  
 32  14  34  1   
 33  16  23  1   
 34  16  35  1   
 35  16  36  1   
 36  17  19  1   
 37  18  37  1   
 38  18  38  1   
 39  18  39  1   
 40  20  40  1   
 41  20  41  1   
 42  20  42  1   
 43  21  24  ar  
 44  21  43  1   
 45  22  24  ar  
 46  22  44  1   
 47  23  45  1   
 48  24  46  1   
@<TRIPOS>SUBSTRUCTURE
  1 ****   3 GROUP 4 **** **** 0

# MOE 2024.06 (io_trps.svl 2023.06)
