@<TRIPOS>MOLECULE
NONAME
55 57 1 0 0 
SMALL
USER_CHARGES


@<TRIPOS>ATOM
  1 O       -0.9890    -2.3100     0.3190 O.2   1 <1>  -0.5700 
  2 C        0.1340    -2.6640     0.0510 C.2   1 <1>   0.5690 
  3 N        0.6110    -2.7550    -1.2280 N.am  1 <1>  -0.6600 
  4 C        1.0750    -3.0360     1.1780 C.3   1 <1>  -0.0990 
  5 C        2.0040    -3.2020    -1.4800 C.3   1 <1>   0.1400 
  6 C       -0.2240    -2.4510    -2.4200 C.3   1 <1>   0.0600 
  7 C        2.4600    -2.4010     0.9590 C.3   1 <1>  -0.0800 
  8 C        2.9680    -2.5080    -0.4990 C.3   1 <1>  -0.0800 
  9 C        3.5510    -3.0090     1.8500 C.3   1 <1>  -0.1600 
 10 C        4.3360    -3.1990    -0.4230 C.3   1 <1>  -0.1600 
 11 C        4.8170    -2.9340     1.0000 C.3   1 <1>   0.2200 
 12 N        5.9000    -3.8700     1.4310 N.am  1 <1>  -0.6600 
 13 C        7.1980    -3.4360     1.6360 C.2   1 <1>   0.5440 
 14 C        5.5440    -5.2990     1.6940 C.3   1 <1>   0.0600 
 15 O        8.0170    -4.2140     2.0900 O.2   1 <1>  -0.5700 
 16 C        7.6160    -2.0840     1.3430 C.ar  1 <1>   0.0860 
 17 C        7.7760    -1.5880     0.0400 C.ar  1 <1>   0.0820 
 18 C        7.8440    -1.2120     2.4070 C.ar  1 <1>  -0.1500 
 19 O        7.6310    -2.3850    -1.0540 O.3   1 <1>  -0.3630 
 20 C        8.0850    -0.2430    -0.1730 C.ar  1 <1>   0.0820 
 21 C        8.1610     0.1150     2.1980 C.ar  1 <1>  -0.1500 
 22 C        8.3450    -3.6030    -1.1360 C.3   1 <1>   0.0400 
 23 O        8.2260     0.2040    -1.4510 O.3   1 <1>  -0.3630 
 24 C        8.2600     0.6210     0.9140 C.ar  1 <1>   0.0820 
 25 C        9.5200     0.0630    -1.9910 C.3   1 <1>   0.0400 
 26 O        8.5340     1.9480     0.8250 O.3   1 <1>  -0.3630 
 27 C        7.9300     2.7400    -0.1760 C.3   1 <1>   0.0400 
 28 H        0.6620    -2.7090     2.1150 H     1 <1>   0.0800 
 29 H        1.1470    -4.1080     1.1980 H     1 <1>   0.0800 
 30 H        2.0440    -4.2700    -1.3490 H     1 <1>   0.0800 
 31 H        2.2930    -2.9740    -2.4910 H     1 <1>   0.0800 
 32 H       -0.2920    -3.3210    -3.0490 H     1 <1>   0.0800 
 33 H        0.2160    -1.6420    -2.9760 H     1 <1>   0.0800 
 34 H       -1.2180    -2.1640    -2.1220 H     1 <1>   0.0800 
 35 H        2.3780    -1.3510     1.1900 H     1 <1>   0.0800 
 36 H        3.1270    -1.5060    -0.8590 H     1 <1>   0.0800 
 37 H        3.3020    -4.0290     2.0750 H     1 <1>   0.0800 
 38 H        3.6640    -2.4590     2.7670 H     1 <1>   0.0800 
 39 H        5.0180    -2.7950    -1.1490 H     1 <1>   0.0800 
 40 H        4.2260    -4.2550    -0.5860 H     1 <1>   0.0800 
 41 H        5.1640    -1.9160     1.0410 H     1 <1>   0.0800 
 42 H        4.7460    -5.6220     1.0510 H     1 <1>   0.0800 
 43 H        5.2390    -5.4090     2.7200 H     1 <1>   0.0800 
 44 H        6.3940    -5.9360     1.5200 H     1 <1>   0.0800 
 45 H        7.7620    -1.5900     3.4120 H     1 <1>   0.1500 
 46 H        8.3260     0.7740     3.0320 H     1 <1>   0.1500 
 47 H        8.5550    -3.7980    -2.1720 H     1 <1>   0.0800 
 48 H        7.7360    -4.3940    -0.7370 H     1 <1>   0.0800 
 49 H        9.2640    -3.5180    -0.5840 H     1 <1>   0.0800 
 50 H        9.5150     0.4680    -2.9860 H     1 <1>   0.0800 
 51 H        9.7740    -0.9820    -2.0190 H     1 <1>   0.0800 
 52 H       10.2150     0.6030    -1.3720 H     1 <1>   0.0800 
 53 H        7.9320     3.7610     0.1580 H     1 <1>   0.0800 
 54 H        6.9200     2.4040    -0.3320 H     1 <1>   0.0800 
 55 H        8.5020     2.6540    -1.0820 H     1 <1>   0.0800 
@<TRIPOS>BOND
  1   1   2  2   
  2   2   3  am  
  3   2   4  1   
  4   3   5  1   
  5   3   6  1   
  6   4   7  1   
  7   4  28  1   
  8   4  29  1   
  9   5   8  1   
 10   5  30  1   
 11   5  31  1   
 12   6  32  1   
 13   6  33  1   
 14   6  34  1   
 15   7   8  1   
 16   7   9  1   
 17   7  35  1   
 18   8  10  1   
 19   8  36  1   
 20   9  11  1   
 21   9  37  1   
 22   9  38  1   
 23  10  11  1   
 24  10  39  1   
 25  10  40  1   
 26  11  12  1   
 27  11  41  1   
 28  12  13  am  
 29  12  14  1   
 30  13  15  2   
 31  13  16  1   
 32  14  42  1   
 33  14  43  1   
 34  14  44  1   
 35  16  17  ar  
 36  16  18  ar  
 37  17  19  1   
 38  17  20  ar  
 39  18  21  ar  
 40  18  45  1   
 41  19  22  1   
 42  20  23  1   
 43  20  24  ar  
 44  21  24  ar  
 45  21  46  1   
 46  22  47  1   
 47  22  48  1   
 48  22  49  1   
 49  23  25  1   
 50  24  26  1   
 51  25  50  1   
 52  25  51  1   
 53  25  52  1   
 54  26  27  1   
 55  27  53  1   
 56  27  54  1   
 57  27  55  1   
@<TRIPOS>SUBSTRUCTURE
  1 ****  11 GROUP 4 **** **** 0

# MOE 2024.06 (io_trps.svl 2023.06)
