@<TRIPOS>MOLECULE
NONAME
39 41 1 0 0 
SMALL
USER_CHARGES


@<TRIPOS>ATOM
  1 O        1.2220    -0.5100    -2.0190 O.2   1 <1>  -0.5700 
  2 C        1.9110    -0.8620    -1.0910 C.2   1 <1>   0.6300 
  3 N        2.6630    -0.0090    -0.3460 N.am  1 <1>  -0.4930 
  4 C        1.9580    -2.3410    -0.7310 C.3   1 <1>  -0.1000 
  5 C        2.7900     1.3980    -0.4530 C.2   1 <1>   0.0630 
  6 C        0.8150    -2.9980    -0.0180 C.3   1 <1>  -0.1900 
  7 C        2.1200    -2.8190     0.6930 C.3   1 <1>  -0.2000 
  8 C        2.1800     2.2760    -1.3500 C.2   1 <1>   0.1390 
  9 C        3.5550     2.1890     0.3260 C.2   1 <1>  -0.3020 
 10 C        0.3460    -4.4180    -0.2980 C.3   1 <1>  -0.0650 
 11 C       -0.4000    -2.2300     0.5040 C.3   1 <1>  -0.0650 
 12 N        2.5330     3.5110    -1.1490 N.2   1 <1>  -0.7070 
 13 N        3.3890     3.4600    -0.1070 N.pl3 1 <1>   0.3140 
 14 C       -0.6970    -4.6600     0.7890 C.3   1 <1>  -0.1600 
 15 C       -1.3630    -3.3000     1.0330 C.3   1 <1>  -0.1600 
 16 C        4.0510     4.6690     0.4660 C.3   1 <1>   0.1760 
 17 C        3.0050     5.6530     1.0100 C.3   1 <1>  -0.2400 
 18 C        4.9450     5.3460    -0.5820 C.3   1 <1>  -0.2400 
 19 H        3.2030    -0.4400     0.4000 H     1 <1>   0.3700 
 20 H        2.4270    -2.9120    -1.5110 H     1 <1>   0.1000 
 21 H        2.1600    -2.1140     1.5050 H     1 <1>   0.1000 
 22 H        2.7410    -3.6790     0.8730 H     1 <1>   0.1000 
 23 H        1.4940     1.9710    -2.1220 H     1 <1>   0.1500 
 24 H        4.1960     1.9300     1.1460 H     1 <1>   0.1500 
 25 H        1.1420    -5.1420    -0.2670 H     1 <1>   0.0800 
 26 H       -0.1260    -4.4500    -1.2650 H     1 <1>   0.0800 
 27 H       -0.8660    -1.7040    -0.3130 H     1 <1>   0.0800 
 28 H       -0.1370    -1.5190     1.2670 H     1 <1>   0.0800 
 29 H       -0.1960    -4.9750     1.6880 H     1 <1>   0.0800 
 30 H       -1.4090    -5.4140     0.5010 H     1 <1>   0.0800 
 31 H       -2.2900    -3.2450     0.4900 H     1 <1>   0.0800 
 32 H       -1.5650    -3.1580     2.0810 H     1 <1>   0.0800 
 33 H        4.6690     4.3420     1.2830 H     1 <1>   0.0800 
 34 H        2.3730     6.0030     0.2130 H     1 <1>   0.0800 
 35 H        3.4900     6.5000     1.4610 H     1 <1>   0.0800 
 36 H        2.3960     5.1720     1.7540 H     1 <1>   0.0800 
 37 H        4.3510     5.6900    -1.4110 H     1 <1>   0.0800 
 38 H        5.6820     4.6520    -0.9440 H     1 <1>   0.0800 
 39 H        5.4520     6.1900    -0.1500 H     1 <1>   0.0800 
@<TRIPOS>BOND
  1   1   2  2   
  2   2   3  am  
  3   2   4  1   
  4   3   5  1   
  5   3  19  1   
  6   4   6  1   
  7   4   7  1   
  8   4  20  1   
  9   5   8  1   
 10   5   9  2   
 11   6   7  1   
 12   6  10  1   
 13   6  11  1   
 14   7  21  1   
 15   7  22  1   
 16   8  12  2   
 17   8  23  1   
 18   9  13  1   
 19   9  24  1   
 20  10  14  1   
 21  10  25  1   
 22  10  26  1   
 23  11  15  1   
 24  11  27  1   
 25  11  28  1   
 26  12  13  1   
 27  13  16  1   
 28  14  15  1   
 29  14  29  1   
 30  14  30  1   
 31  15  31  1   
 32  15  32  1   
 33  16  17  1   
 34  16  18  1   
 35  16  33  1   
 36  17  34  1   
 37  17  35  1   
 38  17  36  1   
 39  18  37  1   
 40  18  38  1   
 41  18  39  1   
@<TRIPOS>SUBSTRUCTURE
  1 ****   3 GROUP 4 **** **** 0

# MOE 2024.06 (io_trps.svl 2023.06)
