@<TRIPOS>MOLECULE
NONAME
44 46 1 0 0 
SMALL
USER_CHARGES


@<TRIPOS>ATOM
  1 F       -3.0480    -0.6120    -1.9470 F     1 <1>  -0.1900 
  2 C       -2.4970     0.3020    -1.1940 C.ar  1 <1>   0.1900 
  3 C       -2.3920     0.0860     0.1790 C.ar  1 <1>   0.0860 
  4 C       -2.0420     1.4510    -1.8160 C.ar  1 <1>  -0.1500 
  5 C       -2.8890    -1.1100     0.8210 C.2   1 <1>   0.5440 
  6 C       -1.7720     1.0860     0.9270 C.ar  1 <1>  -0.1500 
  7 C       -1.4440     2.4330    -1.0480 C.ar  1 <1>  -0.1500 
  8 O       -2.0860    -1.8600     1.3430 O.2   1 <1>  -0.5700 
  9 N       -4.2370    -1.4060     0.9120 N.am  1 <1>  -0.6600 
 10 C       -1.3100     2.2420     0.3180 C.ar  1 <1>   0.0830 
 11 C       -5.2970    -0.4030     0.5860 C.3   1 <1>   0.2200 
 12 C       -4.6560    -2.7300     1.4700 C.3   1 <1>   0.0600 
 13 O       -0.7190     3.1970     1.0500 O.3   1 <1>  -0.5320 
 14 C       -6.1650    -0.8110    -0.6000 C.3   1 <1>  -0.1600 
 15 C       -6.2900    -0.1680     1.7220 C.3   1 <1>  -0.1600 
 16 C       -7.4370     0.0350    -0.4570 C.3   1 <1>  -0.0800 
 17 C       -7.5170     0.4440     1.0340 C.3   1 <1>  -0.0800 
 18 C       -8.6900    -0.6730    -1.0060 C.3   1 <1>   0.1400 
 19 C       -8.8450     0.0600     1.7120 C.3   1 <1>  -0.0990 
 20 N       -9.9150     0.0030    -0.5100 N.am  1 <1>  -0.6600 
 21 C      -10.0170     0.3720     0.8040 C.2   1 <1>   0.5690 
 22 C      -11.0130     0.2140    -1.4910 C.3   1 <1>   0.0600 
 23 O      -10.9860     0.9210     1.2670 O.2   1 <1>  -0.5700 
 24 H       -2.1500     1.5700    -2.8800 H     1 <1>   0.1500 
 25 H       -1.6570     0.9410     1.9860 H     1 <1>   0.1500 
 26 H       -1.0770     3.3410    -1.4950 H     1 <1>   0.1500 
 27 H       -4.8500     0.5480     0.3540 H     1 <1>   0.0800 
 28 H       -5.6250    -3.0180     1.1090 H     1 <1>   0.0800 
 29 H       -4.6800    -2.6740     2.5440 H     1 <1>   0.0800 
 30 H       -3.9490    -3.4900     1.1830 H     1 <1>   0.0800 
 31 H       -0.6150     2.9600     1.9890 H     1 <1>   0.4500 
 32 H       -5.6700    -0.6170    -1.5350 H     1 <1>   0.0800 
 33 H       -6.4110    -1.8550    -0.5410 H     1 <1>   0.0800 
 34 H       -6.5650    -1.0960     2.1850 H     1 <1>   0.0800 
 35 H       -5.8830     0.4940     2.4660 H     1 <1>   0.0800 
 36 H       -7.3010     0.9370    -1.0310 H     1 <1>   0.0800 
 37 H       -7.4280     1.5170     1.0740 H     1 <1>   0.0800 
 38 H       -8.7140    -1.6980    -0.6760 H     1 <1>   0.0800 
 39 H       -8.6690    -0.6640    -2.0830 H     1 <1>   0.0800 
 40 H       -8.9550     0.5940     2.6380 H     1 <1>   0.0800 
 41 H       -8.8730    -0.9920     1.9240 H     1 <1>   0.0800 
 42 H      -10.6710     0.8500    -2.2880 H     1 <1>   0.0800 
 43 H      -11.8580     0.6820    -1.0160 H     1 <1>   0.0800 
 44 H      -11.3260    -0.7320    -1.8960 H     1 <1>   0.0800 
@<TRIPOS>BOND
  1   1   2  1   
  2   2   3  ar  
  3   2   4  ar  
  4   3   5  1   
  5   3   6  ar  
  6   4   7  ar  
  7   4  24  1   
  8   5   8  2   
  9   5   9  am  
 10   6  10  ar  
 11   6  25  1   
 12   7  10  ar  
 13   7  26  1   
 14   9  11  1   
 15   9  12  1   
 16  10  13  1   
 17  11  14  1   
 18  11  15  1   
 19  11  27  1   
 20  12  28  1   
 21  12  29  1   
 22  12  30  1   
 23  13  31  1   
 24  14  16  1   
 25  14  32  1   
 26  14  33  1   
 27  15  17  1   
 28  15  34  1   
 29  15  35  1   
 30  16  17  1   
 31  16  18  1   
 32  16  36  1   
 33  17  19  1   
 34  17  37  1   
 35  18  20  1   
 36  18  38  1   
 37  18  39  1   
 38  19  21  1   
 39  19  40  1   
 40  19  41  1   
 41  20  21  am  
 42  20  22  1   
 43  21  23  2   
 44  22  42  1   
 45  22  43  1   
 46  22  44  1   
@<TRIPOS>SUBSTRUCTURE
  1 ****  11 GROUP 4 **** **** 0

# MOE 2024.06 (io_trps.svl 2023.06)
