@<TRIPOS>MOLECULE
NONAME
52 53 1 0 0 
SMALL
USER_CHARGES


@<TRIPOS>ATOM
  1 O       -1.4710     0.5790    -1.9750 O.2   1 <1>  -0.5700 
  2 C       -2.1190     0.9380    -1.0090 C.2   1 <1>   0.5440 
  3 N       -1.8020     2.1430    -0.4070 N.am  1 <1>  -0.6600 
  4 C       -3.1990     0.1020    -0.5410 C.ar  1 <1>   0.0860 
  5 C       -0.5320     2.8540    -0.7250 C.3   1 <1>   0.0600 
  6 C       -2.7570     2.9280     0.4220 C.3   1 <1>   0.0600 
  7 C       -4.0790    -0.4850    -1.4480 C.ar  1 <1>   0.1600 
  8 C       -3.4160    -0.1740     0.8060 C.ar  1 <1>  -0.1500 
  9 N       -5.1130    -1.2510    -1.1470 N.ar  1 <1>  -0.6200 
 10 C       -4.4830    -0.9730     1.1380 C.ar  1 <1>  -0.1500 
 11 C       -5.3140    -1.4890     0.1450 C.ar  1 <1>   0.4100 
 12 N       -6.3940    -2.2720     0.4910 N.pl3 1 <1>  -0.8380 
 13 C       -6.8400    -3.3590    -0.4230 C.3   1 <1>   0.2090 
 14 C       -7.4350    -1.7120     1.3940 C.3   1 <1>   0.1290 
 15 C       -7.1660    -4.6200     0.3770 C.3   1 <1>  -0.1600 
 16 C       -7.5110    -5.7750    -0.5620 C.3   1 <1>   0.1200 
 17 O       -7.8520    -6.8920     0.2240 O.3   1 <1>  -0.3630 
 18 C       -8.2300    -8.0780    -0.3280 C.ar  1 <1>   0.0830 
 19 C       -8.5850    -9.1220     0.5300 C.ar  1 <1>  -0.1430 
 20 C       -8.2760    -8.2690    -1.7070 C.ar  1 <1>  -0.1500 
 21 C       -9.0000   -10.3400    -0.0040 C.ar  1 <1>  -0.1430 
 22 C       -8.5270    -8.9240     2.0460 C.3   1 <1>  -0.0970 
 23 C       -8.6780    -9.4820    -2.2280 C.ar  1 <1>  -0.1500 
 24 C       -9.0400   -10.5100    -1.3800 C.ar  1 <1>  -0.1500 
 25 C       -9.4210   -11.5080     0.8780 C.3   1 <1>  -0.0970 
 26 H        0.1860     2.1740    -1.1510 H     1 <1>   0.0800 
 27 H       -0.1120     3.2750     0.1710 H     1 <1>   0.0800 
 28 H       -0.7260     3.6400    -1.4340 H     1 <1>   0.0800 
 29 H       -3.7540     2.5290     0.3410 H     1 <1>   0.0800 
 30 H       -2.7770     3.9500     0.0840 H     1 <1>   0.0800 
 31 H       -2.4480     2.9040     1.4520 H     1 <1>   0.0800 
 32 H       -3.9040    -0.2970    -2.4940 H     1 <1>   0.1500 
 33 H       -2.7570     0.2250     1.5560 H     1 <1>   0.1500 
 34 H       -4.6890    -1.2220     2.1610 H     1 <1>   0.1500 
 35 H       -6.0530    -3.5850    -1.1240 H     1 <1>   0.0800 
 36 H       -7.7000    -3.0290    -0.9810 H     1 <1>   0.0800 
 37 H       -7.1620    -0.7220     1.7160 H     1 <1>   0.0800 
 38 H       -7.5430    -2.3430     2.2590 H     1 <1>   0.0800 
 39 H       -8.3780    -1.6530     0.8780 H     1 <1>   0.0800 
 40 H       -8.0040    -4.4340     1.0220 H     1 <1>   0.0800 
 41 H       -6.3090    -4.8910     0.9670 H     1 <1>   0.0800 
 42 H       -6.6640    -6.0350    -1.1730 H     1 <1>   0.0800 
 43 H       -8.3580    -5.5260    -1.1780 H     1 <1>   0.0800 
 44 H       -8.0040    -7.4900    -2.3910 H     1 <1>   0.1500 
 45 H       -7.8690    -8.1190     2.3170 H     1 <1>   0.0800 
 46 H       -8.1590    -9.8070     2.5340 H     1 <1>   0.0800 
 47 H       -9.5100    -8.7010     2.4180 H     1 <1>   0.0800 
 48 H       -8.7120    -9.6280    -3.2930 H     1 <1>   0.1500 
 49 H       -9.3550   -11.4490    -1.8010 H     1 <1>   0.1500 
 50 H      -10.1440   -11.1830     1.6040 H     1 <1>   0.0800 
 51 H       -8.5640   -11.9090     1.3870 H     1 <1>   0.0800 
 52 H       -9.8660   -12.2930     0.2940 H     1 <1>   0.0800 
@<TRIPOS>BOND
  1   1   2  2   
  2   2   3  am  
  3   2   4  1   
  4   3   5  1   
  5   3   6  1   
  6   4   7  ar  
  7   4   8  ar  
  8   5  26  1   
  9   5  27  1   
 10   5  28  1   
 11   6  29  1   
 12   6  30  1   
 13   6  31  1   
 14   7   9  ar  
 15   7  32  1   
 16   8  10  ar  
 17   8  33  1   
 18   9  11  ar  
 19  10  11  ar  
 20  10  34  1   
 21  11  12  1   
 22  12  13  1   
 23  12  14  1   
 24  13  15  1   
 25  13  35  1   
 26  13  36  1   
 27  14  37  1   
 28  14  38  1   
 29  14  39  1   
 30  15  16  1   
 31  15  40  1   
 32  15  41  1   
 33  16  17  1   
 34  16  42  1   
 35  16  43  1   
 36  17  18  1   
 37  18  19  ar  
 38  18  20  ar  
 39  19  21  ar  
 40  19  22  1   
 41  20  23  ar  
 42  20  44  1   
 43  21  24  ar  
 44  21  25  1   
 45  22  45  1   
 46  22  46  1   
 47  22  47  1   
 48  23  24  ar  
 49  23  48  1   
 50  24  49  1   
 51  25  50  1   
 52  25  51  1   
 53  25  52  1   
@<TRIPOS>SUBSTRUCTURE
  1 ****  13 GROUP 4 **** **** 0

# MOE 2024.06 (io_trps.svl 2023.06)
