@<TRIPOS>MOLECULE
NONAME
45 48 1 0 0 
SMALL
USER_CHARGES


@<TRIPOS>ATOM
  1 O       -0.1400    -0.0680     0.2330 O.2   1 <1>  -0.5700 
  2 C        0.9670    -0.5710     0.2310 C.2   1 <1>   0.5440 
  3 N        2.0810     0.1950    -0.0260 N.am  1 <1>  -0.4940 
  4 C        1.1330    -1.9880     0.4650 C.ar  1 <1>   0.0860 
  5 C        2.1980     1.6020    -0.1530 C.2   1 <1>  -0.0880 
  6 C        0.2760    -2.9120    -0.1140 C.ar  1 <1>  -0.1500 
  7 C        2.1800    -2.4700     1.2840 C.ar  1 <1>  -0.1500 
  8 N        3.2660     2.2610    -0.6850 N.pl3 1 <1>   0.3140 
  9 C        1.3150     2.5560     0.2230 C.2   1 <1>  -0.1500 
 10 C        0.4680    -4.2720     0.0900 C.ar  1 <1>   0.2270 
 11 C        2.3780    -3.8140     1.4980 C.ar  1 <1>  -0.1500 
 12 N        3.0820     3.6080    -0.6380 N.2   1 <1>  -0.7070 
 13 C        4.4750     1.6190    -1.2890 C.3   1 <1>   0.2710 
 14 C        1.9170     3.7650    -0.0980 C.2   1 <1>   0.1080 
 15 N       -0.2400    -5.3280    -0.3960 N.2   1 <1>  -0.5650 
 16 C        1.5070    -4.7160     0.8850 C.ar  1 <1>  -0.1520 
 17 C        5.4560     1.2040    -0.1650 C.3   1 <1>  -0.1950 
 18 C        5.1010     2.5040    -2.3840 C.3   1 <1>  -0.2400 
 19 C        1.3120     5.1280     0.1390 C.3   1 <1>  -0.0590 
 20 C        0.3460    -6.3630     0.0910 C.2   1 <1>   0.0060 
 21 N        1.4130    -6.0680     0.8780 N.pl3 1 <1>   0.0330 
 22 C        6.3840     2.1680     0.5070 C.3   1 <1>  -0.2000 
 23 C        6.9380     1.0600    -0.3460 C.3   1 <1>  -0.2000 
 24 C       -0.0960    -7.7850    -0.1760 C.3   1 <1>  -0.0600 
 25 H        2.9370    -0.3440    -0.1390 H     1 <1>   0.3700 
 26 H       -0.5460    -2.5940    -0.7290 H     1 <1>   0.1500 
 27 H        2.8320    -1.7590     1.7610 H     1 <1>   0.1500 
 28 H        0.3510     2.4220     0.6770 H     1 <1>   0.1500 
 29 H        3.1770    -4.1730     2.1240 H     1 <1>   0.1500 
 30 H        4.1390     0.7230    -1.7760 H     1 <1>   0.0800 
 31 H        4.9990     0.4770     0.4830 H     1 <1>   0.1000 
 32 H        5.4930     3.4130    -1.9650 H     1 <1>   0.0800 
 33 H        4.3550     2.7590    -3.1150 H     1 <1>   0.0800 
 34 H        5.8940     1.9810    -2.8850 H     1 <1>   0.0800 
 35 H        0.3410     5.0350     0.5880 H     1 <1>   0.0800 
 36 H        1.2210     5.6460    -0.7980 H     1 <1>   0.0800 
 37 H        1.9520     5.6940     0.7910 H     1 <1>   0.0800 
 38 H        2.0180    -6.7290     1.3690 H     1 <1>   0.2700 
 39 H        6.4950     2.1110     1.5760 H     1 <1>   0.1000 
 40 H        6.4360     3.1820     0.1490 H     1 <1>   0.1000 
 41 H        7.4200     1.3390    -1.2660 H     1 <1>   0.1000 
 42 H        7.4460     0.2470     0.1450 H     1 <1>   0.1000 
 43 H       -0.9560    -7.7830    -0.8210 H     1 <1>   0.0800 
 44 H       -0.3600    -8.2700     0.7460 H     1 <1>   0.0800 
 45 H        0.6930    -8.3340    -0.6570 H     1 <1>   0.0800 
@<TRIPOS>BOND
  1   1   2  2   
  2   2   3  am  
  3   2   4  1   
  4   3   5  1   
  5   3  25  1   
  6   4   6  ar  
  7   4   7  ar  
  8   5   8  1   
  9   5   9  2   
 10   6  10  ar  
 11   6  26  1   
 12   7  11  ar  
 13   7  27  1   
 14   8  12  1   
 15   8  13  1   
 16   9  14  1   
 17   9  28  1   
 18  10  15  1   
 19  10  16  ar  
 20  11  16  ar  
 21  11  29  1   
 22  12  14  2   
 23  13  17  1   
 24  13  18  1   
 25  13  30  1   
 26  14  19  1   
 27  15  20  2   
 28  16  21  1   
 29  17  22  1   
 30  17  23  1   
 31  17  31  1   
 32  18  32  1   
 33  18  33  1   
 34  18  34  1   
 35  19  35  1   
 36  19  36  1   
 37  19  37  1   
 38  20  21  1   
 39  20  24  1   
 40  21  38  1   
 41  22  23  1   
 42  22  39  1   
 43  22  40  1   
 44  23  41  1   
 45  23  42  1   
 46  24  43  1   
 47  24  44  1   
 48  24  45  1   
@<TRIPOS>SUBSTRUCTURE
  1 ****   3 GROUP 4 **** **** 0

# MOE 2024.06 (io_trps.svl 2023.06)
