@<TRIPOS>MOLECULE
NONAME
54 56 1 0 0 
SMALL
USER_CHARGES


@<TRIPOS>ATOM
  1 F       -1.1410    -0.3580    -1.1060 F     1 <1>  -0.1900 
  2 C       -1.7580     0.4580    -0.2840 C.ar  1 <1>   0.1900 
  3 C       -1.5410     1.8270    -0.4160 C.ar  1 <1>   0.0830 
  4 C       -2.5920    -0.0770     0.6860 C.ar  1 <1>  -0.1440 
  5 O       -0.7060     2.2680    -1.3990 O.3   1 <1>  -0.3630 
  6 C       -2.1910     2.6810     0.4710 C.ar  1 <1>  -0.1500 
  7 C       -3.2230     0.7970     1.5610 C.ar  1 <1>  -0.1500 
  8 C       -2.8110    -1.5790     0.8020 C.3   1 <1>   0.2540 
  9 C       -0.4400     3.6410    -1.5830 C.3   1 <1>   0.0400 
 10 C       -3.0230     2.1640     1.4510 C.ar  1 <1>  -0.1500 
 11 N       -3.7630    -2.0630    -0.2190 N.3   1 <1>  -0.8100 
 12 C       -3.8730    -3.5440    -0.2270 C.3   1 <1>   0.3330 
 13 C       -5.0990    -1.4500    -0.0690 C.3   1 <1>   0.1100 
 14 C       -2.5100    -4.1840    -0.4980 C.ar  1 <1>  -0.1430 
 15 C       -4.9230    -4.0190    -1.2720 C.3   1 <1>   0.2000 
 16 C       -6.0930    -2.0020    -1.1040 C.3   1 <1>   0.1200 
 17 C       -2.0460    -5.2030     0.3230 C.ar  1 <1>  -0.1500 
 18 C       -1.7290    -3.7690    -1.5670 C.ar  1 <1>  -0.1500 
 19 O       -6.1560    -3.3960    -1.0210 O.3   1 <1>  -0.5600 
 20 C       -5.1680    -5.5370    -1.2540 C.3   1 <1>   0.1200 
 21 C       -0.8270    -5.8090     0.0760 C.ar  1 <1>   0.0830 
 22 C       -0.5000    -4.3570    -1.8120 C.ar  1 <1>  -0.1500 
 23 O       -4.1170    -6.2270    -1.8530 O.3   1 <1>  -0.6800 
 24 O       -0.4630    -6.8270     0.8940 O.3   1 <1>  -0.3630 
 25 C       -0.0350    -5.3670    -0.9880 C.ar  1 <1>   0.0830 
 26 C       -0.3670    -8.1030     0.2990 C.3   1 <1>   0.0400 
 27 O        1.1900    -5.8830    -1.2560 O.3   1 <1>  -0.3630 
 28 C        2.1970    -5.6060    -0.3080 C.3   1 <1>   0.0400 
 29 H       -2.0620     3.7450     0.4170 H     1 <1>   0.1500 
 30 H       -3.8730     0.4170     2.3300 H     1 <1>   0.1500 
 31 H       -3.1750    -1.8260     1.7840 H     1 <1>   0.0800 
 32 H       -1.8570    -2.0620     0.6780 H     1 <1>   0.0800 
 33 H        0.2400     3.7400    -2.4090 H     1 <1>   0.0800 
 34 H        0.0120     4.0320    -0.6890 H     1 <1>   0.0800 
 35 H       -1.3610     4.1490    -1.8060 H     1 <1>   0.0800 
 36 H       -3.5190     2.8320     2.1350 H     1 <1>   0.1500 
 37 H       -4.2150    -3.8650     0.7420 H     1 <1>   0.0800 
 38 H       -5.4840    -1.6330     0.9190 H     1 <1>   0.0800 
 39 H       -5.0260    -0.3850    -0.2100 H     1 <1>   0.0800 
 40 H       -4.6100    -3.7330    -2.2610 H     1 <1>   0.0800 
 41 H       -5.7930    -1.7250    -2.1010 H     1 <1>   0.0800 
 42 H       -7.0790    -1.6150    -0.9190 H     1 <1>   0.0800 
 43 H       -2.6280    -5.5460     1.1600 H     1 <1>   0.1500 
 44 H       -2.0750    -2.9720    -2.2070 H     1 <1>   0.1500 
 45 H       -6.0580    -5.7700    -1.8120 H     1 <1>   0.0800 
 46 H       -5.2750    -5.8940    -0.2450 H     1 <1>   0.0800 
 47 H        0.1040    -4.0270    -2.6370 H     1 <1>   0.1500 
 48 H       -3.2510    -5.9100    -1.5110 H     1 <1>   0.4000 
 49 H       -0.1970    -8.8250     1.0770 H     1 <1>   0.0800 
 50 H        0.4540    -8.1120    -0.3940 H     1 <1>   0.0800 
 51 H       -1.2890    -8.3190    -0.2110 H     1 <1>   0.0800 
 52 H        3.1260    -5.9960    -0.6810 H     1 <1>   0.0800 
 53 H        1.9470    -6.0780     0.6250 H     1 <1>   0.0800 
 54 H        2.2670    -4.5400    -0.1800 H     1 <1>   0.0800 
@<TRIPOS>BOND
  1   1   2  1   
  2   2   3  ar  
  3   2   4  ar  
  4   3   5  1   
  5   3   6  ar  
  6   4   7  ar  
  7   4   8  1   
  8   5   9  1   
  9   6  10  ar  
 10   6  29  1   
 11   7  10  ar  
 12   7  30  1   
 13   8  11  1   
 14   8  31  1   
 15   8  32  1   
 16   9  33  1   
 17   9  34  1   
 18   9  35  1   
 19  10  36  1   
 20  11  12  1   
 21  11  13  1   
 22  12  14  1   
 23  12  15  1   
 24  12  37  1   
 25  13  16  1   
 26  13  38  1   
 27  13  39  1   
 28  14  17  ar  
 29  14  18  ar  
 30  15  19  1   
 31  15  20  1   
 32  15  40  1   
 33  16  19  1   
 34  16  41  1   
 35  16  42  1   
 36  17  21  ar  
 37  17  43  1   
 38  18  22  ar  
 39  18  44  1   
 40  20  23  1   
 41  20  45  1   
 42  20  46  1   
 43  21  24  1   
 44  21  25  ar  
 45  22  25  ar  
 46  22  47  1   
 47  23  48  1   
 48  24  26  1   
 49  25  27  1   
 50  26  49  1   
 51  26  50  1   
 52  26  51  1   
 53  27  28  1   
 54  28  52  1   
 55  28  53  1   
 56  28  54  1   
@<TRIPOS>SUBSTRUCTURE
  1 ****  11 GROUP 4 **** **** 0

# MOE 2024.06 (io_trps.svl 2023.06)
