@<TRIPOS>MOLECULE
NONAME
51 53 1 0 0 
SMALL
USER_CHARGES


@<TRIPOS>ATOM
  1 O       -0.7770    -0.2860     0.8840 O.2   1 <1>  -0.5700 
  2 C       -1.7270     0.4730     0.8900 C.2   1 <1>   0.5440 
  3 N       -1.5010     1.8130     1.1330 N.am  1 <1>  -0.6600 
  4 C       -3.0470    -0.0510     0.6290 C.ar  1 <1>   0.0860 
  5 C       -2.3610     2.9100     0.5960 C.3   1 <1>   0.1400 
  6 C       -0.2060     2.3070     1.6930 C.3   1 <1>   0.1400 
  7 C       -3.2420    -1.0060    -0.3650 C.ar  1 <1>   0.1600 
  8 C       -4.1740     0.3450     1.3430 C.ar  1 <1>  -0.1500 
  9 C       -1.5460     3.8410    -0.3200 C.3   1 <1>   0.1200 
 10 C        0.4820     3.2620     0.7050 C.3   1 <1>   0.1200 
 11 N       -4.3970    -1.5470    -0.7100 N.ar  1 <1>  -0.6200 
 12 C       -5.3830    -0.2130     1.0040 C.ar  1 <1>  -0.1500 
 13 O       -0.3900     4.2910     0.3290 O.3   1 <1>  -0.5600 
 14 C       -5.4650    -1.1480    -0.0260 C.ar  1 <1>   0.4100 
 15 N       -6.6860    -1.6910    -0.3670 N.pl3 1 <1>  -0.8380 
 16 C       -6.7790    -3.0830    -0.8910 C.3   1 <1>   0.2090 
 17 C       -7.8160    -0.7950    -0.7340 C.3   1 <1>   0.1290 
 18 C       -7.8040    -3.8680    -0.0720 C.3   1 <1>  -0.1600 
 19 C       -7.8110    -5.3490    -0.4480 C.3   1 <1>   0.3430 
 20 O       -8.1310    -5.4740    -1.7830 O.3   1 <1>  -0.6800 
 21 C       -8.8310    -6.1500     0.3530 C.ar  1 <1>  -0.1440 
 22 C       -8.3990    -7.0710     1.2980 C.ar  1 <1>  -0.1500 
 23 C      -10.1950    -5.9760     0.1570 C.ar  1 <1>  -0.1500 
 24 C       -9.3140    -7.8070     2.0310 C.ar  1 <1>  -0.1500 
 25 C      -11.1110    -6.7110     0.8900 C.ar  1 <1>  -0.1500 
 26 C      -10.6700    -7.6280     1.8280 C.ar  1 <1>  -0.1500 
 27 H       -2.7600     3.4820     1.4150 H     1 <1>   0.0800 
 28 H       -3.1850     2.5090     0.0330 H     1 <1>   0.0800 
 29 H        0.4540     1.4860     1.9130 H     1 <1>   0.0800 
 30 H       -0.3960     2.8290     2.6140 H     1 <1>   0.0800 
 31 H       -2.3740    -1.3380    -0.9090 H     1 <1>   0.1500 
 32 H       -4.0900     1.0600     2.1430 H     1 <1>   0.1500 
 33 H       -2.1290     4.7040    -0.5870 H     1 <1>   0.0800 
 34 H       -1.2560     3.3270    -1.2200 H     1 <1>   0.0800 
 35 H        0.7940     2.7300    -0.1770 H     1 <1>   0.0800 
 36 H        1.3450     3.7120     1.1630 H     1 <1>   0.0800 
 37 H       -6.2790     0.0500     1.5310 H     1 <1>   0.1500 
 38 H       -5.8230    -3.5730    -0.8140 H     1 <1>   0.0800 
 39 H       -7.0590    -3.0650    -1.9310 H     1 <1>   0.0800 
 40 H       -7.5210     0.2360    -0.6520 H     1 <1>   0.0800 
 41 H       -8.6490    -0.9750    -0.0770 H     1 <1>   0.0800 
 42 H       -8.1200    -0.9840    -1.7490 H     1 <1>   0.0800 
 43 H       -8.7850    -3.4580    -0.2160 H     1 <1>   0.0800 
 44 H       -7.5500    -3.7850     0.9690 H     1 <1>   0.0800 
 45 H       -6.8270    -5.7660    -0.3130 H     1 <1>   0.0800 
 46 H       -8.4500    -6.3840    -1.9330 H     1 <1>   0.4000 
 47 H       -7.3470    -7.2200     1.4700 H     1 <1>   0.1500 
 48 H      -10.5470    -5.2650    -0.5700 H     1 <1>   0.1500 
 49 H       -8.9700    -8.5180     2.7620 H     1 <1>   0.1500 
 50 H      -12.1660    -6.5700     0.7300 H     1 <1>   0.1500 
 51 H      -11.3810    -8.1990     2.3980 H     1 <1>   0.1500 
@<TRIPOS>BOND
  1   1   2  2   
  2   2   3  am  
  3   2   4  1   
  4   3   5  1   
  5   3   6  1   
  6   4   7  ar  
  7   4   8  ar  
  8   5   9  1   
  9   5  27  1   
 10   5  28  1   
 11   6  10  1   
 12   6  29  1   
 13   6  30  1   
 14   7  11  ar  
 15   7  31  1   
 16   8  12  ar  
 17   8  32  1   
 18   9  13  1   
 19   9  33  1   
 20   9  34  1   
 21  10  13  1   
 22  10  35  1   
 23  10  36  1   
 24  11  14  ar  
 25  12  14  ar  
 26  12  37  1   
 27  14  15  1   
 28  15  16  1   
 29  15  17  1   
 30  16  18  1   
 31  16  38  1   
 32  16  39  1   
 33  17  40  1   
 34  17  41  1   
 35  17  42  1   
 36  18  19  1   
 37  18  43  1   
 38  18  44  1   
 39  19  20  1   
 40  19  21  1   
 41  19  45  1   
 42  20  46  1   
 43  21  22  ar  
 44  21  23  ar  
 45  22  24  ar  
 46  22  47  1   
 47  23  25  ar  
 48  23  48  1   
 49  24  26  ar  
 50  24  49  1   
 51  25  26  ar  
 52  25  50  1   
 53  26  51  1   
@<TRIPOS>SUBSTRUCTURE
  1 ****  14 GROUP 4 **** **** 0

# MOE 2024.06 (io_trps.svl 2023.06)
