@<TRIPOS>MOLECULE
NONAME
41 43 1 0 0 
SMALL
USER_CHARGES


@<TRIPOS>ATOM
  1 O       -0.6930    -0.0740    -1.7990 O.2   1 <1>  -0.5700 
  2 C        0.3280    -0.5690    -2.2120 C.2   1 <1>   0.5690 
  3 N        1.5340     0.0180    -1.9940 N.am  1 <1>  -0.7300 
  4 C        0.2580    -1.9070    -2.9640 C.3   1 <1>   0.2610 
  5 C        1.7520     1.2150    -1.1600 C.3   1 <1>   0.2780 
  6 O        1.3980    -2.7070    -2.6810 O.3   1 <1>  -0.3620 
  7 C        0.2110    -1.7150    -4.4830 C.3   1 <1>  -0.2400 
  8 C        2.9400     0.9740    -0.2400 C.2   1 <1>  -0.0380 
  9 C        1.6030    -3.2630    -1.4570 C.ar  1 <1>   0.0820 
 10 N        2.9860    -0.1760     0.5100 N.pl3 1 <1>  -0.5500 
 11 C        3.9790     1.8270    -0.1010 C.2   1 <1>  -0.1360 
 12 C        0.7470    -3.0800    -0.3670 C.ar  1 <1>  -0.1500 
 13 C        2.7450    -4.0510    -1.3250 C.ar  1 <1>  -0.1500 
 14 C        4.0220    -0.4280     1.3610 C.2   1 <1>   0.4390 
 15 C        5.0390     1.5180     0.7910 C.2   1 <1>   0.7670 
 16 C        1.0830    -3.6950     0.8220 C.ar  1 <1>   0.0820 
 17 C        3.0570    -4.6680    -0.1210 C.ar  1 <1>  -0.1500 
 18 N        5.0180     0.3600     1.5200 N.2   1 <1>  -0.6610 
 19 C        3.9630    -1.7160     2.1420 C.3   1 <1>  -0.1790 
 20 O        5.9820     2.2810     0.9210 O.2   1 <1>  -0.5700 
 21 O        0.4300    -3.6480     1.9870 O.3   1 <1>  -0.3620 
 22 C        2.2000    -4.4690     0.9420 C.ar  1 <1>   0.0820 
 23 C        1.1500    -4.4800     2.8950 C.3   1 <1>   0.4000 
 24 O        2.2980    -4.9470     2.1880 O.3   1 <1>  -0.3630 
 25 H        2.3810    -0.4700    -2.2980 H     1 <1>   0.3700 
 26 H       -0.6160    -2.4490    -2.6510 H     1 <1>   0.0800 
 27 H        0.8740     1.4190    -0.5690 H     1 <1>   0.0800 
 28 H        1.9360     2.0640    -1.7970 H     1 <1>   0.0800 
 29 H        1.0890    -1.1950    -4.8220 H     1 <1>   0.0800 
 30 H       -0.6550    -1.1340    -4.7470 H     1 <1>   0.0800 
 31 H        0.1450    -2.6690    -4.9740 H     1 <1>   0.0800 
 32 H        2.2370    -0.8730     0.4270 H     1 <1>   0.4000 
 33 H        4.0610     2.7540    -0.6330 H     1 <1>   0.1500 
 34 H       -0.1520    -2.4950    -0.4060 H     1 <1>   0.1500 
 35 H        3.3890    -4.1830    -2.1760 H     1 <1>   0.1500 
 36 H        3.9330    -5.2820    -0.0080 H     1 <1>   0.1500 
 37 H        2.9860    -1.8500     2.5680 H     1 <1>   0.0800 
 38 H        4.6870    -1.6970     2.9370 H     1 <1>   0.0800 
 39 H        4.1900    -2.5390     1.4930 H     1 <1>   0.0800 
 40 H        0.5370    -5.3170     3.1800 H     1 <1>   0.0800 
 41 H        1.4600    -3.9030     3.7490 H     1 <1>   0.0800 
@<TRIPOS>BOND
  1   1   2  2   
  2   2   3  am  
  3   2   4  1   
  4   3   5  1   
  5   3  25  1   
  6   4   6  1   
  7   4   7  1   
  8   4  26  1   
  9   5   8  1   
 10   5  27  1   
 11   5  28  1   
 12   6   9  1   
 13   7  29  1   
 14   7  30  1   
 15   7  31  1   
 16   8  10  1   
 17   8  11  2   
 18   9  12  ar  
 19   9  13  ar  
 20  10  14  1   
 21  10  32  1   
 22  11  15  1   
 23  11  33  1   
 24  12  16  ar  
 25  12  34  1   
 26  13  17  ar  
 27  13  35  1   
 28  14  18  2   
 29  14  19  1   
 30  15  18  1   
 31  15  20  2   
 32  16  21  1   
 33  16  22  ar  
 34  17  22  ar  
 35  17  36  1   
 36  19  37  1   
 37  19  38  1   
 38  19  39  1   
 39  21  23  1   
 40  22  24  1   
 41  23  24  1   
 42  23  40  1   
 43  23  41  1   
@<TRIPOS>SUBSTRUCTURE
  1 ****  10 GROUP 4 **** **** 0

# MOE 2024.06 (io_trps.svl 2023.06)
