@<TRIPOS>MOLECULE
NONAME
53 54 1 0 0 
SMALL
USER_CHARGES


@<TRIPOS>ATOM
  1 O       -2.7990     3.5640    -2.2160 O.2   1 <1>  -0.5700 
  2 C       -2.9130     3.1810    -1.0750 C.2   1 <1>   0.5690 
  3 N       -3.2800     1.8910    -0.7760 N.am  1 <1>  -0.6600 
  4 C       -2.5750     4.1870    -0.0070 C.3   1 <1>  -0.0380 
  5 C       -3.6640     0.9440    -1.8720 C.3   1 <1>   0.1400 
  6 C       -3.1780     1.2760     0.5830 C.3   1 <1>   0.1400 
  7 C       -1.1570     3.9350     0.4170 C.2   1 <1>   0.5690 
  8 C       -4.9320     0.1520    -1.5060 C.3   1 <1>   0.2000 
  9 C       -4.4740     0.5290     0.9200 C.3   1 <1>  -0.1600 
 10 O       -0.9540     3.6520     1.5720 O.2   1 <1>  -0.5700 
 11 N       -0.1860     4.0160    -0.5430 N.am  1 <1>  -0.5470 
 12 O       -5.2050    -0.7610    -2.5220 O.3   1 <1>  -0.6800 
 13 C       -4.8410    -0.5570    -0.1240 C.3   1 <1>   0.0000 
 14 C        1.2000     3.8100    -0.4800 C.ar  1 <1>   0.1170 
 15 C       -3.7420    -1.6580    -0.1730 C.3   1 <1>   0.1200 
 16 C       -6.1890    -1.2370     0.2590 C.3   1 <1>  -0.1600 
 17 C        1.9310     3.9050     0.7000 C.ar  1 <1>  -0.1500 
 18 C        1.8780     3.5070    -1.6540 C.ar  1 <1>  -0.1500 
 19 O       -3.5510    -2.2540     1.0660 O.3   1 <1>  -0.6800 
 20 C       -7.4470    -0.3470     0.2490 C.3   1 <1>  -0.1600 
 21 C        3.3000     3.6970     0.7140 C.ar  1 <1>  -0.1430 
 22 C        3.2450     3.2970    -1.6500 C.ar  1 <1>  -0.1500 
 23 C       -8.6780    -1.1470     0.6820 C.3   1 <1>  -0.2400 
 24 C        3.9550     3.3910    -0.4670 C.ar  1 <1>  -0.1500 
 25 C        4.0840     3.7990     2.0100 C.3   1 <1>  -0.0970 
 26 H       -2.6540     5.1800    -0.4050 H     1 <1>   0.0800 
 27 H       -3.2490     4.1080     0.8240 H     1 <1>   0.0800 
 28 H       -3.8600     1.4890    -2.7800 H     1 <1>   0.0800 
 29 H       -2.8410     0.2770    -2.0550 H     1 <1>   0.0800 
 30 H       -2.3370     0.6050     0.6010 H     1 <1>   0.0800 
 31 H       -3.0040     2.0190     1.3400 H     1 <1>   0.0800 
 32 H       -5.7460     0.8540    -1.5000 H     1 <1>   0.0800 
 33 H       -4.3870     0.0940     1.8990 H     1 <1>   0.0800 
 34 H       -5.2550     1.2640     0.9780 H     1 <1>   0.0800 
 35 H       -0.5470     4.1500    -1.4910 H     1 <1>   0.3700 
 36 H       -4.5320    -1.4660    -2.5550 H     1 <1>   0.4000 
 37 H       -2.7930    -1.2670    -0.4900 H     1 <1>   0.0800 
 38 H       -4.0270    -2.4420    -0.8540 H     1 <1>   0.0800 
 39 H       -6.3620    -2.0560    -0.4180 H     1 <1>   0.0800 
 40 H       -6.0920    -1.6680     1.2410 H     1 <1>   0.0800 
 41 H        1.4270     4.1460     1.6170 H     1 <1>   0.1500 
 42 H        1.3350     3.4300    -2.5790 H     1 <1>   0.1500 
 43 H       -3.2920    -1.5940     1.7360 H     1 <1>   0.4000 
 44 H       -7.3310     0.4860     0.9180 H     1 <1>   0.0800 
 45 H       -7.6240     0.0340    -0.7420 H     1 <1>   0.0800 
 46 H        3.7580     3.0610    -2.5660 H     1 <1>   0.1500 
 47 H       -8.5500    -1.5270     1.6800 H     1 <1>   0.0800 
 48 H       -8.8420    -1.9750     0.0140 H     1 <1>   0.0800 
 49 H       -9.5510    -0.5180     0.6640 H     1 <1>   0.0800 
 50 H        5.0180     3.2240    -0.4680 H     1 <1>   0.1500 
 51 H        4.9880     4.3590     1.8540 H     1 <1>   0.0800 
 52 H        4.3390     2.8140     2.3590 H     1 <1>   0.0800 
 53 H        3.5040     4.2930     2.7690 H     1 <1>   0.0800 
@<TRIPOS>BOND
  1   1   2  2   
  2   2   3  am  
  3   2   4  1   
  4   3   5  1   
  5   3   6  1   
  6   4   7  1   
  7   4  26  1   
  8   4  27  1   
  9   5   8  1   
 10   5  28  1   
 11   5  29  1   
 12   6   9  1   
 13   6  30  1   
 14   6  31  1   
 15   7  10  2   
 16   7  11  am  
 17   8  12  1   
 18   8  13  1   
 19   8  32  1   
 20   9  13  1   
 21   9  33  1   
 22   9  34  1   
 23  11  14  1   
 24  11  35  1   
 25  12  36  1   
 26  13  15  1   
 27  13  16  1   
 28  14  17  ar  
 29  14  18  ar  
 30  15  19  1   
 31  15  37  1   
 32  15  38  1   
 33  16  20  1   
 34  16  39  1   
 35  16  40  1   
 36  17  21  ar  
 37  17  41  1   
 38  18  22  ar  
 39  18  42  1   
 40  19  43  1   
 41  20  23  1   
 42  20  44  1   
 43  20  45  1   
 44  21  24  ar  
 45  21  25  1   
 46  22  24  ar  
 47  22  46  1   
 48  23  47  1   
 49  23  48  1   
 50  23  49  1   
 51  24  50  1   
 52  25  51  1   
 53  25  52  1   
 54  25  53  1   
@<TRIPOS>SUBSTRUCTURE
  1 ****   3 GROUP 4 **** **** 0

# MOE 2024.06 (io_trps.svl 2023.06)
