@<TRIPOS>MOLECULE
NONAME
52 55 1 0 0 
SMALL
USER_CHARGES


@<TRIPOS>ATOM
  1 O        0.2260     0.1920     0.1050 O.co2 1 <1>  -0.9000 
  2 C        1.3720     0.1680     0.5490 C.2   1 <1>   0.9060 
  3 O        1.6000    -0.0520     1.7500 O.co2 1 <1>  -0.9000 
  4 C        2.5480     0.3430    -0.4290 C.3   1 <1>  -0.1060 
  5 C        3.8800     0.3450     0.3400 C.3   1 <1>   0.4230 
  6 C        2.3660     1.6990    -1.1840 C.3   1 <1>  -0.1600 
  7 C        2.6040    -0.8540    -1.4050 C.3   1 <1>  -0.1600 
  8 N        4.0240    -0.8920     1.1750 N.4   1 <1>  -0.9590 
  9 C        4.0500     1.7170     1.0210 C.3   1 <1>   0.2090 
 10 C        3.6410     2.5460    -1.3450 C.3   1 <1>   0.2090 
 11 C        2.8440    -2.1650    -0.6300 C.3   1 <1>  -0.1600 
 12 C        4.0550    -2.1050     0.3130 C.3   1 <1>   0.3430 
 13 C        5.1500    -0.8480     2.1410 C.3   1 <1>   0.2630 
 14 N        4.4010     2.7020    -0.0580 N.pl3 1 <1>  -0.8380 
 15 C        5.7450     3.0060    -0.2010 C.ar  1 <1>   0.4100 
 16 N        6.5630     1.9540    -0.1950 N.ar  1 <1>  -0.6200 
 17 C        6.1810     4.3270    -0.3570 C.ar  1 <1>   0.0730 
 18 C        7.8530     2.2010    -0.3460 C.ar  1 <1>   0.1670 
 19 C        5.2550     5.4170    -0.3630 C.1   1 <1>   0.4840 
 20 C        7.5340     4.5570    -0.5090 C.ar  1 <1>  -0.1500 
 21 C        8.3880     3.4740    -0.5060 C.ar  1 <1>  -0.1430 
 22 C        8.7460     0.9670    -0.3570 C.3   1 <1>  -0.0170 
 23 N        4.5590     6.3210    -0.3980 N.1   1 <1>  -0.5570 
 24 C        9.8850     3.7210    -0.6670 C.3   1 <1>  -0.0170 
 25 C       10.2360     1.2830    -0.1720 C.3   1 <1>  -0.1600 
 26 C       10.6490     2.4550    -1.0650 C.3   1 <1>  -0.1600 
 27 H        4.6700     0.3070    -0.3910 H     1 <1>   0.0800 
 28 H        1.6630     2.3100    -0.6420 H     1 <1>   0.0800 
 29 H        1.9200     1.5290    -2.1480 H     1 <1>   0.0800 
 30 H        1.6710    -0.9260    -1.9410 H     1 <1>   0.0800 
 31 H        3.3910    -0.7060    -2.1250 H     1 <1>   0.0800 
 32 H        3.1080    -0.8840     1.7010 H     1 <1>   0.4500 
 33 H        4.8400     1.6990     1.7480 H     1 <1>   0.0800 
 34 H        3.1420     2.0220     1.5120 H     1 <1>   0.0800 
 35 H        3.3700     3.5220    -1.7130 H     1 <1>   0.0800 
 36 H        4.2810     2.0830    -2.0780 H     1 <1>   0.0800 
 37 H        2.9820    -2.9710    -1.3280 H     1 <1>   0.0800 
 38 H        1.9680    -2.4030    -0.0480 H     1 <1>   0.0800 
 39 H        4.9560    -2.0920    -0.2780 H     1 <1>   0.0800 
 40 H        4.0670    -2.9890     0.9290 H     1 <1>   0.0800 
 41 H        6.0800    -0.6840     1.6200 H     1 <1>   0.0800 
 42 H        5.2070    -1.7750     2.6870 H     1 <1>   0.0800 
 43 H        5.0000    -0.0480     2.8470 H     1 <1>   0.0800 
 44 H        7.9100     5.5600    -0.6280 H     1 <1>   0.1500 
 45 H        8.4320     0.2930     0.4200 H     1 <1>   0.0800 
 46 H        8.6050     0.4690    -1.2990 H     1 <1>   0.0800 
 47 H       10.0530     4.4810    -1.4110 H     1 <1>   0.0800 
 48 H       10.2710     4.0860     0.2690 H     1 <1>   0.0800 
 49 H       10.4240     1.5350     0.8580 H     1 <1>   0.0800 
 50 H       10.8220     0.4120    -0.4130 H     1 <1>   0.0800 
 51 H       10.4380     2.2160    -2.0940 H     1 <1>   0.0800 
 52 H       11.7080     2.6300    -0.9760 H     1 <1>   0.0800 
@<TRIPOS>BOND
  1   1   2  ar  
  2   2   3  ar  
  3   2   4  1   
  4   4   5  1   
  5   4   6  1   
  6   4   7  1   
  7   5   8  1   
  8   5   9  1   
  9   5  27  1   
 10   6  10  1   
 11   6  28  1   
 12   6  29  1   
 13   7  11  1   
 14   7  30  1   
 15   7  31  1   
 16   8  12  1   
 17   8  13  1   
 18   8  32  1   
 19   9  14  1   
 20   9  33  1   
 21   9  34  1   
 22  10  14  1   
 23  10  35  1   
 24  10  36  1   
 25  11  12  1   
 26  11  37  1   
 27  11  38  1   
 28  12  39  1   
 29  12  40  1   
 30  13  41  1   
 31  13  42  1   
 32  13  43  1   
 33  14  15  1   
 34  15  16  ar  
 35  15  17  ar  
 36  16  18  ar  
 37  17  19  1   
 38  17  20  ar  
 39  18  21  ar  
 40  18  22  1   
 41  19  23  3   
 42  20  21  ar  
 43  20  44  1   
 44  21  24  1   
 45  22  25  1   
 46  22  45  1   
 47  22  46  1   
 48  24  26  1   
 49  24  47  1   
 50  24  48  1   
 51  25  26  1   
 52  25  49  1   
 53  25  50  1   
 54  26  51  1   
 55  26  52  1   
@<TRIPOS>SUBSTRUCTURE
  1 ****  14 GROUP 4 **** **** 0

# MOE 2024.06 (io_trps.svl 2023.06)
