@<TRIPOS>MOLECULE
NONAME
43 45 1 0 0 
SMALL
USER_CHARGES


@<TRIPOS>ATOM
  1 S        1.4290    -0.8560     2.5730 S.3   1 <1>  -0.0800 
  2 C        1.3090    -1.6380     1.0050 C.2   1 <1>  -0.1400 
  3 C        2.1450     0.5710     1.8500 C.2   1 <1>  -0.1100 
  4 C        1.7930    -0.8320     0.0410 C.2   1 <1>  -0.1500 
  5 C        0.7070    -3.0260     0.9740 C.3   1 <1>   0.5230 
  6 C        2.2710     0.4340     0.5150 C.2   1 <1>   0.0190 
  7 N       -0.6840    -2.9410     1.5030 N.4   1 <1>  -0.9590 
  8 C        2.8140     1.4090    -0.3820 C.1   1 <1>  -0.0190 
  9 C       -1.5770    -2.1080     0.6280 C.3   1 <1>   0.3430 
 10 C       -1.3020    -4.2930     1.6200 C.3   1 <1>   0.3430 
 11 C        3.2660     2.2270    -1.1180 C.1   1 <1>  -0.2000 
 12 C       -2.8060    -2.9750     0.3170 C.3   1 <1>   0.2000 
 13 C       -2.3020    -4.4090     0.4640 C.3   1 <1>  -0.0800 
 14 C        3.8380     3.2570    -2.0260 C.3   1 <1>   0.3200 
 15 O       -3.7990    -2.7480     1.2620 O.3   1 <1>  -0.6800 
 16 C       -1.6700    -4.8990    -0.8610 C.3   1 <1>  -0.0170 
 17 O        3.2380     4.4570    -1.7160 O.3   1 <1>  -0.6800 
 18 C       -0.7790    -6.1190    -0.6870 C.ar  1 <1>   0.1670 
 19 N        0.4640    -5.8820    -0.2920 N.ar  1 <1>  -0.6200 
 20 C       -1.2790    -7.3950    -0.9470 C.ar  1 <1>   0.1600 
 21 C        1.1710    -7.0000    -0.1950 C.ar  1 <1>   0.1600 
 22 N       -0.5770    -8.5060    -0.8290 N.ar  1 <1>  -0.6200 
 23 C        0.6670    -8.2690    -0.4520 C.ar  1 <1>   0.1600 
 24 H        2.4080     1.3860     2.5030 H     1 <1>   0.1500 
 25 H        1.8490    -1.0590    -1.0110 H     1 <1>   0.1500 
 26 H        1.2990    -3.6880     1.5850 H     1 <1>   0.0800 
 27 H        0.7060    -3.4060    -0.0340 H     1 <1>   0.0800 
 28 H       -0.6070    -2.4970     2.4290 H     1 <1>   0.4500 
 29 H       -1.8670    -1.1870     1.1070 H     1 <1>   0.0800 
 30 H       -1.0680    -1.8760    -0.2930 H     1 <1>   0.0800 
 31 H       -0.5660    -5.0790     1.6130 H     1 <1>   0.0800 
 32 H       -1.8440    -4.3530     2.5500 H     1 <1>   0.0800 
 33 H       -3.2250    -2.7620    -0.6530 H     1 <1>   0.0800 
 34 H       -3.1000    -5.0830     0.7290 H     1 <1>   0.0800 
 35 H        3.6250     3.0240    -3.0550 H     1 <1>   0.0800 
 36 H        4.9000     3.3610    -1.8850 H     1 <1>   0.0800 
 37 H       -3.5090    -2.9010     2.1820 H     1 <1>   0.4000 
 38 H       -1.0770    -4.1240    -1.3130 H     1 <1>   0.0800 
 39 H       -2.4580    -5.1300    -1.5580 H     1 <1>   0.0800 
 40 H        2.2890     4.3040    -1.5470 H     1 <1>   0.4000 
 41 H       -2.3010    -7.5050    -1.2670 H     1 <1>   0.1500 
 42 H        2.2030    -6.9160     0.1030 H     1 <1>   0.1500 
 43 H        1.3170    -9.1200    -0.3440 H     1 <1>   0.1500 
@<TRIPOS>BOND
  1   1   2  1   
  2   1   3  1   
  3   2   4  2   
  4   2   5  1   
  5   3   6  2   
  6   3  24  1   
  7   4   6  1   
  8   4  25  1   
  9   5   7  1   
 10   5  26  1   
 11   5  27  1   
 12   6   8  1   
 13   7   9  1   
 14   7  10  1   
 15   7  28  1   
 16   8  11  3   
 17   9  12  1   
 18   9  29  1   
 19   9  30  1   
 20  10  13  1   
 21  10  31  1   
 22  10  32  1   
 23  11  14  1   
 24  12  13  1   
 25  12  15  1   
 26  12  33  1   
 27  13  16  1   
 28  13  34  1   
 29  14  17  1   
 30  14  35  1   
 31  14  36  1   
 32  15  37  1   
 33  16  18  1   
 34  16  38  1   
 35  16  39  1   
 36  17  40  1   
 37  18  19  ar  
 38  18  20  ar  
 39  19  21  ar  
 40  20  22  ar  
 41  20  41  1   
 42  21  23  ar  
 43  21  42  1   
 44  22  23  ar  
 45  23  43  1   
@<TRIPOS>SUBSTRUCTURE
  1 ****   5 GROUP 4 **** **** 0

# MOE 2024.06 (io_trps.svl 2023.06)
