@<TRIPOS>MOLECULE
NONAME
43 44 1 0 0 
SMALL
USER_CHARGES


@<TRIPOS>ATOM
  1 O       -2.0120    -0.2380    -1.5460 O.2   1 <1>  -0.5700 
  2 C       -2.1240     0.4530    -0.5560 C.2   1 <1>   0.5690 
  3 N       -2.5650    -0.1130     0.6200 N.am  1 <1>  -0.6600 
  4 C       -1.7830     1.9400    -0.7350 C.3   1 <1>   0.2370 
  5 C       -2.7000    -1.5980     0.7210 C.3   1 <1>   0.3200 
  6 C       -3.0050     0.6280     1.8410 C.3   1 <1>   0.1400 
  7 N       -0.7070     2.3570     0.2110 N.pl3 1 <1>   0.0480 
  8 C       -3.0300     2.8570    -0.7330 C.3   1 <1>  -0.1600 
  9 C       -4.0430    -2.0480     0.1730 C.2   1 <1>   0.0060 
 10 C       -4.5340     0.7520     1.8810 C.3   1 <1>   0.1200 
 11 C        0.5530     1.8380     0.2080 C.2   1 <1>  -0.3020 
 12 C       -0.7400     3.2830     1.2150 C.2   1 <1>  -0.3020 
 13 C       -2.7520     4.2480    -1.3280 C.3   1 <1>  -0.1600 
 14 N       -4.9910    -2.5900     0.8710 N.2   1 <1>  -0.5650 
 15 N       -4.3490    -1.8990    -1.1320 N.pl3 1 <1>   0.0330 
 16 O       -4.8900     1.6690     2.8600 O.3   1 <1>  -0.6800 
 17 C        1.2970     2.4190     1.1850 C.2   1 <1>  -0.1500 
 18 C        0.4700     3.3420     1.8280 C.2   1 <1>  -0.1500 
 19 C       -4.0170     5.1100    -1.3110 C.3   1 <1>  -0.2400 
 20 C       -5.9680    -2.8080    -0.0330 C.2   1 <1>   0.0770 
 21 C       -5.5940    -2.3900    -1.2620 C.2   1 <1>  -0.3020 
 22 H       -1.3510     2.0200    -1.7150 H     1 <1>   0.0800 
 23 H       -2.6100    -1.9110     1.7460 H     1 <1>   0.0800 
 24 H       -1.9120    -2.0760     0.1650 H     1 <1>   0.0800 
 25 H       -2.5780     1.6100     1.8560 H     1 <1>   0.0800 
 26 H       -2.6600     0.1100     2.7190 H     1 <1>   0.0800 
 27 H       -3.4230     2.9570     0.2610 H     1 <1>   0.0800 
 28 H       -3.7910     2.3850    -1.3300 H     1 <1>   0.0800 
 29 H       -5.0020    -0.1900     2.1090 H     1 <1>   0.0800 
 30 H       -4.9070     1.1190     0.9410 H     1 <1>   0.0800 
 31 H        0.8610     1.0790    -0.4910 H     1 <1>   0.1500 
 32 H       -1.6170     3.8590     1.4510 H     1 <1>   0.1500 
 33 H       -2.4080     4.1470    -2.3430 H     1 <1>   0.0800 
 34 H       -1.9810     4.7500    -0.7680 H     1 <1>   0.0800 
 35 H       -3.7300    -1.4720    -1.8360 H     1 <1>   0.2700 
 36 H       -4.8200     1.2710     3.7500 H     1 <1>   0.4000 
 37 H        2.3250     2.2260     1.4370 H     1 <1>   0.1500 
 38 H        0.7660     3.9700     2.6520 H     1 <1>   0.1500 
 39 H       -4.7970     4.6490    -1.8910 H     1 <1>   0.0800 
 40 H       -3.8070     6.0790    -1.7300 H     1 <1>   0.0800 
 41 H       -4.3670     5.2450    -0.3020 H     1 <1>   0.0800 
 42 H       -6.9030    -3.2600     0.2540 H     1 <1>   0.1500 
 43 H       -6.1290    -2.4140    -2.1940 H     1 <1>   0.1500 
@<TRIPOS>BOND
  1   1   2  2   
  2   2   3  am  
  3   2   4  1   
  4   3   5  1   
  5   3   6  1   
  6   4   7  1   
  7   4   8  1   
  8   4  22  1   
  9   5   9  1   
 10   5  23  1   
 11   5  24  1   
 12   6  10  1   
 13   6  25  1   
 14   6  26  1   
 15   7  11  1   
 16   7  12  1   
 17   8  13  1   
 18   8  27  1   
 19   8  28  1   
 20   9  14  2   
 21   9  15  1   
 22  10  16  1   
 23  10  29  1   
 24  10  30  1   
 25  11  17  2   
 26  11  31  1   
 27  12  18  2   
 28  12  32  1   
 29  13  19  1   
 30  13  33  1   
 31  13  34  1   
 32  14  20  1   
 33  15  21  1   
 34  15  35  1   
 35  16  36  1   
 36  17  18  1   
 37  17  37  1   
 38  18  38  1   
 39  19  39  1   
 40  19  40  1   
 41  19  41  1   
 42  20  21  2   
 43  20  42  1   
 44  21  43  1   
@<TRIPOS>SUBSTRUCTURE
  1 ****   3 GROUP 4 **** **** 0

# MOE 2024.06 (io_trps.svl 2023.06)
