@<TRIPOS>MOLECULE
NONAME
47 50 1 0 0 
SMALL
USER_CHARGES


@<TRIPOS>ATOM
  1 F        0.3520     0.3520    -0.3170 F     1 <1>  -0.1900 
  2 C        1.3570     1.1210     0.0490 C.ar  1 <1>   0.1900 
  3 C        2.6340     0.6110     0.2920 C.ar  1 <1>   0.4100 
  4 C        1.1310     2.4610     0.2030 C.ar  1 <1>   0.1600 
  5 N        3.5900     1.4350     0.6820 N.ar  1 <1>  -0.6200 
  6 N        2.9840    -0.7330     0.1620 N.pl3 1 <1>  -0.8380 
  7 N        2.0870     3.2870     0.5780 N.ar  1 <1>  -0.6200 
  8 C        3.2650     2.7110     0.8040 C.ar  1 <1>   0.7200 
  9 C        2.3620    -1.6420    -0.8300 C.3   1 <1>   0.2090 
 10 C        4.3370    -1.2200     0.5310 C.3   1 <1>   0.2090 
 11 N        4.2740     3.5070     1.2080 N.pl3 1 <1>  -0.8690 
 12 C        3.4560    -2.6370    -1.2010 C.3   1 <1>  -0.1600 
 13 C        4.3950    -2.6450     0.0000 C.3   1 <1>  -0.1600 
 14 C        4.4270     4.8720     0.6720 C.3   1 <1>   0.3900 
 15 C        5.9100     5.1970     0.4790 C.2   1 <1>   0.1080 
 16 N        6.8340     4.2840     0.3520 N.2   1 <1>  -0.7070 
 17 C        6.4450     6.4860     0.4130 C.2   1 <1>  -0.1810 
 18 N        7.9780     4.9730     0.2060 N.pl3 1 <1>   0.3000 
 19 C        7.7690     6.3040     0.2400 C.2   1 <1>  -0.3320 
 20 C        5.7180     7.8150     0.5170 C.3   1 <1>   0.0210 
 21 C        8.8680     7.3400     0.1060 C.3   1 <1>   0.0200 
 22 C        6.0190     8.7310    -0.6770 C.3   1 <1>  -0.1600 
 23 C        8.5620     8.3510    -1.0060 C.3   1 <1>  -0.1600 
 24 C        7.4320     9.3410    -0.6700 C.3   1 <1>  -0.1600 
 25 H        0.1510     2.8630     0.0170 H     1 <1>   0.1500 
 26 H        2.0200    -1.1000    -1.6960 H     1 <1>   0.0800 
 27 H        1.5340    -2.1500    -0.3670 H     1 <1>   0.0800 
 28 H        4.4780    -1.1810     1.5980 H     1 <1>   0.0800 
 29 H        5.0820    -0.6100     0.0470 H     1 <1>   0.0800 
 30 H        5.1810     3.0350     1.1360 H     1 <1>   0.4000 
 31 H        3.9760    -2.2720    -2.0690 H     1 <1>   0.0800 
 32 H        3.0530    -3.6110    -1.4150 H     1 <1>   0.0800 
 33 H        4.0200    -3.3120     0.7560 H     1 <1>   0.0800 
 34 H        5.3980    -2.9320    -0.2610 H     1 <1>   0.0800 
 35 H        3.9850     5.5660     1.3640 H     1 <1>   0.0800 
 36 H        3.9270     4.9570    -0.2760 H     1 <1>   0.0800 
 37 H        8.8840     4.5050     0.0850 H     1 <1>   0.2700 
 38 H        5.9990     8.3020     1.4340 H     1 <1>   0.0800 
 39 H        4.6580     7.6430     0.5520 H     1 <1>   0.0800 
 40 H        9.7960     6.8460    -0.1260 H     1 <1>   0.0800 
 41 H        8.9960     7.8510     1.0440 H     1 <1>   0.0800 
 42 H        5.3110     9.5400    -0.6570 H     1 <1>   0.0800 
 43 H        5.8600     8.1890    -1.5930 H     1 <1>   0.0800 
 44 H        8.3260     7.8240    -1.9140 H     1 <1>   0.0800 
 45 H        9.4560     8.9210    -1.1890 H     1 <1>   0.0800 
 46 H        7.6250     9.8080     0.2810 H     1 <1>   0.0800 
 47 H        7.4530    10.1200    -1.4130 H     1 <1>   0.0800 
@<TRIPOS>BOND
  1   1   2  1   
  2   2   3  ar  
  3   2   4  ar  
  4   3   5  ar  
  5   3   6  1   
  6   4   7  ar  
  7   4  25  1   
  8   5   8  ar  
  9   6   9  1   
 10   6  10  1   
 11   7   8  ar  
 12   8  11  1   
 13   9  12  1   
 14   9  26  1   
 15   9  27  1   
 16  10  13  1   
 17  10  28  1   
 18  10  29  1   
 19  11  14  1   
 20  11  30  1   
 21  12  13  1   
 22  12  31  1   
 23  12  32  1   
 24  13  33  1   
 25  13  34  1   
 26  14  15  1   
 27  14  35  1   
 28  14  36  1   
 29  15  16  2   
 30  15  17  1   
 31  16  18  1   
 32  17  19  2   
 33  17  20  1   
 34  18  19  1   
 35  18  37  1   
 36  19  21  1   
 37  20  22  1   
 38  20  38  1   
 39  20  39  1   
 40  21  23  1   
 41  21  40  1   
 42  21  41  1   
 43  22  24  1   
 44  22  42  1   
 45  22  43  1   
 46  23  24  1   
 47  23  44  1   
 48  23  45  1   
 49  24  46  1   
 50  24  47  1   
@<TRIPOS>SUBSTRUCTURE
  1 ****  11 GROUP 4 **** **** 0

# MOE 2024.06 (io_trps.svl 2023.06)
