@<TRIPOS>MOLECULE
NONAME
53 55 1 0 0 
SMALL
USER_CHARGES


@<TRIPOS>ATOM
  1 O       -0.8520    -0.1710     1.2090 O.2   1 <1>  -0.5700 
  2 C       -1.4720     0.7080     0.6340 C.2   1 <1>   0.5440 
  3 N       -2.6500     0.3480     0.0130 N.am  1 <1>  -0.6600 
  4 C       -1.0250     2.0860     0.7150 C.ar  1 <1>   0.0860 
  5 C       -2.9520    -1.0660    -0.2910 C.3   1 <1>   0.1400 
  6 C       -3.8630     1.2020     0.1590 C.3   1 <1>   0.1400 
  7 C       -0.9790     2.9400    -0.3970 C.ar  1 <1>   0.0830 
  8 C       -0.6170     2.6010     1.9460 C.ar  1 <1>  -0.1500 
  9 C       -4.1700    -1.3900     0.5920 C.3   1 <1>   0.4230 
 10 C       -5.1670     0.4560    -0.2800 C.3   1 <1>  -0.1600 
 11 O       -1.3360     2.4380    -1.6050 O.3   1 <1>  -0.3630 
 12 C       -0.5650     4.2630    -0.2470 C.ar  1 <1>  -0.1500 
 13 C       -0.2040     3.9100     2.0850 C.ar  1 <1>  -0.1500 
 14 N       -3.9130    -2.5160     1.5580 N.4   1 <1>  -0.9590 
 15 C       -5.4970    -1.1460    -0.2550 C.3   1 <1>   0.0000 
 16 C       -1.1220     3.1350    -2.8140 C.3   1 <1>   0.0400 
 17 C       -0.1810     4.7520     0.9880 C.ar  1 <1>  -0.1430 
 18 C       -3.9350    -3.7980     0.8830 C.3   1 <1>   0.3430 
 19 C       -2.6630    -2.3110     2.3650 C.3   1 <1>   0.2630 
 20 C       -5.8810    -2.7210    -0.3440 C.3   1 <1>  -0.1600 
 21 C       -6.8530    -0.8160    -1.0630 C.3   1 <1>   0.1200 
 22 C        0.2730     6.1920     1.1520 C.3   1 <1>  -0.0970 
 23 C       -5.3780    -3.9130     0.4980 C.3   1 <1>  -0.1600 
 24 O       -7.8800    -0.6510    -0.1350 O.3   1 <1>  -0.6800 
 25 H       -3.2000    -1.1540    -1.3350 H     1 <1>   0.0800 
 26 H       -2.1060    -1.7000    -0.1010 H     1 <1>   0.0800 
 27 H       -3.9500     1.5000     1.1920 H     1 <1>   0.0800 
 28 H       -3.7390     2.1010    -0.4240 H     1 <1>   0.0800 
 29 H       -0.6230     1.9560     2.8070 H     1 <1>   0.1500 
 30 H       -4.2070    -0.5970     1.3150 H     1 <1>   0.0800 
 31 H       -5.9620     1.0030     0.2060 H     1 <1>   0.0800 
 32 H       -5.1500     0.7690    -1.3130 H     1 <1>   0.0800 
 33 H       -0.5350     4.9270    -1.0900 H     1 <1>   0.1500 
 34 H        0.1030     4.2750     3.0510 H     1 <1>   0.1500 
 35 H       -4.7130    -2.5060     2.2050 H     1 <1>   0.4500 
 36 H       -1.4000     2.4890    -3.6260 H     1 <1>   0.0800 
 37 H       -0.0790     3.3880    -2.8900 H     1 <1>   0.0800 
 38 H       -1.7360     4.0180    -2.8230 H     1 <1>   0.0800 
 39 H       -3.2910    -3.7960     0.0180 H     1 <1>   0.0800 
 40 H       -3.6540    -4.5970     1.5510 H     1 <1>   0.0800 
 41 H       -1.7860    -2.3880     1.7420 H     1 <1>   0.0800 
 42 H       -2.5930    -3.0490     3.1470 H     1 <1>   0.0800 
 43 H       -2.6630    -1.3310     2.8150 H     1 <1>   0.0800 
 44 H       -6.9430    -2.8960    -0.2390 H     1 <1>   0.0800 
 45 H       -5.6330    -3.0060    -1.3550 H     1 <1>   0.0800 
 46 H       -7.1680    -1.5720    -1.7670 H     1 <1>   0.0800 
 47 H       -6.8860     0.0660    -1.6810 H     1 <1>   0.0800 
 48 H       -0.1910     6.6300     2.0170 H     1 <1>   0.0800 
 49 H        0.0070     6.7800     0.2910 H     1 <1>   0.0800 
 50 H        1.3400     6.2250     1.2760 H     1 <1>   0.0800 
 51 H       -5.5200    -4.8270    -0.0550 H     1 <1>   0.0800 
 52 H       -5.9730    -4.0020     1.3930 H     1 <1>   0.0800 
 53 H       -8.7310    -0.4550    -0.5780 H     1 <1>   0.4000 
@<TRIPOS>BOND
  1   1   2  2   
  2   2   3  am  
  3   2   4  1   
  4   3   5  1   
  5   3   6  1   
  6   4   7  ar  
  7   4   8  ar  
  8   5   9  1   
  9   5  25  1   
 10   5  26  1   
 11   6  10  1   
 12   6  27  1   
 13   6  28  1   
 14   7  11  1   
 15   7  12  ar  
 16   8  13  ar  
 17   8  29  1   
 18   9  14  1   
 19   9  15  1   
 20   9  30  1   
 21  10  15  1   
 22  10  31  1   
 23  10  32  1   
 24  11  16  1   
 25  12  17  ar  
 26  12  33  1   
 27  13  17  ar  
 28  13  34  1   
 29  14  18  1   
 30  14  19  1   
 31  14  35  1   
 32  15  20  1   
 33  15  21  1   
 34  16  36  1   
 35  16  37  1   
 36  16  38  1   
 37  17  22  1   
 38  18  23  1   
 39  18  39  1   
 40  18  40  1   
 41  19  41  1   
 42  19  42  1   
 43  19  43  1   
 44  20  23  1   
 45  20  44  1   
 46  20  45  1   
 47  21  24  1   
 48  21  46  1   
 49  21  47  1   
 50  22  48  1   
 51  22  49  1   
 52  22  50  1   
 53  23  51  1   
 54  23  52  1   
 55  24  53  1   
@<TRIPOS>SUBSTRUCTURE
  1 ****   3 GROUP 4 **** **** 0

# MOE 2024.06 (io_trps.svl 2023.06)
