@<TRIPOS>MOLECULE
NONAME
54 57 1 0 0 
SMALL
USER_CHARGES


@<TRIPOS>ATOM
  1 O       -0.8880     3.0080     0.1260 O.3   1 <1>  -0.6800 
  2 C        0.1500     3.6680     0.7660 C.3   1 <1>   0.2000 
  3 C        0.2160     5.1420     0.3570 C.3   1 <1>   0.2090 
  4 C        1.4760     3.0810     0.3120 C.3   1 <1>  -0.1600 
  5 N        1.6680     5.4730     0.2860 N.pl3 1 <1>  -0.8380 
  6 C        2.4690     4.2290     0.4460 C.3   1 <1>   0.2090 
  7 C        2.2140     6.6920     0.0450 C.ar  1 <1>   0.4100 
  8 N        3.5320     6.7890     0.0860 N.ar  1 <1>  -0.6200 
  9 C        1.4030     7.8120    -0.2360 C.ar  1 <1>  -0.1500 
 10 C        4.0740     7.9660    -0.1580 C.ar  1 <1>   0.7710 
 11 C        1.9900     9.0100    -0.4650 C.ar  1 <1>   0.2110 
 12 N        3.3390     9.0560    -0.4170 N.ar  1 <1>  -0.1790 
 13 N        5.4130     8.0060    -0.1270 N.pl3 1 <1>  -0.8690 
 14 C        6.4570     8.9950    -0.5190 C.3   1 <1>   0.2890 
 15 C        6.8030     9.9230     0.6520 C.3   1 <1>  -0.1600 
 16 C        6.0920     9.7810    -1.7910 C.3   1 <1>  -0.1600 
 17 C        5.7220    10.9650     0.9650 C.3   1 <1>   0.2090 
 18 C        5.6760    11.2340    -1.5290 C.3   1 <1>   0.2090 
 19 N        4.9070    11.2980    -0.2510 N.pl3 1 <1>  -0.8380 
 20 C        3.8570    12.2180    -0.0890 C.ar  1 <1>   0.1000 
 21 C        2.9110    12.0220     0.9170 C.ar  1 <1>  -0.1500 
 22 C        3.7010    13.3280    -0.9170 C.ar  1 <1>  -0.1500 
 23 C        1.8330    12.8750     1.0760 C.ar  1 <1>  -0.1430 
 24 C        2.6280    14.1850    -0.7650 C.ar  1 <1>  -0.1500 
 25 C        1.6910    13.9580     0.2260 C.ar  1 <1>  -0.1500 
 26 C        0.8110    12.6520     2.1780 C.3   1 <1>  -0.0970 
 27 H       -1.7500     3.2430     0.5190 H     1 <1>   0.4000 
 28 H        0.0300     3.5710     1.8310 H     1 <1>   0.0800 
 29 H       -0.2780     5.7610     1.0850 H     1 <1>   0.0800 
 30 H       -0.2230     5.2750    -0.6170 H     1 <1>   0.0800 
 31 H        1.4220     2.7930    -0.7230 H     1 <1>   0.0800 
 32 H        1.7690     2.2360     0.9080 H     1 <1>   0.0800 
 33 H        3.2400     4.1640    -0.3040 H     1 <1>   0.0800 
 34 H        2.9210     4.2250     1.4240 H     1 <1>   0.0800 
 35 H        0.3370     7.7010    -0.2640 H     1 <1>   0.1500 
 36 H        1.4440     9.9160    -0.6770 H     1 <1>   0.1500 
 37 H        3.8660     9.9370    -0.5060 H     1 <1>   0.4570 
 38 H        5.8160     7.1020     0.1430 H     1 <1>   0.4000 
 39 H        7.3430     8.4240    -0.7470 H     1 <1>   0.0800 
 40 H        7.7040    10.4530     0.4020 H     1 <1>   0.0800 
 41 H        7.0220     9.3460     1.5330 H     1 <1>   0.0800 
 42 H        5.3380     9.2680    -2.3580 H     1 <1>   0.0800 
 43 H        6.9630     9.8200    -2.4220 H     1 <1>   0.0800 
 44 H        6.1760    11.8630     1.3530 H     1 <1>   0.0800 
 45 H        5.0790    10.5670     1.7300 H     1 <1>   0.0800 
 46 H        5.0850    11.5870    -2.3570 H     1 <1>   0.0800 
 47 H        6.5480    11.8620    -1.4440 H     1 <1>   0.0800 
 48 H        3.0140    11.1970     1.5940 H     1 <1>   0.1500 
 49 H        4.4190    13.5470    -1.6830 H     1 <1>   0.1500 
 50 H        2.5210    15.0370    -1.4150 H     1 <1>   0.1500 
 51 H        0.8600    14.6320     0.3390 H     1 <1>   0.1500 
 52 H        0.9920    11.7290     2.6980 H     1 <1>   0.0800 
 53 H       -0.1800    12.6240     1.7610 H     1 <1>   0.0800 
 54 H        0.8620    13.4590     2.8870 H     1 <1>   0.0800 
@<TRIPOS>BOND
  1   1   2  1   
  2   1  27  1   
  3   2   3  1   
  4   2   4  1   
  5   2  28  1   
  6   3   5  1   
  7   3  29  1   
  8   3  30  1   
  9   4   6  1   
 10   4  31  1   
 11   4  32  1   
 12   5   6  1   
 13   5   7  1   
 14   6  33  1   
 15   6  34  1   
 16   7   8  ar  
 17   7   9  ar  
 18   8  10  ar  
 19   9  11  ar  
 20   9  35  1   
 21  10  12  ar  
 22  10  13  1   
 23  11  12  ar  
 24  11  36  1   
 25  12  37  1   
 26  13  14  1   
 27  13  38  1   
 28  14  15  1   
 29  14  16  1   
 30  14  39  1   
 31  15  17  1   
 32  15  40  1   
 33  15  41  1   
 34  16  18  1   
 35  16  42  1   
 36  16  43  1   
 37  17  19  1   
 38  17  44  1   
 39  17  45  1   
 40  18  19  1   
 41  18  46  1   
 42  18  47  1   
 43  19  20  1   
 44  20  21  ar  
 45  20  22  ar  
 46  21  23  ar  
 47  21  48  1   
 48  22  24  ar  
 49  22  49  1   
 50  23  25  ar  
 51  23  26  1   
 52  24  25  ar  
 53  24  50  1   
 54  25  51  1   
 55  26  52  1   
 56  26  53  1   
 57  26  54  1   
@<TRIPOS>SUBSTRUCTURE
  1 ****  12 GROUP 4 **** **** 0

# MOE 2024.06 (io_trps.svl 2023.06)
