@<TRIPOS>MOLECULE
NONAME
47 51 1 0 0 
SMALL
USER_CHARGES


@<TRIPOS>ATOM
  1 S        0.2530     1.0000    -1.7610 S.3   1 <1>  -0.0800 
  2 C       -0.8260     1.5680    -0.4960 C.2   1 <1>  -0.1400 
  3 C       -0.9420    -0.1740    -2.2970 C.2   1 <1>  -0.1100 
  4 C       -1.9870     0.9010    -0.5290 C.2   1 <1>  -0.1810 
  5 C       -0.4440     2.6760     0.4800 C.3   1 <1>   0.4600 
  6 C       -2.0600    -0.1000    -1.5490 C.2   1 <1>  -0.1500 
  7 C       -3.0720     1.2430     0.4670 C.3   1 <1>   0.0210 
  8 O       -1.4620     2.7860     1.4580 O.3   1 <1>  -0.5600 
  9 C       -0.2890     4.0270    -0.2330 C.3   1 <1>  -0.1600 
 10 C        0.8410     2.3200     1.2340 C.3   1 <1>  -0.1600 
 11 C       -2.8010     2.6470     1.0420 C.3   1 <1>   0.1200 
 12 C        0.1380     5.1300     0.7370 C.3   1 <1>   0.1400 
 13 C        1.2610     3.4380     2.1890 C.3   1 <1>   0.1400 
 14 N        1.3890     4.7140     1.4300 N.am  1 <1>  -0.6600 
 15 C        2.6040     5.3520     1.2760 C.2   1 <1>   0.5440 
 16 O        3.6210     4.7820     1.6230 O.2   1 <1>  -0.5700 
 17 C        2.7030     6.6790     0.7030 C.ar  1 <1>   0.0860 
 18 C        3.4790     6.9120    -0.4320 C.ar  1 <1>  -0.1500 
 19 C        2.0300     7.7660     1.2680 C.ar  1 <1>  -0.1500 
 20 C        3.5660     8.1720    -0.9920 C.ar  1 <1>   0.0830 
 21 C        2.1060     9.0310     0.7120 C.ar  1 <1>  -0.1500 
 22 O        4.3420     8.3510    -2.0910 O.3   1 <1>  -0.3630 
 23 C        2.8650     9.2380    -0.4250 C.ar  1 <1>   0.0830 
 24 C        4.6850     9.6840    -2.4180 C.3   1 <1>   0.1200 
 25 O        2.9110    10.4770    -0.9690 O.3   1 <1>  -0.3630 
 26 C        3.4610    10.5990    -2.2680 C.3   1 <1>   0.1200 
 27 H       -0.6760    -0.8040    -3.1270 H     1 <1>   0.1500 
 28 H       -2.9380    -0.7100    -1.6720 H     1 <1>   0.1500 
 29 H       -3.0790     0.5170     1.2600 H     1 <1>   0.0800 
 30 H       -4.0330     1.2340    -0.0150 H     1 <1>   0.0800 
 31 H       -1.2050     4.2950    -0.7210 H     1 <1>   0.0800 
 32 H        0.4630     3.9360    -0.9960 H     1 <1>   0.0800 
 33 H        1.6410     2.1560     0.5360 H     1 <1>   0.0800 
 34 H        0.6930     1.4070     1.7800 H     1 <1>   0.0800 
 35 H       -3.4290     2.8240     1.8970 H     1 <1>   0.0800 
 36 H       -3.0080     3.3990     0.3020 H     1 <1>   0.0800 
 37 H       -0.6330     5.2930     1.4710 H     1 <1>   0.0800 
 38 H        0.2810     6.0440     0.1890 H     1 <1>   0.0800 
 39 H        2.1920     3.1800     2.6650 H     1 <1>   0.0800 
 40 H        0.5190     3.5610     2.9600 H     1 <1>   0.0800 
 41 H        4.0230     6.0960    -0.8740 H     1 <1>   0.1500 
 42 H        1.4430     7.6070     2.1560 H     1 <1>   0.1500 
 43 H        1.5810     9.8600     1.1530 H     1 <1>   0.1500 
 44 H        5.0490     9.6940    -3.4290 H     1 <1>   0.0800 
 45 H        5.4720     9.9990    -1.7560 H     1 <1>   0.0800 
 46 H        2.7020    10.3270    -2.9790 H     1 <1>   0.0800 
 47 H        3.7330    11.6280    -2.4170 H     1 <1>   0.0800 
@<TRIPOS>BOND
  1   1   2  1   
  2   1   3  1   
  3   2   4  2   
  4   2   5  1   
  5   3   6  2   
  6   3  27  1   
  7   4   6  1   
  8   4   7  1   
  9   5   8  1   
 10   5   9  1   
 11   5  10  1   
 12   6  28  1   
 13   7  11  1   
 14   7  29  1   
 15   7  30  1   
 16   8  11  1   
 17   9  12  1   
 18   9  31  1   
 19   9  32  1   
 20  10  13  1   
 21  10  33  1   
 22  10  34  1   
 23  11  35  1   
 24  11  36  1   
 25  12  14  1   
 26  12  37  1   
 27  12  38  1   
 28  13  14  1   
 29  13  39  1   
 30  13  40  1   
 31  14  15  am  
 32  15  16  2   
 33  15  17  1   
 34  17  18  ar  
 35  17  19  ar  
 36  18  20  ar  
 37  18  41  1   
 38  19  21  ar  
 39  19  42  1   
 40  20  22  1   
 41  20  23  ar  
 42  21  23  ar  
 43  21  43  1   
 44  22  24  1   
 45  23  25  1   
 46  24  26  1   
 47  24  44  1   
 48  24  45  1   
 49  25  26  1   
 50  26  46  1   
 51  26  47  1   
@<TRIPOS>SUBSTRUCTURE
  1 ****  12 GROUP 4 **** **** 0

# MOE 2024.06 (io_trps.svl 2023.06)
