@<TRIPOS>MOLECULE
NONAME
56 59 1 0 0 
SMALL
USER_CHARGES


@<TRIPOS>ATOM
  1 O       -0.6820     1.1950    -0.1090 O.3   1 <1>  -0.2800 
  2 C       -0.3360     1.9930    -1.1120 C.2   1 <1>   0.0870 
  3 C       -1.7010     0.4500    -0.4780 C.2   1 <1>  -0.0400 
  4 C        0.7670     2.9180    -0.9650 C.ar  1 <1>   0.0530 
  5 C       -1.1680     1.7470    -2.1580 C.2   1 <1>  -0.1500 
  6 C       -2.0540     0.7480    -1.7490 C.2   1 <1>  -0.1500 
  7 C       -2.2410    -0.5330     0.5460 C.3   1 <1>   0.5230 
  8 C        1.4650     3.0370     0.2370 C.ar  1 <1>  -0.1500 
  9 C        1.1760     3.7300    -2.0230 C.ar  1 <1>  -0.1500 
 10 N       -3.1460    -1.5360    -0.1000 N.4   1 <1>  -0.9590 
 11 C        2.5200     3.9190     0.3830 C.ar  1 <1>  -0.1500 
 12 C        2.2300     4.6150    -1.8870 C.ar  1 <1>  -0.1500 
 13 C       -4.0140    -2.2410     0.8920 C.3   1 <1>   0.4230 
 14 C       -2.3120    -2.4620    -0.9380 C.3   1 <1>   0.2630 
 15 C        2.9110     4.7190    -0.6860 C.ar  1 <1>   0.0830 
 16 C       -4.9490    -3.2400     0.2000 C.3   1 <1>  -0.1600 
 17 C       -5.0240    -1.2610     1.5010 C.3   1 <1>  -0.1600 
 18 O        3.9300     5.6090    -0.6350 O.3   1 <1>  -0.3620 
 19 C       -6.0780    -2.3900    -0.4010 C.3   1 <1>  -0.0800 
 20 C       -6.1350    -1.1160     0.4500 C.3   1 <1>  -0.0800 
 21 C        4.6880     5.7920     0.5380 C.3   1 <1>   0.1200 
 22 C       -7.4760    -3.0210    -0.3500 C.3   1 <1>  -0.1600 
 23 C       -7.5610    -1.0210     1.0080 C.3   1 <1>  -0.1600 
 24 C        5.7440     6.8560     0.2570 C.3   1 <1>  -0.2400 
 25 C       -8.3920    -1.8750     0.0600 C.3   1 <1>   0.2000 
 26 O       -9.5050    -2.3600     0.7050 O.3   1 <1>  -0.6800 
 27 H       -1.1690     2.2170    -3.1260 H     1 <1>   0.1500 
 28 H       -2.8360     0.3480    -2.3700 H     1 <1>   0.1500 
 29 H       -2.7600     0.0280     1.3030 H     1 <1>   0.0800 
 30 H       -1.4150    -1.0380     1.0170 H     1 <1>   0.0800 
 31 H        1.1780     2.4280     1.0750 H     1 <1>   0.1500 
 32 H        0.6690     3.6740    -2.9680 H     1 <1>   0.1500 
 33 H       -3.7760    -1.0070    -0.7140 H     1 <1>   0.4500 
 34 H        3.0230     3.9710     1.3290 H     1 <1>   0.1500 
 35 H        2.5340     5.2350    -2.7110 H     1 <1>   0.1500 
 36 H       -3.4150    -2.7230     1.6490 H     1 <1>   0.0800 
 37 H       -1.7090    -3.0980    -0.3090 H     1 <1>   0.0800 
 38 H       -1.6560    -1.8990    -1.5830 H     1 <1>   0.0800 
 39 H       -2.9370    -3.0820    -1.5590 H     1 <1>   0.0800 
 40 H       -4.4820    -3.8790    -0.5260 H     1 <1>   0.0800 
 41 H       -5.3530    -3.8780     0.9670 H     1 <1>   0.0800 
 42 H       -5.4260    -1.7270     2.3850 H     1 <1>   0.0800 
 43 H       -4.6230    -0.3110     1.7970 H     1 <1>   0.0800 
 44 H       -5.8440    -2.1200    -1.4190 H     1 <1>   0.0800 
 45 H       -5.9440    -0.2640    -0.1840 H     1 <1>   0.0800 
 46 H        4.0260     6.1110     1.3250 H     1 <1>   0.0800 
 47 H        5.1500     4.8540     0.7950 H     1 <1>   0.0800 
 48 H       -7.5170    -3.8010     0.3890 H     1 <1>   0.0800 
 49 H       -7.7640    -3.4210    -1.3070 H     1 <1>   0.0800 
 50 H       -7.9140    -0.0040     1.0220 H     1 <1>   0.0800 
 51 H       -7.6120    -1.4310     2.0020 H     1 <1>   0.0800 
 52 H        5.2710     7.7820    -0.0150 H     1 <1>   0.0800 
 53 H        6.3890     6.5330    -0.5410 H     1 <1>   0.0800 
 54 H        6.3410     7.0190     1.1360 H     1 <1>   0.0800 
 55 H       -8.7080    -1.3050    -0.7990 H     1 <1>   0.0800 
 56 H       -9.2510    -2.8860     1.4860 H     1 <1>   0.4000 
@<TRIPOS>BOND
  1   1   2  1   
  2   1   3  1   
  3   2   4  1   
  4   2   5  2   
  5   3   6  2   
  6   3   7  1   
  7   4   8  ar  
  8   4   9  ar  
  9   5   6  1   
 10   5  27  1   
 11   6  28  1   
 12   7  10  1   
 13   7  29  1   
 14   7  30  1   
 15   8  11  ar  
 16   8  31  1   
 17   9  12  ar  
 18   9  32  1   
 19  10  13  1   
 20  10  14  1   
 21  10  33  1   
 22  11  15  ar  
 23  11  34  1   
 24  12  15  ar  
 25  12  35  1   
 26  13  16  1   
 27  13  17  1   
 28  13  36  1   
 29  14  37  1   
 30  14  38  1   
 31  14  39  1   
 32  15  18  1   
 33  16  19  1   
 34  16  40  1   
 35  16  41  1   
 36  17  20  1   
 37  17  42  1   
 38  17  43  1   
 39  18  21  1   
 40  19  20  1   
 41  19  22  1   
 42  19  44  1   
 43  20  23  1   
 44  20  45  1   
 45  21  24  1   
 46  21  46  1   
 47  21  47  1   
 48  22  25  1   
 49  22  48  1   
 50  22  49  1   
 51  23  25  1   
 52  23  50  1   
 53  23  51  1   
 54  24  52  1   
 55  24  53  1   
 56  24  54  1   
 57  25  26  1   
 58  25  55  1   
 59  26  56  1   
@<TRIPOS>SUBSTRUCTURE
  1 ****   3 GROUP 4 **** **** 0

# MOE 2024.06 (io_trps.svl 2023.06)
