@<TRIPOS>MOLECULE
NONAME
43 45 1 0 0 
SMALL
USER_CHARGES


@<TRIPOS>ATOM
  1 S       -0.6800     0.8630     0.9750 S.3   1 <1>  -0.3320 
  2 C       -0.1460    -0.6370     0.1700 C.ar  1 <1>   0.7220 
  3 C        0.6830     1.3640     2.1420 C.3   1 <1>   0.1310 
  4 N        0.9740    -1.1850     0.6180 N.ar  1 <1>  -0.6200 
  5 N       -0.9390    -1.0390    -0.8080 N.ar  1 <1>  -0.6200 
  6 C        1.3870     2.6140     1.6340 C.2   1 <1>   0.5690 
  7 C        1.3290    -2.2910     0.0060 C.ar  1 <1>   0.1660 
  8 C       -0.5550    -2.1470    -1.3990 C.ar  1 <1>   0.1600 
  9 O        1.3380     3.6040     2.3280 O.2   1 <1>  -0.5700 
 10 N        2.0760     2.6110     0.4530 N.am  1 <1>  -0.6600 
 11 C        0.5850    -2.8190    -1.0240 C.ar  1 <1>  -0.1500 
 12 C        2.5970    -2.9650     0.4860 C.3   1 <1>  -0.0970 
 13 C        2.6050     3.8590    -0.1320 C.3   1 <1>   0.4010 
 14 C        2.6490     1.4210    -0.2120 C.3   1 <1>   0.1400 
 15 C        1.5020     4.7930    -0.6130 C.2   1 <1>  -0.1810 
 16 C        3.4940     3.4020    -1.2890 C.3   1 <1>  -0.1600 
 17 C        3.8590     1.9550    -0.9670 C.3   1 <1>  -0.1600 
 18 C        0.3530     4.5650    -1.2740 C.2   1 <1>  -0.0400 
 19 C        1.4930     6.1780    -0.4380 C.2   1 <1>   0.1080 
 20 O       -0.2360     5.7140    -1.4660 O.3   1 <1>  -0.0190 
 21 C       -0.3220     3.3120    -1.7940 C.3   1 <1>  -0.0600 
 22 N        0.4470     6.7020    -0.9680 N.2   1 <1>  -0.4100 
 23 C        2.5480     6.9870     0.2840 C.3   1 <1>  -0.0590 
 24 H        1.3730     0.5550     2.2700 H     1 <1>   0.0800 
 25 H        0.2100     1.5730     3.0830 H     1 <1>   0.0800 
 26 H       -1.1660    -2.5280    -2.2010 H     1 <1>   0.1500 
 27 H        0.8760    -3.7250    -1.5230 H     1 <1>   0.1500 
 28 H        3.4310    -2.2970     0.3680 H     1 <1>   0.0800 
 29 H        2.7920    -3.8640    -0.0690 H     1 <1>   0.0800 
 30 H        2.5000    -3.2170     1.5270 H     1 <1>   0.0800 
 31 H        3.2060     4.3450     0.6170 H     1 <1>   0.0800 
 32 H        1.9300     1.0140    -0.9000 H     1 <1>   0.0800 
 33 H        2.9370     0.6700     0.5030 H     1 <1>   0.0800 
 34 H        4.3580     4.0320    -1.3930 H     1 <1>   0.0800 
 35 H        2.9310     3.4350    -2.2060 H     1 <1>   0.0800 
 36 H        4.0660     1.3760    -1.8510 H     1 <1>   0.0800 
 37 H        4.7180     1.9270    -0.3190 H     1 <1>   0.0800 
 38 H        0.2960     2.4510    -1.6360 H     1 <1>   0.0800 
 39 H       -0.5150     3.4130    -2.8460 H     1 <1>   0.0800 
 40 H       -1.2540     3.1660    -1.2790 H     1 <1>   0.0800 
 41 H        3.5050     6.8470    -0.1830 H     1 <1>   0.0800 
 42 H        2.5990     6.6760     1.3110 H     1 <1>   0.0800 
 43 H        2.2940     8.0310     0.2520 H     1 <1>   0.0800 
@<TRIPOS>BOND
  1   1   2  1   
  2   1   3  1   
  3   2   4  ar  
  4   2   5  ar  
  5   3   6  1   
  6   3  24  1   
  7   3  25  1   
  8   4   7  ar  
  9   5   8  ar  
 10   6   9  2   
 11   6  10  am  
 12   7  11  ar  
 13   7  12  1   
 14   8  11  ar  
 15   8  26  1   
 16  10  13  1   
 17  10  14  1   
 18  11  27  1   
 19  12  28  1   
 20  12  29  1   
 21  12  30  1   
 22  13  15  1   
 23  13  16  1   
 24  13  31  1   
 25  14  17  1   
 26  14  32  1   
 27  14  33  1   
 28  15  18  2   
 29  15  19  1   
 30  16  17  1   
 31  16  34  1   
 32  16  35  1   
 33  17  36  1   
 34  17  37  1   
 35  18  20  1   
 36  18  21  1   
 37  19  22  2   
 38  19  23  1   
 39  20  22  1   
 40  21  38  1   
 41  21  39  1   
 42  21  40  1   
 43  23  41  1   
 44  23  42  1   
 45  23  43  1   
@<TRIPOS>SUBSTRUCTURE
  1 ****  10 GROUP 4 **** **** 0

# MOE 2024.06 (io_trps.svl 2023.06)
