@<TRIPOS>MOLECULE
NONAME
44 46 1 0 0 
SMALL
USER_CHARGES


@<TRIPOS>ATOM
  1 O       -0.6860     0.5480     1.1210 O.2   1 <1>  -0.5700 
  2 C       -1.6450     0.9060     0.4640 C.2   1 <1>   0.5440 
  3 N       -1.6030     2.1410    -0.1500 N.am  1 <1>  -0.6600 
  4 C       -2.7920     0.0340     0.3630 C.ar  1 <1>   0.0860 
  5 C       -2.8130     2.9720    -0.4280 C.3   1 <1>   0.1400 
  6 C       -0.3250     2.9030    -0.3020 C.3   1 <1>   0.1400 
  7 C       -3.2500    -0.6600     1.4810 C.ar  1 <1>   0.1600 
  8 C       -3.4840    -0.1710    -0.8280 C.ar  1 <1>  -0.1500 
  9 C       -2.7370     4.3130     0.3240 C.3   1 <1>   0.1200 
 10 C       -0.3970     4.2380     0.4540 C.3   1 <1>   0.1200 
 11 N       -4.2910    -1.4750     1.5190 N.ar  1 <1>  -0.6200 
 12 C       -4.5640    -1.0190    -0.8100 C.ar  1 <1>  -0.1500 
 13 O       -1.5280     4.9650     0.0600 O.3   1 <1>  -0.5600 
 14 C       -4.9300    -1.6500     0.3760 C.ar  1 <1>   0.4100 
 15 N       -5.9810    -2.5050     0.4570 N.pl3 1 <1>  -0.8690 
 16 C       -6.1680    -3.6300    -0.4620 C.3   1 <1>   0.4700 
 17 C       -7.5540    -4.2040    -0.2230 C.2   1 <1>  -0.1810 
 18 C       -5.0730    -4.6610    -0.2010 C.3   1 <1>  -0.2400 
 19 C       -8.7290    -3.4630    -0.2680 C.2   1 <1>   0.1390 
 20 C       -7.9650    -5.4610     0.0630 C.2   1 <1>  -0.3020 
 21 N       -9.7820    -4.1880    -0.0410 N.2   1 <1>  -0.7070 
 22 N       -9.3080    -5.4250     0.1690 N.pl3 1 <1>   0.3140 
 23 C      -10.2040    -6.5450     0.4730 C.3   1 <1>   0.0160 
 24 H       -3.7070     2.4570    -0.1260 H     1 <1>   0.0800 
 25 H       -2.8760     3.1640    -1.4850 H     1 <1>   0.0800 
 26 H       -0.1530     3.0980    -1.3460 H     1 <1>   0.0800 
 27 H        0.5090     2.3300     0.0650 H     1 <1>   0.0800 
 28 H       -2.7110    -0.5220     2.4030 H     1 <1>   0.1500 
 29 H       -3.1710     0.3240    -1.7310 H     1 <1>   0.1500 
 30 H       -2.8180     4.1560     1.3860 H     1 <1>   0.0800 
 31 H       -3.5350     4.9620     0.0100 H     1 <1>   0.0800 
 32 H        0.4700     4.8350     0.2380 H     1 <1>   0.0800 
 33 H       -0.4450     4.0670     1.5160 H     1 <1>   0.0800 
 34 H       -5.1360    -1.1990    -1.7000 H     1 <1>   0.1500 
 35 H       -6.1560    -2.7940     1.4220 H     1 <1>   0.4000 
 36 H       -6.1060    -3.2830    -1.4790 H     1 <1>   0.0800 
 37 H       -5.1220    -5.0070     0.8150 H     1 <1>   0.0800 
 38 H       -4.1050    -4.2310    -0.3830 H     1 <1>   0.0800 
 39 H       -5.2000    -5.4990    -0.8610 H     1 <1>   0.0800 
 40 H       -8.7680    -2.4040    -0.4660 H     1 <1>   0.1500 
 41 H       -7.3940    -6.3610     0.1960 H     1 <1>   0.1500 
 42 H       -9.6360    -7.4520     0.5520 H     1 <1>   0.0800 
 43 H      -10.9280    -6.6320    -0.3150 H     1 <1>   0.0800 
 44 H      -10.7050    -6.3440     1.4010 H     1 <1>   0.0800 
@<TRIPOS>BOND
  1   1   2  2   
  2   2   3  am  
  3   2   4  1   
  4   3   5  1   
  5   3   6  1   
  6   4   7  ar  
  7   4   8  ar  
  8   5   9  1   
  9   5  24  1   
 10   5  25  1   
 11   6  10  1   
 12   6  26  1   
 13   6  27  1   
 14   7  11  ar  
 15   7  28  1   
 16   8  12  ar  
 17   8  29  1   
 18   9  13  1   
 19   9  30  1   
 20   9  31  1   
 21  10  13  1   
 22  10  32  1   
 23  10  33  1   
 24  11  14  ar  
 25  12  14  ar  
 26  12  34  1   
 27  14  15  1   
 28  15  16  1   
 29  15  35  1   
 30  16  17  1   
 31  16  18  1   
 32  16  36  1   
 33  17  19  1   
 34  17  20  2   
 35  18  37  1   
 36  18  38  1   
 37  18  39  1   
 38  19  21  2   
 39  19  40  1   
 40  20  22  1   
 41  20  41  1   
 42  21  22  1   
 43  22  23  1   
 44  23  42  1   
 45  23  43  1   
 46  23  44  1   
@<TRIPOS>SUBSTRUCTURE
  1 ****  14 GROUP 4 **** **** 0

# MOE 2024.06 (io_trps.svl 2023.06)
