@<TRIPOS>MOLECULE
NONAME
56 60 1 0 0 
SMALL
USER_CHARGES


@<TRIPOS>ATOM
  1 O       -0.5780     1.3950    -2.6500 O.2   1 <1>  -0.5700 
  2 C       -1.4400     1.7510    -1.8640 C.2   1 <1>   0.7670 
  3 N       -2.3330     0.8300    -1.3910 N.2   1 <1>  -0.6610 
  4 C       -1.5030     3.0990    -1.4310 C.2   1 <1>  -0.1360 
  5 C       -3.2130     1.2290    -0.5510 C.2   1 <1>   0.4390 
  6 C       -2.4340     3.4860    -0.5290 C.2   1 <1>  -0.0380 
  7 N       -3.3030     2.5140    -0.0970 N.pl3 1 <1>  -0.5500 
  8 C       -4.2240     0.2500    -0.0080 C.3   1 <1>  -0.1790 
  9 C       -2.5670     4.9080     0.0150 C.3   1 <1>   0.2480 
 10 N       -1.2540     5.5860     0.0710 N.3   1 <1>  -0.8100 
 11 C       -1.3940     7.0430     0.2940 C.3   1 <1>   0.1100 
 12 C       -0.3630     5.0010     1.1040 C.3   1 <1>   0.1100 
 13 C       -0.0250     7.7590     0.4140 C.3   1 <1>   0.3430 
 14 C        1.0420     5.6510     1.0950 C.3   1 <1>   0.3430 
 15 N        1.1180     6.8170     0.1430 N.4   1 <1>  -0.9590 
 16 C        2.4650     7.4470    -0.0030 C.3   1 <1>   0.5030 
 17 C        2.4260     8.5050    -1.1300 C.3   1 <1>  -0.1600 
 18 C        3.5070     6.3700    -0.3900 C.3   1 <1>  -0.1600 
 19 C        2.9110     8.1270     1.3100 C.3   1 <1>  -0.1600 
 20 C        3.8110     9.1490    -1.3190 C.3   1 <1>  -0.0800 
 21 C        4.8980     7.0030    -0.5750 C.3   1 <1>  -0.0800 
 22 C        4.3020     8.7690     1.1300 C.3   1 <1>  -0.0800 
 23 C        4.8320     8.0600    -1.6900 C.3   1 <1>  -0.1600 
 24 C        4.2390     9.8160     0.0020 C.3   1 <1>  -0.1600 
 25 C        5.3200     7.6800     0.7430 C.3   1 <1>  -0.1600 
 26 H       -0.7810     3.7680    -1.8530 H     1 <1>   0.1500 
 27 H       -4.0530     2.7240     0.5660 H     1 <1>   0.4000 
 28 H       -5.2180     0.5680    -0.2640 H     1 <1>   0.0800 
 29 H       -4.1310     0.1780     1.0590 H     1 <1>   0.0800 
 30 H       -4.0570    -0.7240    -0.4330 H     1 <1>   0.0800 
 31 H       -3.0020     4.8850     1.0000 H     1 <1>   0.0800 
 32 H       -3.2310     5.4540    -0.6340 H     1 <1>   0.0800 
 33 H       -1.9650     7.2280     1.1890 H     1 <1>   0.0800 
 34 H       -1.9370     7.4750    -0.5300 H     1 <1>   0.0800 
 35 H       -0.2480     3.9420     0.9380 H     1 <1>   0.0800 
 36 H       -0.8030     5.1250     2.0800 H     1 <1>   0.0800 
 37 H        0.0720     8.1750     1.4030 H     1 <1>   0.0800 
 38 H       -0.0140     8.5770    -0.2850 H     1 <1>   0.0800 
 39 H        1.7540     4.8960     0.8070 H     1 <1>   0.0800 
 40 H        1.2910     5.9690     2.0930 H     1 <1>   0.0800 
 41 H        0.8770     6.4000    -0.7660 H     1 <1>   0.4500 
 42 H        1.7370     9.2940    -0.8980 H     1 <1>   0.0800 
 43 H        2.1230     8.0480    -2.0560 H     1 <1>   0.0800 
 44 H        3.2170     5.8860    -1.3060 H     1 <1>   0.0800 
 45 H        3.5960     5.6230     0.3760 H     1 <1>   0.0800 
 46 H        2.9680     7.4090     2.1070 H     1 <1>   0.0800 
 47 H        2.2160     8.8960     1.5930 H     1 <1>   0.0800 
 48 H        3.7710     9.8890    -2.1020 H     1 <1>   0.0800 
 49 H        5.6170     6.2440    -0.8390 H     1 <1>   0.0800 
 50 H        4.6100     9.2430     2.0470 H     1 <1>   0.0800 
 51 H        5.8030     8.5040    -1.8270 H     1 <1>   0.0800 
 52 H        4.5570     7.5970    -2.6230 H     1 <1>   0.0800 
 53 H        3.5470    10.5990     0.2630 H     1 <1>   0.0800 
 54 H        5.2060    10.2740    -0.1210 H     1 <1>   0.0800 
 55 H        6.2950     8.1220     0.6250 H     1 <1>   0.0800 
 56 H        5.3950     6.9480     1.5280 H     1 <1>   0.0800 
@<TRIPOS>BOND
  1   1   2  2   
  2   2   3  1   
  3   2   4  1   
  4   3   5  2   
  5   4   6  2   
  6   4  26  1   
  7   5   7  1   
  8   5   8  1   
  9   6   7  1   
 10   6   9  1   
 11   7  27  1   
 12   8  28  1   
 13   8  29  1   
 14   8  30  1   
 15   9  10  1   
 16   9  31  1   
 17   9  32  1   
 18  10  11  1   
 19  10  12  1   
 20  11  13  1   
 21  11  33  1   
 22  11  34  1   
 23  12  14  1   
 24  12  35  1   
 25  12  36  1   
 26  13  15  1   
 27  13  37  1   
 28  13  38  1   
 29  14  15  1   
 30  14  39  1   
 31  14  40  1   
 32  15  16  1   
 33  15  41  1   
 34  16  17  1   
 35  16  18  1   
 36  16  19  1   
 37  17  20  1   
 38  17  42  1   
 39  17  43  1   
 40  18  21  1   
 41  18  44  1   
 42  18  45  1   
 43  19  22  1   
 44  19  46  1   
 45  19  47  1   
 46  20  23  1   
 47  20  24  1   
 48  20  48  1   
 49  21  23  1   
 50  21  25  1   
 51  21  49  1   
 52  22  24  1   
 53  22  25  1   
 54  22  50  1   
 55  23  51  1   
 56  23  52  1   
 57  24  53  1   
 58  24  54  1   
 59  25  55  1   
 60  25  56  1   
@<TRIPOS>SUBSTRUCTURE
  1 ****  15 GROUP 4 **** **** 0

# MOE 2024.06 (io_trps.svl 2023.06)
