@<TRIPOS>MOLECULE
NONAME
53 55 1 0 0 
SMALL
USER_CHARGES


@<TRIPOS>ATOM
  1 F       -1.9580     0.7980     0.3270 F     1 <1>  -0.1900 
  2 C       -1.6220     1.9680    -0.1480 C.ar  1 <1>   0.1900 
  3 C       -2.5640     3.0000    -0.2160 C.ar  1 <1>   0.0860 
  4 C       -0.3110     2.1040    -0.5690 C.ar  1 <1>  -0.1500 
  5 C       -3.9460     2.8840     0.2250 C.2   1 <1>   0.5440 
  6 C       -2.0970     4.2050    -0.7520 C.ar  1 <1>  -0.1500 
  7 C        0.1080     3.3130    -1.0900 C.ar  1 <1>  -0.1500 
  8 O       -4.7760     3.6950    -0.1420 O.2   1 <1>  -0.5700 
  9 N       -4.3670     1.8870     1.0600 N.am  1 <1>  -0.7300 
 10 C       -0.7900     4.3630    -1.1800 C.ar  1 <1>  -0.1500 
 11 C       -5.7450     1.7350     1.5830 C.3   1 <1>   0.1400 
 12 C       -6.5960     0.9780     0.5670 C.3   1 <1>  -0.0990 
 13 C       -8.0490     1.0090     0.9930 C.2   1 <1>   0.5690 
 14 O       -8.4320     0.0950     1.6850 O.2   1 <1>  -0.5700 
 15 N       -8.8760     2.0360     0.6150 N.am  1 <1>  -0.6600 
 16 C      -10.3290     2.0110     0.9870 C.3   1 <1>   0.1400 
 17 C       -8.4210     3.2010    -0.2090 C.3   1 <1>   0.1400 
 18 C      -11.2140     2.4670    -0.1890 C.3   1 <1>   0.0000 
 19 C       -9.4340     4.3500    -0.1700 C.3   1 <1>  -0.1600 
 20 C      -12.7040     2.2810     0.1580 C.3   1 <1>   0.2000 
 21 C      -10.8470     3.9230    -0.6140 C.3   1 <1>  -0.1600 
 22 C      -11.0820     1.5230    -1.4000 C.3   1 <1>  -0.1600 
 23 O      -13.1940     3.3060     0.9700 O.3   1 <1>  -0.5600 
 24 C      -13.4250     2.2280    -1.1890 C.3   1 <1>  -0.1600 
 25 C      -12.4050     1.6370    -2.1720 C.3   1 <1>  -0.1600 
 26 C      -14.4310     3.0530     1.5580 C.3   1 <1>   0.0400 
 27 H        0.3690     1.2740    -0.4910 H     1 <1>   0.1500 
 28 H       -2.7770     5.0370    -0.8330 H     1 <1>   0.1500 
 29 H        1.1250     3.4390    -1.4240 H     1 <1>   0.1500 
 30 H       -3.7100     1.1380     1.2980 H     1 <1>   0.3700 
 31 H       -0.4690     5.3080    -1.5870 H     1 <1>   0.1500 
 32 H       -5.7250     1.2030     2.5190 H     1 <1>   0.0800 
 33 H       -6.1650     2.7100     1.7610 H     1 <1>   0.0800 
 34 H       -6.2720    -0.0450     0.5210 H     1 <1>   0.0800 
 35 H       -6.4890     1.4070    -0.4100 H     1 <1>   0.0800 
 36 H      -10.6160     1.0190     1.2880 H     1 <1>   0.0800 
 37 H      -10.4870     2.6650     1.8270 H     1 <1>   0.0800 
 38 H       -7.4730     3.5610     0.1540 H     1 <1>   0.0800 
 39 H       -8.2870     2.8790    -1.2270 H     1 <1>   0.0800 
 40 H       -9.4760     4.7260     0.8380 H     1 <1>   0.0800 
 41 H       -9.0890     5.1540    -0.7950 H     1 <1>   0.0800 
 42 H      -12.8290     1.3420     0.6720 H     1 <1>   0.0800 
 43 H      -10.9260     4.0240    -1.6810 H     1 <1>   0.0800 
 44 H      -11.5390     4.6300    -0.1930 H     1 <1>   0.0800 
 45 H      -10.2350     1.7580    -2.0200 H     1 <1>   0.0800 
 46 H      -10.9700     0.5100    -1.0530 H     1 <1>   0.0800 
 47 H      -14.3090     1.6180    -1.1330 H     1 <1>   0.0800 
 48 H      -13.6860     3.2250    -1.5000 H     1 <1>   0.0800 
 49 H      -12.7180     0.6710    -2.5270 H     1 <1>   0.0800 
 50 H      -12.2890     2.2960    -3.0160 H     1 <1>   0.0800 
 51 H      -14.6840     3.8950     2.1770 H     1 <1>   0.0800 
 52 H      -14.3620     2.1660     2.1650 H     1 <1>   0.0800 
 53 H      -15.1760     2.9320     0.7920 H     1 <1>   0.0800 
@<TRIPOS>BOND
  1   1   2  1   
  2   2   3  ar  
  3   2   4  ar  
  4   3   5  1   
  5   3   6  ar  
  6   4   7  ar  
  7   4  27  1   
  8   5   8  2   
  9   5   9  am  
 10   6  10  ar  
 11   6  28  1   
 12   7  10  ar  
 13   7  29  1   
 14   9  11  1   
 15   9  30  1   
 16  10  31  1   
 17  11  12  1   
 18  11  32  1   
 19  11  33  1   
 20  12  13  1   
 21  12  34  1   
 22  12  35  1   
 23  13  14  2   
 24  13  15  am  
 25  15  16  1   
 26  15  17  1   
 27  16  18  1   
 28  16  36  1   
 29  16  37  1   
 30  17  19  1   
 31  17  38  1   
 32  17  39  1   
 33  18  20  1   
 34  18  21  1   
 35  18  22  1   
 36  19  21  1   
 37  19  40  1   
 38  19  41  1   
 39  20  23  1   
 40  20  24  1   
 41  20  42  1   
 42  21  43  1   
 43  21  44  1   
 44  22  25  1   
 45  22  45  1   
 46  22  46  1   
 47  23  26  1   
 48  24  25  1   
 49  24  47  1   
 50  24  48  1   
 51  25  49  1   
 52  25  50  1   
 53  26  51  1   
 54  26  52  1   
 55  26  53  1   
@<TRIPOS>SUBSTRUCTURE
  1 ****  17 GROUP 4 **** **** 0

# MOE 2024.06 (io_trps.svl 2023.06)
