@<TRIPOS>MOLECULE
NONAME
48 49 1 0 0 
SMALL
USER_CHARGES


@<TRIPOS>ATOM
  1 S        0.2700     0.4730    -1.2680 S.o2  1 <1>   1.3330 
  2 O       -0.7450     1.3730    -1.7660 O.2   1 <1>  -0.6500 
  3 O        0.4140    -0.8400    -1.8560 O.2   1 <1>  -0.6500 
  4 N       -0.0170     0.2670     0.3950 N.am  1 <1>  -0.8490 
  5 C        1.8660     1.2900    -1.3320 C.3   1 <1>  -0.0550 
  6 C       -0.9130    -0.8610     0.6640 C.3   1 <1>   0.1160 
  7 C       -0.5330     1.4750     1.0490 C.3   1 <1>   0.1160 
  8 C        3.0500     0.4130    -0.8680 C.3   1 <1>  -0.0800 
  9 C        4.4210     1.0340    -1.0860 C.3   1 <1>   0.2200 
 10 C        3.0670     0.0740     0.6280 C.3   1 <1>   0.1200 
 11 N        4.4140     2.4660    -0.7070 N.am  1 <1>  -0.7300 
 12 C        5.2430     0.2620    -0.0650 C.3   1 <1>   0.1200 
 13 O        4.4040     0.1210     1.0400 O.3   1 <1>  -0.5600 
 14 C        4.3680     3.5200    -1.5710 C.2   1 <1>   0.5440 
 15 O        4.2640     3.2840    -2.7580 O.2   1 <1>  -0.5700 
 16 C        4.3680     4.8830    -1.0710 C.ar  1 <1>   0.0860 
 17 C        5.3260     5.3890    -0.1790 C.ar  1 <1>  -0.1440 
 18 C        3.3440     5.7320    -1.4880 C.ar  1 <1>  -0.1500 
 19 C        5.2060     6.6880     0.3130 C.ar  1 <1>   0.0820 
 20 C        6.5190     4.5330     0.2570 C.3   1 <1>  -0.0970 
 21 C        3.2360     7.0250    -1.0180 C.ar  1 <1>  -0.1500 
 22 O        6.1330     7.1180     1.2110 O.3   1 <1>  -0.3630 
 23 C        4.1600     7.5030    -0.1130 C.ar  1 <1>  -0.1500 
 24 C        6.1160     8.4240     1.7440 C.3   1 <1>   0.0400 
 25 H        2.0510     1.5820    -2.3480 H     1 <1>   0.0800 
 26 H        1.8260     2.1870    -0.7480 H     1 <1>   0.0800 
 27 H       -1.0670    -0.9730     1.7230 H     1 <1>   0.0800 
 28 H       -0.4810    -1.7740     0.2890 H     1 <1>   0.0800 
 29 H       -1.8650    -0.7060     0.1810 H     1 <1>   0.0800 
 30 H       -0.6110     1.3160     2.1110 H     1 <1>   0.0800 
 31 H       -1.5060     1.7280     0.6600 H     1 <1>   0.0800 
 32 H        0.1320     2.3040     0.8790 H     1 <1>   0.0800 
 33 H        3.0190    -0.5150    -1.4120 H     1 <1>   0.0800 
 34 H        4.7860     0.9050    -2.0920 H     1 <1>   0.0800 
 35 H        2.6740    -0.9100     0.8190 H     1 <1>   0.0800 
 36 H        2.5250     0.7990     1.2100 H     1 <1>   0.0800 
 37 H        4.4450     2.6350     0.3020 H     1 <1>   0.3700 
 38 H        6.1440     0.7750     0.2230 H     1 <1>   0.0800 
 39 H        5.4800    -0.7230    -0.4290 H     1 <1>   0.0800 
 40 H        2.6200     5.3620    -2.1950 H     1 <1>   0.1500 
 41 H        6.7910     3.8230    -0.5030 H     1 <1>   0.0800 
 42 H        6.2830     4.0080     1.1640 H     1 <1>   0.0800 
 43 H        7.3870     5.1440     0.4340 H     1 <1>   0.0800 
 44 H        2.4320     7.6560    -1.3570 H     1 <1>   0.1500 
 45 H        4.0500     8.5090     0.2440 H     1 <1>   0.1500 
 46 H        6.9510     8.5210     2.4140 H     1 <1>   0.0800 
 47 H        5.1970     8.5700     2.2820 H     1 <1>   0.0800 
 48 H        6.2110     9.1310     0.9390 H     1 <1>   0.0800 
@<TRIPOS>BOND
  1   1   2  2   
  2   1   3  2   
  3   1   4  am  
  4   1   5  1   
  5   4   6  1   
  6   4   7  1   
  7   5   8  1   
  8   5  25  1   
  9   5  26  1   
 10   6  27  1   
 11   6  28  1   
 12   6  29  1   
 13   7  30  1   
 14   7  31  1   
 15   7  32  1   
 16   8   9  1   
 17   8  10  1   
 18   8  33  1   
 19   9  11  1   
 20   9  12  1   
 21   9  34  1   
 22  10  13  1   
 23  10  35  1   
 24  10  36  1   
 25  11  14  am  
 26  11  37  1   
 27  12  13  1   
 28  12  38  1   
 29  12  39  1   
 30  14  15  2   
 31  14  16  1   
 32  16  17  ar  
 33  16  18  ar  
 34  17  19  ar  
 35  17  20  1   
 36  18  21  ar  
 37  18  40  1   
 38  19  22  1   
 39  19  23  ar  
 40  20  41  1   
 41  20  42  1   
 42  20  43  1   
 43  21  23  ar  
 44  21  44  1   
 45  22  24  1   
 46  23  45  1   
 47  24  46  1   
 48  24  47  1   
 49  24  48  1   
@<TRIPOS>SUBSTRUCTURE
  1 ****  11 GROUP 4 **** **** 0

# MOE 2024.06 (io_trps.svl 2023.06)
