@<TRIPOS>MOLECULE
NONAME
48 50 1 0 0 
SMALL
USER_CHARGES


@<TRIPOS>ATOM
  1 F       -0.1290    -1.7010     1.7050 F     1 <1>  -0.1900 
  2 C       -0.7670    -2.6430     1.0580 C.ar  1 <1>   0.1900 
  3 C       -0.3170    -3.1330    -0.1730 C.ar  1 <1>   0.0830 
  4 C       -1.9110    -3.1340     1.6560 C.ar  1 <1>  -0.1500 
  5 O        0.7910    -2.7320    -0.8610 O.3   1 <1>  -0.3630 
  6 C       -1.0630    -4.1330    -0.7770 C.ar  1 <1>  -0.1500 
  7 C       -2.6290    -4.1340     1.0270 C.ar  1 <1>  -0.1500 
  8 C        1.6360    -1.6930    -0.4190 C.3   1 <1>   0.0400 
  9 C       -2.2260    -4.6550    -0.2050 C.ar  1 <1>   0.0530 
 10 C       -2.9680    -5.6980    -0.8750 C.2   1 <1>   0.0870 
 11 O       -2.3460    -6.5310    -1.6750 O.3   1 <1>  -0.0190 
 12 C       -4.2740    -6.0670    -0.8720 C.2   1 <1>  -0.2330 
 13 N       -3.1430    -7.4250    -2.1980 N.2   1 <1>  -0.4100 
 14 C       -4.3170    -7.1600    -1.7470 C.2   1 <1>   0.3720 
 15 C       -5.3590    -5.5330    -0.1200 C.2   1 <1>   1.0330 
 16 N       -5.4140    -7.9560    -2.1260 N.pl3 1 <1>  -0.8210 
 17 O       -5.5210    -5.8700     1.0640 O.co2 1 <1>  -0.9000 
 18 O       -6.2580    -4.8640    -0.6500 O.co2 1 <1>  -0.9000 
 19 C       -5.3740    -9.3840    -1.6970 C.3   1 <1>   0.2090 
 20 C       -6.7860    -7.3700    -2.1630 C.3   1 <1>   0.2090 
 21 C       -6.1580    -9.6530    -0.3800 C.3   1 <1>   0.4230 
 22 C       -7.5460    -7.6060    -0.8380 C.3   1 <1>   0.3430 
 23 N       -7.5610    -9.0620    -0.4160 N.4   1 <1>  -0.9590 
 24 C       -5.3490    -9.2180     0.8610 C.3   1 <1>  -0.1600 
 25 C       -8.2930    -9.1700     0.8800 C.3   1 <1>   0.2630 
 26 C       -5.3900   -10.2470     2.0040 C.3   1 <1>  -0.2400 
 27 H       -2.2360    -2.7420     2.6030 H     1 <1>   0.1500 
 28 H       -0.7300    -4.5150    -1.7250 H     1 <1>   0.1500 
 29 H       -3.5130    -4.5150     1.5080 H     1 <1>   0.1500 
 30 H        2.4130    -1.5600    -1.1500 H     1 <1>   0.0800 
 31 H        2.0690    -1.9720     0.5250 H     1 <1>   0.0800 
 32 H        1.0600    -0.7890    -0.3300 H     1 <1>   0.0800 
 33 H       -4.3510    -9.6990    -1.5810 H     1 <1>   0.0800 
 34 H       -5.7940    -9.9850    -2.4830 H     1 <1>   0.0800 
 35 H       -7.3330    -7.8270    -2.9680 H     1 <1>   0.0800 
 36 H       -6.7320    -6.3220    -2.3940 H     1 <1>   0.0800 
 37 H       -6.2520   -10.7240    -0.3090 H     1 <1>   0.0800 
 38 H       -8.5540    -7.2460    -0.9540 H     1 <1>   0.0800 
 39 H       -7.0990    -7.0190    -0.0580 H     1 <1>   0.0800 
 40 H       -8.0780    -9.5680    -1.1410 H     1 <1>   0.4500 
 41 H       -5.6840    -8.2670     1.2220 H     1 <1>   0.0800 
 42 H       -4.3150    -9.0870     0.5890 H     1 <1>   0.0800 
 43 H       -7.7950    -8.5830     1.6360 H     1 <1>   0.0800 
 44 H       -8.3320   -10.1960     1.2060 H     1 <1>   0.0800 
 45 H       -9.3000    -8.8000     0.7730 H     1 <1>   0.0800 
 46 H       -6.3860   -10.3920     2.3780 H     1 <1>   0.0800 
 47 H       -4.7790    -9.8970     2.8190 H     1 <1>   0.0800 
 48 H       -4.9970   -11.1940     1.6760 H     1 <1>   0.0800 
@<TRIPOS>BOND
  1   1   2  1   
  2   2   3  ar  
  3   2   4  ar  
  4   3   5  1   
  5   3   6  ar  
  6   4   7  ar  
  7   4  27  1   
  8   5   8  1   
  9   6   9  ar  
 10   6  28  1   
 11   7   9  ar  
 12   7  29  1   
 13   8  30  1   
 14   8  31  1   
 15   8  32  1   
 16   9  10  1   
 17  10  11  1   
 18  10  12  2   
 19  11  13  1   
 20  12  14  1   
 21  12  15  1   
 22  13  14  2   
 23  14  16  1   
 24  15  17  ar  
 25  15  18  ar  
 26  16  19  1   
 27  16  20  1   
 28  19  21  1   
 29  19  33  1   
 30  19  34  1   
 31  20  22  1   
 32  20  35  1   
 33  20  36  1   
 34  21  23  1   
 35  21  24  1   
 36  21  37  1   
 37  22  23  1   
 38  22  38  1   
 39  22  39  1   
 40  23  25  1   
 41  23  40  1   
 42  24  26  1   
 43  24  41  1   
 44  24  42  1   
 45  25  43  1   
 46  25  44  1   
 47  25  45  1   
 48  26  46  1   
 49  26  47  1   
 50  26  48  1   
@<TRIPOS>SUBSTRUCTURE
  1 ****  12 GROUP 4 **** **** 0

# MOE 2024.06 (io_trps.svl 2023.06)
