@<TRIPOS>MOLECULE
NONAME
44 47 1 0 0 
SMALL
USER_CHARGES


@<TRIPOS>ATOM
  1 O       -0.4130     0.2470     0.0080 O.2   1 <1>  -0.5700 
  2 C       -1.4580     0.8820     0.0000 C.2   1 <1>   0.7160 
  3 N       -2.6260     0.1570    -0.1650 N.am  1 <1>  -0.6600 
  4 C       -1.4220     2.3400     0.1550 C.2   1 <1>   0.2030 
  5 C       -3.9930     0.7240    -0.2580 C.3   1 <1>   0.1400 
  6 C       -2.6590    -1.3190    -0.3050 C.3   1 <1>   0.1400 
  7 N       -2.4420     3.1490     0.4240 N.2   1 <1>  -0.7070 
  8 C       -0.2490     3.1050     0.0440 C.2   1 <1>  -0.1810 
  9 C       -4.9020    -0.4730    -0.5420 C.3   1 <1>   0.2000 
 10 C       -4.1230    -1.7020    -0.0780 C.3   1 <1>  -0.0800 
 11 N       -1.9270     4.3880     0.4830 N.pl3 1 <1>   0.3000 
 12 C       -0.6030     4.3780     0.2640 C.2   1 <1>  -0.3320 
 13 C        1.1860     2.6970    -0.2590 C.3   1 <1>   0.3010 
 14 O       -6.1000    -0.3840     0.1500 O.3   1 <1>  -0.6800 
 15 C       -4.5570    -2.9870    -0.8030 C.3   1 <1>  -0.0170 
 16 C        0.3950     5.5170     0.2340 C.3   1 <1>   0.0200 
 17 O        1.9450     3.8400    -0.5870 O.3   1 <1>  -0.5600 
 18 C       -3.7850    -4.1990    -0.3080 C.ar  1 <1>   0.1670 
 19 C        1.8170     4.9240     0.2970 C.3   1 <1>   0.1200 
 20 N       -2.6100    -4.4210    -0.8770 N.ar  1 <1>  -0.6200 
 21 C       -4.3270    -4.9950     0.6900 C.ar  1 <1>  -0.1500 
 22 C       -1.9480    -5.4770    -0.4320 C.ar  1 <1>   0.1600 
 23 C       -3.6260    -6.0930     1.1430 C.ar  1 <1>  -0.1500 
 24 C       -2.4020    -6.3310     0.5580 C.ar  1 <1>  -0.1500 
 25 H       -4.2480     1.1890     0.6790 H     1 <1>   0.0800 
 26 H       -4.0460     1.4450    -1.0540 H     1 <1>   0.0800 
 27 H       -2.3400    -1.5850    -1.2980 H     1 <1>   0.0800 
 28 H       -2.0110    -1.7940     0.4130 H     1 <1>   0.0800 
 29 H       -5.1200    -0.5220    -1.5960 H     1 <1>   0.0800 
 30 H       -4.2540    -1.8300     0.9820 H     1 <1>   0.0800 
 31 H       -2.5000     5.2190     0.6740 H     1 <1>   0.2700 
 32 H        1.2220     2.0270    -1.1000 H     1 <1>   0.0800 
 33 H        1.6330     2.2190     0.5950 H     1 <1>   0.0800 
 34 H       -5.9270    -0.2750     1.1060 H     1 <1>   0.4000 
 35 H       -4.4030    -2.8830    -1.8620 H     1 <1>   0.0800 
 36 H       -5.6090    -3.1440    -0.6440 H     1 <1>   0.0800 
 37 H        0.2450     6.1770     1.0700 H     1 <1>   0.0800 
 38 H        0.2810     6.0810    -0.6750 H     1 <1>   0.0800 
 39 H        2.0370     4.5730     1.2910 H     1 <1>   0.0800 
 40 H        2.5460     5.6650     0.0190 H     1 <1>   0.0800 
 41 H       -5.2870    -4.7600     1.1110 H     1 <1>   0.1500 
 42 H       -0.9900    -5.6730    -0.8830 H     1 <1>   0.1500 
 43 H       -4.0170    -6.7320     1.9160 H     1 <1>   0.1500 
 44 H       -1.8030    -7.1690     0.8640 H     1 <1>   0.1500 
@<TRIPOS>BOND
  1   1   2  2   
  2   2   3  am  
  3   2   4  1   
  4   3   5  1   
  5   3   6  1   
  6   4   7  2   
  7   4   8  1   
  8   5   9  1   
  9   5  25  1   
 10   5  26  1   
 11   6  10  1   
 12   6  27  1   
 13   6  28  1   
 14   7  11  1   
 15   8  12  2   
 16   8  13  1   
 17   9  10  1   
 18   9  14  1   
 19   9  29  1   
 20  10  15  1   
 21  10  30  1   
 22  11  12  1   
 23  11  31  1   
 24  12  16  1   
 25  13  17  1   
 26  13  32  1   
 27  13  33  1   
 28  14  34  1   
 29  15  18  1   
 30  15  35  1   
 31  15  36  1   
 32  16  19  1   
 33  16  37  1   
 34  16  38  1   
 35  17  19  1   
 36  18  20  ar  
 37  18  21  ar  
 38  19  39  1   
 39  19  40  1   
 40  20  22  ar  
 41  21  23  ar  
 42  21  41  1   
 43  22  24  ar  
 44  22  42  1   
 45  23  24  ar  
 46  23  43  1   
 47  24  44  1   
@<TRIPOS>SUBSTRUCTURE
  1 ****   3 GROUP 4 **** **** 0

# MOE 2024.06 (io_trps.svl 2023.06)
