@<TRIPOS>MOLECULE
NONAME
43 45 1 0 0 
SMALL
USER_CHARGES


@<TRIPOS>ATOM
  1 O       -0.4960    -0.6560     1.4410 O.co2 1 <1>  -0.9000 
  2 C       -0.4670    -1.8650     1.1640 C.2   1 <1>   1.0330 
  3 O       -1.5510    -2.4820     1.1190 O.co2 1 <1>  -0.9000 
  4 C        0.7660    -2.5420     0.8870 C.2   1 <1>  -0.2330 
  5 C        0.9120    -3.9280     0.9110 C.2   1 <1>   0.3720 
  6 C        2.0130    -2.1050     0.5580 C.2   1 <1>   0.0870 
  7 N        2.1120    -4.2890     0.6280 N.2   1 <1>  -0.4100 
  8 N       -0.1160    -4.8120     1.1950 N.pl3 1 <1>  -0.8520 
  9 O        2.7640    -3.1750     0.4240 O.3   1 <1>  -0.0190 
 10 C        2.6090    -0.8090     0.3290 C.ar  1 <1>   0.0530 
 11 C       -0.3430    -5.8530     0.1620 C.3   1 <1>   0.2090 
 12 C        3.9600    -0.5890     0.6070 C.ar  1 <1>  -0.1500 
 13 C        1.8880     0.2640    -0.1940 C.ar  1 <1>  -0.1500 
 14 C       -1.7280    -6.5010     0.3130 C.3   1 <1>   0.2000 
 15 C        4.5570     0.6360     0.3770 C.ar  1 <1>  -0.1500 
 16 C        2.4740     1.4950    -0.4240 C.ar  1 <1>  -0.1500 
 17 O       -1.8270    -7.5430    -0.6200 O.3   1 <1>  -0.5600 
 18 C       -2.8830    -5.5080     0.0800 C.3   1 <1>  -0.1600 
 19 C        3.8220     1.6910    -0.1400 C.ar  1 <1>   0.0820 
 20 C       -2.9870    -8.3110    -0.5200 C.3   1 <1>   0.1200 
 21 C       -4.2430    -6.2170     0.1010 C.3   1 <1>  -0.1600 
 22 O        4.4740     2.8620    -0.3350 O.3   1 <1>  -0.3620 
 23 C       -4.2060    -7.4350    -0.8270 C.3   1 <1>  -0.1600 
 24 C        3.7910     4.0120    -0.7800 C.3   1 <1>   0.0400 
 25 H       -0.9670    -4.2120     1.2770 H     1 <1>   0.4000 
 26 H        0.4150    -6.6100     0.2660 H     1 <1>   0.0800 
 27 H       -0.2610    -5.4110    -0.8150 H     1 <1>   0.0800 
 28 H        4.5460    -1.3930     1.0130 H     1 <1>   0.1500 
 29 H        0.8450     0.1310    -0.4200 H     1 <1>   0.1500 
 30 H       -1.7980    -6.9320     1.2970 H     1 <1>   0.0800 
 31 H        5.5980     0.7850     0.5980 H     1 <1>   0.1500 
 32 H        1.8630     2.2820    -0.8200 H     1 <1>   0.1500 
 33 H       -2.7390    -5.0170    -0.8670 H     1 <1>   0.0800 
 34 H       -2.8700    -4.7470     0.8400 H     1 <1>   0.0800 
 35 H       -3.0410    -8.7250     0.4720 H     1 <1>   0.0800 
 36 H       -2.9100    -9.1140    -1.2330 H     1 <1>   0.0800 
 37 H       -5.0170    -5.5340    -0.2060 H     1 <1>   0.0800 
 38 H       -4.4560    -6.5370     1.1060 H     1 <1>   0.0800 
 39 H       -5.1060    -8.0130    -0.7080 H     1 <1>   0.0800 
 40 H       -4.1510    -7.1120    -1.8520 H     1 <1>   0.0800 
 41 H        4.4960     4.8210    -0.8320 H     1 <1>   0.0800 
 42 H        3.0120     4.2480    -0.0760 H     1 <1>   0.0800 
 43 H        3.3820     3.8180    -1.7560 H     1 <1>   0.0800 
@<TRIPOS>BOND
  1   1   2  ar  
  2   2   3  ar  
  3   2   4  1   
  4   4   5  1   
  5   4   6  2   
  6   5   7  2   
  7   5   8  1   
  8   6   9  1   
  9   6  10  1   
 10   7   9  1   
 11   8  11  1   
 12   8  25  1   
 13  10  12  ar  
 14  10  13  ar  
 15  11  14  1   
 16  11  26  1   
 17  11  27  1   
 18  12  15  ar  
 19  12  28  1   
 20  13  16  ar  
 21  13  29  1   
 22  14  17  1   
 23  14  18  1   
 24  14  30  1   
 25  15  19  ar  
 26  15  31  1   
 27  16  19  ar  
 28  16  32  1   
 29  17  20  1   
 30  18  21  1   
 31  18  33  1   
 32  18  34  1   
 33  19  22  1   
 34  20  23  1   
 35  20  35  1   
 36  20  36  1   
 37  21  23  1   
 38  21  37  1   
 39  21  38  1   
 40  22  24  1   
 41  23  39  1   
 42  23  40  1   
 43  24  41  1   
 44  24  42  1   
 45  24  43  1   
@<TRIPOS>SUBSTRUCTURE
  1 ****   4 GROUP 4 **** **** 0

# MOE 2024.06 (io_trps.svl 2023.06)
