@<TRIPOS>MOLECULE
NONAME
48 50 1 0 0 
SMALL
USER_CHARGES


@<TRIPOS>ATOM
  1 O       -1.6850     0.6060     2.2550 O.2   1 <1>  -0.5700 
  2 C       -2.4000     0.8020     1.3040 C.2   1 <1>   0.5690 
  3 N       -2.7770    -0.2160     0.4610 N.am  1 <1>  -0.6600 
  4 C       -2.8810     2.2170     1.0820 C.3   1 <1>  -0.1790 
  5 C       -2.2030    -1.5780     0.6190 C.3   1 <1>   0.1400 
  6 C       -3.7620    -0.0890    -0.6420 C.3   1 <1>   0.1400 
  7 C       -3.3400    -2.5480     0.9330 C.3   1 <1>  -0.1600 
  8 C       -4.9260    -1.0430    -0.3600 C.3   1 <1>  -0.1600 
  9 C       -4.4240    -2.4770    -0.1430 C.3   1 <1>   0.4230 
 10 N       -5.5410    -3.3450     0.2850 N.4   1 <1>  -0.9060 
 11 C       -6.5710    -3.6530    -0.7470 C.3   1 <1>   0.4230 
 12 C       -7.6870    -4.4560    -0.0830 C.3   1 <1>  -0.0800 
 13 C       -6.0040    -4.6980    -1.7010 C.3   1 <1>   0.1200 
 14 C       -7.1770    -5.9070    -0.1830 C.3   1 <1>   0.1200 
 15 C       -9.0350    -4.2660    -0.8070 C.3   1 <1>  -0.0170 
 16 O       -5.9900    -5.8440    -0.9200 O.3   1 <1>  -0.5600 
 17 C      -10.1340    -5.0690    -0.1300 C.ar  1 <1>  -0.1440 
 18 C      -10.7210    -4.6520     1.0490 C.ar  1 <1>  -0.1500 
 19 C      -10.6080    -6.2540    -0.6580 C.ar  1 <1>  -0.1500 
 20 C      -11.7130    -5.4240     1.6320 C.ar  1 <1>   0.1600 
 21 C      -11.6040    -6.9510     0.0060 C.ar  1 <1>   0.1600 
 22 N      -12.1630    -6.5650     1.1400 N.ar  1 <1>  -0.6200 
 23 H       -2.6140     2.5450     0.0950 H     1 <1>   0.0800 
 24 H       -2.4160     2.8720     1.7960 H     1 <1>   0.0800 
 25 H       -3.9450     2.2680     1.2130 H     1 <1>   0.0800 
 26 H       -1.6990    -1.8590    -0.2900 H     1 <1>   0.0800 
 27 H       -1.4760    -1.6000     1.4150 H     1 <1>   0.0800 
 28 H       -4.1310     0.9180    -0.7240 H     1 <1>   0.0800 
 29 H       -3.2810    -0.3410    -1.5730 H     1 <1>   0.0800 
 30 H       -3.7400    -2.2860     1.8980 H     1 <1>   0.0800 
 31 H       -2.9340    -3.5420     0.9870 H     1 <1>   0.0800 
 32 H       -5.6010    -1.0020    -1.1960 H     1 <1>   0.0800 
 33 H       -5.4410    -0.6900     0.5160 H     1 <1>   0.0800 
 34 H       -4.0060    -2.8450    -1.0670 H     1 <1>   0.0800 
 35 H       -5.9720    -2.9500     1.1260 H     1 <1>   0.4500 
 36 H       -5.1550    -4.2650     0.5480 H     1 <1>   0.4500 
 37 H       -6.9260    -2.7640    -1.2430 H     1 <1>   0.0800 
 38 H       -7.8200    -4.1770     0.9470 H     1 <1>   0.0800 
 39 H       -5.0090    -4.4840    -2.0500 H     1 <1>   0.0800 
 40 H       -6.6550    -4.8680    -2.5420 H     1 <1>   0.0800 
 41 H       -7.8620    -6.5530    -0.7060 H     1 <1>   0.0800 
 42 H       -6.9580    -6.3300     0.7830 H     1 <1>   0.0800 
 43 H       -8.9610    -4.5660    -1.8390 H     1 <1>   0.0800 
 44 H       -9.3170    -3.2270    -0.7930 H     1 <1>   0.0800 
 45 H      -10.4250    -3.7360     1.5250 H     1 <1>   0.1500 
 46 H      -10.2190    -6.6500    -1.5790 H     1 <1>   0.1500 
 47 H      -12.1610    -5.0850     2.5510 H     1 <1>   0.1500 
 48 H      -11.9610    -7.8740    -0.4190 H     1 <1>   0.1500 
@<TRIPOS>BOND
  1   1   2  2   
  2   2   3  am  
  3   2   4  1   
  4   3   5  1   
  5   3   6  1   
  6   4  23  1   
  7   4  24  1   
  8   4  25  1   
  9   5   7  1   
 10   5  26  1   
 11   5  27  1   
 12   6   8  1   
 13   6  28  1   
 14   6  29  1   
 15   7   9  1   
 16   7  30  1   
 17   7  31  1   
 18   8   9  1   
 19   8  32  1   
 20   8  33  1   
 21   9  10  1   
 22   9  34  1   
 23  10  11  1   
 24  10  35  1   
 25  10  36  1   
 26  11  12  1   
 27  11  13  1   
 28  11  37  1   
 29  12  14  1   
 30  12  15  1   
 31  12  38  1   
 32  13  16  1   
 33  13  39  1   
 34  13  40  1   
 35  14  16  1   
 36  14  41  1   
 37  14  42  1   
 38  15  17  1   
 39  15  43  1   
 40  15  44  1   
 41  17  18  ar  
 42  17  19  ar  
 43  18  20  ar  
 44  18  45  1   
 45  19  21  ar  
 46  19  46  1   
 47  20  22  ar  
 48  20  47  1   
 49  21  22  ar  
 50  21  48  1   
@<TRIPOS>SUBSTRUCTURE
  1 ****  10 GROUP 4 **** **** 0

# MOE 2024.06 (io_trps.svl 2023.06)
