@<TRIPOS>MOLECULE
NONAME
23 23 1 0 0 
SMALL
USER_CHARGES


@<TRIPOS>ATOM
  1 O        6.7850     2.9500    -0.2410 O.co2 1 <1>  -0.9000 
  2 C        5.8720     2.1810     0.0560 C.2   1 <1>   0.9060 
  3 O        4.8210     2.5300     0.6200 O.co2 1 <1>  -0.9000 
  4 C        5.9590     0.6740    -0.2680 C.3   1 <1>   0.3170 
  5 N        4.8590    -0.0430     0.4560 N.4   1 <1>  -0.9060 
  6 C        7.3100     0.0290     0.0730 C.3   1 <1>  -0.1600 
  7 C        4.3330    -1.1980    -0.2810 C.3   1 <1>   0.3430 
  8 C        7.4110    -1.4690    -0.2720 C.3   1 <1>  -0.1600 
  9 C        5.0550    -2.4830     0.1420 C.3   1 <1>  -0.1600 
 10 C        6.5220    -2.3630     0.6070 C.3   1 <1>  -0.1600 
 11 H        5.7970     0.5960    -1.3280 H     1 <1>   0.0800 
 12 H        5.1840    -0.2780     1.3950 H     1 <1>   0.4500 
 13 H        4.1780     0.7400     0.5930 H     1 <1>   0.4500 
 14 H        8.0650     0.5570    -0.4850 H     1 <1>   0.0800 
 15 H        7.5330     0.1940     1.1130 H     1 <1>   0.0800 
 16 H        3.2770    -1.3040    -0.0920 H     1 <1>   0.0800 
 17 H        4.4680    -1.0350    -1.3380 H     1 <1>   0.0800 
 18 H        7.1960    -1.6320    -1.3150 H     1 <1>   0.0800 
 19 H        8.4350    -1.7650    -0.1140 H     1 <1>   0.0800 
 20 H        4.4880    -2.9420     0.9330 H     1 <1>   0.0800 
 21 H        5.0120    -3.1620    -0.6910 H     1 <1>   0.0800 
 22 H        6.5600    -2.0140     1.6250 H     1 <1>   0.0800 
 23 H        6.9420    -3.3550     0.6120 H     1 <1>   0.0800 
@<TRIPOS>BOND
  1   1   2  ar  
  2   2   3  ar  
  3   2   4  1   
  4   4   5  1   
  5   4   6  1   
  6   4  11  1   
  7   5   7  1   
  8   5  12  1   
  9   5  13  1   
 10   6   8  1   
 11   6  14  1   
 12   6  15  1   
 13   7   9  1   
 14   7  16  1   
 15   7  17  1   
 16   8  10  1   
 17   8  18  1   
 18   8  19  1   
 19   9  10  1   
 20   9  20  1   
 21   9  21  1   
 22  10  22  1   
 23  10  23  1   
@<TRIPOS>SUBSTRUCTURE
  1 ****   4 GROUP 4 **** **** 0

# MOE 2024.06 (io_trps.svl 2023.06)
