@<TRIPOS>MOLECULE
NONAME
49 52 1 0 0 
SMALL
USER_CHARGES


@<TRIPOS>ATOM
  1 O        1.7210    -0.6920     1.9430 O.2   1 <1>  -0.5700 
  2 C        2.3120    -0.8620     0.8950 C.2   1 <1>   0.7030 
  3 N        3.1940     0.1210     0.4830 N.am  1 <1>  -0.6600 
  4 C        2.0630    -2.0870     0.1470 C.2   1 <1>   0.2770 
  5 C        3.9380     0.9260     1.5380 C.3   1 <1>   0.2200 
  6 C        3.2070     0.5680    -0.9550 C.3   1 <1>   0.1400 
  7 N        2.9270    -2.7350    -0.7140 N.pl3 1 <1>  -0.7000 
  8 C        0.9540    -2.8650     0.1930 C.2   1 <1>   0.2000 
  9 C        3.4750     2.3900     1.5910 C.3   1 <1>   0.1200 
 10 C        5.4780     0.8230     1.3810 C.3   1 <1>   0.3430 
 11 C        4.1530     1.7440    -1.2910 C.3   1 <1>  -0.0800 
 12 C        2.3700    -3.8610    -1.1530 C.cat 1 <1>   0.7910 
 13 N        1.1260    -3.9640    -0.6250 N.pl3 1 <1>  -0.6290 
 14 O        4.1550     3.1670     0.6530 O.3   1 <1>  -0.5600 
 15 N        5.8510     0.4340    -0.0090 N.4   1 <1>  -0.9590 
 16 C        3.7040     3.0680    -0.6560 C.3   1 <1>   0.1200 
 17 C        5.6520     1.4640    -1.0560 C.3   1 <1>   0.3430 
 18 C        2.8840    -4.8500    -2.0040 C.2   1 <1>  -0.1410 
 19 C        0.3350    -5.0530    -0.9290 C.2   1 <1>   0.2410 
 20 C        7.0780    -0.4390    -0.1870 C.3   1 <1>   0.2370 
 21 C        2.1110    -5.9340    -2.3140 C.2   1 <1>  -0.1500 
 22 C        0.8160    -6.0240    -1.7620 C.2   1 <1>  -0.1500 
 23 C       -1.0500    -5.1200    -0.3130 C.3   1 <1>  -0.1020 
 24 C        6.6460    -1.7700    -0.8250 C.2   1 <1>   0.9060 
 25 O        7.4440    -2.6720    -1.0390 O.co2 1 <1>  -0.9000 
 26 O        5.4270    -1.8840    -1.0740 O.co2 1 <1>  -0.9000 
 27 H        3.7070     0.5160     2.5060 H     1 <1>   0.0800 
 28 H        3.4790    -0.2670    -1.5790 H     1 <1>   0.0800 
 29 H        2.2040     0.8500    -1.2290 H     1 <1>   0.0800 
 30 H        3.9200    -2.4820    -0.9200 H     1 <1>   0.4500 
 31 H        0.0620    -2.6950     0.7730 H     1 <1>   0.1500 
 32 H        3.7160     2.7990     2.5570 H     1 <1>   0.0800 
 33 H        2.4110     2.4760     1.4480 H     1 <1>   0.0800 
 34 H        5.8350     0.0710     2.0650 H     1 <1>   0.0800 
 35 H        5.9410     1.7590     1.6470 H     1 <1>   0.0800 
 36 H        4.0500     1.9020    -2.3500 H     1 <1>   0.0800 
 37 H        5.1280    -0.2820    -0.2520 H     1 <1>   0.4500 
 38 H        2.6330     3.1860    -0.6770 H     1 <1>   0.0800 
 39 H        4.1410     3.8930    -1.1940 H     1 <1>   0.0800 
 40 H        6.1640     2.3740    -0.7870 H     1 <1>   0.0800 
 41 H        6.0760     1.1000    -1.9780 H     1 <1>   0.0800 
 42 H        3.8820    -4.7240    -2.3860 H     1 <1>   0.1500 
 43 H        7.8010     0.0330    -0.8270 H     1 <1>   0.0800 
 44 H        7.5350    -0.6580     0.7600 H     1 <1>   0.0800 
 45 H        2.4680    -6.7170    -2.9650 H     1 <1>   0.1500 
 46 H        0.2170    -6.8830    -2.0140 H     1 <1>   0.1500 
 47 H       -1.6310    -4.2680    -0.6160 H     1 <1>   0.0800 
 48 H       -0.9770    -5.1360     0.7590 H     1 <1>   0.0800 
 49 H       -1.5630    -6.0110    -0.6300 H     1 <1>   0.0800 
@<TRIPOS>BOND
  1   1   2  2   
  2   2   3  am  
  3   2   4  1   
  4   3   5  1   
  5   3   6  1   
  6   4   7  1   
  7   4   8  2   
  8   5   9  1   
  9   5  10  1   
 10   5  27  1   
 11   6  11  1   
 12   6  28  1   
 13   6  29  1   
 14   7  12  ar  
 15   7  30  1   
 16   8  13  1   
 17   8  31  1   
 18   9  14  1   
 19   9  32  1   
 20   9  33  1   
 21  10  15  1   
 22  10  34  1   
 23  10  35  1   
 24  11  16  1   
 25  11  17  1   
 26  11  36  1   
 27  12  13  ar  
 28  12  18  1   
 29  13  19  1   
 30  14  16  1   
 31  15  17  1   
 32  15  20  1   
 33  15  37  1   
 34  16  38  1   
 35  16  39  1   
 36  17  40  1   
 37  17  41  1   
 38  18  21  2   
 39  18  42  1   
 40  19  22  2   
 41  19  23  1   
 42  20  24  1   
 43  20  43  1   
 44  20  44  1   
 45  21  22  1   
 46  21  45  1   
 47  22  46  1   
 48  23  47  1   
 49  23  48  1   
 50  23  49  1   
 51  24  25  ar  
 52  24  26  ar  
@<TRIPOS>SUBSTRUCTURE
  1 ****   7 GROUP 4 **** **** 0

# MOE 2024.06 (io_trps.svl 2023.06)
