@<TRIPOS>MOLECULE
NONAME
53 57 1 0 0 
SMALL
USER_CHARGES


@<TRIPOS>ATOM
  1 O       -0.6390     0.4590    -1.2420 O.2   1 <1>  -0.5700 
  2 C       -1.5970     0.9640    -0.6790 C.2   1 <1>   0.7160 
  3 N       -2.7560     0.2130    -0.5860 N.am  1 <1>  -0.6600 
  4 C       -1.4820     2.3080    -0.1240 C.2   1 <1>   0.1410 
  5 C       -3.9050     0.6200     0.2760 C.3   1 <1>   0.1400 
  6 C       -2.9000    -1.0510    -1.3680 C.3   1 <1>   0.1400 
  7 N       -2.4490     3.2720    -0.2660 N.2   1 <1>  -0.5650 
  8 C       -0.4630     2.8640     0.5820 C.2   1 <1>  -0.0400 
  9 C       -4.5910    -0.6250     0.8310 C.3   1 <1>  -0.1600 
 10 C       -4.3730    -1.3860    -1.6030 C.3   1 <1>  -0.1600 
 11 C       -1.9530     4.2940     0.3210 C.2   1 <1>   0.3280 
 12 O       -0.7710     4.1010     0.8450 O.3   1 <1>  -0.2800 
 13 C        0.8760     2.3480     1.0970 C.3   1 <1>   0.1000 
 14 C       -5.1790    -1.4900    -0.2970 C.3   1 <1>   0.4600 
 15 C        1.9260     2.3590    -0.0170 C.3   1 <1>  -0.2400 
 16 C        0.7620     0.9600     1.7370 C.3   1 <1>  -0.2400 
 17 O       -6.4610    -0.9970    -0.6160 O.3   1 <1>  -0.5600 
 18 C       -5.2910    -2.9490     0.1420 C.2   1 <1>  -0.3320 
 19 C       -7.5590    -1.4110     0.1630 C.3   1 <1>   0.1200 
 20 N       -4.2540    -3.7930     0.4300 N.pl3 1 <1>   0.0330 
 21 C       -6.4550    -3.6090     0.2960 C.2   1 <1>  -0.1810 
 22 C       -7.7780    -2.9280     0.0570 C.3   1 <1>   0.0210 
 23 C       -4.7820    -5.0150     0.7690 C.ar  1 <1>  -0.1520 
 24 C       -6.1700    -4.9330     0.6910 C.ar  1 <1>   0.0000 
 25 C       -4.1560    -6.2070     1.1420 C.ar  1 <1>  -0.1500 
 26 C       -6.9480    -6.0560     0.9880 C.ar  1 <1>  -0.1500 
 27 C       -4.9340    -7.3040     1.4330 C.ar  1 <1>  -0.1500 
 28 C       -6.3300    -7.2290     1.3550 C.ar  1 <1>  -0.1500 
 29 H       -4.6030     1.1980    -0.3080 H     1 <1>   0.0800 
 30 H       -3.5590     1.2280     1.0940 H     1 <1>   0.0800 
 31 H       -2.4180    -1.8490    -0.8310 H     1 <1>   0.0800 
 32 H       -2.4050    -0.9440    -2.3190 H     1 <1>   0.0800 
 33 H       -5.3560    -0.3430     1.5280 H     1 <1>   0.0800 
 34 H       -3.8580    -1.1870     1.3800 H     1 <1>   0.0800 
 35 H       -4.4510    -2.3080    -2.1500 H     1 <1>   0.0800 
 36 H       -4.7870    -0.6090    -2.2210 H     1 <1>   0.0800 
 37 H       -2.4100     5.2640     0.4200 H     1 <1>   0.1500 
 38 H        1.2050     3.0250     1.8680 H     1 <1>   0.0800 
 39 H        1.6450     1.6870    -0.8080 H     1 <1>   0.0800 
 40 H        2.8840     2.0600     0.3670 H     1 <1>   0.0800 
 41 H        2.0140     3.3500    -0.4270 H     1 <1>   0.0800 
 42 H        0.5480     0.2070     1.0010 H     1 <1>   0.0800 
 43 H       -0.0200     0.9570     2.4760 H     1 <1>   0.0800 
 44 H        1.6880     0.7020     2.2200 H     1 <1>   0.0800 
 45 H       -8.4280    -0.8840    -0.1890 H     1 <1>   0.0800 
 46 H       -7.3790    -1.1340     1.1870 H     1 <1>   0.0800 
 47 H       -3.2540    -3.5720     0.4050 H     1 <1>   0.2700 
 48 H       -8.1470    -3.1800    -0.9210 H     1 <1>   0.0800 
 49 H       -8.4970    -3.2440     0.7910 H     1 <1>   0.0800 
 50 H       -3.0830    -6.2580     1.1990 H     1 <1>   0.1500 
 51 H       -8.0170    -5.9830     0.9230 H     1 <1>   0.1500 
 52 H       -4.4750    -8.2330     1.7230 H     1 <1>   0.1500 
 53 H       -6.9150    -8.1020     1.5870 H     1 <1>   0.1500 
@<TRIPOS>BOND
  1   1   2  2   
  2   2   3  am  
  3   2   4  1   
  4   3   5  1   
  5   3   6  1   
  6   4   7  1   
  7   4   8  2   
  8   5   9  1   
  9   5  29  1   
 10   5  30  1   
 11   6  10  1   
 12   6  31  1   
 13   6  32  1   
 14   7  11  2   
 15   8  12  1   
 16   8  13  1   
 17   9  14  1   
 18   9  33  1   
 19   9  34  1   
 20  10  14  1   
 21  10  35  1   
 22  10  36  1   
 23  11  12  1   
 24  11  37  1   
 25  13  15  1   
 26  13  16  1   
 27  13  38  1   
 28  14  17  1   
 29  14  18  1   
 30  15  39  1   
 31  15  40  1   
 32  15  41  1   
 33  16  42  1   
 34  16  43  1   
 35  16  44  1   
 36  17  19  1   
 37  18  20  1   
 38  18  21  2   
 39  19  22  1   
 40  19  45  1   
 41  19  46  1   
 42  20  23  1   
 43  20  47  1   
 44  21  22  1   
 45  21  24  1   
 46  22  48  1   
 47  22  49  1   
 48  23  24  ar  
 49  23  25  ar  
 50  24  26  ar  
 51  25  27  ar  
 52  25  50  1   
 53  26  28  ar  
 54  26  51  1   
 55  27  28  ar  
 56  27  52  1   
 57  28  53  1   
@<TRIPOS>SUBSTRUCTURE
  1 ****   9 GROUP 4 **** **** 0

# MOE 2024.06 (io_trps.svl 2023.06)
