@<TRIPOS>MOLECULE
NONAME
54 57 1 0 0 
SMALL
USER_CHARGES


@<TRIPOS>ATOM
  1 O       -0.1950    -0.0050     1.0920 O.2   1 <1>  -0.5700 
  2 C       -1.1240     0.7690     1.2360 C.2   1 <1>   0.7150 
  3 N       -2.3790     0.2660     1.4860 N.am  1 <1>  -0.6600 
  4 C       -0.9080     2.1810     1.1240 C.2   1 <1>  -0.2370 
  5 C       -2.6140    -1.1920     1.7230 C.3   1 <1>   0.1400 
  6 C       -3.6280     0.9850     1.0960 C.3   1 <1>   0.1400 
  7 N       -0.2610     2.7480     0.0590 N.pl3 1 <1>   0.2940 
  8 C       -1.2720     3.1890     1.9820 C.2   1 <1>  -0.1500 
  9 C       -3.3590    -1.8210     0.5330 C.3   1 <1>   0.3440 
 10 C       -4.3170     0.2570    -0.0830 C.3   1 <1>   0.2000 
 11 C       -0.2270     4.0880     0.2610 C.2   1 <1>  -0.3020 
 12 C        0.2610     2.0420    -1.1350 C.3   1 <1>  -0.0910 
 13 C       -0.8410     4.3930     1.4350 C.2   1 <1>  -0.1500 
 14 O       -4.5270    -1.0900     0.2580 O.3   1 <1>  -0.5600 
 15 C       -3.7210    -3.2730     0.8310 C.ar  1 <1>  -0.1440 
 16 C       -5.6660     0.8900    -0.5420 C.3   1 <1>   0.0000 
 17 C        0.0830     2.6220    -2.5080 C.3   1 <1>  -0.2000 
 18 C       -0.7140     1.4250    -2.0950 C.3   1 <1>  -0.2000 
 19 C       -4.9180    -3.6120     1.4470 C.ar  1 <1>  -0.1500 
 20 C       -2.8300    -4.2820     0.4910 C.ar  1 <1>  -0.1500 
 21 C       -6.2090     0.1150    -1.7570 C.3   1 <1>  -0.2400 
 22 C       -5.4640     2.3530    -0.9770 C.3   1 <1>  -0.2400 
 23 C       -6.7320     0.8530     0.5690 C.3   1 <1>  -0.2400 
 24 C       -5.2190    -4.9350     1.7200 C.ar  1 <1>  -0.1500 
 25 C       -3.1300    -5.6060     0.7630 C.ar  1 <1>  -0.1500 
 26 C       -4.3250    -5.9340     1.3790 C.ar  1 <1>  -0.1500 
 27 H       -1.6850    -1.7110     1.8750 H     1 <1>   0.0800 
 28 H       -3.2050    -1.3170     2.6130 H     1 <1>   0.0800 
 29 H       -4.2900     1.0190     1.9420 H     1 <1>   0.0800 
 30 H       -3.4060     1.9950     0.8080 H     1 <1>   0.0800 
 31 H       -1.7940     3.0820     2.9180 H     1 <1>   0.1500 
 32 H       -2.7340    -1.7850    -0.3420 H     1 <1>   0.0800 
 33 H       -3.6460     0.2720    -0.9240 H     1 <1>   0.0800 
 34 H        0.2330     4.7570    -0.4430 H     1 <1>   0.1500 
 35 H        1.1620     1.4970    -0.9100 H     1 <1>   0.1000 
 36 H       -0.9750     5.3670     1.8760 H     1 <1>   0.1500 
 37 H       -0.4270     3.5630    -2.6220 H     1 <1>   0.1000 
 38 H        0.8640     2.4840    -3.2350 H     1 <1>   0.1000 
 39 H       -0.4710     0.4720    -2.5310 H     1 <1>   0.1000 
 40 H       -1.7690     1.5460    -1.9210 H     1 <1>   0.1000 
 41 H       -5.6220    -2.8420     1.7140 H     1 <1>   0.1500 
 42 H       -1.8960    -4.0430     0.0140 H     1 <1>   0.1500 
 43 H       -7.1240     0.5520    -2.1140 H     1 <1>   0.0800 
 44 H       -6.4100    -0.9090    -1.4930 H     1 <1>   0.0800 
 45 H       -5.4940     0.1200    -2.5600 H     1 <1>   0.0800 
 46 H       -6.3750     2.7510    -1.3890 H     1 <1>   0.0800 
 47 H       -4.6990     2.4220    -1.7300 H     1 <1>   0.0800 
 48 H       -5.1850     2.9750    -0.1460 H     1 <1>   0.0800 
 49 H       -7.6690     1.2360     0.2050 H     1 <1>   0.0800 
 50 H       -6.4370     1.4470     1.4150 H     1 <1>   0.0800 
 51 H       -6.8910    -0.1580     0.9020 H     1 <1>   0.0800 
 52 H       -6.1510    -5.1860     2.1970 H     1 <1>   0.1500 
 53 H       -2.4330    -6.3810     0.4960 H     1 <1>   0.1500 
 54 H       -4.5590    -6.9620     1.5900 H     1 <1>   0.1500 
@<TRIPOS>BOND
  1   1   2  2   
  2   2   3  am  
  3   2   4  1   
  4   3   5  1   
  5   3   6  1   
  6   4   7  1   
  7   4   8  2   
  8   5   9  1   
  9   5  27  1   
 10   5  28  1   
 11   6  10  1   
 12   6  29  1   
 13   6  30  1   
 14   7  11  1   
 15   7  12  1   
 16   8  13  1   
 17   8  31  1   
 18   9  14  1   
 19   9  15  1   
 20   9  32  1   
 21  10  14  1   
 22  10  16  1   
 23  10  33  1   
 24  11  13  2   
 25  11  34  1   
 26  12  17  1   
 27  12  18  1   
 28  12  35  1   
 29  13  36  1   
 30  15  19  ar  
 31  15  20  ar  
 32  16  21  1   
 33  16  22  1   
 34  16  23  1   
 35  17  18  1   
 36  17  37  1   
 37  17  38  1   
 38  18  39  1   
 39  18  40  1   
 40  19  24  ar  
 41  19  41  1   
 42  20  25  ar  
 43  20  42  1   
 44  21  43  1   
 45  21  44  1   
 46  21  45  1   
 47  22  46  1   
 48  22  47  1   
 49  22  48  1   
 50  23  49  1   
 51  23  50  1   
 52  23  51  1   
 53  24  26  ar  
 54  24  52  1   
 55  25  26  ar  
 56  25  53  1   
 57  26  54  1   
@<TRIPOS>SUBSTRUCTURE
  1 ****   3 GROUP 4 **** **** 0

# MOE 2024.06 (io_trps.svl 2023.06)
