@<TRIPOS>MOLECULE
NONAME
45 49 1 0 0 
SMALL
USER_CHARGES


@<TRIPOS>ATOM
  1 O        0.3290     0.7420     0.0390 O.2   1 <1>  -0.5700 
  2 C       -0.2120     1.8040     0.3150 C.2   1 <1>   0.7160 
  3 N       -1.6010     1.8060     0.3890 N.am  1 <1>  -0.6600 
  4 C        0.6040     3.0070     0.5450 C.2   1 <1>   0.4300 
  5 C       -2.4170     2.9970     0.7760 C.3   1 <1>   0.1400 
  6 C       -2.3750     0.5510     0.1420 C.3   1 <1>   0.1400 
  7 N        0.4920     4.1300    -0.1470 N.2   1 <1>  -0.7070 
  8 N        1.5520     3.0420     1.5110 N.2   1 <1>  -0.5650 
  9 C       -3.4650     3.3310    -0.3100 C.3   1 <1>   0.1430 
 10 C       -3.8820     0.8170    -0.0230 C.3   1 <1>  -0.1600 
 11 N        1.4290     4.8940     0.3810 N.pl3 1 <1>   0.6010 
 12 C        2.0530     4.2210     1.3850 C.2   1 <1>   0.3120 
 13 C       -4.4690     4.2850     0.3170 C.ar  1 <1>   0.1660 
 14 C       -4.1280     2.0560    -0.8990 C.3   1 <1>  -0.1600 
 15 C       -2.8550     4.2100    -1.4340 C.3   1 <1>  -0.1600 
 16 C        1.8160     6.1790     0.0640 C.2   1 <1>  -0.1810 
 17 N        3.0700     4.7630     2.1370 N.2   1 <1>  -0.5760 
 18 N       -5.4260     3.9490     1.1550 N.ar  1 <1>  -0.6200 
 19 C       -4.2520     5.5710    -0.0800 C.ar  1 <1>  -0.1430 
 20 C       -3.0840     5.6750    -1.0280 C.3   1 <1>  -0.0170 
 21 C        2.8250     6.7270     0.7920 C.2   1 <1>  -0.1360 
 22 C        3.4280     5.9670     1.8340 C.2   1 <1>   0.3760 
 23 C       -6.1690     4.9630     1.5730 C.ar  1 <1>   0.4770 
 24 C       -5.0830     6.5440     0.4170 C.ar  1 <1>   0.1600 
 25 N       -6.0560     6.2460     1.2530 N.ar  1 <1>  -0.6200 
 26 C       -7.2850     4.6180     2.5280 C.3   1 <1>  -0.0970 
 27 H       -1.8020     3.8570     0.9700 H     1 <1>   0.0800 
 28 H       -2.9280     2.7650     1.6950 H     1 <1>   0.0800 
 29 H       -2.2110    -0.1350     0.9560 H     1 <1>   0.0800 
 30 H       -2.0010     0.0910    -0.7570 H     1 <1>   0.0800 
 31 H       -4.3310     0.9610     0.9450 H     1 <1>   0.0800 
 32 H       -4.3460    -0.0450    -0.4670 H     1 <1>   0.0800 
 33 H       -3.7150     1.8470    -1.8700 H     1 <1>   0.0800 
 34 H       -5.1850     2.2130    -1.0240 H     1 <1>   0.0800 
 35 H       -3.3920     4.0410    -2.3520 H     1 <1>   0.0800 
 36 H       -1.8160     3.9920    -1.6080 H     1 <1>   0.0800 
 37 H        1.2920     6.6580    -0.7420 H     1 <1>   0.1500 
 38 H       -3.3110     6.2920    -1.8800 H     1 <1>   0.0800 
 39 H       -2.2250     6.0630    -0.5080 H     1 <1>   0.0800 
 40 H        3.1930     7.7210     0.6130 H     1 <1>   0.1500 
 41 H        4.2220     6.4300     2.3930 H     1 <1>   0.0600 
 42 H       -4.9530     7.5730     0.1310 H     1 <1>   0.1500 
 43 H       -7.0510     3.7160     3.0630 H     1 <1>   0.0800 
 44 H       -8.1930     4.4740     1.9730 H     1 <1>   0.0800 
 45 H       -7.4250     5.4160     3.2330 H     1 <1>   0.0800 
@<TRIPOS>BOND
  1   1   2  2   
  2   2   3  am  
  3   2   4  1   
  4   3   5  1   
  5   3   6  1   
  6   4   7  2   
  7   4   8  1   
  8   5   9  1   
  9   5  27  1   
 10   5  28  1   
 11   6  10  1   
 12   6  29  1   
 13   6  30  1   
 14   7  11  1   
 15   8  12  2   
 16   9  13  1   
 17   9  14  1   
 18   9  15  1   
 19  10  14  1   
 20  10  31  1   
 21  10  32  1   
 22  11  12  1   
 23  11  16  1   
 24  12  17  1   
 25  13  18  ar  
 26  13  19  ar  
 27  14  33  1   
 28  14  34  1   
 29  15  20  1   
 30  15  35  1   
 31  15  36  1   
 32  16  21  2   
 33  16  37  1   
 34  17  22  2   
 35  18  23  ar  
 36  19  20  1   
 37  19  24  ar  
 38  20  38  1   
 39  20  39  1   
 40  21  22  1   
 41  21  40  1   
 42  22  41  1   
 43  23  25  ar  
 44  23  26  1   
 45  24  25  ar  
 46  24  42  1   
 47  26  43  1   
 48  26  44  1   
 49  26  45  1   
@<TRIPOS>SUBSTRUCTURE
  1 ****   5 GROUP 4 **** **** 0

# MOE 2024.06 (io_trps.svl 2023.06)
