@<TRIPOS>MOLECULE
NONAME
46 47 1 0 0 
SMALL
USER_CHARGES


@<TRIPOS>ATOM
  1 N       -0.6400    -0.9650    -2.2030 N.1   1 <1>  -0.5570 
  2 C       -0.5260    -2.0040    -1.7470 C.1   1 <1>   0.4840 
  3 C       -0.4130    -3.3150    -1.1730 C.ar  1 <1>   0.0730 
  4 C       -0.4140    -4.4470    -1.9790 C.ar  1 <1>  -0.1500 
  5 C       -0.3030    -3.4850     0.2020 C.ar  1 <1>  -0.1500 
  6 C       -0.3130    -5.7120    -1.4260 C.ar  1 <1>  -0.1500 
  7 C       -0.2010    -4.7490     0.7580 C.ar  1 <1>  -0.1500 
  8 C       -0.2080    -5.8720    -0.0540 C.ar  1 <1>  -0.1430 
  9 C       -0.0990    -7.2690     0.5470 C.3   1 <1>   0.2540 
 10 N       -1.2570    -8.0910     0.1470 N.3   1 <1>  -0.8100 
 11 C       -1.0200    -9.5150     0.4490 C.3   1 <1>   0.2900 
 12 C       -2.5440    -7.5700     0.6610 C.3   1 <1>   0.1100 
 13 C       -2.1470   -10.3450    -0.1270 C.2   1 <1>  -0.3320 
 14 C       -3.6220    -7.6870    -0.4310 C.3   1 <1>   0.3430 
 15 N       -2.9400   -11.1650     0.5890 N.pl3 1 <1>   0.0330 
 16 C       -2.5780   -10.4230    -1.4050 C.2   1 <1>   0.0770 
 17 N       -4.7330    -6.6910    -0.2870 N.4   1 <1>  -0.9590 
 18 C       -3.8320   -11.6560    -0.2980 C.2   1 <1>   0.0060 
 19 N       -3.6580   -11.2180    -1.5010 N.2   1 <1>  -0.5650 
 20 C       -5.5220    -6.9010     0.9650 C.3   1 <1>   0.2630 
 21 C       -5.6200    -6.7780    -1.4860 C.3   1 <1>   0.2630 
 22 C       -4.9200   -12.6370     0.0880 C.3   1 <1>  -0.0600 
 23 H       -0.4890    -4.3400    -3.0480 H     1 <1>   0.1500 
 24 H       -0.2920    -2.6200     0.8450 H     1 <1>   0.1500 
 25 H       -0.3120    -6.5790    -2.0660 H     1 <1>   0.1500 
 26 H       -0.1100    -4.8490     1.8260 H     1 <1>   0.1500 
 27 H       -0.0370    -7.2170     1.6210 H     1 <1>   0.0800 
 28 H        0.8080    -7.7210     0.1810 H     1 <1>   0.0800 
 29 H       -0.9460    -9.6610     1.5140 H     1 <1>   0.0800 
 30 H       -0.0930    -9.8310    -0.0030 H     1 <1>   0.0800 
 31 H       -2.4400    -6.5310     0.9190 H     1 <1>   0.0800 
 32 H       -2.8400    -8.1080     1.5450 H     1 <1>   0.0800 
 33 H       -4.0270    -8.6860    -0.4250 H     1 <1>   0.0800 
 34 H       -3.1360    -7.5330    -1.3810 H     1 <1>   0.0800 
 35 H       -2.8800   -11.4000     1.5840 H     1 <1>   0.2700 
 36 H       -2.1680    -9.9270    -2.2700 H     1 <1>   0.1500 
 37 H       -4.3030    -5.7520    -0.2690 H     1 <1>   0.4500 
 38 H       -5.9590    -7.8870     0.9690 H     1 <1>   0.0800 
 39 H       -6.3140    -6.1730     1.0330 H     1 <1>   0.0800 
 40 H       -4.8890    -6.7990     1.8310 H     1 <1>   0.0800 
 41 H       -6.0580    -7.7610    -1.5560 H     1 <1>   0.0800 
 42 H       -5.0530    -6.5920    -2.3840 H     1 <1>   0.0800 
 43 H       -6.4110    -6.0490    -1.4230 H     1 <1>   0.0800 
 44 H       -5.5610   -12.2100     0.8360 H     1 <1>   0.0800 
 45 H       -4.4820   -13.5420     0.4670 H     1 <1>   0.0800 
 46 H       -5.5120   -12.8810    -0.7760 H     1 <1>   0.0800 
@<TRIPOS>BOND
  1   1   2  3   
  2   2   3  1   
  3   3   4  ar  
  4   3   5  ar  
  5   4   6  ar  
  6   4  23  1   
  7   5   7  ar  
  8   5  24  1   
  9   6   8  ar  
 10   6  25  1   
 11   7   8  ar  
 12   7  26  1   
 13   8   9  1   
 14   9  10  1   
 15   9  27  1   
 16   9  28  1   
 17  10  11  1   
 18  10  12  1   
 19  11  13  1   
 20  11  29  1   
 21  11  30  1   
 22  12  14  1   
 23  12  31  1   
 24  12  32  1   
 25  13  15  1   
 26  13  16  2   
 27  14  17  1   
 28  14  33  1   
 29  14  34  1   
 30  15  18  1   
 31  15  35  1   
 32  16  19  1   
 33  16  36  1   
 34  17  20  1   
 35  17  21  1   
 36  17  37  1   
 37  18  19  2   
 38  18  22  1   
 39  20  38  1   
 40  20  39  1   
 41  20  40  1   
 42  21  41  1   
 43  21  42  1   
 44  21  43  1   
 45  22  44  1   
 46  22  45  1   
 47  22  46  1   
@<TRIPOS>SUBSTRUCTURE
  1 ****  12 GROUP 4 **** **** 0

# MOE 2024.06 (io_trps.svl 2023.06)
