@<TRIPOS>MOLECULE
NONAME
43 45 1 0 0 
SMALL
USER_CHARGES


@<TRIPOS>ATOM
  1 F       -0.5150    -0.3750     0.1430 F     1 <1>  -0.1900 
  2 C       -1.6740    -0.9960     0.1620 C.ar  1 <1>   0.1900 
  3 C       -2.8490    -0.4440    -0.3350 C.ar  1 <1>   0.3920 
  4 C       -1.7230    -2.2530     0.7010 C.ar  1 <1>   0.1600 
  5 O       -2.9750     0.7800    -0.8980 O.3   1 <1>  -0.3630 
  6 N       -3.9750    -1.1210    -0.2830 N.ar  1 <1>  -0.6200 
  7 N       -2.8460    -2.9370     0.7560 N.ar  1 <1>  -0.6200 
  8 C       -1.9130     1.6890    -1.0900 C.3   1 <1>   0.0400 
  9 C       -3.9270    -2.3360     0.2560 C.ar  1 <1>   0.7200 
 10 N       -5.1060    -3.0470     0.3070 N.pl3 1 <1>  -0.8380 
 11 C       -5.2000    -4.3180     1.1230 C.3   1 <1>   0.2700 
 12 C       -6.4130    -2.4670    -0.1280 C.3   1 <1>   0.2090 
 13 C       -6.5540    -5.0520     1.1110 C.2   1 <1>   0.5690 
 14 C       -7.3350    -3.5470    -0.7130 C.3   1 <1>   0.1400 
 15 O       -6.7010    -5.9560     1.9040 O.2   1 <1>  -0.5700 
 16 N       -7.5480    -4.6880     0.2320 N.am  1 <1>  -0.6600 
 17 C       -8.8390    -5.4340     0.1700 C.3   1 <1>   0.2200 
 18 C       -9.1560    -5.8940    -1.2610 C.3   1 <1>  -0.1600 
 19 C       -9.9780    -4.5870     0.7550 C.3   1 <1>  -0.1600 
 20 C      -10.4870    -6.6600    -1.3070 C.3   1 <1>  -0.1600 
 21 C      -11.3110    -5.3480     0.7030 C.3   1 <1>  -0.1600 
 22 C      -11.6300    -5.8170    -0.7240 C.3   1 <1>  -0.1600 
 23 H       -0.8280    -2.7040     1.0930 H     1 <1>   0.1500 
 24 H       -2.3100     2.5670    -1.5670 H     1 <1>   0.0800 
 25 H       -1.1710     1.2350    -1.7230 H     1 <1>   0.0800 
 26 H       -1.4980     1.9530    -0.1330 H     1 <1>   0.0800 
 27 H       -4.9640    -4.0860     2.1450 H     1 <1>   0.0800 
 28 H       -4.4590    -5.0110     0.7690 H     1 <1>   0.0800 
 29 H       -6.2630    -1.7120    -0.8800 H     1 <1>   0.0800 
 30 H       -6.8930    -2.0030     0.7160 H     1 <1>   0.0800 
 31 H       -6.9010    -3.9220    -1.6230 H     1 <1>   0.0800 
 32 H       -8.2760    -3.0900    -0.9570 H     1 <1>   0.0800 
 33 H       -8.7570    -6.3220     0.7760 H     1 <1>   0.0800 
 34 H       -8.3650    -6.5350    -1.6100 H     1 <1>   0.0800 
 35 H       -9.2300    -5.0480    -1.9190 H     1 <1>   0.0800 
 36 H      -10.0820    -3.6720     0.2030 H     1 <1>   0.0800 
 37 H       -9.7470    -4.3460     1.7780 H     1 <1>   0.0800 
 38 H      -10.3930    -7.5720    -0.7410 H     1 <1>   0.0800 
 39 H      -10.7170    -6.9260    -2.3240 H     1 <1>   0.0800 
 40 H      -12.1040    -4.7140     1.0620 H     1 <1>   0.0800 
 41 H      -11.2560    -6.2050     1.3540 H     1 <1>   0.0800 
 42 H      -12.5370    -6.3970    -0.7160 H     1 <1>   0.0800 
 43 H      -11.7960    -4.9580    -1.3520 H     1 <1>   0.0800 
@<TRIPOS>BOND
  1   1   2  1   
  2   2   3  ar  
  3   2   4  ar  
  4   3   5  1   
  5   3   6  ar  
  6   4   7  ar  
  7   4  23  1   
  8   5   8  1   
  9   6   9  ar  
 10   7   9  ar  
 11   8  24  1   
 12   8  25  1   
 13   8  26  1   
 14   9  10  1   
 15  10  11  1   
 16  10  12  1   
 17  11  13  1   
 18  11  27  1   
 19  11  28  1   
 20  12  14  1   
 21  12  29  1   
 22  12  30  1   
 23  13  15  2   
 24  13  16  am  
 25  14  16  1   
 26  14  31  1   
 27  14  32  1   
 28  16  17  1   
 29  17  18  1   
 30  17  19  1   
 31  17  33  1   
 32  18  20  1   
 33  18  34  1   
 34  18  35  1   
 35  19  21  1   
 36  19  36  1   
 37  19  37  1   
 38  20  22  1   
 39  20  38  1   
 40  20  39  1   
 41  21  22  1   
 42  21  40  1   
 43  21  41  1   
 44  22  42  1   
 45  22  43  1   
@<TRIPOS>SUBSTRUCTURE
  1 ****  10 GROUP 4 **** **** 0

# MOE 2024.06 (io_trps.svl 2023.06)
