@<TRIPOS>MOLECULE
NONAME
46 48 1 0 0 
SMALL
USER_CHARGES


@<TRIPOS>ATOM
  1 O        3.7700    -0.0160     1.4930 O.2   1 <1>  -0.5700 
  2 C        2.9690    -0.5580     0.7530 C.2   1 <1>   0.5440 
  3 N        2.6850     0.1130    -0.4120 N.am  1 <1>  -0.6600 
  4 C        2.4870    -1.9020     1.0190 C.ar  1 <1>   0.0860 
  5 C        3.3380    -0.3210    -1.6880 C.3   1 <1>   0.1400 
  6 C        2.1660     1.5120    -0.3950 C.3   1 <1>   0.1400 
  7 C        1.2170    -2.3820     0.6870 C.ar  1 <1>  -0.1440 
  8 C        3.3570    -2.7980     1.6420 C.ar  1 <1>   0.1600 
  9 C        4.8470     0.0230    -1.6980 C.3   1 <1>   0.3430 
 10 C        3.2720     2.5600    -0.1760 C.3   1 <1>  -0.1600 
 11 C        0.9490    -3.7060     0.9720 C.ar  1 <1>  -0.1500 
 12 C        0.1260    -1.5260     0.0550 C.3   1 <1>  -0.0960 
 13 N        3.1150    -4.0690     1.9120 N.ar  1 <1>  -0.6200 
 14 N        5.1710     1.1000    -0.7030 N.4   1 <1>  -0.9590 
 15 C        4.5240     2.3950    -1.0430 C.3   1 <1>   0.3430 
 16 C        1.9130    -4.4960     1.5700 C.ar  1 <1>   0.1600 
 17 C        6.6240     1.1750    -0.3660 C.3   1 <1>   0.3430 
 18 C        6.8450     1.8130     1.0110 C.3   1 <1>   0.0960 
 19 N        8.2710     1.7100     1.3510 N.pl3 1 <1>   0.0480 
 20 C        9.2710     2.5320     1.0250 C.2   1 <1>   0.0360 
 21 C        8.8980     0.7330     2.0090 C.2   1 <1>   0.0360 
 22 N       10.4050     2.0870     1.4340 N.2   1 <1>  -0.3380 
 23 N       10.1670     0.9350     2.0650 N.2   1 <1>  -0.3380 
 24 H        2.8540     0.1580    -2.5210 H     1 <1>   0.0800 
 25 H        3.2130    -1.3840    -1.8160 H     1 <1>   0.0800 
 26 H        1.4380     1.6040     0.3950 H     1 <1>   0.0800 
 27 H        1.6540     1.7080    -1.3230 H     1 <1>   0.0800 
 28 H        4.3270    -2.4370     1.9350 H     1 <1>   0.1500 
 29 H        5.1520     0.3130    -2.6900 H     1 <1>   0.0800 
 30 H        5.3900    -0.8710    -1.4380 H     1 <1>   0.0800 
 31 H        3.5530     2.5670     0.8620 H     1 <1>   0.0800 
 32 H        2.8490     3.5280    -0.3780 H     1 <1>   0.0800 
 33 H       -0.0070    -4.1390     0.7380 H     1 <1>   0.1500 
 34 H        0.0410    -0.5870     0.5730 H     1 <1>   0.0800 
 35 H       -0.8280    -2.0200     0.1100 H     1 <1>   0.0800 
 36 H        0.3500    -1.3400    -0.9790 H     1 <1>   0.0800 
 37 H        4.6620     0.7800     0.1550 H     1 <1>   0.4500 
 38 H        5.1990     3.2110    -0.8440 H     1 <1>   0.0800 
 39 H        4.2590     2.4230    -2.0880 H     1 <1>   0.0800 
 40 H        1.6840    -5.5280     1.7810 H     1 <1>   0.1500 
 41 H        7.1480     1.7370    -1.1220 H     1 <1>   0.0800 
 42 H        7.0300     0.1770    -0.3410 H     1 <1>   0.0800 
 43 H        6.2760     1.2920     1.7620 H     1 <1>   0.0800 
 44 H        6.5640     2.8500     1.0060 H     1 <1>   0.0800 
 45 H        9.1420     3.4520     0.4830 H     1 <1>   0.1500 
 46 H        8.3990    -0.1190     2.4360 H     1 <1>   0.1500 
@<TRIPOS>BOND
  1   1   2  2   
  2   2   3  am  
  3   2   4  1   
  4   3   5  1   
  5   3   6  1   
  6   4   7  ar  
  7   4   8  ar  
  8   5   9  1   
  9   5  24  1   
 10   5  25  1   
 11   6  10  1   
 12   6  26  1   
 13   6  27  1   
 14   7  11  ar  
 15   7  12  1   
 16   8  13  ar  
 17   8  28  1   
 18   9  14  1   
 19   9  29  1   
 20   9  30  1   
 21  10  15  1   
 22  10  31  1   
 23  10  32  1   
 24  11  16  ar  
 25  11  33  1   
 26  12  34  1   
 27  12  35  1   
 28  12  36  1   
 29  13  16  ar  
 30  14  15  1   
 31  14  17  1   
 32  14  37  1   
 33  15  38  1   
 34  15  39  1   
 35  16  40  1   
 36  17  18  1   
 37  17  41  1   
 38  17  42  1   
 39  18  19  1   
 40  18  43  1   
 41  18  44  1   
 42  19  20  1   
 43  19  21  1   
 44  20  22  2   
 45  20  45  1   
 46  21  23  2   
 47  21  46  1   
 48  22  23  1   
@<TRIPOS>SUBSTRUCTURE
  1 ****   1 GROUP 4 **** **** 0

# MOE 2024.06 (io_trps.svl 2023.06)
