@<TRIPOS>MOLECULE
NONAME
61 64 1 0 0 
SMALL
USER_CHARGES


@<TRIPOS>ATOM
  1 O        1.5570    -0.6660     1.1530 O.2   1 <1>  -0.5700 
  2 C        1.2140    -0.8840     0.0190 C.2   1 <1>   0.5690 
  3 N        1.0430     0.0730    -0.9420 N.am  1 <1>  -0.5470 
  4 C        0.9420    -2.3210    -0.3700 C.3   1 <1>  -0.0990 
  5 C        1.1950     1.4690    -0.9140 C.ar  1 <1>   0.1170 
  6 C       -0.4830    -2.7370     0.0240 C.3   1 <1>  -0.0990 
  7 C        1.3050     2.2090     0.2610 C.ar  1 <1>  -0.1500 
  8 C        1.2250     2.1520    -2.1240 C.ar  1 <1>  -0.1500 
  9 C       -0.7750    -4.1530    -0.4150 C.2   1 <1>   0.5690 
 10 C        1.4480     3.5860     0.2340 C.ar  1 <1>  -0.1440 
 11 C        1.3630     3.5270    -2.1630 C.ar  1 <1>  -0.1500 
 12 O       -1.0200    -4.3620    -1.5780 O.2   1 <1>  -0.5700 
 13 N       -0.7550    -5.1460     0.5040 N.am  1 <1>  -0.7300 
 14 C        1.4750     4.2440    -0.9850 C.ar  1 <1>  -0.1500 
 15 C        1.5700     4.3690     1.5310 C.3   1 <1>  -0.0170 
 16 C       -1.0550    -6.5630     0.2010 C.3   1 <1>   0.2200 
 17 C        0.1910     4.8150     2.0220 C.3   1 <1>  -0.2400 
 18 C       -2.5320    -6.8170     0.4420 C.3   1 <1>  -0.0800 
 19 C       -0.4070    -7.4730     1.2380 C.3   1 <1>   0.1200 
 20 C       -2.5730    -7.1160     1.9440 C.3   1 <1>   0.1200 
 21 C       -3.0470    -7.9970    -0.4050 C.3   1 <1>  -0.0160 
 22 O       -1.2870    -7.5170     2.3210 O.3   1 <1>  -0.5600 
 23 C       -4.5570    -8.1640    -0.2670 C.ar  1 <1>  -0.1440 
 24 C       -5.4740    -7.2950    -0.9060 C.ar  1 <1>   0.0000 
 25 C       -5.0700    -9.1740     0.4920 C.ar  1 <1>  -0.1500 
 26 C       -6.8550    -7.5270    -0.6950 C.ar  1 <1>   0.3100 
 27 C       -5.1050    -6.2140    -1.7420 C.ar  1 <1>  -0.1500 
 28 C       -6.4550    -9.3200     0.6300 C.ar  1 <1>   0.1600 
 29 N       -7.3280    -8.5410     0.0740 N.ar  1 <1>  -0.6200 
 30 C       -7.7890    -6.6760    -1.3070 C.ar  1 <1>  -0.1500 
 31 C       -6.0410    -5.4040    -2.3240 C.ar  1 <1>  -0.1500 
 32 C       -7.4010    -5.6340    -2.1040 C.ar  1 <1>  -0.1500 
 33 H        0.7770    -0.2910    -1.8540 H     1 <1>   0.3700 
 34 H        1.0800    -2.4450    -1.4290 H     1 <1>   0.0800 
 35 H        1.6530    -2.9520     0.1310 H     1 <1>   0.0800 
 36 H       -1.1970    -2.0840    -0.4440 H     1 <1>   0.0800 
 37 H       -0.6050    -2.6520     1.0890 H     1 <1>   0.0800 
 38 H        1.2770     1.7090     1.2110 H     1 <1>   0.1500 
 39 H        1.1410     1.6090    -3.0470 H     1 <1>   0.1500 
 40 H        1.3850     4.0430    -3.1070 H     1 <1>   0.1500 
 41 H       -0.6090    -4.9440     1.4960 H     1 <1>   0.3700 
 42 H        1.5810     5.3140    -1.0190 H     1 <1>   0.1500 
 43 H        2.0390     3.7560     2.2820 H     1 <1>   0.0800 
 44 H        2.1960     5.2310     1.3770 H     1 <1>   0.0800 
 45 H       -0.7410    -6.7990    -0.8020 H     1 <1>   0.0800 
 46 H       -0.4340     3.9570     2.1960 H     1 <1>   0.0800 
 47 H       -0.2800     5.4410     1.2860 H     1 <1>   0.0800 
 48 H        0.2850     5.3670     2.9400 H     1 <1>   0.0800 
 49 H       -3.1160    -5.9420     0.2170 H     1 <1>   0.0800 
 50 H        0.5540    -7.1150     1.5650 H     1 <1>   0.0800 
 51 H       -0.3110    -8.4740     0.8570 H     1 <1>   0.0800 
 52 H       -3.2720    -7.8920     2.2010 H     1 <1>   0.0800 
 53 H       -2.8100    -6.2260     2.5010 H     1 <1>   0.0800 
 54 H       -2.5540    -8.9050    -0.1030 H     1 <1>   0.0800 
 55 H       -2.8060    -7.8410    -1.4420 H     1 <1>   0.0800 
 56 H       -4.4350    -9.8760     1.0010 H     1 <1>   0.1500 
 57 H       -4.0650    -6.0170    -1.9310 H     1 <1>   0.1500 
 58 H       -6.8170   -10.1300     1.2390 H     1 <1>   0.1500 
 59 H       -8.8290    -6.8730    -1.1250 H     1 <1>   0.1500 
 60 H       -5.7440    -4.5840    -2.9570 H     1 <1>   0.1500 
 61 H       -8.1280    -4.9890    -2.5670 H     1 <1>   0.1500 
@<TRIPOS>BOND
  1   1   2  2   
  2   2   3  am  
  3   2   4  1   
  4   3   5  1   
  5   3  33  1   
  6   4   6  1   
  7   4  34  1   
  8   4  35  1   
  9   5   7  ar  
 10   5   8  ar  
 11   6   9  1   
 12   6  36  1   
 13   6  37  1   
 14   7  10  ar  
 15   7  38  1   
 16   8  11  ar  
 17   8  39  1   
 18   9  12  2   
 19   9  13  am  
 20  10  14  ar  
 21  10  15  1   
 22  11  14  ar  
 23  11  40  1   
 24  13  16  1   
 25  13  41  1   
 26  14  42  1   
 27  15  17  1   
 28  15  43  1   
 29  15  44  1   
 30  16  18  1   
 31  16  19  1   
 32  16  45  1   
 33  17  46  1   
 34  17  47  1   
 35  17  48  1   
 36  18  20  1   
 37  18  21  1   
 38  18  49  1   
 39  19  22  1   
 40  19  50  1   
 41  19  51  1   
 42  20  22  1   
 43  20  52  1   
 44  20  53  1   
 45  21  23  1   
 46  21  54  1   
 47  21  55  1   
 48  23  24  ar  
 49  23  25  ar  
 50  24  26  ar  
 51  24  27  ar  
 52  25  28  ar  
 53  25  56  1   
 54  26  29  ar  
 55  26  30  ar  
 56  27  31  ar  
 57  27  57  1   
 58  28  29  ar  
 59  28  58  1   
 60  30  32  ar  
 61  30  59  1   
 62  31  32  ar  
 63  31  60  1   
 64  32  61  1   
@<TRIPOS>SUBSTRUCTURE
  1 ****   9 GROUP 4 **** **** 0

# MOE 2024.06 (io_trps.svl 2023.06)
