@<TRIPOS>MOLECULE
NONAME
39 40 1 0 0 
SMALL
USER_CHARGES


@<TRIPOS>ATOM
  1 O        3.3290    -0.7130     1.3610 O.2   1 <1>  -0.5700 
  2 C        2.4770    -1.0270     0.5540 C.2   1 <1>   0.5440 
  3 N        1.9800    -0.0800    -0.3040 N.am  1 <1>  -0.4940 
  4 C        1.9930    -2.3970     0.5050 C.ar  1 <1>   0.0860 
  5 C        2.2650     1.2780    -0.4720 C.2   1 <1>   0.2040 
  6 C        0.7150    -2.7580     0.0490 C.ar  1 <1>   0.0830 
  7 C        2.8310    -3.4310     0.9350 C.ar  1 <1>  -0.1500 
  8 O        1.2930     2.0540    -0.8900 O.3   1 <1>  -0.0190 
  9 C        3.3620     2.0550    -0.3260 C.2   1 <1>  -0.1810 
 10 O       -0.1440    -1.7900    -0.3590 O.3   1 <1>  -0.3630 
 11 C        0.3150    -4.0980    -0.0040 C.ar  1 <1>   0.0830 
 12 C        2.4390    -4.7530     0.9020 C.ar  1 <1>  -0.1500 
 13 N        1.6700     3.2970    -1.0190 N.2   1 <1>  -0.4100 
 14 C        2.9090     3.3250    -0.6860 C.2   1 <1>   0.1080 
 15 C        4.7810     1.6960     0.0900 C.3   1 <1>   0.0210 
 16 C       -1.2190    -1.4770     0.5010 C.3   1 <1>   0.0400 
 17 O       -0.9260    -4.3850    -0.4930 O.3   1 <1>  -0.3630 
 18 C        1.1840    -5.0920     0.4310 C.ar  1 <1>  -0.1500 
 19 C        3.7340     4.5950    -0.7030 C.3   1 <1>  -0.0590 
 20 C        5.0550     2.1100     1.5380 C.3   1 <1>  -0.2400 
 21 C       -1.3480    -5.7120    -0.7210 C.3   1 <1>   0.0400 
 22 H        1.1280    -0.3880    -0.7810 H     1 <1>   0.3700 
 23 H        3.8130    -3.1850     1.3030 H     1 <1>   0.1500 
 24 H        3.1110    -5.5230     1.2430 H     1 <1>   0.1500 
 25 H        5.4820     2.1810    -0.5650 H     1 <1>   0.0800 
 26 H        4.9310     0.6360    -0.0150 H     1 <1>   0.0800 
 27 H       -1.7630    -0.6530     0.0740 H     1 <1>   0.0800 
 28 H       -0.8280    -1.2010     1.4640 H     1 <1>   0.0800 
 29 H       -1.8650    -2.3320     0.5900 H     1 <1>   0.0800 
 30 H        0.9100    -6.1290     0.4150 H     1 <1>   0.1500 
 31 H        4.6730     4.4230    -1.1930 H     1 <1>   0.0800 
 32 H        3.9110     4.9270     0.3030 H     1 <1>   0.0800 
 33 H        3.2040     5.3670    -1.2320 H     1 <1>   0.0800 
 34 H        4.9610     3.1730     1.6560 H     1 <1>   0.0800 
 35 H        6.0480     1.8140     1.8240 H     1 <1>   0.0800 
 36 H        4.3520     1.6260     2.1940 H     1 <1>   0.0800 
 37 H       -2.3280    -5.6790    -1.1640 H     1 <1>   0.0800 
 38 H       -1.3920    -6.2330     0.2190 H     1 <1>   0.0800 
 39 H       -0.6590    -6.1880    -1.3970 H     1 <1>   0.0800 
@<TRIPOS>BOND
  1   1   2  2   
  2   2   3  am  
  3   2   4  1   
  4   3   5  1   
  5   3  22  1   
  6   4   6  ar  
  7   4   7  ar  
  8   5   8  1   
  9   5   9  2   
 10   6  10  1   
 11   6  11  ar  
 12   7  12  ar  
 13   7  23  1   
 14   8  13  1   
 15   9  14  1   
 16   9  15  1   
 17  10  16  1   
 18  11  17  1   
 19  11  18  ar  
 20  12  18  ar  
 21  12  24  1   
 22  13  14  2   
 23  14  19  1   
 24  15  20  1   
 25  15  25  1   
 26  15  26  1   
 27  16  27  1   
 28  16  28  1   
 29  16  29  1   
 30  17  21  1   
 31  18  30  1   
 32  19  31  1   
 33  19  32  1   
 34  19  33  1   
 35  20  34  1   
 36  20  35  1   
 37  20  36  1   
 38  21  37  1   
 39  21  38  1   
 40  21  39  1   
@<TRIPOS>SUBSTRUCTURE
  1 ****   3 GROUP 4 **** **** 0

# MOE 2024.06 (io_trps.svl 2023.06)
