@<TRIPOS>MOLECULE
NONAME
62 65 1 0 0 
SMALL
USER_CHARGES


@<TRIPOS>ATOM
  1 O        0.7780     0.4300    -0.6550 O.2   1 <1>  -0.5700 
  2 C        1.7400    -0.0900    -0.1210 C.2   1 <1>   0.5440 
  3 N        1.5430    -1.1700     0.7180 N.am  1 <1>  -0.6600 
  4 C        3.0630     0.4400    -0.3950 C.ar  1 <1>   0.0860 
  5 C        0.1780    -1.5920     1.1430 C.3   1 <1>   0.1400 
  6 C        2.6260    -2.1050     1.1350 C.3   1 <1>   0.1400 
  7 C        3.5290     0.5570    -1.7020 C.ar  1 <1>  -0.1500 
  8 C        3.9130     0.8540     0.6300 C.ar  1 <1>  -0.1500 
  9 C       -0.1280    -2.9880     0.5910 C.3   1 <1>  -0.1600 
 10 C        2.3380    -3.5070     0.5890 C.3   1 <1>  -0.1600 
 11 C        4.7930     1.0470    -1.9770 C.ar  1 <1>  -0.1500 
 12 C        5.1780     1.3430     0.3630 C.ar  1 <1>  -0.1500 
 13 C        0.9460    -4.0050     1.0000 C.3   1 <1>  -0.1600 
 14 C        5.6310     1.4400    -0.9440 C.ar  1 <1>  -0.1430 
 15 C        7.0220     1.9750    -1.2350 C.3   1 <1>   0.3530 
 16 N        7.0600     3.3950    -0.8370 N.pl3 1 <1>  -0.8690 
 17 C        8.0850     4.1630    -0.4460 C.ar  1 <1>   0.4100 
 18 N        7.7500     5.3550    -0.0130 N.ar  1 <1>  -0.6200 
 19 C        9.4230     3.7340    -0.4960 C.ar  1 <1>  -0.1500 
 20 C        8.7130     6.1730     0.3900 C.ar  1 <1>   0.7710 
 21 C       10.3960     4.5780    -0.0760 C.ar  1 <1>   0.2180 
 22 N       10.0050     5.7980     0.3660 N.ar  1 <1>  -0.1790 
 23 N        8.3890     7.4150     0.8420 N.pl3 1 <1>  -0.8380 
 24 C       11.8790     4.2270    -0.0760 C.3   1 <1>  -0.0170 
 25 C        9.3250     8.5470     1.1750 C.3   1 <1>   0.2090 
 26 C        6.9520     7.8370     1.0440 C.3   1 <1>   0.2090 
 27 C       12.4680     4.2040     1.3410 C.3   1 <1>  -0.2400 
 28 C        8.9020     9.8460     0.4620 C.3   1 <1>   0.1200 
 29 C        6.6590     9.1760     0.3450 C.3   1 <1>   0.1200 
 30 O        7.5730    10.1530     0.7540 O.3   1 <1>  -0.5600 
 31 H       -0.5650    -0.8940     0.7940 H     1 <1>   0.0800 
 32 H        0.1360    -1.6060     2.2180 H     1 <1>   0.0800 
 33 H        2.6670    -2.1330     2.2110 H     1 <1>   0.0800 
 34 H        3.5830    -1.7780     0.7700 H     1 <1>   0.0800 
 35 H        2.8790     0.2600    -2.5070 H     1 <1>   0.1500 
 36 H        3.5670     0.7920     1.6470 H     1 <1>   0.1500 
 37 H       -0.1850    -2.9270    -0.4820 H     1 <1>   0.0800 
 38 H       -1.0890    -3.3090     0.9520 H     1 <1>   0.0800 
 39 H        3.0870    -4.1900     0.9490 H     1 <1>   0.0800 
 40 H        2.4090    -3.4800    -0.4850 H     1 <1>   0.0800 
 41 H        5.1150     1.1230    -3.0020 H     1 <1>   0.1500 
 42 H        5.8100     1.6560     1.1770 H     1 <1>   0.1500 
 43 H        0.7450    -4.9540     0.5330 H     1 <1>   0.0800 
 44 H        0.9170    -4.1450     2.0680 H     1 <1>   0.0800 
 45 H        7.2440     1.8900    -2.2850 H     1 <1>   0.0800 
 46 H        7.7490     1.4100    -0.6770 H     1 <1>   0.0800 
 47 H        6.1230     3.8080    -0.7800 H     1 <1>   0.4000 
 48 H        9.6440     2.7510    -0.8660 H     1 <1>   0.1500 
 49 H       10.6680     6.4680     0.7280 H     1 <1>   0.4570 
 50 H       12.4200     4.9340    -0.6830 H     1 <1>   0.0800 
 51 H       12.0160     3.2560    -0.5210 H     1 <1>   0.0800 
 52 H       10.3360     8.3230     0.8920 H     1 <1>   0.0800 
 53 H        9.3070     8.7220     2.2380 H     1 <1>   0.0800 
 54 H        6.7610     7.9510     2.0980 H     1 <1>   0.0800 
 55 H        6.2560     7.1040     0.6740 H     1 <1>   0.0800 
 56 H       12.4280     5.1730     1.8050 H     1 <1>   0.0800 
 57 H       13.5000     3.8980     1.3000 H     1 <1>   0.0800 
 58 H       11.9370     3.5000     1.9590 H     1 <1>   0.0800 
 59 H        9.0080     9.7540    -0.6050 H     1 <1>   0.0800 
 60 H        9.5060    10.6710     0.7980 H     1 <1>   0.0800 
 61 H        5.6730     9.5200     0.6040 H     1 <1>   0.0800 
 62 H        6.7170     9.0680    -0.7240 H     1 <1>   0.0800 
@<TRIPOS>BOND
  1   1   2  2   
  2   2   3  am  
  3   2   4  1   
  4   3   5  1   
  5   3   6  1   
  6   4   7  ar  
  7   4   8  ar  
  8   5   9  1   
  9   5  31  1   
 10   5  32  1   
 11   6  10  1   
 12   6  33  1   
 13   6  34  1   
 14   7  11  ar  
 15   7  35  1   
 16   8  12  ar  
 17   8  36  1   
 18   9  13  1   
 19   9  37  1   
 20   9  38  1   
 21  10  13  1   
 22  10  39  1   
 23  10  40  1   
 24  11  14  ar  
 25  11  41  1   
 26  12  14  ar  
 27  12  42  1   
 28  13  43  1   
 29  13  44  1   
 30  14  15  1   
 31  15  16  1   
 32  15  45  1   
 33  15  46  1   
 34  16  17  1   
 35  16  47  1   
 36  17  18  ar  
 37  17  19  ar  
 38  18  20  ar  
 39  19  21  ar  
 40  19  48  1   
 41  20  22  ar  
 42  20  23  1   
 43  21  22  ar  
 44  21  24  1   
 45  22  49  1   
 46  23  25  1   
 47  23  26  1   
 48  24  27  1   
 49  24  50  1   
 50  24  51  1   
 51  25  28  1   
 52  25  52  1   
 53  25  53  1   
 54  26  29  1   
 55  26  54  1   
 56  26  55  1   
 57  27  56  1   
 58  27  57  1   
 59  27  58  1   
 60  28  30  1   
 61  28  59  1   
 62  28  60  1   
 63  29  30  1   
 64  29  61  1   
 65  29  62  1   
@<TRIPOS>SUBSTRUCTURE
  1 ****  16 GROUP 4 **** **** 0

# MOE 2024.06 (io_trps.svl 2023.06)
