@<TRIPOS>MOLECULE
NONAME
50 53 1 0 0 
SMALL
USER_CHARGES


@<TRIPOS>ATOM
  1 S       -1.4390     0.0850    -1.0020 S.o2  1 <1>   1.4470 
  2 O       -0.3510    -0.0920    -1.9300 O.2   1 <1>  -0.6500 
  3 O       -2.8170     0.1780    -1.4160 O.2   1 <1>  -0.6500 
  4 N       -1.3450    -1.2030     0.1310 N.am  1 <1>  -0.7300 
  5 C       -1.0440     1.2980     0.2530 C.ar  1 <1>  -0.0090 
  6 C       -1.0340    -0.7610     1.3730 C.2   1 <1>   0.7200 
  7 C       -1.4640    -2.6090    -0.2940 C.3   1 <1>   0.1960 
  8 C       -0.8580     0.6710     1.4710 C.ar  1 <1>   0.0860 
  9 C       -0.9190     2.6730     0.1360 C.ar  1 <1>  -0.1500 
 10 O       -0.9300    -1.5280     2.3080 O.2   1 <1>  -0.5700 
 11 C       -2.9260    -3.0370    -0.2280 C.3   1 <1>  -0.0990 
 12 C       -0.5410     1.4320     2.5930 C.ar  1 <1>  -0.1500 
 13 C       -0.6030     3.4260     1.2560 C.ar  1 <1>  -0.1500 
 14 C       -3.0250    -4.5180    -0.4910 C.2   1 <1>   0.5690 
 15 C       -0.4150     2.8060     2.4810 C.ar  1 <1>  -0.1500 
 16 O       -2.7530    -4.9380    -1.5880 O.2   1 <1>  -0.5700 
 17 N       -3.4110    -5.3360     0.5150 N.am  1 <1>  -0.7300 
 18 C       -3.5640    -6.8020     0.3910 C.3   1 <1>   0.2200 
 19 C       -5.0380    -7.1310     0.2320 C.3   1 <1>  -0.0800 
 20 C       -3.2390    -7.4640     1.7240 C.3   1 <1>   0.1200 
 21 C       -5.5250    -7.1920     1.6850 C.3   1 <1>   0.1200 
 22 C       -5.2390    -8.4650    -0.5110 C.3   1 <1>  -0.0170 
 23 O       -4.3950    -7.3470     2.4960 O.3   1 <1>  -0.5600 
 24 C       -6.7160    -8.7680    -0.7120 C.ar  1 <1>  -0.1430 
 25 C       -7.3740    -9.7400     0.0150 C.ar  1 <1>  -0.1500 
 26 C       -7.4740    -8.0820    -1.6390 C.ar  1 <1>  -0.1500 
 27 C       -8.7210    -9.9680    -0.2110 C.ar  1 <1>   0.1600 
 28 C       -8.8170    -8.3880    -1.7870 C.ar  1 <1>   0.1600 
 29 N       -9.4590    -9.3140    -1.0930 N.ar  1 <1>  -0.6200 
 30 H       -1.0870    -2.7240    -1.2970 H     1 <1>   0.0800 
 31 H       -0.8740    -3.2300     0.3600 H     1 <1>   0.0800 
 32 H       -1.0650     3.1520    -0.8180 H     1 <1>   0.1500 
 33 H       -3.4960    -2.5160    -0.9750 H     1 <1>   0.0800 
 34 H       -3.3290    -2.8150     0.7420 H     1 <1>   0.0800 
 35 H       -0.3960     0.9430     3.5430 H     1 <1>   0.1500 
 36 H       -0.5040     4.4960     1.1750 H     1 <1>   0.1500 
 37 H       -0.1700     3.3960     3.3490 H     1 <1>   0.1500 
 38 H       -3.6590    -4.9640     1.4350 H     1 <1>   0.3700 
 39 H       -2.9520    -7.1760    -0.4130 H     1 <1>   0.0800 
 40 H       -5.5500    -6.3570    -0.3120 H     1 <1>   0.0800 
 41 H       -2.4140    -6.9970     2.2320 H     1 <1>   0.0800 
 42 H       -3.0390    -8.5130     1.5910 H     1 <1>   0.0800 
 43 H       -6.1980    -8.0110     1.8690 H     1 <1>   0.0800 
 44 H       -6.0020    -6.2700     1.9670 H     1 <1>   0.0800 
 45 H       -4.7730    -9.2690     0.0320 H     1 <1>   0.0800 
 46 H       -4.7670    -8.4090    -1.4770 H     1 <1>   0.0800 
 47 H       -6.8550   -10.3220     0.7540 H     1 <1>   0.1500 
 48 H       -7.0340    -7.3130    -2.2470 H     1 <1>   0.1500 
 49 H       -9.2190   -10.7290     0.3660 H     1 <1>   0.1500 
 50 H       -9.3920    -7.8420    -2.5150 H     1 <1>   0.1500 
@<TRIPOS>BOND
  1   1   2  2   
  2   1   3  2   
  3   1   4  am  
  4   1   5  1   
  5   4   6  am  
  6   4   7  1   
  7   5   8  ar  
  8   5   9  ar  
  9   6   8  1   
 10   6  10  2   
 11   7  11  1   
 12   7  30  1   
 13   7  31  1   
 14   8  12  ar  
 15   9  13  ar  
 16   9  32  1   
 17  11  14  1   
 18  11  33  1   
 19  11  34  1   
 20  12  15  ar  
 21  12  35  1   
 22  13  15  ar  
 23  13  36  1   
 24  14  16  2   
 25  14  17  am  
 26  15  37  1   
 27  17  18  1   
 28  17  38  1   
 29  18  19  1   
 30  18  20  1   
 31  18  39  1   
 32  19  21  1   
 33  19  22  1   
 34  19  40  1   
 35  20  23  1   
 36  20  41  1   
 37  20  42  1   
 38  21  23  1   
 39  21  43  1   
 40  21  44  1   
 41  22  24  1   
 42  22  45  1   
 43  22  46  1   
 44  24  25  ar  
 45  24  26  ar  
 46  25  27  ar  
 47  25  47  1   
 48  26  28  ar  
 49  26  48  1   
 50  27  29  ar  
 51  27  49  1   
 52  28  29  ar  
 53  28  50  1   
@<TRIPOS>SUBSTRUCTURE
  1 ****  11 GROUP 4 **** **** 0

# MOE 2024.06 (io_trps.svl 2023.06)
