@<TRIPOS>MOLECULE
NONAME
44 46 1 0 0 
SMALL
USER_CHARGES


@<TRIPOS>ATOM
  1 O        3.6740    -1.6410    -2.0150 O.2   1 <1>  -0.5700 
  2 C        2.8740    -1.4960    -1.1090 C.2   1 <1>   0.5440 
  3 N        2.8610    -0.2600    -0.5110 N.am  1 <1>  -0.6600 
  4 C        2.1090    -2.6170    -0.5880 C.ar  1 <1>   0.0860 
  5 C        3.4600    -0.1750     0.8650 C.3   1 <1>   0.2200 
  6 C        2.8640     0.9640    -1.3770 C.3   1 <1>   0.1400 
  7 C        0.7610    -2.5330    -0.1980 C.ar  1 <1>  -0.1440 
  8 C        2.7500    -3.8520    -0.4460 C.ar  1 <1>  -0.1500 
  9 C        3.0270     1.0800     1.6410 C.3   1 <1>   0.1200 
 10 C        5.0070    -0.2720     0.7880 C.3   1 <1>   0.3430 
 11 C        3.9650     1.9920    -1.0490 C.3   1 <1>  -0.0800 
 12 C        0.1180    -3.6360     0.3410 C.ar  1 <1>  -0.1500 
 13 C       -0.0480    -1.2520    -0.3680 C.3   1 <1>  -0.0970 
 14 C        2.1060    -4.9490     0.0880 C.ar  1 <1>  -0.1500 
 15 O        3.8790     2.1510     1.3610 O.3   1 <1>  -0.5600 
 16 N        5.5440     0.0190    -0.5900 N.4   1 <1>  -0.9590 
 17 C        3.6180     2.8390     0.1850 C.3   1 <1>   0.1200 
 18 C        5.4110     1.4510    -1.0030 C.3   1 <1>   0.3430 
 19 C        0.7890    -4.8370     0.4890 C.ar  1 <1>   0.0830 
 20 C        6.9360    -0.4810    -0.7620 C.3   1 <1>   0.2630 
 21 O        0.1730    -5.9020     1.0130 O.3   1 <1>  -0.5330 
 22 H        3.1020    -1.0170     1.4330 H     1 <1>   0.0800 
 23 H        2.9670     0.6680    -2.4080 H     1 <1>   0.0800 
 24 H        1.9010     1.4390    -1.2910 H     1 <1>   0.0800 
 25 H        3.7720    -3.9530    -0.7660 H     1 <1>   0.1500 
 26 H        3.1180     0.8890     2.6970 H     1 <1>   0.0800 
 27 H        2.0050     1.3490     1.4360 H     1 <1>   0.0800 
 28 H        5.2850    -1.2750     1.0660 H     1 <1>   0.0800 
 29 H        5.4490     0.3960     1.5090 H     1 <1>   0.0800 
 30 H        3.9460     2.6950    -1.8620 H     1 <1>   0.0800 
 31 H       -0.9110    -3.5690     0.6450 H     1 <1>   0.1500 
 32 H       -1.1030    -1.4480    -0.2890 H     1 <1>   0.0800 
 33 H        0.1330    -0.8200    -1.3370 H     1 <1>   0.0800 
 34 H        0.2200    -0.5390     0.3910 H     1 <1>   0.0800 
 35 H        2.6110    -5.8930     0.1940 H     1 <1>   0.1500 
 36 H        4.9190    -0.5230    -1.2320 H     1 <1>   0.4500 
 37 H        2.5860     3.1500     0.1800 H     1 <1>   0.0800 
 38 H        4.2300     3.7250     0.2030 H     1 <1>   0.0800 
 39 H        5.9940     2.0720    -0.3420 H     1 <1>   0.0800 
 40 H        5.8290     1.5520    -1.9920 H     1 <1>   0.0800 
 41 H        7.6070     0.0470    -0.1040 H     1 <1>   0.0800 
 42 H        7.2590    -0.3350    -1.7800 H     1 <1>   0.0800 
 43 H        6.9830    -1.5340    -0.5380 H     1 <1>   0.0800 
 44 H       -0.7600    -5.7470     1.2410 H     1 <1>   0.4500 
@<TRIPOS>BOND
  1   1   2  2   
  2   2   3  am  
  3   2   4  1   
  4   3   5  1   
  5   3   6  1   
  6   4   7  ar  
  7   4   8  ar  
  8   5   9  1   
  9   5  10  1   
 10   5  22  1   
 11   6  11  1   
 12   6  23  1   
 13   6  24  1   
 14   7  12  ar  
 15   7  13  1   
 16   8  14  ar  
 17   8  25  1   
 18   9  15  1   
 19   9  26  1   
 20   9  27  1   
 21  10  16  1   
 22  10  28  1   
 23  10  29  1   
 24  11  17  1   
 25  11  18  1   
 26  11  30  1   
 27  12  19  ar  
 28  12  31  1   
 29  13  32  1   
 30  13  33  1   
 31  13  34  1   
 32  14  19  ar  
 33  14  35  1   
 34  15  17  1   
 35  16  18  1   
 36  16  20  1   
 37  16  36  1   
 38  17  37  1   
 39  17  38  1   
 40  18  39  1   
 41  18  40  1   
 42  19  21  1   
 43  20  41  1   
 44  20  42  1   
 45  20  43  1   
 46  21  44  1   
@<TRIPOS>SUBSTRUCTURE
  1 ****   3 GROUP 4 **** **** 0

# MOE 2024.06 (io_trps.svl 2023.06)
