@<TRIPOS>MOLECULE
NONAME
56 58 1 0 0 
SMALL
USER_CHARGES


@<TRIPOS>ATOM
  1 CL       1.2070     0.5660    -0.4670 Cl    1 <1>  -0.1770 
  2 C        1.6130    -1.0520     0.0630 C.ar  1 <1>   0.1770 
  3 C        2.9340    -1.4930     0.0610 C.ar  1 <1>   0.0820 
  4 C        0.5720    -1.8690     0.4650 C.ar  1 <1>  -0.1500 
  5 O        3.9150    -0.6420    -0.3340 O.3   1 <1>  -0.3630 
  6 C        3.2000    -2.8130     0.4580 C.ar  1 <1>   0.0830 
  7 C        0.8410    -3.1610     0.8880 C.ar  1 <1>  -0.1440 
  8 C        4.3680     0.2790     0.6330 C.3   1 <1>   0.1200 
  9 O        4.4070    -3.4490     0.4250 O.3   1 <1>  -0.3630 
 10 C        2.1550    -3.6030     0.9070 C.ar  1 <1>  -0.1500 
 11 C       -0.2680    -4.1170     1.2840 C.3   1 <1>   0.4860 
 12 C        5.4940     1.1000     0.0110 C.3   1 <1>  -0.2400 
 13 C        5.5110    -2.9410    -0.2910 C.3   1 <1>   0.1200 
 14 N       -0.3290    -5.1560     0.2300 N.4   1 <1>  -0.9590 
 15 C        6.5550    -4.0490    -0.4040 C.3   1 <1>  -0.2400 
 16 C       -0.8290    -4.7060    -1.1010 C.3   1 <1>   0.3430 
 17 C       -1.0030    -6.4320     0.5470 C.3   1 <1>   0.3430 
 18 C       -1.3530    -5.9720    -1.7950 C.3   1 <1>   0.2000 
 19 C       -1.1380    -7.1290    -0.8080 C.3   1 <1>  -0.0800 
 20 O       -2.7150    -5.8350    -2.0380 O.3   1 <1>  -0.6800 
 21 C        0.0980    -7.9930    -1.1610 C.3   1 <1>   0.0210 
 22 C        1.4560    -7.3720    -0.8560 C.2   1 <1>   0.1080 
 23 N        1.8430    -6.2120    -1.2960 N.2   1 <1>  -0.7070 
 24 C        2.4310    -7.9780    -0.0710 C.2   1 <1>  -0.1500 
 25 N        3.1090    -6.0690    -0.8360 N.pl3 1 <1>   0.3000 
 26 C        3.4690    -7.1170    -0.0710 C.2   1 <1>  -0.3320 
 27 C        4.8170    -7.2350     0.6190 C.3   1 <1>  -0.0600 
 28 H       -0.4310    -1.4800     0.4350 H     1 <1>   0.1500 
 29 H        3.5490     0.9150     0.9210 H     1 <1>   0.0800 
 30 H        4.7210    -0.2700     1.4890 H     1 <1>   0.0800 
 31 H        2.3880    -4.5920     1.2620 H     1 <1>   0.1500 
 32 H       -1.2100    -3.6000     1.3640 H     1 <1>   0.0800 
 33 H       -0.0300    -4.5640     2.2350 H     1 <1>   0.0800 
 34 H        5.1280     1.6320    -0.8500 H     1 <1>   0.0800 
 35 H        6.3060     0.4600    -0.2810 H     1 <1>   0.0800 
 36 H        5.8590     1.8160     0.7250 H     1 <1>   0.0800 
 37 H        5.1820    -2.6300    -1.2680 H     1 <1>   0.0800 
 38 H        5.9100    -2.1020     0.2500 H     1 <1>   0.0800 
 39 H        0.6560    -5.4220     0.0070 H     1 <1>   0.4500 
 40 H        6.1650    -4.8760    -0.9670 H     1 <1>   0.0800 
 41 H        6.8520    -4.3800     0.5750 H     1 <1>   0.0800 
 42 H        7.4230    -3.6720    -0.9130 H     1 <1>   0.0800 
 43 H       -1.6230    -3.9860    -0.9980 H     1 <1>   0.0800 
 44 H       -0.0190    -4.2770    -1.6700 H     1 <1>   0.0800 
 45 H       -0.4280    -7.0230     1.2420 H     1 <1>   0.0800 
 46 H       -1.9810    -6.2380     0.9580 H     1 <1>   0.0800 
 47 H       -0.8640    -6.1290    -2.7420 H     1 <1>   0.0800 
 48 H       -1.9930    -7.7840    -0.8050 H     1 <1>   0.0800 
 49 H       -3.2550    -5.8360    -1.2250 H     1 <1>   0.4000 
 50 H        0.0710    -8.2480    -2.2070 H     1 <1>   0.0800 
 51 H        0.0310    -8.9190    -0.6180 H     1 <1>   0.0800 
 52 H        2.3600    -8.9360     0.4160 H     1 <1>   0.1500 
 53 H        3.6910    -5.2380    -1.0250 H     1 <1>   0.2700 
 54 H        4.8590    -8.1360     1.2050 H     1 <1>   0.0800 
 55 H        4.9790    -6.3940     1.2710 H     1 <1>   0.0800 
 56 H        5.6060    -7.2680    -0.1110 H     1 <1>   0.0800 
@<TRIPOS>BOND
  1   1   2  1   
  2   2   3  ar  
  3   2   4  ar  
  4   3   5  1   
  5   3   6  ar  
  6   4   7  ar  
  7   4  28  1   
  8   5   8  1   
  9   6   9  1   
 10   6  10  ar  
 11   7  10  ar  
 12   7  11  1   
 13   8  12  1   
 14   8  29  1   
 15   8  30  1   
 16   9  13  1   
 17  10  31  1   
 18  11  14  1   
 19  11  32  1   
 20  11  33  1   
 21  12  34  1   
 22  12  35  1   
 23  12  36  1   
 24  13  15  1   
 25  13  37  1   
 26  13  38  1   
 27  14  16  1   
 28  14  17  1   
 29  14  39  1   
 30  15  40  1   
 31  15  41  1   
 32  15  42  1   
 33  16  18  1   
 34  16  43  1   
 35  16  44  1   
 36  17  19  1   
 37  17  45  1   
 38  17  46  1   
 39  18  19  1   
 40  18  20  1   
 41  18  47  1   
 42  19  21  1   
 43  19  48  1   
 44  20  49  1   
 45  21  22  1   
 46  21  50  1   
 47  21  51  1   
 48  22  23  2   
 49  22  24  1   
 50  23  25  1   
 51  24  26  2   
 52  24  52  1   
 53  25  26  1   
 54  25  53  1   
 55  26  27  1   
 56  27  54  1   
 57  27  55  1   
 58  27  56  1   
@<TRIPOS>SUBSTRUCTURE
  1 ****  10 GROUP 4 **** **** 0

# MOE 2024.06 (io_trps.svl 2023.06)
