@<TRIPOS>MOLECULE
NONAME
57 60 1 0 0 
SMALL
USER_CHARGES


@<TRIPOS>ATOM
  1 O       -0.5530     0.2120     0.1090 O.2   1 <1>  -0.5700 
  2 C       -1.4560     0.8460    -0.3980 C.2   1 <1>   0.5690 
  3 N       -2.6290     0.1660    -0.6740 N.am  1 <1>  -0.6600 
  4 C       -1.1920     2.3820    -0.6820 C.3   1 <1>   0.3310 
  5 C       -3.9340     0.6560    -1.1910 C.3   1 <1>   0.1400 
  6 C       -2.7420    -1.2890    -0.3730 C.3   1 <1>   0.1400 
  7 N       -1.5380     3.2910     0.4700 N.3   1 <1>  -0.8100 
  8 C       -1.8840     2.9200    -1.9570 C.3   1 <1>  -0.2400 
  9 C        0.3100     2.5970    -0.9970 C.3   1 <1>  -0.2400 
 10 C       -4.9480    -0.3900    -0.7390 C.3   1 <1>   0.2000 
 11 C       -4.1590    -1.7010    -0.7920 C.3   1 <1>  -0.0800 
 12 C       -0.7860     2.9690     1.7160 C.3   1 <1>   0.1100 
 13 C       -2.9790     3.3440     0.8150 C.3   1 <1>   0.1100 
 14 O       -5.2970    -0.1030     0.5730 O.3   1 <1>  -0.6800 
 15 C       -4.7610    -2.8450     0.0520 C.3   1 <1>  -0.0170 
 16 C       -1.1370     3.9280     2.8670 C.3   1 <1>   0.1200 
 17 C       -3.2540     4.3040     1.9850 C.3   1 <1>   0.1200 
 18 C       -4.1090    -4.2270    -0.0860 C.ar  1 <1>  -0.1440 
 19 O       -2.5130     3.9300     3.1060 O.3   1 <1>  -0.5600 
 20 C       -4.5000    -5.2740     0.7860 C.ar  1 <1>   0.0000 
 21 C       -3.1610    -4.5270    -1.0240 C.ar  1 <1>  -0.1500 
 22 C       -3.8710    -6.5350     0.6380 C.ar  1 <1>   0.3100 
 23 C       -5.4850    -5.1470     1.7950 C.ar  1 <1>  -0.1500 
 24 C       -2.6040    -5.8100    -1.0880 C.ar  1 <1>   0.1600 
 25 N       -2.9260    -6.7860    -0.3010 N.ar  1 <1>  -0.6200 
 26 C       -4.2370    -7.5860     1.4940 C.ar  1 <1>  -0.1500 
 27 C       -5.8200    -6.1920     2.6130 C.ar  1 <1>  -0.1500 
 28 C       -5.1890    -7.4290     2.4640 C.ar  1 <1>  -0.1500 
 29 H       -4.2020     1.6200    -0.8070 H     1 <1>   0.0800 
 30 H       -3.8960     0.6860    -2.2660 H     1 <1>   0.0800 
 31 H       -1.9880    -1.8410    -0.9100 H     1 <1>   0.0800 
 32 H       -2.5950    -1.4400     0.6830 H     1 <1>   0.0800 
 33 H       -1.6280     2.3000    -2.7980 H     1 <1>   0.0800 
 34 H       -1.5470     3.9200    -2.1630 H     1 <1>   0.0800 
 35 H       -2.9480     2.9530    -1.8920 H     1 <1>   0.0800 
 36 H        0.5670     2.1080    -1.9190 H     1 <1>   0.0800 
 37 H        0.9470     2.1750    -0.2430 H     1 <1>   0.0800 
 38 H        0.5320     3.6440    -1.0910 H     1 <1>   0.0800 
 39 H       -5.8420    -0.4020    -1.3380 H     1 <1>   0.0800 
 40 H       -4.1310    -2.0060    -1.8230 H     1 <1>   0.0800 
 41 H       -0.9970     1.9620     2.0310 H     1 <1>   0.0800 
 42 H        0.2710     3.0510     1.5490 H     1 <1>   0.0800 
 43 H       -3.5520     3.6930    -0.0220 H     1 <1>   0.0800 
 44 H       -3.3290     2.3650     1.0930 H     1 <1>   0.0800 
 45 H       -4.4790     0.0100     1.1000 H     1 <1>   0.4000 
 46 H       -5.8020    -2.9430    -0.2050 H     1 <1>   0.0800 
 47 H       -4.7120    -2.5560     1.0880 H     1 <1>   0.0800 
 48 H       -0.8250     4.9300     2.6300 H     1 <1>   0.0800 
 49 H       -0.6470     3.6160     3.7720 H     1 <1>   0.0800 
 50 H       -4.2940     4.2740     2.2560 H     1 <1>   0.0800 
 51 H       -2.9920     5.3130     1.7160 H     1 <1>   0.0800 
 52 H       -2.8040    -3.8160    -1.7420 H     1 <1>   0.1500 
 53 H       -5.9910    -4.2090     1.9300 H     1 <1>   0.1500 
 54 H       -1.8580    -5.9970    -1.8410 H     1 <1>   0.1500 
 55 H       -3.7390    -8.5280     1.3590 H     1 <1>   0.1500 
 56 H       -6.5700    -6.0770     3.3760 H     1 <1>   0.1500 
 57 H       -5.4590    -8.2440     3.1130 H     1 <1>   0.1500 
@<TRIPOS>BOND
  1   1   2  2   
  2   2   3  am  
  3   2   4  1   
  4   3   5  1   
  5   3   6  1   
  6   4   7  1   
  7   4   8  1   
  8   4   9  1   
  9   5  10  1   
 10   5  29  1   
 11   5  30  1   
 12   6  11  1   
 13   6  31  1   
 14   6  32  1   
 15   7  12  1   
 16   7  13  1   
 17   8  33  1   
 18   8  34  1   
 19   8  35  1   
 20   9  36  1   
 21   9  37  1   
 22   9  38  1   
 23  10  11  1   
 24  10  14  1   
 25  10  39  1   
 26  11  15  1   
 27  11  40  1   
 28  12  16  1   
 29  12  41  1   
 30  12  42  1   
 31  13  17  1   
 32  13  43  1   
 33  13  44  1   
 34  14  45  1   
 35  15  18  1   
 36  15  46  1   
 37  15  47  1   
 38  16  19  1   
 39  16  48  1   
 40  16  49  1   
 41  17  19  1   
 42  17  50  1   
 43  17  51  1   
 44  18  20  ar  
 45  18  21  ar  
 46  20  22  ar  
 47  20  23  ar  
 48  21  24  ar  
 49  21  52  1   
 50  22  25  ar  
 51  22  26  ar  
 52  23  27  ar  
 53  23  53  1   
 54  24  25  ar  
 55  24  54  1   
 56  26  28  ar  
 57  26  55  1   
 58  27  28  ar  
 59  27  56  1   
 60  28  57  1   
@<TRIPOS>SUBSTRUCTURE
  1 ****   6 GROUP 4 **** **** 0

# MOE 2024.06 (io_trps.svl 2023.06)
