@<TRIPOS>MOLECULE
NONAME
25 24 1 0 0 
SMALL
USER_CHARGES


@<TRIPOS>ATOM
  1 O       -0.1060     2.9640    -0.2150 O.co2 1 <1>  -0.9000 
  2 C       -0.0840     4.0540    -0.7980 C.2   1 <1>   0.9060 
  3 O       -0.0520     4.1400    -2.0330 O.co2 1 <1>  -0.9000 
  4 C       -0.0970     5.3340     0.0450 C.3   1 <1>  -0.1860 
  5 C       -1.3500     6.1990    -0.2220 C.3   1 <1>  -0.1600 
  6 C        1.1790     6.1820    -0.1580 C.3   1 <1>  -0.1600 
  7 C       -2.6500     5.4580     0.1200 C.3   1 <1>  -0.1600 
  8 C        2.4500     5.4240     0.2490 C.3   1 <1>  -0.1600 
  9 C       -3.8720     6.3550    -0.0930 C.3   1 <1>  -0.2400 
 10 C        3.6930     6.3060     0.0990 C.3   1 <1>  -0.2400 
 11 H       -0.1250     5.0220     1.0720 H     1 <1>   0.0800 
 12 H       -1.3630     6.4750    -1.2630 H     1 <1>   0.0800 
 13 H       -1.2930     7.0980     0.3640 H     1 <1>   0.0800 
 14 H        1.1040     7.0820     0.4250 H     1 <1>   0.0800 
 15 H        1.2480     6.4580    -1.1970 H     1 <1>   0.0800 
 16 H       -2.6180     5.1280     1.1440 H     1 <1>   0.0800 
 17 H       -2.7380     4.5830    -0.5040 H     1 <1>   0.0800 
 18 H        2.5590     4.5490    -0.3700 H     1 <1>   0.0800 
 19 H        2.3610     5.0950     1.2700 H     1 <1>   0.0800 
 20 H       -3.8140     7.2240     0.5380 H     1 <1>   0.0800 
 21 H       -4.7690     5.8120     0.1450 H     1 <1>   0.0800 
 22 H       -3.9230     6.6700    -1.1200 H     1 <1>   0.0800 
 23 H        3.8000     6.6200    -0.9240 H     1 <1>   0.0800 
 24 H        4.5700     5.7510     0.3820 H     1 <1>   0.0800 
 25 H        3.6150     7.1750     0.7260 H     1 <1>   0.0800 
@<TRIPOS>BOND
  1   1   2  ar  
  2   2   3  ar  
  3   2   4  1   
  4   4   5  1   
  5   4   6  1   
  6   4  11  1   
  7   5   7  1   
  8   5  12  1   
  9   5  13  1   
 10   6   8  1   
 11   6  14  1   
 12   6  15  1   
 13   7   9  1   
 14   7  16  1   
 15   7  17  1   
 16   8  10  1   
 17   8  18  1   
 18   8  19  1   
 19   9  20  1   
 20   9  21  1   
 21   9  22  1   
 22  10  23  1   
 23  10  24  1   
 24  10  25  1   
@<TRIPOS>SUBSTRUCTURE
  1 ****   4 GROUP 4 **** **** 0

# MOE 2024.06 (io_trps.svl 2023.06)
