@<TRIPOS>MOLECULE
NONAME
48 50 1 0 0 
SMALL
USER_CHARGES


@<TRIPOS>ATOM
  1 S       -0.2530     0.0010     0.2250 S.o2  1 <1>   1.3330 
  2 O       -0.0770    -0.6170     1.5200 O.2   1 <1>  -0.6500 
  3 O       -0.9910     1.2390     0.1200 O.2   1 <1>  -0.6500 
  4 N       -0.9690    -1.1410    -0.8060 N.am  1 <1>  -0.8490 
  5 C        1.3500     0.2650    -0.5340 C.3   1 <1>  -0.0550 
  6 C       -0.6090    -2.5260    -0.4820 C.3   1 <1>   0.1160 
  7 C       -2.4280    -1.0060    -0.8620 C.3   1 <1>   0.1160 
  8 C        2.1860     1.3510     0.1720 C.3   1 <1>  -0.0800 
  9 C        3.4300     1.6980    -0.6310 C.3   1 <1>   0.2200 
 10 C        2.7640     0.8610     1.5090 C.3   1 <1>   0.1200 
 11 N        3.8210     3.0910    -0.3270 N.am  1 <1>  -0.7300 
 12 C        4.4580     0.7470    -0.0350 C.3   1 <1>   0.1200 
 13 O        4.1340     0.6640     1.3170 O.3   1 <1>  -0.5600 
 14 C        4.1180     4.0380    -1.2580 C.2   1 <1>   0.7150 
 15 O        4.0820     3.7420    -2.4340 O.2   1 <1>  -0.5700 
 16 C        4.4820     5.3600    -0.8320 C.2   1 <1>  -0.2370 
 17 N        4.0850     5.9020     0.3690 N.pl3 1 <1>   0.0330 
 18 C        5.2260     6.3030    -1.4810 C.2   1 <1>  -0.1500 
 19 C        4.5850     7.1700     0.4790 C.ar  1 <1>  -0.1520 
 20 C        5.3100     7.4510    -0.6730 C.ar  1 <1>   0.0000 
 21 C        4.4650     8.1190     1.4970 C.ar  1 <1>  -0.1500 
 22 C        5.9290     8.6980    -0.8140 C.ar  1 <1>  -0.1500 
 23 C        5.0790     9.3400     1.3430 C.ar  1 <1>  -0.1500 
 24 C        5.8150     9.6360     0.1870 C.ar  1 <1>  -0.1440 
 25 C        6.4750    10.9970     0.0630 C.3   1 <1>  -0.0970 
 26 H        1.8960    -0.6580    -0.5520 H     1 <1>   0.0800 
 27 H        1.1850     0.5680    -1.5500 H     1 <1>   0.0800 
 28 H       -1.0140    -3.1960    -1.2220 H     1 <1>   0.0800 
 29 H       -0.9960    -2.7990     0.4860 H     1 <1>   0.0800 
 30 H        0.4610    -2.6400    -0.4710 H     1 <1>   0.0800 
 31 H       -2.8450    -1.7330    -1.5360 H     1 <1>   0.0800 
 32 H       -2.6940    -0.0250    -1.2200 H     1 <1>   0.0800 
 33 H       -2.8540    -1.1430     0.1180 H     1 <1>   0.0800 
 34 H        1.5660     2.2210     0.3130 H     1 <1>   0.0800 
 35 H        3.3080     1.5540    -1.6920 H     1 <1>   0.0800 
 36 H        2.3350    -0.0690     1.8410 H     1 <1>   0.0800 
 37 H        2.6430     1.6020     2.2810 H     1 <1>   0.0800 
 38 H        4.1700     3.2160     0.6230 H     1 <1>   0.3700 
 39 H        5.4680     1.1010    -0.1480 H     1 <1>   0.0800 
 40 H        4.3640    -0.2370    -0.4590 H     1 <1>   0.0800 
 41 H        3.4540     5.4620     1.0450 H     1 <1>   0.2700 
 42 H        5.6810     6.2110    -2.4520 H     1 <1>   0.1500 
 43 H        3.8990     7.8920     2.3820 H     1 <1>   0.1500 
 44 H        6.4850     8.8950    -1.7120 H     1 <1>   0.1500 
 45 H        4.9980    10.0840     2.1160 H     1 <1>   0.1500 
 46 H        7.1740    11.1390     0.8680 H     1 <1>   0.0800 
 47 H        5.7290    11.7700     0.1080 H     1 <1>   0.0800 
 48 H        7.0030    11.0840    -0.8690 H     1 <1>   0.0800 
@<TRIPOS>BOND
  1   1   2  2   
  2   1   3  2   
  3   1   4  am  
  4   1   5  1   
  5   4   6  1   
  6   4   7  1   
  7   5   8  1   
  8   5  26  1   
  9   5  27  1   
 10   6  28  1   
 11   6  29  1   
 12   6  30  1   
 13   7  31  1   
 14   7  32  1   
 15   7  33  1   
 16   8   9  1   
 17   8  10  1   
 18   8  34  1   
 19   9  11  1   
 20   9  12  1   
 21   9  35  1   
 22  10  13  1   
 23  10  36  1   
 24  10  37  1   
 25  11  14  am  
 26  11  38  1   
 27  12  13  1   
 28  12  39  1   
 29  12  40  1   
 30  14  15  2   
 31  14  16  1   
 32  16  17  1   
 33  16  18  2   
 34  17  19  1   
 35  17  41  1   
 36  18  20  1   
 37  18  42  1   
 38  19  20  ar  
 39  19  21  ar  
 40  20  22  ar  
 41  21  23  ar  
 42  21  43  1   
 43  22  24  ar  
 44  22  44  1   
 45  23  24  ar  
 46  23  45  1   
 47  24  25  1   
 48  25  46  1   
 49  25  47  1   
 50  25  48  1   
@<TRIPOS>SUBSTRUCTURE
  1 ****  11 GROUP 4 **** **** 0

# MOE 2024.06 (io_trps.svl 2023.06)
