@<TRIPOS>MOLECULE
NONAME
59 61 1 0 0 
SMALL
USER_CHARGES


@<TRIPOS>ATOM
  1 O       -1.3400    -2.1720    -0.1130 O.2   1 <1>  -0.5700 
  2 C       -0.3040    -2.7830    -0.1080 C.2   1 <1>   0.5690 
  3 N       -0.1550    -3.9290    -0.8040 N.am  1 <1>  -0.7300 
  4 C        0.8810    -2.2940     0.6950 C.3   1 <1>  -0.0990 
  5 C        1.0900    -4.7240    -0.7960 C.3   1 <1>   0.1400 
  6 C        2.1800    -2.4360    -0.1220 C.3   1 <1>  -0.0800 
  7 C        2.3140    -3.7870    -0.8710 C.3   1 <1>  -0.0800 
  8 C        3.4460    -2.2790     0.7330 C.3   1 <1>  -0.1600 
  9 C        3.5960    -4.4360    -0.3340 C.3   1 <1>  -0.1600 
 10 C        4.4480    -3.2540     0.1260 C.3   1 <1>   0.2200 
 11 N        5.5450    -3.6070     1.0790 N.am  1 <1>  -0.6600 
 12 C        6.8260    -3.1110     0.9770 C.2   1 <1>   0.5690 
 13 C        5.2220    -4.5570     2.1910 C.3   1 <1>   0.0600 
 14 O        7.7120    -3.5120     1.6940 O.2   1 <1>  -0.5700 
 15 C        7.1660    -2.0370    -0.0550 C.3   1 <1>  -0.0990 
 16 C        8.5400    -1.3670     0.1450 C.3   1 <1>  -0.1600 
 17 C        8.8010    -0.2850    -0.9100 C.3   1 <1>  -0.0170 
 18 C       10.1560     0.3670    -0.6870 C.ar  1 <1>  -0.1430 
 19 C       11.2900    -0.1510    -1.2910 C.ar  1 <1>  -0.1500 
 20 C       10.2700     1.4840     0.1230 C.ar  1 <1>  -0.1500 
 21 C       12.5300     0.4370    -1.0980 C.ar  1 <1>  -0.1430 
 22 C       11.5010     2.0810     0.3240 C.ar  1 <1>  -0.1500 
 23 C       12.6410     1.5620    -0.2860 C.ar  1 <1>   0.0830 
 24 C       13.7600    -0.1520    -1.7740 C.3   1 <1>  -0.0970 
 25 O       13.8770     2.1060    -0.1270 O.3   1 <1>  -0.3630 
 26 C       14.0910     3.2310     0.6910 C.3   1 <1>   0.1200 
 27 C       15.5790     3.5660     0.6540 C.3   1 <1>  -0.2400 
 28 H       -0.9680    -4.2800    -1.3160 H     1 <1>   0.3700 
 29 H        0.7270    -1.2680     0.9740 H     1 <1>   0.0800 
 30 H        0.9310    -2.8840     1.5910 H     1 <1>   0.0800 
 31 H        1.1130    -5.3000     0.1140 H     1 <1>   0.0800 
 32 H        1.0950    -5.4060    -1.6300 H     1 <1>   0.0800 
 33 H        2.1760    -1.6600    -0.8700 H     1 <1>   0.0800 
 34 H        2.4760    -3.5580    -1.9110 H     1 <1>   0.0800 
 35 H        3.2400    -2.5510     1.7520 H     1 <1>   0.0800 
 36 H        3.8150    -1.2690     0.7050 H     1 <1>   0.0800 
 37 H        4.0980    -5.0120    -1.0910 H     1 <1>   0.0800 
 38 H        3.3450    -5.0730     0.4930 H     1 <1>   0.0800 
 39 H        4.8560    -2.8030    -0.7610 H     1 <1>   0.0800 
 40 H        4.2330    -4.3780     2.5710 H     1 <1>   0.0800 
 41 H        5.9170    -4.4370     3.0060 H     1 <1>   0.0800 
 42 H        5.2900    -5.5680     1.8320 H     1 <1>   0.0800 
 43 H        7.1390    -2.4920    -1.0270 H     1 <1>   0.0800 
 44 H        6.4100    -1.2750    -0.0100 H     1 <1>   0.0800 
 45 H        8.5840    -0.9270     1.1270 H     1 <1>   0.0800 
 46 H        9.3150    -2.1120     0.0880 H     1 <1>   0.0800 
 47 H        8.0330     0.4660    -0.8620 H     1 <1>   0.0800 
 48 H        8.7730    -0.7200    -1.8940 H     1 <1>   0.0800 
 49 H       11.2040    -1.0220    -1.9150 H     1 <1>   0.1500 
 50 H        9.3980     1.8930     0.6030 H     1 <1>   0.1500 
 51 H       11.5510     2.9440     0.9580 H     1 <1>   0.1500 
 52 H       13.5080    -1.0220    -2.3520 H     1 <1>   0.0800 
 53 H       14.4840    -0.4310    -1.0290 H     1 <1>   0.0800 
 54 H       14.2010     0.5800    -2.4250 H     1 <1>   0.0800 
 55 H       13.5070     4.0490     0.3050 H     1 <1>   0.0800 
 56 H       13.7800     2.9880     1.6930 H     1 <1>   0.0800 
 57 H       15.8810     3.7890    -0.3530 H     1 <1>   0.0800 
 58 H       16.1520     2.7350     1.0260 H     1 <1>   0.0800 
 59 H       15.7750     4.4240     1.2710 H     1 <1>   0.0800 
@<TRIPOS>BOND
  1   1   2  2   
  2   2   3  am  
  3   2   4  1   
  4   3   5  1   
  5   3  28  1   
  6   4   6  1   
  7   4  29  1   
  8   4  30  1   
  9   5   7  1   
 10   5  31  1   
 11   5  32  1   
 12   6   7  1   
 13   6   8  1   
 14   6  33  1   
 15   7   9  1   
 16   7  34  1   
 17   8  10  1   
 18   8  35  1   
 19   8  36  1   
 20   9  10  1   
 21   9  37  1   
 22   9  38  1   
 23  10  11  1   
 24  10  39  1   
 25  11  12  am  
 26  11  13  1   
 27  12  14  2   
 28  12  15  1   
 29  13  40  1   
 30  13  41  1   
 31  13  42  1   
 32  15  16  1   
 33  15  43  1   
 34  15  44  1   
 35  16  17  1   
 36  16  45  1   
 37  16  46  1   
 38  17  18  1   
 39  17  47  1   
 40  17  48  1   
 41  18  19  ar  
 42  18  20  ar  
 43  19  21  ar  
 44  19  49  1   
 45  20  22  ar  
 46  20  50  1   
 47  21  23  ar  
 48  21  24  1   
 49  22  23  ar  
 50  22  51  1   
 51  23  25  1   
 52  24  52  1   
 53  24  53  1   
 54  24  54  1   
 55  25  26  1   
 56  26  27  1   
 57  26  55  1   
 58  26  56  1   
 59  27  57  1   
 60  27  58  1   
 61  27  59  1   
@<TRIPOS>SUBSTRUCTURE
  1 ****  15 GROUP 4 **** **** 0

# MOE 2024.06 (io_trps.svl 2023.06)
