@<TRIPOS>MOLECULE
NONAME
53 55 1 0 0 
SMALL
USER_CHARGES


@<TRIPOS>ATOM
  1 O       -0.7940     0.9540     1.3600 O.2   1 <1>  -0.5700 
  2 C       -1.6310     1.3700     0.5900 C.2   1 <1>   0.5690 
  3 N       -2.5660     0.5260     0.0500 N.am  1 <1>  -0.6600 
  4 C       -1.6050     2.8670     0.2290 C.3   1 <1>   0.1710 
  5 C       -3.7620     0.8850    -0.7560 C.3   1 <1>   0.1400 
  6 C       -2.5650    -0.9320     0.3360 C.3   1 <1>   0.1400 
  7 N       -0.2590     3.3490    -0.1990 N.3   1 <1>  -0.8100 
  8 C       -4.7220    -0.2880    -0.5570 C.3   1 <1>   0.2000 
  9 C       -3.7890    -1.4930    -0.3960 C.3   1 <1>  -0.0800 
 10 C       -0.0780     4.8150    -0.1230 C.3   1 <1>   0.1100 
 11 C        0.1970     2.7610    -1.4690 C.3   1 <1>   0.1100 
 12 O       -5.4220    -0.0790     0.6210 O.3   1 <1>  -0.6800 
 13 C       -4.4100    -2.7270     0.2850 C.3   1 <1>  -0.0170 
 14 C        1.4170     5.2000    -0.0530 C.3   1 <1>   0.3430 
 15 C        1.6190     2.2190    -1.2880 C.3   1 <1>  -0.1600 
 16 C       -3.4200    -3.8810     0.3140 C.ar  1 <1>  -0.1440 
 17 N        2.2330     4.0000     0.3040 N.4   1 <1>  -0.9590 
 18 C        2.6740     3.2600    -0.9040 C.3   1 <1>   0.3430 
 19 C       -3.2670    -4.7330    -0.7610 C.ar  1 <1>  -0.1500 
 20 C       -2.6210    -4.1350     1.4110 C.ar  1 <1>  -0.1500 
 21 C        3.3310     4.2780     1.2700 C.3   1 <1>   0.2630 
 22 C       -2.3450    -5.7650    -0.6910 C.ar  1 <1>   0.1600 
 23 C       -1.7290    -5.1940     1.3780 C.ar  1 <1>   0.1600 
 24 N       -1.5710    -6.0140     0.3520 N.ar  1 <1>  -0.6200 
 25 H       -1.9060     3.4010     1.1120 H     1 <1>   0.0800 
 26 H       -2.3170     3.0800    -0.5460 H     1 <1>   0.0800 
 27 H       -4.2080     1.8120    -0.4370 H     1 <1>   0.0800 
 28 H       -3.4800     0.9520    -1.7920 H     1 <1>   0.0800 
 29 H       -1.6540    -1.3890    -0.0130 H     1 <1>   0.0800 
 30 H       -2.6480    -1.0800     1.3990 H     1 <1>   0.0800 
 31 H       -5.4300    -0.3970    -1.3610 H     1 <1>   0.0800 
 32 H       -3.4640    -1.7830    -1.3800 H     1 <1>   0.0800 
 33 H       -0.5530     5.3020    -0.9580 H     1 <1>   0.0800 
 34 H       -0.5500     5.1800     0.7740 H     1 <1>   0.0800 
 35 H       -0.4420     1.9400    -1.7520 H     1 <1>   0.0800 
 36 H        0.1620     3.4890    -2.2620 H     1 <1>   0.0800 
 37 H       -4.7860     0.1020     1.3420 H     1 <1>   0.4000 
 38 H       -5.2920    -3.0270    -0.2540 H     1 <1>   0.0800 
 39 H       -4.7130    -2.4910     1.2900 H     1 <1>   0.0800 
 40 H        1.5410     5.9740     0.6870 H     1 <1>   0.0800 
 41 H        1.7370     5.5970    -1.0020 H     1 <1>   0.0800 
 42 H        1.9240     1.7570    -2.2100 H     1 <1>   0.0800 
 43 H        1.5990     1.4400    -0.5440 H     1 <1>   0.0800 
 44 H        1.5170     3.3670     0.7260 H     1 <1>   0.4500 
 45 H        2.8360     3.9460    -1.7200 H     1 <1>   0.0800 
 46 H        3.6030     2.7500    -0.7030 H     1 <1>   0.0800 
 47 H       -3.8540    -4.6060    -1.6510 H     1 <1>   0.1500 
 48 H       -2.6810    -3.5210     2.2910 H     1 <1>   0.1500 
 49 H        4.0610     4.9360     0.8290 H     1 <1>   0.0800 
 50 H        3.8180     3.3580     1.5530 H     1 <1>   0.0800 
 51 H        2.9360     4.7410     2.1600 H     1 <1>   0.0800 
 52 H       -2.2400    -6.4210    -1.5390 H     1 <1>   0.1500 
 53 H       -1.1130    -5.3750     2.2420 H     1 <1>   0.1500 
@<TRIPOS>BOND
  1   1   2  2   
  2   2   3  am  
  3   2   4  1   
  4   3   5  1   
  5   3   6  1   
  6   4   7  1   
  7   4  25  1   
  8   4  26  1   
  9   5   8  1   
 10   5  27  1   
 11   5  28  1   
 12   6   9  1   
 13   6  29  1   
 14   6  30  1   
 15   7  10  1   
 16   7  11  1   
 17   8   9  1   
 18   8  12  1   
 19   8  31  1   
 20   9  13  1   
 21   9  32  1   
 22  10  14  1   
 23  10  33  1   
 24  10  34  1   
 25  11  15  1   
 26  11  35  1   
 27  11  36  1   
 28  12  37  1   
 29  13  16  1   
 30  13  38  1   
 31  13  39  1   
 32  14  17  1   
 33  14  40  1   
 34  14  41  1   
 35  15  18  1   
 36  15  42  1   
 37  15  43  1   
 38  16  19  ar  
 39  16  20  ar  
 40  17  18  1   
 41  17  21  1   
 42  17  44  1   
 43  18  45  1   
 44  18  46  1   
 45  19  22  ar  
 46  19  47  1   
 47  20  23  ar  
 48  20  48  1   
 49  21  49  1   
 50  21  50  1   
 51  21  51  1   
 52  22  24  ar  
 53  22  52  1   
 54  23  24  ar  
 55  23  53  1   
@<TRIPOS>SUBSTRUCTURE
  1 ****   3 GROUP 4 **** **** 0

# MOE 2024.06 (io_trps.svl 2023.06)
