@<TRIPOS>MOLECULE
NONAME
43 45 1 0 0 
SMALL
USER_CHARGES


@<TRIPOS>ATOM
  1 O       -0.8540     0.5930     1.8540 O.2   1 <1>  -0.5700 
  2 C       -1.2720     1.4450     1.0880 C.2   1 <1>   0.6160 
  3 N       -2.5530     1.3020     0.5860 N.am  1 <1>  -0.6600 
  4 C       -0.4300     2.5730     0.8000 C.2   1 <1>   0.0290 
  5 C       -3.2050    -0.0460     0.6390 C.3   1 <1>   0.1400 
  6 C       -3.2770     2.4450    -0.0480 C.3   1 <1>   0.1400 
  7 C       -0.1310     2.8930    -0.5630 C.2   1 <1>   0.6160 
  8 C        0.1220     3.3480     1.7920 C.2   1 <1>  -0.1500 
  9 C       -4.0840    -0.3680    -0.5750 C.3   1 <1>   0.1400 
 10 C       -4.7720     2.4800     0.2820 C.3   1 <1>  -0.1600 
 11 O       -0.5460     2.2780    -1.5340 O.2   1 <1>  -0.5700 
 12 N        0.6690     3.9750    -0.8180 N.am  1 <1>  -0.5390 
 13 C        0.9440     4.4490     1.4730 C.2   1 <1>  -0.1500 
 14 N       -5.4660     0.1760    -0.4120 N.am  1 <1>  -0.6600 
 15 C       -5.6210     1.6330    -0.6700 C.3   1 <1>   0.1400 
 16 C        1.2070     4.7510     0.1710 C.2   1 <1>  -0.0290 
 17 C       -6.5740    -0.6470    -0.3410 C.2   1 <1>   0.7160 
 18 C        2.0810     5.9120    -0.2560 C.3   1 <1>  -0.1020 
 19 O       -7.6490    -0.2240    -0.7220 O.2   1 <1>  -0.5700 
 20 C       -6.5010    -2.0050     0.1480 C.2   1 <1>  -0.0860 
 21 C       -7.1850    -3.0870    -0.3120 C.2   1 <1>  -0.0100 
 22 C       -5.7350    -2.5190     1.2180 C.2   1 <1>  -0.1500 
 23 O       -6.8820    -4.1710     0.3600 O.3   1 <1>  -0.2800 
 24 C       -6.0110    -3.8370     1.2870 C.2   1 <1>  -0.0100 
 25 H       -3.7820    -0.1200     1.5430 H     1 <1>   0.0800 
 26 H       -2.4350    -0.7970     0.6830 H     1 <1>   0.0800 
 27 H       -3.1350     2.4080    -1.1160 H     1 <1>   0.0800 
 28 H       -2.8450     3.3670     0.3020 H     1 <1>   0.0800 
 29 H       -0.0630     3.1210     2.8280 H     1 <1>   0.1500 
 30 H       -4.1290    -1.4360    -0.6890 H     1 <1>   0.0800 
 31 H       -3.6310     0.0230    -1.4700 H     1 <1>   0.0800 
 32 H       -5.0990     3.4970     0.1640 H     1 <1>   0.0800 
 33 H       -4.9510     2.2080     1.3070 H     1 <1>   0.0800 
 34 H        0.8540     4.1450    -1.8070 H     1 <1>   0.3700 
 35 H        1.3530     5.0330     2.2800 H     1 <1>   0.1500 
 36 H       -5.3590     1.8430    -1.6930 H     1 <1>   0.0800 
 37 H       -6.6520     1.9180    -0.5370 H     1 <1>   0.0800 
 38 H        1.5170     6.5930    -0.8690 H     1 <1>   0.0800 
 39 H        2.9230     5.5510    -0.8180 H     1 <1>   0.0800 
 40 H        2.4470     6.4480     0.6010 H     1 <1>   0.0800 
 41 H       -7.9000    -3.1460    -1.1140 H     1 <1>   0.1500 
 42 H       -5.0790    -1.9470     1.8460 H     1 <1>   0.1500 
 43 H       -5.6460    -4.5990     1.9550 H     1 <1>   0.1500 
@<TRIPOS>BOND
  1   1   2  2   
  2   2   3  am  
  3   2   4  1   
  4   3   5  1   
  5   3   6  1   
  6   4   7  1   
  7   4   8  2   
  8   5   9  1   
  9   5  25  1   
 10   5  26  1   
 11   6  10  1   
 12   6  27  1   
 13   6  28  1   
 14   7  11  2   
 15   7  12  am  
 16   8  13  1   
 17   8  29  1   
 18   9  14  1   
 19   9  30  1   
 20   9  31  1   
 21  10  15  1   
 22  10  32  1   
 23  10  33  1   
 24  12  16  1   
 25  12  34  1   
 26  13  16  2   
 27  13  35  1   
 28  14  15  1   
 29  14  17  am  
 30  15  36  1   
 31  15  37  1   
 32  16  18  1   
 33  17  19  2   
 34  17  20  1   
 35  18  38  1   
 36  18  39  1   
 37  18  40  1   
 38  20  21  2   
 39  20  22  1   
 40  21  23  1   
 41  21  41  1   
 42  22  24  2   
 43  22  42  1   
 44  23  24  1   
 45  24  43  1   
@<TRIPOS>SUBSTRUCTURE
  1 ****   3 GROUP 4 **** **** 0

# MOE 2024.06 (io_trps.svl 2023.06)
