@<TRIPOS>MOLECULE
NONAME
43 44 1 0 0 
SMALL
USER_CHARGES


@<TRIPOS>ATOM
  1 S        0.6460     0.3370    -1.7690 S.o2  1 <1>   1.3330 
  2 O        0.9750    -1.0510    -2.0010 O.2   1 <1>  -0.6500 
  3 O        0.0470     1.1210    -2.8250 O.2   1 <1>  -0.6500 
  4 N       -0.4020     0.4110    -0.4330 N.am  1 <1>  -0.8490 
  5 C        2.1250     1.1710    -1.1880 C.3   1 <1>  -0.0550 
  6 C       -1.1130     1.6900    -0.3210 C.3   1 <1>   0.1160 
  7 C       -1.3680    -0.6920    -0.4280 C.3   1 <1>   0.1160 
  8 C        2.9200     0.3870    -0.1210 C.3   1 <1>  -0.0800 
  9 C        4.2480     1.0140     0.2760 C.3   1 <1>   0.2200 
 10 C        2.2130     0.2120     1.2290 C.3   1 <1>   0.1200 
 11 N        4.1020     2.4760     0.4720 N.am  1 <1>  -0.7300 
 12 C        4.4620     0.3630     1.6350 C.3   1 <1>   0.1200 
 13 O        3.1960     0.3360     2.2180 O.3   1 <1>  -0.5600 
 14 C        4.4900     3.4440    -0.3980 C.2   1 <1>   0.7150 
 15 O        4.9430     3.1010    -1.4720 O.2   1 <1>  -0.5700 
 16 C        4.3260     4.8280    -0.0290 C.2   1 <1>  -0.2370 
 17 N        4.6830     5.9000    -0.8130 N.pl3 1 <1>   0.0480 
 18 C        3.8000     5.3380     1.1330 C.2   1 <1>  -0.1500 
 19 C        4.3770     7.0330    -0.1410 C.2   1 <1>  -0.3020 
 20 C        5.2950     5.8750    -2.1580 C.3   1 <1>   0.0160 
 21 C        3.8270     6.7330     1.0720 C.2   1 <1>   0.0190 
 22 C        3.3610     7.6290     2.0930 C.1   1 <1>   0.5380 
 23 N        2.9830     8.3310     2.9090 N.1   1 <1>  -0.5570 
 24 H        2.7720     1.3290    -2.0300 H     1 <1>   0.0800 
 25 H        1.8580     2.1360    -0.8090 H     1 <1>   0.0800 
 26 H       -1.6880     1.7150     0.5880 H     1 <1>   0.0800 
 27 H       -1.7770     1.8270    -1.1590 H     1 <1>   0.0800 
 28 H       -0.4110     2.5060    -0.3010 H     1 <1>   0.0800 
 29 H       -2.0090    -0.6250     0.4340 H     1 <1>   0.0800 
 30 H       -0.8500    -1.6360    -0.3880 H     1 <1>   0.0800 
 31 H       -1.9700    -0.6660    -1.3210 H     1 <1>   0.0800 
 32 H        3.1250    -0.5970    -0.5080 H     1 <1>   0.0800 
 33 H        5.0430     0.7940    -0.4170 H     1 <1>   0.0800 
 34 H        1.7480    -0.7560     1.3150 H     1 <1>   0.0800 
 35 H        1.4820     0.9820     1.4030 H     1 <1>   0.0800 
 36 H        3.6980     2.7400     1.3700 H     1 <1>   0.3700 
 37 H        5.1420     0.9130     2.2620 H     1 <1>   0.0800 
 38 H        4.8000    -0.6530     1.5260 H     1 <1>   0.0800 
 39 H        3.4200     4.7870     1.9760 H     1 <1>   0.1500 
 40 H        4.5620     8.0130    -0.5450 H     1 <1>   0.1500 
 41 H        5.4740     6.8780    -2.4980 H     1 <1>   0.0800 
 42 H        4.6320     5.3770    -2.8420 H     1 <1>   0.0800 
 43 H        6.2270     5.3410    -2.1150 H     1 <1>   0.0800 
@<TRIPOS>BOND
  1   1   2  2   
  2   1   3  2   
  3   1   4  am  
  4   1   5  1   
  5   4   6  1   
  6   4   7  1   
  7   5   8  1   
  8   5  24  1   
  9   5  25  1   
 10   6  26  1   
 11   6  27  1   
 12   6  28  1   
 13   7  29  1   
 14   7  30  1   
 15   7  31  1   
 16   8   9  1   
 17   8  10  1   
 18   8  32  1   
 19   9  11  1   
 20   9  12  1   
 21   9  33  1   
 22  10  13  1   
 23  10  34  1   
 24  10  35  1   
 25  11  14  am  
 26  11  36  1   
 27  12  13  1   
 28  12  37  1   
 29  12  38  1   
 30  14  15  2   
 31  14  16  1   
 32  16  17  1   
 33  16  18  2   
 34  17  19  1   
 35  17  20  1   
 36  18  21  1   
 37  18  39  1   
 38  19  21  2   
 39  19  40  1   
 40  20  41  1   
 41  20  42  1   
 42  20  43  1   
 43  21  22  1   
 44  22  23  3   
@<TRIPOS>SUBSTRUCTURE
  1 ****  11 GROUP 4 **** **** 0

# MOE 2024.06 (io_trps.svl 2023.06)
