@<TRIPOS>MOLECULE
NONAME
49 53 1 0 0 
SMALL
USER_CHARGES


@<TRIPOS>ATOM
  1 O       -0.7560     5.9180    -1.6470 O.2   1 <1>  -0.5700 
  2 C       -0.4440     4.8500    -1.1550 C.2   1 <1>   0.5440 
  3 N       -1.4370     3.9710    -0.7780 N.am  1 <1>  -0.6600 
  4 C        0.9570     4.5470    -0.9630 C.ar  1 <1>   0.0860 
  5 C       -2.8640     4.1950    -1.1710 C.3   1 <1>   0.1400 
  6 C       -1.2300     2.8980     0.2450 C.3   1 <1>   0.1400 
  7 C        1.8070     5.5350    -0.4240 C.ar  1 <1>   0.1600 
  8 C        1.5240     3.3390    -1.2840 C.ar  1 <1>  -0.1500 
  9 C       -3.7170     4.6360     0.0410 C.3   1 <1>   0.1440 
 10 C       -2.4950     2.6500     1.0860 C.3   1 <1>  -0.1600 
 11 N        3.0740     5.3870    -0.1760 N.ar  1 <1>  -0.6200 
 12 C        2.8900     3.1280    -1.0400 C.ar  1 <1>   0.0000 
 13 C       -5.1680     4.3310    -0.2940 C.ar  1 <1>   0.1670 
 14 C       -3.2530     3.9600     1.3580 C.3   1 <1>  -0.1600 
 15 C       -3.7410     6.1800     0.1880 C.3   1 <1>  -0.1600 
 16 C        3.6340     4.1880    -0.4760 C.ar  1 <1>   0.3100 
 17 C        3.5430     1.9140    -1.3320 C.ar  1 <1>  -0.1500 
 18 N       -5.7220     3.1370    -0.2830 N.ar  1 <1>  -0.6200 
 19 C       -5.8530     5.4590    -0.6340 C.ar  1 <1>  -0.1430 
 20 C       -4.9760     6.6840    -0.5780 C.3   1 <1>  -0.0170 
 21 C        4.9990     3.9870    -0.2200 C.ar  1 <1>  -0.1500 
 22 C        4.8770     1.7500    -1.0710 C.ar  1 <1>  -0.1500 
 23 C       -7.0040     3.1250    -0.6190 C.ar  1 <1>   0.4770 
 24 C       -7.1780     5.3290    -0.9680 C.ar  1 <1>   0.1600 
 25 C        5.6140     2.7970    -0.5080 C.ar  1 <1>  -0.1500 
 26 N       -7.7690     4.1520    -0.9630 N.ar  1 <1>  -0.6200 
 27 C       -7.6740     1.7730    -0.6150 C.3   1 <1>  -0.0970 
 28 H       -3.2500     3.2660    -1.5560 H     1 <1>   0.0800 
 29 H       -2.9370     4.9190    -1.9630 H     1 <1>   0.0800 
 30 H       -0.4330     3.1950     0.9050 H     1 <1>   0.0800 
 31 H       -0.9410     1.9850    -0.2450 H     1 <1>   0.0800 
 32 H        1.3580     6.4890    -0.2000 H     1 <1>   0.1500 
 33 H        0.9370     2.5540    -1.7240 H     1 <1>   0.1500 
 34 H       -2.2180     2.1850     2.0160 H     1 <1>   0.0800 
 35 H       -3.1420     1.9640     0.5670 H     1 <1>   0.0800 
 36 H       -4.1010     3.7730     1.9940 H     1 <1>   0.0800 
 37 H       -2.5860     4.6190     1.8850 H     1 <1>   0.0800 
 38 H       -2.8340     6.6390    -0.1660 H     1 <1>   0.0800 
 39 H       -3.8690     6.4400     1.2240 H     1 <1>   0.0800 
 40 H        2.9730     1.1110    -1.7660 H     1 <1>   0.1500 
 41 H       -4.7060     6.9850    -1.5760 H     1 <1>   0.0800 
 42 H       -5.4550     7.5000    -0.0650 H     1 <1>   0.0800 
 43 H        5.5480     4.8040     0.2100 H     1 <1>   0.1500 
 44 H        5.3740     0.8210    -1.2940 H     1 <1>   0.1500 
 45 H       -7.7590     6.1920    -1.2440 H     1 <1>   0.1500 
 46 H        6.6620     2.6550    -0.3080 H     1 <1>   0.1500 
 47 H       -7.2200     1.1380     0.1230 H     1 <1>   0.0800 
 48 H       -7.5660     1.3230    -1.5840 H     1 <1>   0.0800 
 49 H       -8.7180     1.8790    -0.3890 H     1 <1>   0.0800 
@<TRIPOS>BOND
  1   1   2  2   
  2   2   3  am  
  3   2   4  1   
  4   3   5  1   
  5   3   6  1   
  6   4   7  ar  
  7   4   8  ar  
  8   5   9  1   
  9   5  28  1   
 10   5  29  1   
 11   6  10  1   
 12   6  30  1   
 13   6  31  1   
 14   7  11  ar  
 15   7  32  1   
 16   8  12  ar  
 17   8  33  1   
 18   9  13  1   
 19   9  14  1   
 20   9  15  1   
 21  10  14  1   
 22  10  34  1   
 23  10  35  1   
 24  11  16  ar  
 25  12  16  ar  
 26  12  17  ar  
 27  13  18  ar  
 28  13  19  ar  
 29  14  36  1   
 30  14  37  1   
 31  15  20  1   
 32  15  38  1   
 33  15  39  1   
 34  16  21  ar  
 35  17  22  ar  
 36  17  40  1   
 37  18  23  ar  
 38  19  20  1   
 39  19  24  ar  
 40  20  41  1   
 41  20  42  1   
 42  21  25  ar  
 43  21  43  1   
 44  22  25  ar  
 45  22  44  1   
 46  23  26  ar  
 47  23  27  1   
 48  24  26  ar  
 49  24  45  1   
 50  25  46  1   
 51  27  47  1   
 52  27  48  1   
 53  27  49  1   
@<TRIPOS>SUBSTRUCTURE
  1 ****   3 GROUP 4 **** **** 0

# MOE 2024.06 (io_trps.svl 2023.06)
