@<TRIPOS>MOLECULE
NONAME
49 51 1 0 0 
SMALL
USER_CHARGES


@<TRIPOS>ATOM
  1 O        0.9260     0.4470     1.3280 O.2   1 <1>  -0.5700 
  2 C        1.8580    -0.3150     1.1330 C.2   1 <1>   0.7160 
  3 N        3.1310     0.0930     1.4780 N.am  1 <1>  -0.6600 
  4 C        1.6090    -1.6190     0.5520 C.2   1 <1>  -0.0860 
  5 C        3.3580     1.3310     2.2910 C.3   1 <1>   0.3210 
  6 C        4.3710    -0.6230     1.0560 C.3   1 <1>   0.0600 
  7 C        0.9340    -1.9630    -0.5960 C.2   1 <1>  -0.3320 
  8 C        2.0340    -2.8410     1.1070 C.2   1 <1>  -0.1500 
  9 C        4.2970     2.3200     1.6030 C.2   1 <1>   0.1080 
 10 N        0.9370    -3.3120    -0.7570 N.pl3 1 <1>   0.0480 
 11 C        0.2650    -1.0030    -1.5680 C.3   1 <1>  -0.0600 
 12 C        1.6190    -3.8440     0.2950 C.2   1 <1>  -0.3320 
 13 N        5.5160     2.5230     2.0120 N.2   1 <1>  -0.7070 
 14 C        3.9860     3.0990     0.4870 C.2   1 <1>  -0.1810 
 15 C        0.3170    -4.0900    -1.8480 C.3   1 <1>   0.0160 
 16 C        1.8450    -5.3330     0.4900 C.3   1 <1>  -0.0600 
 17 N        6.0110     3.4410     1.1630 N.pl3 1 <1>   0.3000 
 18 C        5.1070     3.8030     0.2310 C.2   1 <1>  -0.3320 
 19 C        2.6790     3.1400    -0.2840 C.3   1 <1>   0.0210 
 20 C        5.3770     4.8120    -0.8690 C.3   1 <1>   0.0200 
 21 C        2.1430     4.5690    -0.4440 C.3   1 <1>  -0.1600 
 22 C        4.3080     5.9100    -0.9100 C.3   1 <1>  -0.1600 
 23 C        2.9380     5.4420    -1.4310 C.3   1 <1>  -0.1600 
 24 H        3.7930     1.0470     3.2320 H     1 <1>   0.0800 
 25 H        2.4310     1.8310     2.5040 H     1 <1>   0.0800 
 26 H        4.1500    -1.4030     0.3500 H     1 <1>   0.0800 
 27 H        4.8520    -1.0520     1.9170 H     1 <1>   0.0800 
 28 H        5.0530     0.0640     0.5840 H     1 <1>   0.0800 
 29 H        2.5890    -2.9240     2.0250 H     1 <1>   0.1500 
 30 H        0.4090     0.0160    -1.2560 H     1 <1>   0.0800 
 31 H       -0.7920    -1.1960    -1.6060 H     1 <1>   0.0800 
 32 H        0.6830    -1.1180    -2.5510 H     1 <1>   0.0800 
 33 H       -0.1850    -3.4350    -2.5330 H     1 <1>   0.0800 
 34 H       -0.3940    -4.7760    -1.4280 H     1 <1>   0.0800 
 35 H        1.0810    -4.6340    -2.3700 H     1 <1>   0.0800 
 36 H        2.4100    -5.5070     1.3880 H     1 <1>   0.0800 
 37 H        2.3930    -5.7380    -0.3420 H     1 <1>   0.0800 
 38 H        0.9020    -5.8430     0.5750 H     1 <1>   0.0800 
 39 H        6.9690     3.8000     1.2450 H     1 <1>   0.2700 
 40 H        1.9390     2.5640     0.2390 H     1 <1>   0.0800 
 41 H        2.8200     2.6850    -1.2470 H     1 <1>   0.0800 
 42 H        5.4200     4.3040    -1.8160 H     1 <1>   0.0800 
 43 H        6.3350     5.2720    -0.7010 H     1 <1>   0.0800 
 44 H        2.1060     5.0450     0.5200 H     1 <1>   0.0800 
 45 H        1.1320     4.4980    -0.8050 H     1 <1>   0.0800 
 46 H        4.6620     6.6880    -1.5640 H     1 <1>   0.0800 
 47 H        4.1980     6.3400     0.0700 H     1 <1>   0.0800 
 48 H        2.3500     6.3200    -1.6320 H     1 <1>   0.0800 
 49 H        3.0580     4.9210    -2.3650 H     1 <1>   0.0800 
@<TRIPOS>BOND
  1   1   2  2   
  2   2   3  am  
  3   2   4  1   
  4   3   5  1   
  5   3   6  1   
  6   4   7  2   
  7   4   8  1   
  8   5   9  1   
  9   5  24  1   
 10   5  25  1   
 11   6  26  1   
 12   6  27  1   
 13   6  28  1   
 14   7  10  1   
 15   7  11  1   
 16   8  12  2   
 17   8  29  1   
 18   9  13  2   
 19   9  14  1   
 20  10  12  1   
 21  10  15  1   
 22  11  30  1   
 23  11  31  1   
 24  11  32  1   
 25  12  16  1   
 26  13  17  1   
 27  14  18  2   
 28  14  19  1   
 29  15  33  1   
 30  15  34  1   
 31  15  35  1   
 32  16  36  1   
 33  16  37  1   
 34  16  38  1   
 35  17  18  1   
 36  17  39  1   
 37  18  20  1   
 38  19  21  1   
 39  19  40  1   
 40  19  41  1   
 41  20  22  1   
 42  20  42  1   
 43  20  43  1   
 44  21  23  1   
 45  21  44  1   
 46  21  45  1   
 47  22  23  1   
 48  22  46  1   
 49  22  47  1   
 50  23  48  1   
 51  23  49  1   
@<TRIPOS>SUBSTRUCTURE
  1 ****   3 GROUP 4 **** **** 0

# MOE 2024.06 (io_trps.svl 2023.06)
