@<TRIPOS>MOLECULE
NONAME
40 40 1 0 0 
SMALL
USER_CHARGES


@<TRIPOS>ATOM
  1 F       -3.9750     0.7790     1.9420 F     1 <1>  -0.3400 
  2 C       -3.1120     0.1820     1.1230 C.3   1 <1>   1.0810 
  3 F       -1.8960     0.4720     1.5800 F     1 <1>  -0.3400 
  4 F       -3.2200     0.8230    -0.0420 F     1 <1>  -0.3400 
  5 C       -3.3670    -1.3590     0.9650 C.2   1 <1>   0.5690 
  6 O       -3.3050    -2.0860     1.9340 O.2   1 <1>  -0.5700 
  7 N       -3.6640    -1.9070    -0.2650 N.am  1 <1>  -0.7300 
  8 C       -3.9220    -3.3360    -0.6000 C.3   1 <1>   0.5000 
  9 C       -4.3190    -3.3960    -2.0530 C.1   1 <1>   0.3570 
 10 C       -5.0840    -3.8900     0.2640 C.3   1 <1>  -0.1600 
 11 C       -2.6060    -4.1210    -0.4180 C.3   1 <1>  -0.1600 
 12 N       -4.5960    -3.3990    -3.1570 N.1   1 <1>  -0.5570 
 13 C       -4.6290    -4.9790     1.2340 C.3   1 <1>   0.1400 
 14 C       -2.8380    -5.6340    -0.4650 C.3   1 <1>   0.1400 
 15 N       -3.9330    -6.0420     0.4570 N.am  1 <1>  -0.6600 
 16 C       -4.2830    -7.3630     0.5860 C.2   1 <1>   0.7800 
 17 O       -5.1750    -7.7270     1.3260 O.2   1 <1>  -0.5700 
 18 O       -3.5960    -8.2400    -0.1510 O.3   1 <1>  -0.4300 
 19 C       -3.7730    -9.6400    -0.2030 C.3   1 <1>   0.2800 
 20 C       -5.1730    -9.9800    -0.7260 C.3   1 <1>  -0.2400 
 21 C       -2.7280   -10.1360    -1.2040 C.3   1 <1>  -0.2400 
 22 C       -3.4920   -10.2620     1.1700 C.3   1 <1>  -0.2400 
 23 H       -3.7220    -1.2870    -1.0820 H     1 <1>   0.3700 
 24 H       -5.8420    -4.3310    -0.3620 H     1 <1>   0.0800 
 25 H       -5.5620    -3.1030     0.8180 H     1 <1>   0.0800 
 26 H       -2.1560    -3.8920     0.5310 H     1 <1>   0.0800 
 27 H       -1.9000    -3.8490    -1.1830 H     1 <1>   0.0800 
 28 H       -5.4840    -5.3820     1.7520 H     1 <1>   0.0800 
 29 H       -3.9560    -4.5780     1.9730 H     1 <1>   0.0800 
 30 H       -1.9330    -6.1490    -0.1890 H     1 <1>   0.0800 
 31 H       -3.0990    -5.9360    -1.4660 H     1 <1>   0.0800 
 32 H       -5.3610    -9.4700    -1.6530 H     1 <1>   0.0800 
 33 H       -5.9300    -9.7090    -0.0130 H     1 <1>   0.0800 
 34 H       -5.2540   -11.0380    -0.8960 H     1 <1>   0.0800 
 35 H       -2.8950    -9.6910    -2.1680 H     1 <1>   0.0800 
 36 H       -2.7880   -11.2040    -1.3090 H     1 <1>   0.0800 
 37 H       -1.7390    -9.8840    -0.8660 H     1 <1>   0.0800 
 38 H       -4.2490    -9.9900     1.8810 H     1 <1>   0.0800 
 39 H       -2.5330    -9.9440     1.5350 H     1 <1>   0.0800 
 40 H       -3.4900   -11.3340     1.0930 H     1 <1>   0.0800 
@<TRIPOS>BOND
  1   1   2  1   
  2   2   3  1   
  3   2   4  1   
  4   2   5  1   
  5   5   6  2   
  6   5   7  am  
  7   7   8  1   
  8   7  23  1   
  9   8   9  1   
 10   8  10  1   
 11   8  11  1   
 12   9  12  3   
 13  10  13  1   
 14  10  24  1   
 15  10  25  1   
 16  11  14  1   
 17  11  26  1   
 18  11  27  1   
 19  13  15  1   
 20  13  28  1   
 21  13  29  1   
 22  14  15  1   
 23  14  30  1   
 24  14  31  1   
 25  15  16  am  
 26  16  17  2   
 27  16  18  1   
 28  18  19  1   
 29  19  20  1   
 30  19  21  1   
 31  19  22  1   
 32  20  32  1   
 33  20  33  1   
 34  20  34  1   
 35  21  35  1   
 36  21  36  1   
 37  21  37  1   
 38  22  38  1   
 39  22  39  1   
 40  22  40  1   
@<TRIPOS>SUBSTRUCTURE
  1 ****  11 GROUP 4 **** **** 0

# MOE 2024.06 (io_trps.svl 2023.06)
