@<TRIPOS>MOLECULE
NONAME
41 43 1 0 0 
SMALL
USER_CHARGES


@<TRIPOS>ATOM
  1 O       -0.4640     0.2800     0.1340 O.2   1 <1>  -0.5700 
  2 C       -1.5210     0.8880     0.1630 C.2   1 <1>   0.5440 
  3 N       -2.6740     0.1220     0.1250 N.am  1 <1>  -0.6600 
  4 C       -1.4950     2.3550     0.2140 C.ar  1 <1>   0.3960 
  5 C       -4.0680     0.6170    -0.0060 C.3   1 <1>   0.1400 
  6 C       -2.6480    -1.3620     0.1240 C.3   1 <1>   0.1400 
  7 N       -2.5510     3.0690     0.6480 N.ar  1 <1>  -0.6200 
  8 C       -0.3250     3.0040    -0.2020 C.ar  1 <1>   0.1600 
  9 C       -4.8990    -0.6260    -0.3220 C.3   1 <1>   0.2000 
 10 C       -4.1090    -1.7940     0.2590 C.3   1 <1>  -0.0800 
 11 C       -2.3510     4.3730     0.6310 C.ar  1 <1>   0.1600 
 12 N       -0.1270     4.3130    -0.2250 N.ar  1 <1>  -0.6200 
 13 O       -6.1580    -0.5630     0.2520 O.3   1 <1>  -0.6800 
 14 C       -4.4190    -3.1360    -0.4210 C.3   1 <1>   0.0210 
 15 C       -1.1760     4.9850     0.2070 C.ar  1 <1>   0.1670 
 16 C       -3.5070    -4.2320     0.0950 C.2   1 <1>   0.1080 
 17 C       -1.0370     6.4940     0.2200 C.3   1 <1>  -0.0970 
 18 N       -3.4670    -4.5850     1.3420 N.2   1 <1>  -0.7070 
 19 C       -2.6170    -4.9600    -0.6870 C.2   1 <1>  -0.1500 
 20 N       -2.5400    -5.5610     1.3890 N.pl3 1 <1>   0.3000 
 21 C       -2.0100    -5.8050     0.1720 C.2   1 <1>  -0.3320 
 22 C       -0.9380    -6.8450    -0.0980 C.3   1 <1>  -0.0600 
 23 H       -4.3750     1.0540     0.9290 H     1 <1>   0.0800 
 24 H       -4.1430     1.3410    -0.7980 H     1 <1>   0.0800 
 25 H       -2.2270    -1.7040    -0.8060 H     1 <1>   0.0800 
 26 H       -2.0530    -1.7380     0.9400 H     1 <1>   0.0800 
 27 H        0.4960     2.3940    -0.5380 H     1 <1>   0.1500 
 28 H       -5.0160    -0.7200    -1.3890 H     1 <1>   0.0800 
 29 H       -4.3120    -1.8800     1.3130 H     1 <1>   0.0800 
 30 H       -3.1610     4.9940     0.9710 H     1 <1>   0.1500 
 31 H       -6.0830    -0.5880     1.2260 H     1 <1>   0.4000 
 32 H       -4.2990    -3.0470    -1.4850 H     1 <1>   0.0800 
 33 H       -5.4390    -3.4120    -0.2200 H     1 <1>   0.0800 
 34 H       -1.9310     6.9660     0.5830 H     1 <1>   0.0800 
 35 H       -0.8360     6.8450    -0.7760 H     1 <1>   0.0800 
 36 H       -0.2150     6.7720     0.8550 H     1 <1>   0.0800 
 37 H       -2.4650    -4.8520    -1.7460 H     1 <1>   0.1500 
 38 H       -2.2930    -6.0370     2.2650 H     1 <1>   0.2700 
 39 H       -0.6810    -6.8480    -1.1420 H     1 <1>   0.0800 
 40 H       -1.2940    -7.8240     0.1700 H     1 <1>   0.0800 
 41 H       -0.0530    -6.6240     0.4720 H     1 <1>   0.0800 
@<TRIPOS>BOND
  1   1   2  2   
  2   2   3  am  
  3   2   4  1   
  4   3   5  1   
  5   3   6  1   
  6   4   7  ar  
  7   4   8  ar  
  8   5   9  1   
  9   5  23  1   
 10   5  24  1   
 11   6  10  1   
 12   6  25  1   
 13   6  26  1   
 14   7  11  ar  
 15   8  12  ar  
 16   8  27  1   
 17   9  10  1   
 18   9  13  1   
 19   9  28  1   
 20  10  14  1   
 21  10  29  1   
 22  11  15  ar  
 23  11  30  1   
 24  12  15  ar  
 25  13  31  1   
 26  14  16  1   
 27  14  32  1   
 28  14  33  1   
 29  15  17  1   
 30  16  18  2   
 31  16  19  1   
 32  17  34  1   
 33  17  35  1   
 34  17  36  1   
 35  18  20  1   
 36  19  21  2   
 37  19  37  1   
 38  20  21  1   
 39  20  38  1   
 40  21  22  1   
 41  22  39  1   
 42  22  40  1   
 43  22  41  1   
@<TRIPOS>SUBSTRUCTURE
  1 ****   3 GROUP 4 **** **** 0

# MOE 2024.06 (io_trps.svl 2023.06)
