@<TRIPOS>MOLECULE
NONAME
53 57 1 0 0 
SMALL
USER_CHARGES


@<TRIPOS>ATOM
  1 N        0.1850     0.2030     0.1320 N.ar  1 <1>  -0.6200 
  2 C       -0.8130     0.9970     0.5510 C.ar  1 <1>   0.6200 
  3 C        1.0030     0.7410    -0.7380 C.ar  1 <1>   0.1660 
  4 N       -1.0080     2.2630     0.1560 N.ar  1 <1>  -0.6200 
  5 C       -1.7500     0.4420     1.5150 C.ar  1 <1>   0.0000 
  6 C        0.8810     2.0150    -1.1950 C.ar  1 <1>  -0.1430 
  7 C        2.1970     0.0370    -1.3370 C.3   1 <1>   0.1440 
  8 C       -0.1620     2.7630    -0.7160 C.ar  1 <1>   0.1600 
  9 C       -2.3220     1.2320     2.5160 C.ar  1 <1>  -0.1500 
 10 C       -2.1200    -0.9050     1.4850 C.ar  1 <1>  -0.1500 
 11 C        1.9700     2.3630    -2.1790 C.3   1 <1>  -0.0160 
 12 C        2.9960    -0.6210    -0.2000 C.3   1 <1>   0.3430 
 13 C        1.7360    -1.0300    -2.3540 C.3   1 <1>  -0.1600 
 14 C        2.9700     1.2010    -2.0160 C.3   1 <1>  -0.1600 
 15 C       -3.2090     0.7080     3.4390 C.ar  1 <1>  -0.1500 
 16 C       -3.0070    -1.4360     2.4030 C.ar  1 <1>  -0.1500 
 17 N        4.1220    -1.4560    -0.7320 N.4   1 <1>  -0.9590 
 18 C        2.8960    -1.9350    -2.8130 C.3   1 <1>  -0.1600 
 19 C       -3.5540    -0.6300     3.3840 C.ar  1 <1>  -0.1500 
 20 C        3.6630    -2.5430    -1.6350 C.3   1 <1>   0.3430 
 21 C        5.0270    -1.8990     0.3590 C.3   1 <1>   0.5230 
 22 C        5.9670    -0.7360     0.6510 C.2   1 <1>   0.0060 
 23 N        6.7420    -0.6610     1.7590 N.pl3 1 <1>   0.0330 
 24 N        6.1070     0.2810    -0.1460 N.2   1 <1>  -0.5650 
 25 C        7.4130     0.4980     1.6400 C.2   1 <1>  -0.3320 
 26 C        7.0160     1.0560     0.4750 C.2   1 <1>   0.0770 
 27 C        8.4110     1.0030     2.6670 C.3   1 <1>  -0.0600 
 28 H       -0.3060     3.7790    -1.0450 H     1 <1>   0.1500 
 29 H       -2.0660     2.2760     2.5710 H     1 <1>   0.1500 
 30 H       -1.7090    -1.5460     0.7250 H     1 <1>   0.1500 
 31 H        2.4250     3.3130    -1.9520 H     1 <1>   0.0800 
 32 H        1.5640     2.3830    -3.1760 H     1 <1>   0.0800 
 33 H        2.3260    -1.2360     0.3780 H     1 <1>   0.0800 
 34 H        3.3810     0.1530     0.4450 H     1 <1>   0.0800 
 35 H        1.2780    -0.5540    -3.2060 H     1 <1>   0.0800 
 36 H        0.9810    -1.6450    -1.8920 H     1 <1>   0.0800 
 37 H        3.4010     0.9280    -2.9620 H     1 <1>   0.0800 
 38 H        3.7630     1.5360    -1.3680 H     1 <1>   0.0800 
 39 H       -3.6330     1.3420     4.1980 H     1 <1>   0.1500 
 40 H       -3.2750    -2.4780     2.3550 H     1 <1>   0.1500 
 41 H        4.7320    -0.7980    -1.2530 H     1 <1>   0.4500 
 42 H        3.5800    -1.3800    -3.4320 H     1 <1>   0.0800 
 43 H        2.5000    -2.7320    -3.4180 H     1 <1>   0.0800 
 44 H       -4.2450    -1.0400     4.1010 H     1 <1>   0.1500 
 45 H        3.0170    -3.2170    -1.0960 H     1 <1>   0.0800 
 46 H        4.5090    -3.1000    -2.0060 H     1 <1>   0.0800 
 47 H        5.6110    -2.7460     0.0380 H     1 <1>   0.0800 
 48 H        4.4620    -2.1670     1.2360 H     1 <1>   0.0800 
 49 H        6.8260    -1.3250     2.5370 H     1 <1>   0.2700 
 50 H        7.3460     1.9910     0.0490 H     1 <1>   0.1500 
 51 H        9.2210     0.3040     2.7780 H     1 <1>   0.0800 
 52 H        7.9320     1.1390     3.6200 H     1 <1>   0.0800 
 53 H        8.8190     1.9480     2.3540 H     1 <1>   0.0800 
@<TRIPOS>BOND
  1   1   2  ar  
  2   1   3  ar  
  3   2   4  ar  
  4   2   5  1   
  5   3   6  ar  
  6   3   7  1   
  7   4   8  ar  
  8   5   9  ar  
  9   5  10  ar  
 10   6   8  ar  
 11   6  11  1   
 12   7  12  1   
 13   7  13  1   
 14   7  14  1   
 15   8  28  1   
 16   9  15  ar  
 17   9  29  1   
 18  10  16  ar  
 19  10  30  1   
 20  11  14  1   
 21  11  31  1   
 22  11  32  1   
 23  12  17  1   
 24  12  33  1   
 25  12  34  1   
 26  13  18  1   
 27  13  35  1   
 28  13  36  1   
 29  14  37  1   
 30  14  38  1   
 31  15  19  ar  
 32  15  39  1   
 33  16  19  ar  
 34  16  40  1   
 35  17  20  1   
 36  17  21  1   
 37  17  41  1   
 38  18  20  1   
 39  18  42  1   
 40  18  43  1   
 41  19  44  1   
 42  20  45  1   
 43  20  46  1   
 44  21  22  1   
 45  21  47  1   
 46  21  48  1   
 47  22  23  1   
 48  22  24  2   
 49  23  25  1   
 50  23  49  1   
 51  24  26  1   
 52  25  26  2   
 53  25  27  1   
 54  26  50  1   
 55  27  51  1   
 56  27  52  1   
 57  27  53  1   
@<TRIPOS>SUBSTRUCTURE
  1 ****  12 GROUP 4 **** **** 0

# MOE 2024.06 (io_trps.svl 2023.06)
