@<TRIPOS>MOLECULE
NONAME
44 45 1 0 0 
SMALL
USER_CHARGES


@<TRIPOS>ATOM
  1 F       -0.2210     0.6690     0.1770 F     1 <1>  -0.1900 
  2 C       -1.5130     0.8760     0.1700 C.ar  1 <1>   0.1900 
  3 C       -2.1020     1.8660    -0.6250 C.ar  1 <1>   0.0830 
  4 C       -2.2700     0.0650     0.9940 C.ar  1 <1>  -0.1500 
  5 O       -1.4670     2.7240    -1.4740 O.3   1 <1>  -0.3630 
  6 C       -3.4790     2.0070    -0.5590 C.ar  1 <1>  -0.1500 
  7 C       -3.6420     0.2350     1.0360 C.ar  1 <1>  -0.1500 
  8 C       -0.0750     2.6930    -1.7000 C.3   1 <1>   0.0400 
  9 C       -4.2770     1.2050     0.2580 C.ar  1 <1>   0.0530 
 10 C       -5.7050     1.3970     0.3000 C.2   1 <1>   0.0870 
 11 O       -6.1840     2.6150     0.2960 O.3   1 <1>  -0.0190 
 12 C       -6.7710     0.5510     0.3550 C.2   1 <1>  -0.0860 
 13 N       -7.4870     2.6530     0.3550 N.2   1 <1>  -0.4100 
 14 C       -7.8680     1.4250     0.3920 C.2   1 <1>   0.3720 
 15 C       -6.8350    -0.8810     0.3590 C.2   1 <1>   0.7160 
 16 N       -9.2210     1.0490     0.4370 N.pl3 1 <1>  -0.8210 
 17 O       -5.8670    -1.5650     0.0890 O.2   1 <1>  -0.5700 
 18 N       -8.0020    -1.5090     0.6690 N.am  1 <1>  -0.7300 
 19 C      -10.0510     1.8860     1.3510 C.3   1 <1>   0.1290 
 20 C       -9.8280     0.9670    -0.9200 C.3   1 <1>   0.1290 
 21 C       -8.2790    -2.9560     0.6160 C.3   1 <1>   0.1400 
 22 C       -9.5750    -3.1810    -0.1590 C.3   1 <1>  -0.1600 
 23 C       -9.8820    -4.6730    -0.2670 C.3   1 <1>   0.1200 
 24 O      -11.0580    -4.8250    -0.9760 O.3   1 <1>  -0.6800 
 25 H       -1.7910    -0.6880     1.5930 H     1 <1>   0.1500 
 26 H       -3.9440     2.7650    -1.1650 H     1 <1>   0.1500 
 27 H       -4.2290    -0.3950     1.6800 H     1 <1>   0.1500 
 28 H        0.1630     3.4500    -2.4240 H     1 <1>   0.0800 
 29 H        0.1960     1.7250    -2.0830 H     1 <1>   0.0800 
 30 H        0.4350     2.9000    -0.7760 H     1 <1>   0.0800 
 31 H       -8.8020    -0.8740     0.8130 H     1 <1>   0.3700 
 32 H       -9.5520     1.9960     2.2990 H     1 <1>   0.0800 
 33 H      -11.0060     1.4180     1.5150 H     1 <1>   0.0800 
 34 H      -10.2020     2.8640     0.9260 H     1 <1>   0.0800 
 35 H       -9.2340     0.3260    -1.5500 H     1 <1>   0.0800 
 36 H       -9.8690     1.9470    -1.3660 H     1 <1>   0.0800 
 37 H      -10.8230     0.5630    -0.8570 H     1 <1>   0.0800 
 38 H       -8.3720    -3.3340     1.6200 H     1 <1>   0.0800 
 39 H       -7.4630    -3.4670     0.1310 H     1 <1>   0.0800 
 40 H       -9.4660    -2.7760    -1.1500 H     1 <1>   0.0800 
 41 H      -10.3820    -2.6830     0.3490 H     1 <1>   0.0800 
 42 H      -10.0090    -5.1240     0.7030 H     1 <1>   0.0800 
 43 H       -9.1040    -5.1890    -0.8040 H     1 <1>   0.0800 
 44 H      -11.8050    -4.4110    -0.5030 H     1 <1>   0.4000 
@<TRIPOS>BOND
  1   1   2  1   
  2   2   3  ar  
  3   2   4  ar  
  4   3   5  1   
  5   3   6  ar  
  6   4   7  ar  
  7   4  25  1   
  8   5   8  1   
  9   6   9  ar  
 10   6  26  1   
 11   7   9  ar  
 12   7  27  1   
 13   8  28  1   
 14   8  29  1   
 15   8  30  1   
 16   9  10  1   
 17  10  11  1   
 18  10  12  2   
 19  11  13  1   
 20  12  14  1   
 21  12  15  1   
 22  13  14  2   
 23  14  16  1   
 24  15  17  2   
 25  15  18  am  
 26  16  19  1   
 27  16  20  1   
 28  18  21  1   
 29  18  31  1   
 30  19  32  1   
 31  19  33  1   
 32  19  34  1   
 33  20  35  1   
 34  20  36  1   
 35  20  37  1   
 36  21  22  1   
 37  21  38  1   
 38  21  39  1   
 39  22  23  1   
 40  22  40  1   
 41  22  41  1   
 42  23  24  1   
 43  23  42  1   
 44  23  43  1   
 45  24  44  1   
@<TRIPOS>SUBSTRUCTURE
  1 ****  12 GROUP 4 **** **** 0

# MOE 2024.06 (io_trps.svl 2023.06)
