@<TRIPOS>MOLECULE
NONAME
47 48 1 0 0 
SMALL
USER_CHARGES


@<TRIPOS>ATOM
  1 CL      -1.2370    -0.1120    -2.3560 Cl    1 <1>  -0.1770 
  2 C       -1.1200    -1.7470    -1.7570 C.ar  1 <1>   0.1770 
  3 C       -2.1890    -2.6080    -1.9250 C.ar  1 <1>  -0.1500 
  4 C        0.0400    -2.1570    -1.1250 C.ar  1 <1>  -0.1500 
  5 C       -2.1000    -3.9060    -1.4510 C.ar  1 <1>  -0.1500 
  6 C        0.1270    -3.4550    -0.6520 C.ar  1 <1>  -0.1500 
  7 C       -0.9370    -4.3340    -0.8090 C.ar  1 <1>   0.0830 
  8 O       -0.7670    -5.5850    -0.3140 O.3   1 <1>  -0.3630 
  9 C       -1.8170    -6.5250    -0.3350 C.3   1 <1>   0.1200 
 10 C       -1.2960    -7.8270     0.2750 C.3   1 <1>   0.3430 
 11 N       -2.4040    -8.7980     0.4670 N.4   1 <1>  -0.9590 
 12 C       -1.9810   -10.2100     0.2490 C.3   1 <1>   0.3430 
 13 C       -3.2090    -8.6060     1.7030 C.3   1 <1>   0.3430 
 14 C       -3.2100   -11.1140     0.1040 C.3   1 <1>  -0.1060 
 15 C       -4.4340    -9.5170     1.6810 C.3   1 <1>  -0.1600 
 16 C       -4.0490   -10.6120    -1.0770 C.2   1 <1>   0.9060 
 17 C       -4.0400   -10.9700     1.3970 C.3   1 <1>   0.2000 
 18 C       -2.7570   -12.5780    -0.1630 C.3   1 <1>  -0.1600 
 19 O       -5.1250   -11.1630    -1.3100 O.co2 1 <1>  -0.9000 
 20 O       -3.6880    -9.5940    -1.6890 O.co2 1 <1>  -0.9000 
 21 O       -5.1990   -11.7030     1.2960 O.3   1 <1>  -0.6800 
 22 C       -1.8860   -13.2170     0.9340 C.3   1 <1>  -0.1600 
 23 C       -1.4700   -14.6340     0.5320 C.3   1 <1>  -0.2400 
 24 H       -3.0770    -2.2590    -2.4220 H     1 <1>   0.1500 
 25 H        0.8570    -1.4690    -1.0090 H     1 <1>   0.1500 
 26 H       -2.9400    -4.5600    -1.5950 H     1 <1>   0.1500 
 27 H        1.0220    -3.7900    -0.1600 H     1 <1>   0.1500 
 28 H       -2.6320    -6.1250     0.2420 H     1 <1>   0.0800 
 29 H       -2.1140    -6.6880    -1.3570 H     1 <1>   0.0800 
 30 H       -0.8200    -7.6240     1.2200 H     1 <1>   0.0800 
 31 H       -0.5660    -8.2420    -0.4010 H     1 <1>   0.0800 
 32 H       -3.0500    -8.6830    -0.3620 H     1 <1>   0.4500 
 33 H       -1.4070   -10.2750    -0.6620 H     1 <1>   0.0800 
 34 H       -1.3700   -10.5430     1.0690 H     1 <1>   0.0800 
 35 H       -2.6050    -8.8380     2.5650 H     1 <1>   0.0800 
 36 H       -3.5320    -7.5810     1.7790 H     1 <1>   0.0800 
 37 H       -5.1240    -9.1640     0.9330 H     1 <1>   0.0800 
 38 H       -4.9280    -9.4650     2.6350 H     1 <1>   0.0800 
 39 H       -3.4970   -11.3550     2.2420 H     1 <1>   0.0800 
 40 H       -3.6360   -13.1880    -0.3000 H     1 <1>   0.0800 
 41 H       -2.2210   -12.6040    -1.0970 H     1 <1>   0.0800 
 42 H       -5.5040   -11.6500     0.3420 H     1 <1>   0.4000 
 43 H       -0.9970   -12.6380     1.1070 H     1 <1>   0.0800 
 44 H       -2.4400   -13.2770     1.8550 H     1 <1>   0.0800 
 45 H       -0.8950   -14.6170    -0.3780 H     1 <1>   0.0800 
 46 H       -2.3400   -15.2490     0.3770 H     1 <1>   0.0800 
 47 H       -0.8730   -15.0800     1.3070 H     1 <1>   0.0800 
@<TRIPOS>BOND
  1   1   2  1   
  2   2   3  ar  
  3   2   4  ar  
  4   3   5  ar  
  5   3  24  1   
  6   4   6  ar  
  7   4  25  1   
  8   5   7  ar  
  9   5  26  1   
 10   6   7  ar  
 11   6  27  1   
 12   7   8  1   
 13   8   9  1   
 14   9  10  1   
 15   9  28  1   
 16   9  29  1   
 17  10  11  1   
 18  10  30  1   
 19  10  31  1   
 20  11  12  1   
 21  11  13  1   
 22  11  32  1   
 23  12  14  1   
 24  12  33  1   
 25  12  34  1   
 26  13  15  1   
 27  13  35  1   
 28  13  36  1   
 29  14  16  1   
 30  14  17  1   
 31  14  18  1   
 32  15  17  1   
 33  15  37  1   
 34  15  38  1   
 35  16  19  ar  
 36  16  20  ar  
 37  17  21  1   
 38  17  39  1   
 39  18  22  1   
 40  18  40  1   
 41  18  41  1   
 42  21  42  1   
 43  22  23  1   
 44  22  43  1   
 45  22  44  1   
 46  23  45  1   
 47  23  46  1   
 48  23  47  1   
@<TRIPOS>SUBSTRUCTURE
  1 ****  11 GROUP 4 **** **** 0

# MOE 2024.06 (io_trps.svl 2023.06)
