@<TRIPOS>MOLECULE
NONAME
42 44 1 0 0 
SMALL
USER_CHARGES


@<TRIPOS>ATOM
  1 CL      -2.8730     1.4330     1.9330 Cl    1 <1>  -0.1770 
  2 C       -2.2430     1.6960     0.3130 C.ar  1 <1>   0.1770 
  3 C       -1.7100     2.9690    -0.0070 C.ar  1 <1>   0.4100 
  4 C       -2.2550     0.7150    -0.6310 C.ar  1 <1>   0.2170 
  5 N       -1.2220     3.2240    -1.2070 N.ar  1 <1>  -0.6200 
  6 N       -1.6690     3.9710     0.9020 N.pl3 1 <1>  -0.8690 
  7 N       -1.7350     1.0330    -1.8490 N.ar  1 <1>  -0.1790 
  8 C       -2.7950    -0.6960    -0.4330 C.3   1 <1>  -0.0970 
  9 C       -1.2360     2.2590    -2.0990 C.ar  1 <1>   0.7710 
 10 C       -1.2080     5.3580     0.6350 C.3   1 <1>   0.2890 
 11 N       -0.7170     2.5520    -3.2860 N.pl3 1 <1>  -0.9000 
 12 C        0.3260     5.4360     0.6300 C.3   1 <1>   0.1400 
 13 C       -1.7860     6.2930     1.7010 C.3   1 <1>  -0.1600 
 14 N        0.7670     6.8450     0.4050 N.am  1 <1>  -0.6600 
 15 C       -1.2720     7.7300     1.4960 C.3   1 <1>  -0.1600 
 16 C        1.3800     7.2230    -0.7770 C.2   1 <1>   0.7150 
 17 C        0.2600     7.8100     1.4210 C.3   1 <1>   0.1400 
 18 O        1.2340     6.4970    -1.7500 O.2   1 <1>  -0.5700 
 19 C        2.1700     8.4310    -0.9180 C.2   1 <1>   0.0550 
 20 O        2.6900     9.0740     0.1280 O.3   1 <1>  -0.2800 
 21 C        2.5430     9.0950    -2.0480 C.2   1 <1>  -0.1500 
 22 C        3.3670    10.1140    -0.3020 C.2   1 <1>  -0.0100 
 23 C        3.3150    10.1860    -1.6480 C.2   1 <1>  -0.1500 
 24 H       -2.0150     3.8190     1.8550 H     1 <1>   0.4000 
 25 H       -1.7010     0.3620    -2.6100 H     1 <1>   0.4570 
 26 H       -3.1800    -0.8340     0.5610 H     1 <1>   0.0800 
 27 H       -2.0160    -1.4220    -0.5870 H     1 <1>   0.0800 
 28 H       -3.5960    -0.8920    -1.1250 H     1 <1>   0.0800 
 29 H       -1.5630     5.6650    -0.3360 H     1 <1>   0.0800 
 30 H       -0.6170     1.9710    -4.1190 H     1 <1>   0.4000 
 31 H       -0.3360     3.5010    -3.4010 H     1 <1>   0.4000 
 32 H        0.7180     4.7940    -0.1380 H     1 <1>   0.0800 
 33 H        0.7090     5.1000     1.5770 H     1 <1>   0.0800 
 34 H       -1.4890     5.9530     2.6780 H     1 <1>   0.0800 
 35 H       -2.8600     6.2870     1.6430 H     1 <1>   0.0800 
 36 H       -1.6180     8.3550     2.3010 H     1 <1>   0.0800 
 37 H       -1.6790     8.1290     0.5830 H     1 <1>   0.0800 
 38 H        0.5400     8.8170     1.1720 H     1 <1>   0.0800 
 39 H        0.6920     7.5690     2.3780 H     1 <1>   0.0800 
 40 H        2.2990     8.8330    -3.0630 H     1 <1>   0.1500 
 41 H        3.8570    10.7520     0.4130 H     1 <1>   0.1500 
 42 H        3.7630    10.9140    -2.3010 H     1 <1>   0.1500 
@<TRIPOS>BOND
  1   1   2  1   
  2   2   3  ar  
  3   2   4  ar  
  4   3   5  ar  
  5   3   6  1   
  6   4   7  ar  
  7   4   8  1   
  8   5   9  ar  
  9   6  10  1   
 10   6  24  1   
 11   7   9  ar  
 12   7  25  1   
 13   8  26  1   
 14   8  27  1   
 15   8  28  1   
 16   9  11  1   
 17  10  12  1   
 18  10  13  1   
 19  10  29  1   
 20  11  30  1   
 21  11  31  1   
 22  12  14  1   
 23  12  32  1   
 24  12  33  1   
 25  13  15  1   
 26  13  34  1   
 27  13  35  1   
 28  14  16  am  
 29  14  17  1   
 30  15  17  1   
 31  15  36  1   
 32  15  37  1   
 33  16  18  2   
 34  16  19  1   
 35  17  38  1   
 36  17  39  1   
 37  19  20  1   
 38  19  21  2   
 39  20  22  1   
 40  21  23  1   
 41  21  40  1   
 42  22  23  2   
 43  22  41  1   
 44  23  42  1   
@<TRIPOS>SUBSTRUCTURE
  1 ****  12 GROUP 4 **** **** 0

# MOE 2024.06 (io_trps.svl 2023.06)
