@<TRIPOS>MOLECULE
NONAME
41 43 1 0 0 
SMALL
USER_CHARGES


@<TRIPOS>ATOM
  1 CL      -2.2540     1.6870    -2.0330 Cl    1 <1>  -0.1770 
  2 C       -1.0500     2.1370    -0.8510 C.ar  1 <1>   0.1770 
  3 C       -1.3960     2.2560     0.4940 C.ar  1 <1>   0.0860 
  4 C        0.2360     2.3750    -1.3000 C.ar  1 <1>  -0.1500 
  5 C       -2.7400     2.0100     0.9650 C.2   1 <1>   0.5440 
  6 C       -0.3840     2.6150     1.3840 C.ar  1 <1>  -0.1500 
  7 C        1.2200     2.7380    -0.3980 C.ar  1 <1>  -0.1500 
  8 O       -2.9560     0.9970     1.6020 O.2   1 <1>  -0.5700 
  9 N       -3.7740     2.9010     0.7520 N.am  1 <1>  -0.6600 
 10 C        0.9070     2.8560     0.9460 C.ar  1 <1>  -0.1500 
 11 C       -5.1640     2.5280     1.1540 C.3   1 <1>   0.1400 
 12 C       -3.6000     4.2180     0.0690 C.3   1 <1>   0.1400 
 13 C       -6.0570     3.7660     1.2140 C.3   1 <1>  -0.1600 
 14 C       -4.7820     4.4810    -0.8700 C.3   1 <1>  -0.1600 
 15 C       -6.1640     4.4540    -0.1680 C.3   1 <1>   0.2800 
 16 O       -6.9720     3.7050    -1.0490 O.3   1 <1>  -0.5600 
 17 C       -6.7000     5.9040    -0.0380 C.3   1 <1>   0.1400 
 18 C       -8.2970     3.3470    -0.7680 C.3   1 <1>   0.1200 
 19 N       -7.9810     6.0170     0.7100 N.am  1 <1>  -0.7300 
 20 C       -9.2380     4.5480    -0.8390 C.3   1 <1>  -0.0990 
 21 C       -9.1390     5.4050     0.3990 C.2   1 <1>   0.5690 
 22 O      -10.1000     5.5320     1.1120 O.2   1 <1>  -0.5700 
 23 H        0.4630     2.2730    -2.3470 H     1 <1>   0.1500 
 24 H       -0.6220     2.6980     2.4310 H     1 <1>   0.1500 
 25 H        2.2250     2.9250    -0.7370 H     1 <1>   0.1500 
 26 H        1.6720     3.1330     1.6530 H     1 <1>   0.1500 
 27 H       -5.1430     2.0510     2.1200 H     1 <1>   0.0800 
 28 H       -5.5570     1.8250     0.4390 H     1 <1>   0.0800 
 29 H       -2.6900     4.2360    -0.5020 H     1 <1>   0.0800 
 30 H       -3.5410     4.9930     0.8130 H     1 <1>   0.0800 
 31 H       -5.6230     4.4480     1.9220 H     1 <1>   0.0800 
 32 H       -7.0190     3.5110     1.6110 H     1 <1>   0.0800 
 33 H       -4.7460     3.7230    -1.6340 H     1 <1>   0.0800 
 34 H       -4.6270     5.4240    -1.3620 H     1 <1>   0.0800 
 35 H       -6.8260     6.3230    -1.0210 H     1 <1>   0.0800 
 36 H       -5.9640     6.4970     0.4760 H     1 <1>   0.0800 
 37 H       -8.3610     2.8430     0.1790 H     1 <1>   0.0800 
 38 H       -8.5830     2.6420    -1.5290 H     1 <1>   0.0800 
 39 H       -7.9890     6.5900     1.5560 H     1 <1>   0.3700 
 40 H      -10.2470     4.1870    -0.9110 H     1 <1>   0.0800 
 41 H       -9.0340     5.1320    -1.7160 H     1 <1>   0.0800 
@<TRIPOS>BOND
  1   1   2  1   
  2   2   3  ar  
  3   2   4  ar  
  4   3   5  1   
  5   3   6  ar  
  6   4   7  ar  
  7   4  23  1   
  8   5   8  2   
  9   5   9  am  
 10   6  10  ar  
 11   6  24  1   
 12   7  10  ar  
 13   7  25  1   
 14   9  11  1   
 15   9  12  1   
 16  10  26  1   
 17  11  13  1   
 18  11  27  1   
 19  11  28  1   
 20  12  14  1   
 21  12  29  1   
 22  12  30  1   
 23  13  15  1   
 24  13  31  1   
 25  13  32  1   
 26  14  15  1   
 27  14  33  1   
 28  14  34  1   
 29  15  16  1   
 30  15  17  1   
 31  16  18  1   
 32  17  19  1   
 33  17  35  1   
 34  17  36  1   
 35  18  20  1   
 36  18  37  1   
 37  18  38  1   
 38  19  21  am  
 39  19  39  1   
 40  20  21  1   
 41  20  40  1   
 42  20  41  1   
 43  21  22  2   
@<TRIPOS>SUBSTRUCTURE
  1 ****   9 GROUP 4 **** **** 0

# MOE 2024.06 (io_trps.svl 2023.06)
