@<TRIPOS>MOLECULE
NONAME
60 63 1 0 0 
SMALL
USER_CHARGES


@<TRIPOS>ATOM
  1 O       -0.4950    -0.6510     0.4010 O.3   1 <1>  -0.5600 
  2 C        0.5590    -1.2290    -0.3070 C.3   1 <1>   0.1200 
  3 C       -1.6330    -1.4590     0.4930 C.3   1 <1>   0.1200 
  4 C        1.0180    -2.5330     0.3750 C.3   1 <1>   0.2090 
  5 C       -1.3030    -2.7760     1.2160 C.3   1 <1>   0.2090 
  6 N       -0.1370    -3.4810     0.5630 N.pl3 1 <1>  -0.8380 
  7 C       -0.2100    -4.7870     0.1880 C.ar  1 <1>   0.7710 
  8 N       -1.3750    -5.4150     0.2420 N.ar  1 <1>  -0.6200 
  9 N        0.9050    -5.4150    -0.2250 N.ar  1 <1>  -0.1790 
 10 C       -1.4330    -6.6820    -0.1220 C.ar  1 <1>   0.4100 
 11 C        0.9010    -6.7090    -0.6180 C.ar  1 <1>   0.2180 
 12 N       -2.6380    -7.3090    -0.0500 N.pl3 1 <1>  -0.8380 
 13 C       -0.2850    -7.3630    -0.5720 C.ar  1 <1>  -0.1500 
 14 C        2.2020    -7.3480    -1.0880 C.3   1 <1>  -0.0170 
 15 C       -2.7480    -8.7700     0.2910 C.3   1 <1>   0.2090 
 16 C       -3.9030    -6.5190    -0.1860 C.3   1 <1>   0.2090 
 17 C        3.2610    -7.3920     0.0220 C.3   1 <1>  -0.2400 
 18 C       -3.9620    -9.1510     1.1580 C.3   1 <1>   0.2090 
 19 C       -4.9870    -7.2520    -0.9800 C.3   1 <1>  -0.1600 
 20 N       -5.1990    -9.3710     0.3380 N.pl3 1 <1>  -0.8380 
 21 C       -5.8890    -8.1280    -0.1090 C.3   1 <1>   0.2090 
 22 C       -5.7150   -10.6140     0.1260 C.ar  1 <1>   0.1000 
 23 C       -7.0960   -10.8590     0.1510 C.ar  1 <1>  -0.1500 
 24 C       -4.8910   -11.7170    -0.1290 C.ar  1 <1>  -0.1500 
 25 C       -7.6060   -12.1130    -0.0740 C.ar  1 <1>   0.2180 
 26 C       -5.4220   -12.9600    -0.3490 C.ar  1 <1>   0.2110 
 27 N       -6.7650   -13.1460    -0.3220 N.ar  1 <1>  -0.1790 
 28 C       -9.1000   -12.3890    -0.0490 C.3   1 <1>  -0.0970 
 29 H        1.3640    -0.5160    -0.3290 H     1 <1>   0.0800 
 30 H        0.2350    -1.4140    -1.3170 H     1 <1>   0.0800 
 31 H       -2.0050    -1.6520    -0.4990 H     1 <1>   0.0800 
 32 H       -2.3800    -0.9120     1.0410 H     1 <1>   0.0800 
 33 H        1.4350    -2.2850     1.3370 H     1 <1>   0.0800 
 34 H        1.7960    -2.9690    -0.2240 H     1 <1>   0.0800 
 35 H       -2.1890    -3.3850     1.2330 H     1 <1>   0.0800 
 36 H       -1.0530    -2.5520     2.2390 H     1 <1>   0.0800 
 37 H        1.7560    -4.8720    -0.1950 H     1 <1>   0.4570 
 38 H       -0.3770    -8.3860    -0.8820 H     1 <1>   0.1500 
 39 H        2.5870    -6.8060    -1.9350 H     1 <1>   0.0800 
 40 H        2.0070    -8.3550    -1.4170 H     1 <1>   0.0800 
 41 H       -1.8670    -9.0550     0.8380 H     1 <1>   0.0800 
 42 H       -2.7750    -9.3460    -0.6180 H     1 <1>   0.0800 
 43 H       -3.6860    -5.6030    -0.7080 H     1 <1>   0.0800 
 44 H       -4.2670    -6.2500     0.7920 H     1 <1>   0.0800 
 45 H        3.5520    -6.4050     0.3350 H     1 <1>   0.0800 
 46 H        4.1420    -7.9000    -0.3350 H     1 <1>   0.0800 
 47 H        2.8900    -7.9320     0.8770 H     1 <1>   0.0800 
 48 H       -4.1340    -8.3930     1.9020 H     1 <1>   0.0800 
 49 H       -3.7320   -10.0600     1.6840 H     1 <1>   0.0800 
 50 H       -4.5600    -7.8180    -1.7880 H     1 <1>   0.0800 
 51 H       -5.6170    -6.5000    -1.4190 H     1 <1>   0.0800 
 52 H       -6.7520    -8.3870    -0.6960 H     1 <1>   0.0800 
 53 H       -6.2290    -7.5750     0.7510 H     1 <1>   0.0800 
 54 H       -7.7570   -10.0400     0.3650 H     1 <1>   0.1500 
 55 H       -3.8270   -11.5740    -0.1630 H     1 <1>   0.1500 
 56 H       -4.7850   -13.8080    -0.5500 H     1 <1>   0.1500 
 57 H       -7.1540   -14.0800    -0.4890 H     1 <1>   0.4570 
 58 H       -9.6480   -11.4870     0.1610 H     1 <1>   0.0800 
 59 H       -9.3380   -13.1080     0.7160 H     1 <1>   0.0800 
 60 H       -9.4300   -12.7650    -1.0010 H     1 <1>   0.0800 
@<TRIPOS>BOND
  1   1   2  1   
  2   1   3  1   
  3   2   4  1   
  4   2  29  1   
  5   2  30  1   
  6   3   5  1   
  7   3  31  1   
  8   3  32  1   
  9   4   6  1   
 10   4  33  1   
 11   4  34  1   
 12   5   6  1   
 13   5  35  1   
 14   5  36  1   
 15   6   7  1   
 16   7   8  ar  
 17   7   9  ar  
 18   8  10  ar  
 19   9  11  ar  
 20   9  37  1   
 21  10  12  1   
 22  10  13  ar  
 23  11  13  ar  
 24  11  14  1   
 25  12  15  1   
 26  12  16  1   
 27  13  38  1   
 28  14  17  1   
 29  14  39  1   
 30  14  40  1   
 31  15  18  1   
 32  15  41  1   
 33  15  42  1   
 34  16  19  1   
 35  16  43  1   
 36  16  44  1   
 37  17  45  1   
 38  17  46  1   
 39  17  47  1   
 40  18  20  1   
 41  18  48  1   
 42  18  49  1   
 43  19  21  1   
 44  19  50  1   
 45  19  51  1   
 46  20  21  1   
 47  20  22  1   
 48  21  52  1   
 49  21  53  1   
 50  22  23  ar  
 51  22  24  ar  
 52  23  25  ar  
 53  23  54  1   
 54  24  26  ar  
 55  24  55  1   
 56  25  27  ar  
 57  25  28  1   
 58  26  27  ar  
 59  26  56  1   
 60  27  57  1   
 61  28  58  1   
 62  28  59  1   
 63  28  60  1   
@<TRIPOS>SUBSTRUCTURE
  1 ****  12 GROUP 4 **** **** 0

# MOE 2024.06 (io_trps.svl 2023.06)
