@<TRIPOS>MOLECULE
NONAME
46 49 1 0 0 
SMALL
USER_CHARGES


@<TRIPOS>ATOM
  1 S       -0.1510    -0.0850    -0.9930 S.3   1 <1>  -0.0800 
  2 C        0.0420    -1.6660    -0.2380 C.ar  1 <1>   0.2970 
  3 C       -1.5370    -0.6460    -1.9310 C.2   1 <1>  -0.1100 
  4 N        0.9800    -1.9380     0.6430 N.ar  1 <1>  -0.5670 
  5 C       -0.9110    -2.5380    -0.7010 C.ar  1 <1>   0.0000 
  6 C       -1.8000    -1.9380    -1.6640 C.2   1 <1>  -0.1500 
  7 C        0.9330    -3.1830     1.0720 C.ar  1 <1>   0.4770 
  8 C       -0.8430    -3.8210    -0.1620 C.ar  1 <1>   0.4100 
  9 N        0.0830    -4.1420     0.7240 N.ar  1 <1>  -0.6200 
 10 C        1.9770    -3.5780     2.0890 C.3   1 <1>  -0.0960 
 11 N       -1.7290    -4.8010    -0.5380 N.pl3 1 <1>  -0.8690 
 12 C       -1.7830    -6.1400     0.0570 C.3   1 <1>   0.2890 
 13 C       -0.8430    -7.0590    -0.7170 C.3   1 <1>  -0.1600 
 14 C       -3.2150    -6.6600     0.0050 C.3   1 <1>  -0.1600 
 15 C       -0.9230    -8.4780    -0.1690 C.3   1 <1>   0.3430 
 16 C       -3.2730    -8.0870     0.5420 C.3   1 <1>   0.3430 
 17 N       -2.3340    -8.9630    -0.2290 N.4   1 <1>  -0.9590 
 18 C       -2.4290   -10.3890     0.2010 C.3   1 <1>   0.4860 
 19 C       -3.8300   -10.8970    -0.0620 C.ar  1 <1>  -0.1430 
 20 C       -4.2220   -11.2100    -1.3560 C.ar  1 <1>   0.1600 
 21 C       -4.7390   -11.0540     0.9670 C.ar  1 <1>  -0.1500 
 22 N       -5.4260   -11.6280    -1.6950 N.ar  1 <1>  -0.6200 
 23 C       -5.9970   -11.5040     0.6260 C.ar  1 <1>  -0.1500 
 24 C       -6.2870   -11.7710    -0.7010 C.ar  1 <1>   0.1600 
 25 H       -2.0030     0.0680    -2.5870 H     1 <1>   0.1500 
 26 H       -2.5950    -2.5090    -2.1070 H     1 <1>   0.1500 
 27 H        2.6220    -2.7470     2.3110 H     1 <1>   0.0800 
 28 H        2.5700    -4.3840     1.7010 H     1 <1>   0.0800 
 29 H        1.4950    -3.8950     2.9940 H     1 <1>   0.0800 
 30 H       -2.4310    -4.5720    -1.2440 H     1 <1>   0.4000 
 31 H       -1.4670    -6.0860     1.0870 H     1 <1>   0.0800 
 32 H        0.1650    -6.7000    -0.6080 H     1 <1>   0.0800 
 33 H       -1.0880    -7.0540    -1.7640 H     1 <1>   0.0800 
 34 H       -3.5910    -6.6390    -1.0020 H     1 <1>   0.0800 
 35 H       -3.8410    -6.0320     0.6150 H     1 <1>   0.0800 
 36 H       -0.5750    -8.4850     0.8520 H     1 <1>   0.0800 
 37 H       -0.2820    -9.1210    -0.7510 H     1 <1>   0.0800 
 38 H       -4.2830    -8.4570     0.4530 H     1 <1>   0.0800 
 39 H       -3.0030    -8.0900     1.5860 H     1 <1>   0.0800 
 40 H       -2.6390    -8.9260    -1.2110 H     1 <1>   0.4500 
 41 H       -2.2000   -10.4780     1.2510 H     1 <1>   0.0800 
 42 H       -1.7240   -10.9910    -0.3510 H     1 <1>   0.0800 
 43 H       -3.5180   -11.1120    -2.1650 H     1 <1>   0.1500 
 44 H       -4.4970   -10.8450     1.9960 H     1 <1>   0.1500 
 45 H       -6.7530   -11.6510     1.3780 H     1 <1>   0.1500 
 46 H       -7.2740   -12.1210    -0.9570 H     1 <1>   0.1500 
@<TRIPOS>BOND
  1   1   2  1   
  2   1   3  1   
  3   2   4  ar  
  4   2   5  ar  
  5   3   6  2   
  6   3  25  1   
  7   4   7  ar  
  8   5   6  1   
  9   5   8  ar  
 10   6  26  1   
 11   7   9  ar  
 12   7  10  1   
 13   8   9  ar  
 14   8  11  1   
 15  10  27  1   
 16  10  28  1   
 17  10  29  1   
 18  11  12  1   
 19  11  30  1   
 20  12  13  1   
 21  12  14  1   
 22  12  31  1   
 23  13  15  1   
 24  13  32  1   
 25  13  33  1   
 26  14  16  1   
 27  14  34  1   
 28  14  35  1   
 29  15  17  1   
 30  15  36  1   
 31  15  37  1   
 32  16  17  1   
 33  16  38  1   
 34  16  39  1   
 35  17  18  1   
 36  17  40  1   
 37  18  19  1   
 38  18  41  1   
 39  18  42  1   
 40  19  20  ar  
 41  19  21  ar  
 42  20  22  ar  
 43  20  43  1   
 44  21  23  ar  
 45  21  44  1   
 46  22  24  ar  
 47  23  24  ar  
 48  23  45  1   
 49  24  46  1   
@<TRIPOS>SUBSTRUCTURE
  1 ****  12 GROUP 4 **** **** 0

# MOE 2024.06 (io_trps.svl 2023.06)
