@<TRIPOS>MOLECULE
NONAME
39 41 1 0 0 
SMALL
USER_CHARGES


@<TRIPOS>ATOM
  1 O       -0.8580     0.8260    -2.0040 O.2   1 <1>  -0.5700 
  2 C       -1.7570     1.3540    -1.3920 C.2   1 <1>   0.5690 
  3 N       -2.7220     0.6160    -0.7600 N.am  1 <1>  -0.6600 
  4 C       -1.7580     2.8630    -1.3230 C.3   1 <1>   0.1570 
  5 C       -3.7770     1.1370     0.1520 C.3   1 <1>   0.1400 
  6 C       -2.6930    -0.8670    -0.7270 C.3   1 <1>   0.1400 
  7 N       -1.1130     3.2600    -0.0730 N.pl3 1 <1>   0.3140 
  8 C       -4.5010    -0.1070     0.6690 C.3   1 <1>   0.2000 
  9 C       -3.5040    -1.2530     0.5100 C.3   1 <1>  -0.0800 
 10 N       -1.7350     3.8950     0.9050 N.2   1 <1>  -0.4180 
 11 C        0.1340     3.0160     0.3250 C.2   1 <1>   0.2700 
 12 O       -4.8680     0.0280     1.9970 O.3   1 <1>  -0.6800 
 13 C       -4.1780    -2.6290     0.4060 C.3   1 <1>   0.0200 
 14 N       -0.8730     4.0250     1.8450 N.2   1 <1>   0.0000 
 15 N        0.2980     3.4840     1.5060 N.2   1 <1>  -0.3380 
 16 N        1.1160     2.3480    -0.3900 N.pl3 1 <1>  -0.8840 
 17 C       -3.1580    -3.7160     0.1290 C.2   1 <1>  -0.0400 
 18 O       -2.1880    -3.9330     0.9760 O.3   1 <1>  -0.0190 
 19 C       -3.0170    -4.5770    -0.8900 C.2   1 <1>  -0.1500 
 20 N       -1.4010    -4.8900     0.5760 N.2   1 <1>  -0.4100 
 21 C       -1.8770    -5.2980    -0.5450 C.2   1 <1>   0.1080 
 22 C       -1.2710    -6.4110    -1.3700 C.3   1 <1>  -0.0590 
 23 H       -2.7590     3.2460    -1.3510 H     1 <1>   0.0800 
 24 H       -1.1980     3.2650    -2.1450 H     1 <1>   0.0800 
 25 H       -3.3190     1.6700     0.9670 H     1 <1>   0.0800 
 26 H       -4.4590     1.7770    -0.3790 H     1 <1>   0.0800 
 27 H       -3.1540    -1.2460    -1.6240 H     1 <1>   0.0800 
 28 H       -1.6830    -1.2380    -0.6630 H     1 <1>   0.0800 
 29 H       -5.3910    -0.2780     0.0880 H     1 <1>   0.0800 
 30 H       -2.8240    -1.2540     1.3450 H     1 <1>   0.0800 
 31 H       -4.0810     0.1610     2.5620 H     1 <1>   0.4000 
 32 H       -4.9090    -2.6230    -0.3830 H     1 <1>   0.0800 
 33 H       -4.6860    -2.8510     1.3280 H     1 <1>   0.0800 
 34 H        0.8030     1.5890    -1.0180 H     1 <1>   0.4000 
 35 H        1.9240     2.0690     0.1740 H     1 <1>   0.4000 
 36 H       -3.6120    -4.7090    -1.7740 H     1 <1>   0.1500 
 37 H       -2.0230    -7.1370    -1.6160 H     1 <1>   0.0800 
 38 H       -0.4890    -6.8960    -0.8140 H     1 <1>   0.0800 
 39 H       -0.8550    -6.0070    -2.2750 H     1 <1>   0.0800 
@<TRIPOS>BOND
  1   1   2  2   
  2   2   3  am  
  3   2   4  1   
  4   3   5  1   
  5   3   6  1   
  6   4   7  1   
  7   4  23  1   
  8   4  24  1   
  9   5   8  1   
 10   5  25  1   
 11   5  26  1   
 12   6   9  1   
 13   6  27  1   
 14   6  28  1   
 15   7  10  1   
 16   7  11  1   
 17   8   9  1   
 18   8  12  1   
 19   8  29  1   
 20   9  13  1   
 21   9  30  1   
 22  10  14  2   
 23  11  15  2   
 24  11  16  1   
 25  12  31  1   
 26  13  17  1   
 27  13  32  1   
 28  13  33  1   
 29  14  15  1   
 30  16  34  1   
 31  16  35  1   
 32  17  18  1   
 33  17  19  2   
 34  18  20  1   
 35  19  21  1   
 36  19  36  1   
 37  20  21  2   
 38  21  22  1   
 39  22  37  1   
 40  22  38  1   
 41  22  39  1   
@<TRIPOS>SUBSTRUCTURE
  1 ****   6 GROUP 4 **** **** 0

# MOE 2024.06 (io_trps.svl 2023.06)
