@<TRIPOS>MOLECULE
NONAME
53 56 1 0 0 
SMALL
USER_CHARGES


@<TRIPOS>ATOM
  1 O        0.1320     0.8580     1.3720 O.2   1 <1>  -0.5700 
  2 C       -0.2810     1.5820     0.4880 C.2   1 <1>   0.5440 
  3 N       -1.6350     1.6540     0.3160 N.am  1 <1>  -0.7300 
  4 C        0.6290     2.3100    -0.3800 C.ar  1 <1>   0.0860 
  5 C       -2.6430     1.0370     1.2140 C.3   1 <1>   0.2200 
  6 C        0.2670     3.5170    -0.9830 C.ar  1 <1>  -0.1500 
  7 C        1.9080     1.8210    -0.6450 C.ar  1 <1>  -0.1500 
  8 C       -2.7870    -0.4800     0.9520 C.3   1 <1>   0.2000 
  9 C       -3.9740     1.7690     1.0210 C.3   1 <1>  -0.1600 
 10 C        1.1350     4.1920    -1.8230 C.ar  1 <1>  -0.1500 
 11 C        2.7810     2.4910    -1.4820 C.ar  1 <1>  -0.1500 
 12 O       -1.6550    -1.1440     1.3890 O.3   1 <1>  -0.6800 
 13 C       -3.9790    -1.0800     1.7100 C.3   1 <1>   0.3430 
 14 C       -5.0740     1.1510     1.8820 C.3   1 <1>   0.3430 
 15 C        2.3940     3.6780    -2.0750 C.ar  1 <1>  -0.1500 
 16 N       -5.2400    -0.2810     1.5210 N.4   1 <1>  -0.9590 
 17 C       -6.3750    -0.9150     2.2350 C.3   1 <1>   0.5240 
 18 C       -6.6850    -2.2110     1.5260 C.2   1 <1>  -0.1810 
 19 C       -6.8200    -2.4900     0.2060 C.2   1 <1>  -0.2370 
 20 C       -6.8850    -3.4250     2.1710 C.2   1 <1>   0.1390 
 21 N       -7.0820    -3.8160     0.1220 N.pl3 1 <1>   0.3140 
 22 C       -6.7220    -1.5970    -1.0210 C.3   1 <1>  -0.0150 
 23 N       -7.1160    -4.3850     1.3370 N.2   1 <1>  -0.7070 
 24 C       -7.3230    -4.6130    -1.0910 C.3   1 <1>   0.0160 
 25 C       -7.2180    -0.1830    -1.0110 C.3   1 <1>  -0.2000 
 26 C       -7.9750    -1.2420    -1.7510 C.3   1 <1>  -0.2000 
 27 H       -1.9850     2.1420    -0.5100 H     1 <1>   0.3700 
 28 H       -2.3240     1.1740     2.2360 H     1 <1>   0.0800 
 29 H       -0.7000     3.9440    -0.7900 H     1 <1>   0.1500 
 30 H        2.2210     0.8980    -0.1840 H     1 <1>   0.1500 
 31 H       -2.8910    -0.6670    -0.1030 H     1 <1>   0.0800 
 32 H       -3.8520     2.7990     1.3090 H     1 <1>   0.0800 
 33 H       -4.2740     1.7420    -0.0120 H     1 <1>   0.0800 
 34 H        0.8370     5.1210    -2.2790 H     1 <1>   0.1500 
 35 H        3.7620     2.0890    -1.6710 H     1 <1>   0.1500 
 36 H       -0.8650    -0.5360     1.3370 H     1 <1>   0.4000 
 37 H       -3.7280    -1.1110     2.7570 H     1 <1>   0.0800 
 38 H       -4.1290    -2.0920     1.3680 H     1 <1>   0.0800 
 39 H       -5.9980     1.6830     1.7200 H     1 <1>   0.0800 
 40 H       -4.8090     1.2400     2.9250 H     1 <1>   0.0800 
 41 H        3.0720     4.2020    -2.7280 H     1 <1>   0.1500 
 42 H       -5.5060    -0.3620     0.5280 H     1 <1>   0.4500 
 43 H       -6.1170    -1.1020     3.2650 H     1 <1>   0.0800 
 44 H       -7.2450    -0.2790     2.2020 H     1 <1>   0.0800 
 45 H       -6.8560    -3.5820     3.2380 H     1 <1>   0.1500 
 46 H       -5.8670    -1.8300    -1.6340 H     1 <1>   0.1000 
 47 H       -6.4870    -4.5140    -1.7560 H     1 <1>   0.0800 
 48 H       -8.2190    -4.2660    -1.5700 H     1 <1>   0.0800 
 49 H       -7.4430    -5.6450    -0.8170 H     1 <1>   0.0800 
 50 H       -7.7220     0.2360    -0.1580 H     1 <1>   0.1000 
 51 H       -6.7200     0.5650    -1.6050 H     1 <1>   0.1000 
 52 H       -7.9650    -1.2330    -2.8280 H     1 <1>   0.1000 
 53 H       -8.9200    -1.5740    -1.3530 H     1 <1>   0.1000 
@<TRIPOS>BOND
  1   1   2  2   
  2   2   3  am  
  3   2   4  1   
  4   3   5  1   
  5   3  27  1   
  6   4   6  ar  
  7   4   7  ar  
  8   5   8  1   
  9   5   9  1   
 10   5  28  1   
 11   6  10  ar  
 12   6  29  1   
 13   7  11  ar  
 14   7  30  1   
 15   8  12  1   
 16   8  13  1   
 17   8  31  1   
 18   9  14  1   
 19   9  32  1   
 20   9  33  1   
 21  10  15  ar  
 22  10  34  1   
 23  11  15  ar  
 24  11  35  1   
 25  12  36  1   
 26  13  16  1   
 27  13  37  1   
 28  13  38  1   
 29  14  16  1   
 30  14  39  1   
 31  14  40  1   
 32  15  41  1   
 33  16  17  1   
 34  16  42  1   
 35  17  18  1   
 36  17  43  1   
 37  17  44  1   
 38  18  19  2   
 39  18  20  1   
 40  19  21  1   
 41  19  22  1   
 42  20  23  2   
 43  20  45  1   
 44  21  23  1   
 45  21  24  1   
 46  22  25  1   
 47  22  26  1   
 48  22  46  1   
 49  24  47  1   
 50  24  48  1   
 51  24  49  1   
 52  25  26  1   
 53  25  50  1   
 54  25  51  1   
 55  26  52  1   
 56  26  53  1   
@<TRIPOS>SUBSTRUCTURE
  1 ****   8 GROUP 4 **** **** 0

# MOE 2024.06 (io_trps.svl 2023.06)
