@<TRIPOS>MOLECULE
NONAME
44 46 1 0 0 
SMALL
USER_CHARGES


@<TRIPOS>ATOM
  1 O       -0.6680    -0.7770     0.1300 O.2   1 <1>  -0.5700 
  2 C        0.1840    -1.3660     0.7630 C.2   1 <1>   0.5440 
  3 N        0.3590    -0.9810     2.0480 N.am  1 <1>  -0.8000 
  4 C        0.9910    -2.4010     0.1740 C.ar  1 <1>   0.0860 
  5 C        0.5470    -3.7360     0.1050 C.ar  1 <1>   0.4100 
  6 C        2.2460    -2.1040    -0.3350 C.ar  1 <1>  -0.1500 
  7 N        1.2720    -4.7290    -0.4100 N.ar  1 <1>  -0.6200 
  8 N       -0.7010    -4.1100     0.5690 N.pl3 1 <1>  -0.8380 
  9 C        2.9900    -3.1310    -0.8700 C.ar  1 <1>  -0.1500 
 10 C        2.4610    -4.4090    -0.8810 C.ar  1 <1>   0.1600 
 11 C       -0.8730    -5.4040     1.3010 C.3   1 <1>   0.2090 
 12 C       -1.9040    -3.6570    -0.1920 C.3   1 <1>   0.2090 
 13 C       -1.4530    -6.5070     0.3920 C.3   1 <1>   0.2090 
 14 C       -2.4770    -4.7840    -1.0750 C.3   1 <1>   0.2090 
 15 N       -2.7180    -6.0560    -0.2980 N.pl3 1 <1>  -0.8380 
 16 C       -3.8420    -6.8240    -0.3560 C.ar  1 <1>   0.4610 
 17 N       -5.0380    -6.2250    -0.4470 N.ar  1 <1>  -0.1790 
 18 C       -3.8620    -8.2010    -0.3080 C.ar  1 <1>  -0.1500 
 19 C       -6.1880    -6.9250    -0.4920 C.ar  1 <1>   0.7710 
 20 C       -5.0720    -8.8600    -0.3600 C.ar  1 <1>   0.3930 
 21 N       -6.2420    -8.2320    -0.4530 N.ar  1 <1>  -0.6200 
 22 N       -7.3560    -6.2840    -0.5760 N.pl3 1 <1>  -0.9000 
 23 O       -5.0550   -10.1900    -0.3130 O.3   1 <1>  -0.3620 
 24 C       -6.2250   -10.9860    -0.3630 C.3   1 <1>   0.0400 
 25 H       -0.2450    -0.2560     2.4350 H     1 <1>   0.3700 
 26 H        0.9710    -1.4700     2.7010 H     1 <1>   0.3700 
 27 H        2.6210    -1.0950    -0.3080 H     1 <1>   0.1500 
 28 H        3.9690    -2.9480    -1.2770 H     1 <1>   0.1500 
 29 H        3.0520    -5.2060    -1.3010 H     1 <1>   0.1500 
 30 H       -1.5320    -5.2480     2.1370 H     1 <1>   0.0800 
 31 H        0.0760    -5.7290     1.6920 H     1 <1>   0.0800 
 32 H       -1.6450    -2.8300    -0.8300 H     1 <1>   0.0800 
 33 H       -2.6500    -3.3120     0.5020 H     1 <1>   0.0800 
 34 H       -1.6370    -7.3800     0.9930 H     1 <1>   0.0800 
 35 H       -0.7130    -6.7620    -0.3480 H     1 <1>   0.0800 
 36 H       -1.7590    -4.9870    -1.8530 H     1 <1>   0.0800 
 37 H       -3.3760    -4.4420    -1.5530 H     1 <1>   0.0800 
 38 H       -5.0740    -5.2200    -0.4140 H     1 <1>   0.4570 
 39 H       -2.9550    -8.7710    -0.2450 H     1 <1>   0.1500 
 40 H       -8.2070    -6.8560    -0.6050 H     1 <1>   0.4000 
 41 H       -7.5330    -5.2800    -0.6260 H     1 <1>   0.4000 
 42 H       -5.9340   -12.0200    -0.3100 H     1 <1>   0.0800 
 43 H       -6.7380   -10.7960    -1.2890 H     1 <1>   0.0800 
 44 H       -6.8530   -10.7370     0.4740 H     1 <1>   0.0800 
@<TRIPOS>BOND
  1   1   2  2   
  2   2   3  am  
  3   2   4  1   
  4   3  25  1   
  5   3  26  1   
  6   4   5  ar  
  7   4   6  ar  
  8   5   7  ar  
  9   5   8  1   
 10   6   9  ar  
 11   6  27  1   
 12   7  10  ar  
 13   8  11  1   
 14   8  12  1   
 15   9  10  ar  
 16   9  28  1   
 17  10  29  1   
 18  11  13  1   
 19  11  30  1   
 20  11  31  1   
 21  12  14  1   
 22  12  32  1   
 23  12  33  1   
 24  13  15  1   
 25  13  34  1   
 26  13  35  1   
 27  14  15  1   
 28  14  36  1   
 29  14  37  1   
 30  15  16  1   
 31  16  17  ar  
 32  16  18  ar  
 33  17  19  ar  
 34  17  38  1   
 35  18  20  ar  
 36  18  39  1   
 37  19  21  ar  
 38  19  22  1   
 39  20  21  ar  
 40  20  23  1   
 41  22  40  1   
 42  22  41  1   
 43  23  24  1   
 44  24  42  1   
 45  24  43  1   
 46  24  44  1   
@<TRIPOS>SUBSTRUCTURE
  1 ****  15 GROUP 4 **** **** 0

# MOE 2024.06 (io_trps.svl 2023.06)
