@<TRIPOS>MOLECULE
NONAME
58 61 1 0 0 
SMALL
USER_CHARGES


@<TRIPOS>ATOM
  1 O       -4.8780    -3.3600     0.1720 O.3   1 <1>  -0.3630 
  2 C       -5.1770    -2.0630    -0.0650 C.ar  1 <1>   0.0830 
  3 C       -4.0600    -3.6670     1.2830 C.3   1 <1>   0.0400 
  4 C       -5.5530    -1.1900     0.9490 C.ar  1 <1>  -0.1500 
  5 C       -5.1490    -1.6250    -1.3790 C.ar  1 <1>  -0.1500 
  6 C       -5.9700     0.0900     0.6320 C.ar  1 <1>  -0.1500 
  7 C       -5.5540    -0.3390    -1.6900 C.ar  1 <1>  -0.1500 
  8 C       -6.0090     0.5160    -0.6910 C.ar  1 <1>  -0.0230 
  9 N       -6.5700     1.7800    -1.0180 N.pl3 1 <1>   0.3260 
 10 C       -7.7660     2.0570    -1.6190 C.2   1 <1>   0.0060 
 11 C       -6.0690     2.9990    -0.7230 C.2   1 <1>  -0.3020 
 12 N       -8.0290     3.3220    -1.7180 N.2   1 <1>  -0.5650 
 13 C       -8.6990     0.9680    -2.1350 C.3   1 <1>   0.2900 
 14 C       -6.9600     3.9150    -1.1530 C.2   1 <1>   0.0770 
 15 N       -8.9280    -0.0550    -1.0930 N.3   1 <1>  -0.8100 
 16 C       -8.7600    -1.4480    -1.5240 C.3   1 <1>   0.1100 
 17 C      -10.1120     0.1800    -0.2620 C.3   1 <1>   0.1100 
 18 C       -8.5720    -2.3030    -0.2560 C.3   1 <1>   0.4230 
 19 C      -10.0550    -0.7310     0.9790 C.3   1 <1>  -0.1600 
 20 N       -7.9450    -3.6660    -0.4770 N.4   1 <1>  -0.9590 
 21 C       -9.8300    -2.2370     0.6600 C.3   1 <1>   0.0000 
 22 C       -8.2130    -4.6260     0.6340 C.3   1 <1>   0.3430 
 23 C       -8.2880    -4.3090    -1.7800 C.3   1 <1>   0.2630 
 24 C       -9.5700    -2.9870     2.0020 C.3   1 <1>  -0.1600 
 25 C      -11.1330    -2.7590    -0.0120 C.3   1 <1>   0.1200 
 26 C       -8.3290    -3.8960     1.9700 C.3   1 <1>  -0.1600 
 27 O      -11.0520    -4.1040    -0.3470 O.3   1 <1>  -0.6800 
 28 H       -3.7240    -4.6850     1.1850 H     1 <1>   0.0800 
 29 H       -4.6300    -3.5590     2.1880 H     1 <1>   0.0800 
 30 H       -3.2110    -3.0050     1.2880 H     1 <1>   0.0800 
 31 H       -5.5450    -1.5000     1.9780 H     1 <1>   0.1500 
 32 H       -4.8110    -2.2900    -2.1530 H     1 <1>   0.1500 
 33 H       -6.2890     0.7610     1.4120 H     1 <1>   0.1500 
 34 H       -5.5340    -0.0010    -2.7120 H     1 <1>   0.1500 
 35 H       -5.1240     3.1320    -0.2330 H     1 <1>   0.1500 
 36 H       -8.2440     0.5240    -3.0020 H     1 <1>   0.0800 
 37 H       -9.6330     1.4080    -2.4410 H     1 <1>   0.0800 
 38 H       -6.8910     4.9890    -1.0840 H     1 <1>   0.1500 
 39 H       -9.6110    -1.7660    -2.0990 H     1 <1>   0.0800 
 40 H       -7.8780    -1.5230    -2.1320 H     1 <1>   0.0800 
 41 H      -10.1250     1.2110     0.0570 H     1 <1>   0.0800 
 42 H      -11.0060    -0.0010    -0.8350 H     1 <1>   0.0800 
 43 H       -7.8320    -1.7590     0.3020 H     1 <1>   0.0800 
 44 H       -9.2470    -0.3680     1.5910 H     1 <1>   0.0800 
 45 H      -10.9590    -0.6010     1.5480 H     1 <1>   0.0800 
 46 H       -6.9230    -3.4930    -0.4630 H     1 <1>   0.4500 
 47 H       -9.1370    -5.1490     0.4490 H     1 <1>   0.0800 
 48 H       -7.4200    -5.3550     0.6820 H     1 <1>   0.0800 
 49 H       -9.3510    -4.4680    -1.8510 H     1 <1>   0.0800 
 50 H       -7.7920    -5.2620    -1.8660 H     1 <1>   0.0800 
 51 H       -7.9750    -3.6870    -2.6010 H     1 <1>   0.0800 
 52 H       -9.4520    -2.2960     2.8180 H     1 <1>   0.0800 
 53 H      -10.4280    -3.5920     2.2460 H     1 <1>   0.0800 
 54 H      -11.3670    -2.2130    -0.9080 H     1 <1>   0.0800 
 55 H      -11.9590    -2.6470     0.6710 H     1 <1>   0.0800 
 56 H       -8.4070    -4.6220     2.7620 H     1 <1>   0.0800 
 57 H       -7.4350    -3.3240     2.1450 H     1 <1>   0.0800 
 58 H      -11.9420    -4.4490    -0.5740 H     1 <1>   0.4000 
@<TRIPOS>BOND
  1   1   2  1   
  2   1   3  1   
  3   2   4  ar  
  4   2   5  ar  
  5   3  28  1   
  6   3  29  1   
  7   3  30  1   
  8   4   6  ar  
  9   4  31  1   
 10   5   7  ar  
 11   5  32  1   
 12   6   8  ar  
 13   6  33  1   
 14   7   8  ar  
 15   7  34  1   
 16   8   9  1   
 17   9  10  1   
 18   9  11  1   
 19  10  12  2   
 20  10  13  1   
 21  11  14  2   
 22  11  35  1   
 23  12  14  1   
 24  13  15  1   
 25  13  36  1   
 26  13  37  1   
 27  14  38  1   
 28  15  16  1   
 29  15  17  1   
 30  16  18  1   
 31  16  39  1   
 32  16  40  1   
 33  17  19  1   
 34  17  41  1   
 35  17  42  1   
 36  18  20  1   
 37  18  21  1   
 38  18  43  1   
 39  19  21  1   
 40  19  44  1   
 41  19  45  1   
 42  20  22  1   
 43  20  23  1   
 44  20  46  1   
 45  21  24  1   
 46  21  25  1   
 47  22  26  1   
 48  22  47  1   
 49  22  48  1   
 50  23  49  1   
 51  23  50  1   
 52  23  51  1   
 53  24  26  1   
 54  24  52  1   
 55  24  53  1   
 56  25  27  1   
 57  25  54  1   
 58  25  55  1   
 59  26  56  1   
 60  26  57  1   
 61  27  58  1   
@<TRIPOS>SUBSTRUCTURE
  1 ****  18 GROUP 4 **** **** 0

# MOE 2024.06 (io_trps.svl 2023.06)
