@<TRIPOS>MOLECULE
NONAME
47 49 1 0 0 
SMALL
USER_CHARGES


@<TRIPOS>ATOM
  1 CL       0.0970     0.2320     0.6460 Cl    1 <1>  -0.1770 
  2 C        1.3940    -0.9300     0.3850 C.ar  1 <1>   0.1770 
  3 C        1.0990    -2.2970     0.1170 C.ar  1 <1>   0.4100 
  4 C        2.6900    -0.5120     0.3900 C.ar  1 <1>   0.2170 
  5 N        2.0640    -3.1470    -0.1980 N.ar  1 <1>  -0.6200 
  6 N       -0.1550    -2.8160     0.1630 N.pl3 1 <1>  -0.8380 
  7 N        3.6370    -1.4440     0.1050 N.ar  1 <1>  -0.1790 
  8 C        3.1670     0.9100     0.6680 C.3   1 <1>  -0.0970 
  9 C        3.3030    -2.7120    -0.1900 C.ar  1 <1>   0.7710 
 10 C       -0.6640    -3.7440    -0.9190 C.3   1 <1>   0.2090 
 11 C       -1.0820    -2.6450     1.3350 C.3   1 <1>   0.2090 
 12 N        4.2410    -3.6030    -0.4940 N.pl3 1 <1>  -0.9000 
 13 C       -1.8770    -4.5590    -0.4490 C.3   1 <1>   0.2000 
 14 C       -2.4960    -2.4280     0.8020 C.3   1 <1>  -0.1600 
 15 O       -2.3140    -5.4120    -1.4510 O.3   1 <1>  -0.6800 
 16 C       -3.0520    -3.6880     0.0640 C.3   1 <1>  -0.1060 
 17 C       -3.7950    -4.6490     0.9960 C.2   1 <1>   0.9060 
 18 C       -3.9930    -3.2170    -1.0850 C.3   1 <1>  -0.0170 
 19 O       -3.7590    -4.4910     2.2210 O.co2 1 <1>  -0.9000 
 20 O       -4.3450    -5.6370     0.4840 O.co2 1 <1>  -0.9000 
 21 C       -5.0330    -2.1770    -0.6710 C.ar  1 <1>  -0.1430 
 22 C       -6.0950    -2.5350     0.1450 C.ar  1 <1>  -0.1500 
 23 C       -4.9320    -0.8650    -1.1110 C.ar  1 <1>  -0.1500 
 24 C       -7.0390    -1.5960     0.5210 C.ar  1 <1>  -0.1500 
 25 C       -5.8760     0.0760    -0.7370 C.ar  1 <1>  -0.1500 
 26 C       -6.9310    -0.2890     0.0810 C.ar  1 <1>  -0.1500 
 27 H        4.6260    -1.2150     0.0870 H     1 <1>   0.4570 
 28 H        2.3490     1.5640     0.9150 H     1 <1>   0.0800 
 29 H        3.6600     1.3160    -0.1980 H     1 <1>   0.0800 
 30 H        3.8530     0.9200     1.4970 H     1 <1>   0.0800 
 31 H       -0.9510    -3.1560    -1.7720 H     1 <1>   0.0800 
 32 H        0.1110    -4.4280    -1.2130 H     1 <1>   0.0800 
 33 H       -1.0630    -3.5300     1.9510 H     1 <1>   0.0800 
 34 H       -0.7860    -1.8160     1.9500 H     1 <1>   0.0800 
 35 H        5.2550    -3.4890    -0.5520 H     1 <1>   0.4000 
 36 H        3.9210    -4.5560    -0.7010 H     1 <1>   0.4000 
 37 H       -1.5340    -5.1960     0.3510 H     1 <1>   0.0800 
 38 H       -3.1520    -2.1590     1.6120 H     1 <1>   0.0800 
 39 H       -2.4590    -1.5830     0.1380 H     1 <1>   0.0800 
 40 H       -3.1250    -5.8540    -1.0820 H     1 <1>   0.4000 
 41 H       -3.3940    -2.8110    -1.8790 H     1 <1>   0.0800 
 42 H       -4.5180    -4.0600    -1.5010 H     1 <1>   0.0800 
 43 H       -6.1870    -3.5510     0.4940 H     1 <1>   0.1500 
 44 H       -4.1150    -0.5730    -1.7450 H     1 <1>   0.1500 
 45 H       -7.8530    -1.8900     1.1600 H     1 <1>   0.1500 
 46 H       -5.7880     1.0910    -1.0810 H     1 <1>   0.1500 
 47 H       -7.6640     0.4410     0.3750 H     1 <1>   0.1500 
@<TRIPOS>BOND
  1   1   2  1   
  2   2   3  ar  
  3   2   4  ar  
  4   3   5  ar  
  5   3   6  1   
  6   4   7  ar  
  7   4   8  1   
  8   5   9  ar  
  9   6  10  1   
 10   6  11  1   
 11   7   9  ar  
 12   7  27  1   
 13   8  28  1   
 14   8  29  1   
 15   8  30  1   
 16   9  12  1   
 17  10  13  1   
 18  10  31  1   
 19  10  32  1   
 20  11  14  1   
 21  11  33  1   
 22  11  34  1   
 23  12  35  1   
 24  12  36  1   
 25  13  15  1   
 26  13  16  1   
 27  13  37  1   
 28  14  16  1   
 29  14  38  1   
 30  14  39  1   
 31  15  40  1   
 32  16  17  1   
 33  16  18  1   
 34  17  19  ar  
 35  17  20  ar  
 36  18  21  1   
 37  18  41  1   
 38  18  42  1   
 39  21  22  ar  
 40  21  23  ar  
 41  22  24  ar  
 42  22  43  1   
 43  23  25  ar  
 44  23  44  1   
 45  24  26  ar  
 46  24  45  1   
 47  25  26  ar  
 48  25  46  1   
 49  26  47  1   
@<TRIPOS>SUBSTRUCTURE
  1 ****  14 GROUP 4 **** **** 0

# MOE 2024.06 (io_trps.svl 2023.06)
