@<TRIPOS>MOLECULE
NONAME
41 44 1 0 0 
SMALL
USER_CHARGES


@<TRIPOS>ATOM
  1 N        1.1880     0.9760     2.1790 N.1   1 <1>  -0.5570 
  2 C        1.4610     1.7680     1.4120 C.1   1 <1>   0.3570 
  3 C        1.7920     2.8300     0.4270 C.3   1 <1>   0.0400 
  4 C        0.7790     3.9880     0.4720 C.3   1 <1>   0.1760 
  5 N        1.4240     5.2000    -0.0950 N.pl3 1 <1>   0.3140 
  6 C       -0.5440     3.6970    -0.2830 C.3   1 <1>  -0.0800 
  7 N        2.1110     5.1740    -1.2530 N.2   1 <1>  -0.7070 
  8 C        1.4360     6.4300     0.4450 C.2   1 <1>  -0.3020 
  9 C       -1.5170     4.8800    -0.2970 C.3   1 <1>  -0.1600 
 10 C       -1.3940     2.5650     0.3050 C.3   1 <1>  -0.1600 
 11 C        2.5340     6.3890    -1.4120 C.2   1 <1>   0.1390 
 12 C        2.1420     7.2490    -0.3830 C.2   1 <1>  -0.0540 
 13 C       -2.8720     4.2730    -0.6540 C.3   1 <1>  -0.1600 
 14 C       -2.8170     2.8110    -0.2010 C.3   1 <1>  -0.1600 
 15 C        2.4630     8.6520    -0.2920 C.ar  1 <1>   0.3640 
 16 N        3.5730     9.0860    -0.8550 N.ar  1 <1>  -0.6200 
 17 C        1.6220     9.5510     0.3790 C.ar  1 <1>   0.0000 
 18 C        3.8530    10.3900    -0.7280 C.ar  1 <1>   0.4700 
 19 C        2.0320    10.8680     0.4380 C.ar  1 <1>   0.1050 
 20 C        0.3770     9.5040     1.0530 C.2   1 <1>  -0.1500 
 21 N        3.1580    11.3140    -0.1130 N.ar  1 <1>  -0.5670 
 22 N        1.1090    11.5980     1.1230 N.pl3 1 <1>   0.0330 
 23 C        0.0970    10.7550     1.4930 C.2   1 <1>  -0.3020 
 24 H        2.7730     3.1940     0.6740 H     1 <1>   0.0800 
 25 H        1.8280     2.4030    -0.5580 H     1 <1>   0.0800 
 26 H        0.5510     4.2080     1.5000 H     1 <1>   0.0800 
 27 H       -0.3140     3.4440    -1.3060 H     1 <1>   0.0800 
 28 H        0.9600     6.6640     1.3780 H     1 <1>   0.1500 
 29 H       -1.5770     5.3190     0.6840 H     1 <1>   0.0800 
 30 H       -1.2250     5.6360    -1.0060 H     1 <1>   0.0800 
 31 H       -1.0400     1.5930     0.0080 H     1 <1>   0.0800 
 32 H       -1.3940     2.6250     1.3800 H     1 <1>   0.0800 
 33 H        3.1290     6.7090    -2.2520 H     1 <1>   0.1500 
 34 H       -3.6770     4.8070    -0.1790 H     1 <1>   0.0800 
 35 H       -3.0130     4.3100    -1.7210 H     1 <1>   0.0800 
 36 H       -3.0320     2.1650    -1.0350 H     1 <1>   0.0800 
 37 H       -3.5340     2.6180     0.5790 H     1 <1>   0.0800 
 38 H        4.7710    10.7100    -1.1930 H     1 <1>   0.1500 
 39 H       -0.2220     8.6190     1.1700 H     1 <1>   0.1500 
 40 H        1.1910    12.6030     1.2990 H     1 <1>   0.2700 
 41 H       -0.7610    11.1010     2.0440 H     1 <1>   0.1500 
@<TRIPOS>BOND
  1   1   2  3   
  2   2   3  1   
  3   3   4  1   
  4   3  24  1   
  5   3  25  1   
  6   4   5  1   
  7   4   6  1   
  8   4  26  1   
  9   5   7  1   
 10   5   8  1   
 11   6   9  1   
 12   6  10  1   
 13   6  27  1   
 14   7  11  2   
 15   8  12  2   
 16   8  28  1   
 17   9  13  1   
 18   9  29  1   
 19   9  30  1   
 20  10  14  1   
 21  10  31  1   
 22  10  32  1   
 23  11  12  1   
 24  11  33  1   
 25  12  15  1   
 26  13  14  1   
 27  13  34  1   
 28  13  35  1   
 29  14  36  1   
 30  14  37  1   
 31  15  16  ar  
 32  15  17  ar  
 33  16  18  ar  
 34  17  19  ar  
 35  17  20  1   
 36  18  21  ar  
 37  18  38  1   
 38  19  21  ar  
 39  19  22  1   
 40  20  23  2   
 41  20  39  1   
 42  22  23  1   
 43  22  40  1   
 44  23  41  1   
@<TRIPOS>SUBSTRUCTURE
  1 ****   8 GROUP 4 **** **** 0

# MOE 2024.06 (io_trps.svl 2023.06)
