@<TRIPOS>MOLECULE
NONAME
60 62 1 0 0 
SMALL
USER_CHARGES


@<TRIPOS>ATOM
  1 O       -0.3130     0.9710     1.6370 O.3   1 <1>  -0.0190 
  2 N       -0.0810     2.2050     1.3030 N.2   1 <1>  -0.4100 
  3 C       -1.3030     0.6100     0.8560 C.2   1 <1>   0.2980 
  4 C       -0.9140     2.5040     0.3860 C.2   1 <1>   0.3350 
  5 N       -1.7200     1.5110     0.0550 N.2   1 <1>  -0.5650 
  6 C       -1.8520    -0.8020     0.9690 C.3   1 <1>   0.0200 
  7 C       -0.9870     3.8660    -0.3050 C.3   1 <1>   0.5240 
  8 C       -0.8100    -1.8820     0.6160 C.3   1 <1>  -0.0800 
  9 N        0.3410     4.5890    -0.2440 N.4   1 <1>  -0.9590 
 10 C       -0.3170    -1.7460    -0.8320 C.3   1 <1>  -0.2400 
 11 C       -1.4020    -3.2810     0.8290 C.3   1 <1>  -0.2400 
 12 C        0.2060     6.0270    -0.5860 C.3   1 <1>   0.3430 
 13 C        1.3580     3.8840    -1.0700 C.3   1 <1>   0.3430 
 14 C        1.5540     6.7280    -0.4010 C.3   1 <1>  -0.1600 
 15 C        2.7210     4.5500    -0.8860 C.3   1 <1>  -0.1600 
 16 C        2.6800     6.0540    -1.2030 C.3   1 <1>   0.4230 
 17 N        3.9950     6.6880    -0.8760 N.4   1 <1>  -0.9590 
 18 C        4.0810     8.1800    -1.0950 C.3   1 <1>   0.3430 
 19 C        5.2110     6.0570    -1.5130 C.3   1 <1>   0.3430 
 20 C        5.3820     8.7540    -0.4800 C.3   1 <1>   0.1100 
 21 C        6.5160     6.6630    -0.9390 C.3   1 <1>   0.1100 
 22 N        6.2440     7.6900     0.0950 N.3   1 <1>  -0.8100 
 23 C        7.5150     8.2340     0.6270 C.3   1 <1>   0.1100 
 24 C        7.3050     9.0190     1.9280 C.3   1 <1>   0.1200 
 25 O        8.5330     9.4700     2.3860 O.3   1 <1>  -0.6800 
 26 H       -2.7030    -0.8980     0.3190 H     1 <1>   0.0800 
 27 H       -2.1920    -0.9480     1.9780 H     1 <1>   0.0800 
 28 H       -1.7490     4.4460     0.1880 H     1 <1>   0.0800 
 29 H       -1.2860     3.7190    -1.3290 H     1 <1>   0.0800 
 30 H        0.0360    -1.7740     1.2760 H     1 <1>   0.0800 
 31 H        0.6240     4.4860     0.7470 H     1 <1>   0.4500 
 32 H       -1.1380    -1.8300    -1.5220 H     1 <1>   0.0800 
 33 H        0.3950    -2.5220    -1.0560 H     1 <1>   0.0800 
 34 H        0.1670    -0.7990    -0.9850 H     1 <1>   0.0800 
 35 H       -2.2480    -3.4400     0.1830 H     1 <1>   0.0800 
 36 H       -1.7200    -3.4050     1.8490 H     1 <1>   0.0800 
 37 H       -0.6640    -4.0350     0.6150 H     1 <1>   0.0800 
 38 H       -0.5310     6.4910     0.0530 H     1 <1>   0.0800 
 39 H       -0.1230     6.1310    -1.6080 H     1 <1>   0.0800 
 40 H        1.0720     3.9120    -2.1100 H     1 <1>   0.0800 
 41 H        1.4250     2.8480    -0.7700 H     1 <1>   0.0800 
 42 H        1.7970     6.7380     0.6470 H     1 <1>   0.0800 
 43 H        1.4250     7.7440    -0.7260 H     1 <1>   0.0800 
 44 H        3.4040     4.0500    -1.5480 H     1 <1>   0.0800 
 45 H        3.0510     4.3880     0.1250 H     1 <1>   0.0800 
 46 H        2.4800     6.1800    -2.2560 H     1 <1>   0.0800 
 47 H        4.2040     6.5990     0.1330 H     1 <1>   0.4500 
 48 H        3.2480     8.6810    -0.6340 H     1 <1>   0.0800 
 49 H        4.0580     8.4030    -2.1490 H     1 <1>   0.0800 
 50 H        5.1920     6.2010    -2.5800 H     1 <1>   0.0800 
 51 H        5.2280     4.9970    -1.3240 H     1 <1>   0.0800 
 52 H        5.1130     9.4570     0.2890 H     1 <1>   0.0800 
 53 H        5.9220     9.2990    -1.2370 H     1 <1>   0.0800 
 54 H        7.0930     7.0920    -1.7420 H     1 <1>   0.0800 
 55 H        7.1060     5.8700    -0.5090 H     1 <1>   0.0800 
 56 H        7.9800     8.8720    -0.1060 H     1 <1>   0.0800 
 57 H        8.1840     7.4170     0.8400 H     1 <1>   0.0800 
 58 H        6.8660     8.3990     2.6900 H     1 <1>   0.0800 
 59 H        6.6920     9.8860     1.7630 H     1 <1>   0.0800 
 60 H        9.0660     8.7350     2.7490 H     1 <1>   0.4000 
@<TRIPOS>BOND
  1   1   2  1   
  2   1   3  1   
  3   2   4  2   
  4   3   5  2   
  5   3   6  1   
  6   4   5  1   
  7   4   7  1   
  8   6   8  1   
  9   6  26  1   
 10   6  27  1   
 11   7   9  1   
 12   7  28  1   
 13   7  29  1   
 14   8  10  1   
 15   8  11  1   
 16   8  30  1   
 17   9  12  1   
 18   9  13  1   
 19   9  31  1   
 20  10  32  1   
 21  10  33  1   
 22  10  34  1   
 23  11  35  1   
 24  11  36  1   
 25  11  37  1   
 26  12  14  1   
 27  12  38  1   
 28  12  39  1   
 29  13  15  1   
 30  13  40  1   
 31  13  41  1   
 32  14  16  1   
 33  14  42  1   
 34  14  43  1   
 35  15  16  1   
 36  15  44  1   
 37  15  45  1   
 38  16  17  1   
 39  16  46  1   
 40  17  18  1   
 41  17  19  1   
 42  17  47  1   
 43  18  20  1   
 44  18  48  1   
 45  18  49  1   
 46  19  21  1   
 47  19  50  1   
 48  19  51  1   
 49  20  22  1   
 50  20  52  1   
 51  20  53  1   
 52  21  22  1   
 53  21  54  1   
 54  21  55  1   
 55  22  23  1   
 56  23  24  1   
 57  23  56  1   
 58  23  57  1   
 59  24  25  1   
 60  24  58  1   
 61  24  59  1   
 62  25  60  1   
@<TRIPOS>SUBSTRUCTURE
  1 ****  15 GROUP 4 **** **** 0

# MOE 2024.06 (io_trps.svl 2023.06)
