@<TRIPOS>MOLECULE
NONAME
47 49 1 0 0 
SMALL
USER_CHARGES


@<TRIPOS>ATOM
  1 O        0.1490    -0.4500     0.5680 O.3   1 <1>  -0.5600 
  2 C       -0.2280    -1.7420     0.1970 C.3   1 <1>   0.2000 
  3 C       -0.0090     0.5190    -0.4360 C.3   1 <1>   0.2640 
  4 C       -0.7160    -2.4820     1.4550 C.3   1 <1>   0.2090 
  5 C        0.9880    -2.4440    -0.4300 C.3   1 <1>  -0.1600 
  6 C        0.5100     1.8910    -0.0050 C.ar  1 <1>   0.1660 
  7 N       -0.9420    -3.9400     1.1830 N.pl3 1 <1>  -0.8380 
  8 C        0.6950    -3.9350    -0.6660 C.3   1 <1>  -0.1600 
  9 N        0.5860     2.7990    -0.9710 N.ar  1 <1>  -0.6200 
 10 C        0.8680     2.1470     1.3140 C.ar  1 <1>  -0.1500 
 11 C       -2.2070    -4.3690     0.8010 C.ar  1 <1>   0.4100 
 12 C        0.2380    -4.6410     0.6160 C.3   1 <1>   0.2090 
 13 C        1.0330     3.9920    -0.6130 C.ar  1 <1>   0.1600 
 14 C        1.3320     3.3940     1.6720 C.ar  1 <1>  -0.1500 
 15 N       -2.9730    -3.5470     0.0730 N.ar  1 <1>  -0.3100 
 16 C       -2.6410    -5.6290     1.1650 C.ar  1 <1>  -0.1500 
 17 C        1.4130     4.3370     0.6720 C.ar  1 <1>  -0.1500 
 18 N       -4.1670    -3.9230    -0.3220 N.ar  1 <1>  -0.3100 
 19 C       -3.8900    -6.0250     0.7540 C.ar  1 <1>  -0.1500 
 20 C       -4.6240    -5.1290     0.0040 C.ar  1 <1>   0.1670 
 21 C       -6.0250    -5.4880    -0.4960 C.3   1 <1>   0.0630 
 22 C       -6.9890    -5.7470     0.6710 C.3   1 <1>  -0.2400 
 23 C       -5.9920    -6.6930    -1.4450 C.3   1 <1>  -0.2400 
 24 H       -1.0450    -1.6900    -0.5040 H     1 <1>   0.0800 
 25 H       -1.0550     0.5960    -0.6750 H     1 <1>   0.0800 
 26 H        0.5320     0.2040    -1.3100 H     1 <1>   0.0800 
 27 H       -1.6300    -2.0320     1.8000 H     1 <1>   0.0800 
 28 H        0.0230    -2.3880     2.2310 H     1 <1>   0.0800 
 29 H        1.8280    -2.3510     0.2360 H     1 <1>   0.0800 
 30 H        1.2370    -1.9820    -1.3680 H     1 <1>   0.0800 
 31 H        1.5780    -4.4200    -1.0400 H     1 <1>   0.0800 
 32 H       -0.0770    -4.0390    -1.4090 H     1 <1>   0.0800 
 33 H        0.7860     1.3760     2.0590 H     1 <1>   0.1500 
 34 H       -0.0110    -5.6650     0.3950 H     1 <1>   0.0800 
 35 H        1.0320    -4.6370     1.3430 H     1 <1>   0.0800 
 36 H        1.1000     4.7370    -1.3870 H     1 <1>   0.1500 
 37 H        1.6170     3.6180     2.6860 H     1 <1>   0.1500 
 38 H       -2.0120    -6.2650     1.7580 H     1 <1>   0.1500 
 39 H        1.7670     5.3300     0.8830 H     1 <1>   0.1500 
 40 H       -4.2760    -6.9930     1.0110 H     1 <1>   0.1500 
 41 H       -6.4060    -4.6460    -1.0510 H     1 <1>   0.0800 
 42 H       -6.6860    -6.6080     1.2380 H     1 <1>   0.0800 
 43 H       -7.9860    -5.9110     0.3010 H     1 <1>   0.0800 
 44 H       -7.0050    -4.8930     1.3250 H     1 <1>   0.0800 
 45 H       -5.6610    -7.5790    -0.9330 H     1 <1>   0.0800 
 46 H       -5.3170    -6.4950    -2.2600 H     1 <1>   0.0800 
 47 H       -6.9710    -6.8750    -1.8510 H     1 <1>   0.0800 
@<TRIPOS>BOND
  1   1   2  1   
  2   1   3  1   
  3   2   4  1   
  4   2   5  1   
  5   2  24  1   
  6   3   6  1   
  7   3  25  1   
  8   3  26  1   
  9   4   7  1   
 10   4  27  1   
 11   4  28  1   
 12   5   8  1   
 13   5  29  1   
 14   5  30  1   
 15   6   9  ar  
 16   6  10  ar  
 17   7  11  1   
 18   7  12  1   
 19   8  12  1   
 20   8  31  1   
 21   8  32  1   
 22   9  13  ar  
 23  10  14  ar  
 24  10  33  1   
 25  11  15  ar  
 26  11  16  ar  
 27  12  34  1   
 28  12  35  1   
 29  13  17  ar  
 30  13  36  1   
 31  14  17  ar  
 32  14  37  1   
 33  15  18  ar  
 34  16  19  ar  
 35  16  38  1   
 36  17  39  1   
 37  18  20  ar  
 38  19  20  ar  
 39  19  40  1   
 40  20  21  1   
 41  21  22  1   
 42  21  23  1   
 43  21  41  1   
 44  22  42  1   
 45  22  43  1   
 46  22  44  1   
 47  23  45  1   
 48  23  46  1   
 49  23  47  1   
@<TRIPOS>SUBSTRUCTURE
  1 ****   2 GROUP 4 **** **** 0

# MOE 2024.06 (io_trps.svl 2023.06)
