@<TRIPOS>MOLECULE
NONAME
50 52 1 0 0 
SMALL
USER_CHARGES


@<TRIPOS>ATOM
  1 O       -1.8620    -1.6910     2.2650 O.co2 1 <1>  -0.9000 
  2 C       -1.6850    -1.3460     1.0940 C.2   1 <1>   0.9060 
  3 O       -0.9100    -0.4470     0.7530 O.co2 1 <1>  -0.9000 
  4 C       -2.5780    -1.9640     0.0140 C.3   1 <1>   0.2370 
  5 N       -3.8520    -1.1870    -0.2670 N.4   1 <1>  -0.9590 
  6 C       -4.7200    -1.1850     0.9490 C.3   1 <1>   0.3430 
  7 C       -3.5290     0.2050    -0.6970 C.3   1 <1>   0.3430 
  8 C       -6.1760    -0.8290     0.5600 C.3   1 <1>   0.1900 
  9 C       -4.7570     1.0220    -1.1660 C.3   1 <1>  -0.0800 
 10 N       -6.3660    -0.9340    -0.9310 N.3   1 <1>  -0.8100 
 11 C       -6.5800     0.5400     1.1410 C.3   1 <1>   0.1200 
 12 C       -5.2220     2.0370    -0.1080 C.3   1 <1>   0.1200 
 13 C       -5.9480     0.2240    -1.7430 C.3   1 <1>   0.1100 
 14 C       -7.6590    -1.5060    -1.3380 C.3   1 <1>   0.2530 
 15 O       -5.5130     1.4410     1.1120 O.3   1 <1>  -0.5600 
 16 C       -7.7020    -2.9630    -0.9120 C.ar  1 <1>  -0.1430 
 17 C       -8.6040    -3.4040     0.0430 C.ar  1 <1>   0.1600 
 18 C       -6.8170    -3.8750    -1.4560 C.ar  1 <1>  -0.1500 
 19 N       -8.6810    -4.6400     0.5030 N.ar  1 <1>  -0.6200 
 20 C       -6.8890    -5.1660    -0.9900 C.ar  1 <1>  -0.1500 
 21 C       -7.8210    -5.5090    -0.0160 C.ar  1 <1>   0.4100 
 22 N       -7.8730    -6.8130     0.4420 N.pl3 1 <1>  -0.8380 
 23 C       -8.2450    -7.0480     1.8640 C.3   1 <1>   0.1290 
 24 C       -8.4060    -7.8360    -0.4930 C.3   1 <1>   0.1290 
 25 H       -2.8220    -2.9590     0.3360 H     1 <1>   0.0800 
 26 H       -1.9880    -2.0310    -0.8810 H     1 <1>   0.0800 
 27 H       -4.4520    -1.6130    -0.9900 H     1 <1>   0.4500 
 28 H       -4.7150    -2.1670     1.3920 H     1 <1>   0.0800 
 29 H       -4.3360    -0.4980     1.6870 H     1 <1>   0.0800 
 30 H       -3.0370     0.7260     0.1110 H     1 <1>   0.0800 
 31 H       -2.8250     0.1510    -1.5100 H     1 <1>   0.0800 
 32 H       -6.8010    -1.5570     1.0430 H     1 <1>   0.0800 
 33 H       -4.4010     1.6340    -1.9740 H     1 <1>   0.0800 
 34 H       -6.8350     0.4130     2.1780 H     1 <1>   0.0800 
 35 H       -7.4310     0.9600     0.6330 H     1 <1>   0.0800 
 36 H       -6.0910     2.5820    -0.4380 H     1 <1>   0.0800 
 37 H       -4.4350     2.7480     0.0800 H     1 <1>   0.0800 
 38 H       -5.6790    -0.1380    -2.7210 H     1 <1>   0.0800 
 39 H       -6.7850     0.8910    -1.8700 H     1 <1>   0.0800 
 40 H       -8.4680    -0.9480    -0.8990 H     1 <1>   0.0800 
 41 H       -7.7590    -1.4610    -2.4100 H     1 <1>   0.0800 
 42 H       -9.3020    -2.7010     0.4620 H     1 <1>   0.1500 
 43 H       -6.1000    -3.5870    -2.2040 H     1 <1>   0.1500 
 44 H       -6.2290    -5.9270    -1.3580 H     1 <1>   0.1500 
 45 H       -7.8820    -8.0080     2.1840 H     1 <1>   0.0800 
 46 H       -9.3150    -7.0110     1.9730 H     1 <1>   0.0800 
 47 H       -7.8060    -6.2860     2.4860 H     1 <1>   0.0800 
 48 H       -7.9210    -8.7800    -0.3130 H     1 <1>   0.0800 
 49 H       -8.2270    -7.5430    -1.5130 H     1 <1>   0.0800 
 50 H       -9.4660    -7.9470    -0.3480 H     1 <1>   0.0800 
@<TRIPOS>BOND
  1   1   2  ar  
  2   2   3  ar  
  3   2   4  1   
  4   4   5  1   
  5   4  25  1   
  6   4  26  1   
  7   5   6  1   
  8   5   7  1   
  9   5  27  1   
 10   6   8  1   
 11   6  28  1   
 12   6  29  1   
 13   7   9  1   
 14   7  30  1   
 15   7  31  1   
 16   8  10  1   
 17   8  11  1   
 18   8  32  1   
 19   9  12  1   
 20   9  13  1   
 21   9  33  1   
 22  10  13  1   
 23  10  14  1   
 24  11  15  1   
 25  11  34  1   
 26  11  35  1   
 27  12  15  1   
 28  12  36  1   
 29  12  37  1   
 30  13  38  1   
 31  13  39  1   
 32  14  16  1   
 33  14  40  1   
 34  14  41  1   
 35  16  17  ar  
 36  16  18  ar  
 37  17  19  ar  
 38  17  42  1   
 39  18  20  ar  
 40  18  43  1   
 41  19  21  ar  
 42  20  21  ar  
 43  20  44  1   
 44  21  22  1   
 45  22  23  1   
 46  22  24  1   
 47  23  45  1   
 48  23  46  1   
 49  23  47  1   
 50  24  48  1   
 51  24  49  1   
 52  24  50  1   
@<TRIPOS>SUBSTRUCTURE
  1 ****   8 GROUP 4 **** **** 0

# MOE 2024.06 (io_trps.svl 2023.06)
