@<TRIPOS>MOLECULE
NONAME
55 58 1 0 0 
SMALL
USER_CHARGES


@<TRIPOS>ATOM
  1 O       -0.2500     0.4680    -1.0620 O.2   1 <1>  -0.5700 
  2 C       -0.0780     1.5060    -0.4630 C.2   1 <1>   0.5690 
  3 N       -1.1080     2.2480     0.0550 N.am  1 <1>  -0.5090 
  4 C        1.3630     2.0070    -0.3270 C.3   1 <1>   0.1810 
  5 C       -0.8640     3.5930     0.6690 C.3   1 <1>   0.3640 
  6 C       -2.5120     1.7670     0.0790 C.3   1 <1>   0.0490 
  7 O        1.5160     3.0420     0.6130 O.3   1 <1>  -0.5600 
  8 C       -1.8200     4.6420     0.0940 C.ar  1 <1>  -0.1440 
  9 C        0.5830     4.0910     0.4620 C.3   1 <1>   0.2610 
 10 C       -3.2080     1.6460     1.4000 C.3   1 <1>  -0.2000 
 11 C       -2.8220     0.4160     0.6440 C.3   1 <1>  -0.2000 
 12 C       -2.4510     5.5340     0.9490 C.ar  1 <1>  -0.1500 
 13 C       -2.0480     4.7440    -1.2730 C.ar  1 <1>  -0.1500 
 14 C        0.8850     5.2630     1.4120 C.2   1 <1>   0.5690 
 15 C       -3.2930     6.5140     0.4530 C.ar  1 <1>  -0.1500 
 16 C       -2.8880     5.7230    -1.7710 C.ar  1 <1>  -0.1500 
 17 O        0.4640     5.1990     2.5480 O.2   1 <1>  -0.5700 
 18 N        1.5800     6.3690     0.9790 N.am  1 <1>  -0.6600 
 19 C       -3.5130     6.6160    -0.9170 C.ar  1 <1>   0.0830 
 20 C        2.1970     6.5200    -0.3650 C.3   1 <1>   0.1400 
 21 C        1.7700     7.5510     1.8630 C.3   1 <1>   0.1400 
 22 O       -4.3110     7.5510    -1.4870 O.3   1 <1>  -0.3620 
 23 C        1.2050     7.0800    -1.3960 C.3   1 <1>  -0.1600 
 24 C        0.7260     8.6320     1.5640 C.3   1 <1>  -0.1600 
 25 C       -4.9690     8.5260    -0.7080 C.3   1 <1>   0.0400 
 26 C        0.1500     8.0690    -0.8700 C.3   1 <1>  -0.1600 
 27 C        0.6920     9.1270     0.1060 C.3   1 <1>  -0.1600 
 28 H        1.7080     2.3610    -1.2810 H     1 <1>   0.0800 
 29 H        1.9910     1.1910    -0.0160 H     1 <1>   0.0800 
 30 H       -1.0450     3.4960     1.7240 H     1 <1>   0.0800 
 31 H       -3.0810     2.1030    -0.7720 H     1 <1>   0.1000 
 32 H        0.6640     4.4390    -0.5480 H     1 <1>   0.0800 
 33 H       -2.6770     1.8620     2.3100 H     1 <1>   0.1000 
 34 H       -4.2500     1.9040     1.4560 H     1 <1>   0.1000 
 35 H       -3.5960    -0.1670     0.1770 H     1 <1>   0.1000 
 36 H       -2.0080    -0.1890     1.0010 H     1 <1>   0.1000 
 37 H       -2.2820     5.4760     2.0120 H     1 <1>   0.1500 
 38 H       -1.5770     4.0600    -1.9580 H     1 <1>   0.1500 
 39 H       -3.7620     7.1870     1.1450 H     1 <1>   0.1500 
 40 H       -3.0670     5.8020    -2.8280 H     1 <1>   0.1500 
 41 H        3.0340     7.1930    -0.2890 H     1 <1>   0.0800 
 42 H        2.5890     5.5750    -0.7000 H     1 <1>   0.0800 
 43 H        1.6860     7.2540     2.8950 H     1 <1>   0.0800 
 44 H        2.7600     7.9500     1.7280 H     1 <1>   0.0800 
 45 H        1.7780     7.5650    -2.1660 H     1 <1>   0.0800 
 46 H        0.6910     6.2640    -1.8720 H     1 <1>   0.0800 
 47 H       -0.2440     8.2580     1.8440 H     1 <1>   0.0800 
 48 H        0.9340     9.4720     2.2030 H     1 <1>   0.0800 
 49 H       -5.5290     9.1600    -1.3710 H     1 <1>   0.0800 
 50 H       -4.2320     9.1070    -0.1820 H     1 <1>   0.0800 
 51 H       -5.6350     8.0330    -0.0230 H     1 <1>   0.0800 
 52 H       -0.2880     8.5690    -1.7160 H     1 <1>   0.0800 
 53 H       -0.6450     7.5220    -0.3920 H     1 <1>   0.0800 
 54 H        0.0320     9.9770     0.0690 H     1 <1>   0.0800 
 55 H        1.6660     9.4640    -0.2040 H     1 <1>   0.0800 
@<TRIPOS>BOND
  1   1   2  2   
  2   2   3  am  
  3   2   4  1   
  4   3   5  1   
  5   3   6  1   
  6   4   7  1   
  7   4  28  1   
  8   4  29  1   
  9   5   8  1   
 10   5   9  1   
 11   5  30  1   
 12   6  10  1   
 13   6  11  1   
 14   6  31  1   
 15   7   9  1   
 16   8  12  ar  
 17   8  13  ar  
 18   9  14  1   
 19   9  32  1   
 20  10  11  1   
 21  10  33  1   
 22  10  34  1   
 23  11  35  1   
 24  11  36  1   
 25  12  15  ar  
 26  12  37  1   
 27  13  16  ar  
 28  13  38  1   
 29  14  17  2   
 30  14  18  am  
 31  15  19  ar  
 32  15  39  1   
 33  16  19  ar  
 34  16  40  1   
 35  18  20  1   
 36  18  21  1   
 37  19  22  1   
 38  20  23  1   
 39  20  41  1   
 40  20  42  1   
 41  21  24  1   
 42  21  43  1   
 43  21  44  1   
 44  22  25  1   
 45  23  26  1   
 46  23  45  1   
 47  23  46  1   
 48  24  27  1   
 49  24  47  1   
 50  24  48  1   
 51  25  49  1   
 52  25  50  1   
 53  25  51  1   
 54  26  27  1   
 55  26  52  1   
 56  26  53  1   
 57  27  54  1   
 58  27  55  1   
@<TRIPOS>SUBSTRUCTURE
  1 ****   8 GROUP 4 **** **** 0

# MOE 2024.06 (io_trps.svl 2023.06)
