@<TRIPOS>MOLECULE
NONAME
48 49 1 0 0 
SMALL
USER_CHARGES


@<TRIPOS>ATOM
  1 O       -0.1620    -0.6140    -0.6470 O.2   1 <1>  -0.5700 
  2 C        0.7180    -1.3890    -0.3270 C.2   1 <1>   0.5440 
  3 N        2.0080    -0.9380    -0.2870 N.am  1 <1>  -0.7300 
  4 C        0.4030    -2.7610     0.0210 C.ar  1 <1>   0.0860 
  5 C        2.4410     0.4260    -0.6460 C.3   1 <1>   0.1400 
  6 C       -0.8220    -3.1230     0.5510 C.ar  1 <1>  -0.1500 
  7 C        1.2960    -3.8120    -0.1500 C.ar  1 <1>  -0.1500 
  8 C        3.7970     0.3390    -1.3350 C.3   1 <1>  -0.2400 
  9 C       -1.1120    -4.4410     0.8810 C.ar  1 <1>   0.4100 
 10 C        0.9330    -5.0920     0.2130 C.ar  1 <1>   0.1600 
 11 N       -0.2360    -5.4260     0.7250 N.ar  1 <1>  -0.6200 
 12 N       -2.3550    -4.7670     1.3960 N.pl3 1 <1>  -0.8380 
 13 C       -2.5280    -6.0020     2.2360 C.3   1 <1>   0.3900 
 14 C       -3.5830    -4.3670     0.6510 C.3   1 <1>   0.1290 
 15 C       -3.2200    -7.1410     1.4860 C.2   1 <1>   0.1080 
 16 N       -4.3760    -7.6370     1.8220 N.2   1 <1>  -0.7070 
 17 C       -2.6950    -7.7690     0.3610 C.2   1 <1>  -0.1500 
 18 N       -4.6080    -8.6010     0.9100 N.pl3 1 <1>   0.3000 
 19 C       -3.6080    -8.7030     0.0090 C.2   1 <1>  -0.3320 
 20 C       -3.6120    -9.7070    -1.1370 C.3   1 <1>   0.1800 
 21 C       -4.8290    -9.4510    -2.0330 C.3   1 <1>  -0.2400 
 22 C       -3.6730   -11.1290    -0.5690 C.3   1 <1>  -0.2400 
 23 C       -2.3370    -9.5590    -1.9750 C.3   1 <1>  -0.2400 
 24 H        2.7300    -1.5270     0.1280 H     1 <1>   0.3700 
 25 H        2.5100     1.0250     0.2460 H     1 <1>   0.0800 
 26 H        1.7190     0.8780    -1.3080 H     1 <1>   0.0800 
 27 H       -1.5630    -2.3660     0.7210 H     1 <1>   0.1500 
 28 H        2.2660    -3.6340    -0.5730 H     1 <1>   0.1500 
 29 H        4.5310    -0.0850    -0.6740 H     1 <1>   0.0800 
 30 H        4.1210     1.3260    -1.6150 H     1 <1>   0.0800 
 31 H        3.7230    -0.2580    -2.2260 H     1 <1>   0.0800 
 32 H        1.6430    -5.8910     0.0740 H     1 <1>   0.1500 
 33 H       -3.1250    -5.7500     3.0940 H     1 <1>   0.0800 
 34 H       -1.5780    -6.3490     2.6010 H     1 <1>   0.0800 
 35 H       -3.5030    -3.3570     0.2910 H     1 <1>   0.0800 
 36 H       -4.4420    -4.4350     1.2970 H     1 <1>   0.0800 
 37 H       -3.7270    -5.0240    -0.1890 H     1 <1>   0.0800 
 38 H       -1.7540    -7.5180    -0.0960 H     1 <1>   0.1500 
 39 H       -5.4580    -9.1740     0.9240 H     1 <1>   0.2700 
 40 H       -5.7440    -9.5910    -1.4870 H     1 <1>   0.0800 
 41 H       -4.8270   -10.1240    -2.8710 H     1 <1>   0.0800 
 42 H       -4.8050    -8.4420    -2.4040 H     1 <1>   0.0800 
 43 H       -4.5790   -11.2820    -0.0120 H     1 <1>   0.0800 
 44 H       -2.8380   -11.2970     0.0880 H     1 <1>   0.0800 
 45 H       -3.6360   -11.8540    -1.3620 H     1 <1>   0.0800 
 46 H       -2.2700    -8.5650    -2.3820 H     1 <1>   0.0800 
 47 H       -2.3330   -10.2610    -2.7890 H     1 <1>   0.0800 
 48 H       -1.4680    -9.7370    -1.3670 H     1 <1>   0.0800 
@<TRIPOS>BOND
  1   1   2  2   
  2   2   3  am  
  3   2   4  1   
  4   3   5  1   
  5   3  24  1   
  6   4   6  ar  
  7   4   7  ar  
  8   5   8  1   
  9   5  25  1   
 10   5  26  1   
 11   6   9  ar  
 12   6  27  1   
 13   7  10  ar  
 14   7  28  1   
 15   8  29  1   
 16   8  30  1   
 17   8  31  1   
 18   9  11  ar  
 19   9  12  1   
 20  10  11  ar  
 21  10  32  1   
 22  12  13  1   
 23  12  14  1   
 24  13  15  1   
 25  13  33  1   
 26  13  34  1   
 27  14  35  1   
 28  14  36  1   
 29  14  37  1   
 30  15  16  2   
 31  15  17  1   
 32  16  18  1   
 33  17  19  2   
 34  17  38  1   
 35  18  19  1   
 36  18  39  1   
 37  19  20  1   
 38  20  21  1   
 39  20  22  1   
 40  20  23  1   
 41  21  40  1   
 42  21  41  1   
 43  21  42  1   
 44  22  43  1   
 45  22  44  1   
 46  22  45  1   
 47  23  46  1   
 48  23  47  1   
 49  23  48  1   
@<TRIPOS>SUBSTRUCTURE
  1 ****   9 GROUP 4 **** **** 0

# MOE 2024.06 (io_trps.svl 2023.06)
