@<TRIPOS>MOLECULE
NONAME
33 34 1 0 0 
SMALL
USER_CHARGES


@<TRIPOS>ATOM
  1 O        3.0840    -0.5580     1.5620 O.2   1 <1>  -0.5700 
  2 C        2.3440    -0.9420     0.6880 C.2   1 <1>   0.5690 
  3 N        1.9980    -0.1780    -0.3840 N.am  1 <1>  -0.4940 
  4 C        1.7480    -2.3420     0.7840 C.3   1 <1>   0.1810 
  5 C        2.2710     1.1550    -0.7090 C.2   1 <1>   0.2500 
  6 O        0.8810    -2.5950    -0.2980 O.3   1 <1>  -0.5600 
  7 N        1.4280     1.8490    -1.4080 N.2   1 <1>  -0.3380 
  8 N        3.3710     1.8740    -0.3920 N.pl3 1 <1>   0.3340 
  9 C        0.2670    -3.8400    -0.2910 C.3   1 <1>   0.2000 
 10 N        1.9380     3.0710    -1.5570 N.2   1 <1>  -0.3380 
 11 C        3.0900     3.0860    -0.9540 C.2   1 <1>   0.3120 
 12 C        4.6120     1.6780     0.2050 C.2   1 <1>  -0.1810 
 13 C        1.2090    -4.8570    -0.9350 C.3   1 <1>  -0.2400 
 14 C       -1.0190    -3.6930    -1.0970 C.3   1 <1>  -0.2400 
 15 N        3.9470     4.1620    -0.8870 N.2   1 <1>  -0.5760 
 16 C        5.4660     2.7300     0.2600 C.2   1 <1>  -0.1360 
 17 C        5.0790     3.9800    -0.3000 C.2   1 <1>   0.3750 
 18 C        6.0480     5.1370    -0.2030 C.3   1 <1>  -0.1790 
 19 H        1.2750    -0.6150    -0.9650 H     1 <1>   0.3700 
 20 H        1.1920    -2.4250     1.7010 H     1 <1>   0.0800 
 21 H        2.5430    -3.0640     0.7760 H     1 <1>   0.0800 
 22 H        0.0270    -4.1200     0.7220 H     1 <1>   0.0800 
 23 H        4.8360     0.7020     0.5930 H     1 <1>   0.1500 
 24 H        1.4890    -4.5340    -1.9220 H     1 <1>   0.0800 
 25 H        0.7150    -5.8090    -1.0170 H     1 <1>   0.0800 
 26 H        2.0920    -4.9950    -0.3400 H     1 <1>   0.0800 
 27 H       -0.7980    -3.3910    -2.1050 H     1 <1>   0.0800 
 28 H       -1.6580    -2.9600    -0.6380 H     1 <1>   0.0800 
 29 H       -1.5450    -4.6300    -1.1270 H     1 <1>   0.0800 
 30 H        6.4370     2.6530     0.7140 H     1 <1>   0.1500 
 31 H        6.2570     5.3540     0.8280 H     1 <1>   0.0800 
 32 H        5.6240     6.0150    -0.6600 H     1 <1>   0.0800 
 33 H        6.9620     4.8930    -0.7110 H     1 <1>   0.0800 
@<TRIPOS>BOND
  1   1   2  2   
  2   2   3  am  
  3   2   4  1   
  4   3   5  1   
  5   3  19  1   
  6   4   6  1   
  7   4  20  1   
  8   4  21  1   
  9   5   7  2   
 10   5   8  1   
 11   6   9  1   
 12   7  10  1   
 13   8  11  1   
 14   8  12  1   
 15   9  13  1   
 16   9  14  1   
 17   9  22  1   
 18  10  11  2   
 19  11  15  1   
 20  12  16  2   
 21  12  23  1   
 22  13  24  1   
 23  13  25  1   
 24  13  26  1   
 25  14  27  1   
 26  14  28  1   
 27  14  29  1   
 28  15  17  2   
 29  16  17  1   
 30  16  30  1   
 31  17  18  1   
 32  18  31  1   
 33  18  32  1   
 34  18  33  1   
@<TRIPOS>SUBSTRUCTURE
  1 ****   5 GROUP 4 **** **** 0

# MOE 2024.06 (io_trps.svl 2023.06)
