@<TRIPOS>MOLECULE
NONAME
43 45 1 0 0 
SMALL
USER_CHARGES


@<TRIPOS>ATOM
  1 S        0.4520     0.0670    -0.7440 S.o2  1 <1>   1.3330 
  2 O        0.4770    -1.3770    -0.6870 O.2   1 <1>  -0.6500 
  3 O        0.1760     0.7300    -1.9990 O.2   1 <1>  -0.6500 
  4 N       -0.6770     0.6160     0.3990 N.am  1 <1>  -0.8490 
  5 C        1.9920     0.7490    -0.1330 C.3   1 <1>  -0.0550 
  6 C       -0.7120    -0.2060     1.6140 C.3   1 <1>   0.1160 
  7 C       -2.0260     0.7180    -0.1670 C.3   1 <1>   0.1160 
  8 C        3.2150     0.3870    -1.0110 C.3   1 <1>  -0.0800 
  9 C        4.4740     1.1910    -0.6980 C.3   1 <1>   0.2200 
 10 C        3.7040    -1.0150    -0.6570 C.3   1 <1>   0.1200 
 11 N        4.2030     2.6190    -0.3900 N.am  1 <1>  -0.7300 
 12 C        5.0970     0.4100     0.4660 C.3   1 <1>   0.1200 
 13 O        4.4640    -0.8380     0.4940 O.3   1 <1>  -0.5600 
 14 C        5.1530     3.5180     0.0110 C.2   1 <1>   0.5440 
 15 O        6.2890     3.1230     0.1770 O.2   1 <1>  -0.5700 
 16 C        4.8140     4.9160     0.2110 C.ar  1 <1>   0.0860 
 17 C        5.7740     5.9120     0.0210 C.ar  1 <1>  -0.1500 
 18 C        3.5200     5.3080     0.5980 C.ar  1 <1>  -0.1500 
 19 C        5.4600     7.2490     0.1950 C.ar  1 <1>   0.2270 
 20 C        3.1830     6.6380     0.7770 C.ar  1 <1>  -0.1500 
 21 N        6.3370     8.3180     0.0240 N.2   1 <1>  -0.5650 
 22 C        4.1720     7.5790     0.5670 C.ar  1 <1>   0.0400 
 23 C        5.7670     9.4310     0.2530 C.2   1 <1>   0.2280 
 24 S        4.0720     9.3200     0.7080 S.3   1 <1>  -0.0800 
 25 H        1.8670     1.8120    -0.1010 H     1 <1>   0.0800 
 26 H        2.1650     0.4180     0.8720 H     1 <1>   0.0800 
 27 H       -1.3810     0.2300     2.3360 H     1 <1>   0.0800 
 28 H        0.2680    -0.2660     2.0540 H     1 <1>   0.0800 
 29 H       -1.0480    -1.2050     1.3850 H     1 <1>   0.0800 
 30 H       -2.7160     1.0810     0.5750 H     1 <1>   0.0800 
 31 H       -2.3580    -0.2440    -0.5200 H     1 <1>   0.0800 
 32 H       -2.0280     1.4090    -0.9940 H     1 <1>   0.0800 
 33 H        2.9670     0.4550    -2.0560 H     1 <1>   0.0800 
 34 H        5.1520     1.1420    -1.5340 H     1 <1>   0.0800 
 35 H        4.3500    -1.4080    -1.4240 H     1 <1>   0.0800 
 36 H        2.9170    -1.7210    -0.4540 H     1 <1>   0.0800 
 37 H        3.3440     2.9900    -0.7970 H     1 <1>   0.3700 
 38 H        4.9210     0.8940     1.4100 H     1 <1>   0.0800 
 39 H        6.1520     0.2620     0.3150 H     1 <1>   0.0800 
 40 H        6.7780     5.6500    -0.2640 H     1 <1>   0.1500 
 41 H        2.7690     4.5560     0.7690 H     1 <1>   0.1500 
 42 H        2.1940     6.9400     1.0730 H     1 <1>   0.1500 
 43 H        6.1890    10.4200     0.2020 H     1 <1>   0.1500 
@<TRIPOS>BOND
  1   1   2  2   
  2   1   3  2   
  3   1   4  am  
  4   1   5  1   
  5   4   6  1   
  6   4   7  1   
  7   5   8  1   
  8   5  25  1   
  9   5  26  1   
 10   6  27  1   
 11   6  28  1   
 12   6  29  1   
 13   7  30  1   
 14   7  31  1   
 15   7  32  1   
 16   8   9  1   
 17   8  10  1   
 18   8  33  1   
 19   9  11  1   
 20   9  12  1   
 21   9  34  1   
 22  10  13  1   
 23  10  35  1   
 24  10  36  1   
 25  11  14  am  
 26  11  37  1   
 27  12  13  1   
 28  12  38  1   
 29  12  39  1   
 30  14  15  2   
 31  14  16  1   
 32  16  17  ar  
 33  16  18  ar  
 34  17  19  ar  
 35  17  40  1   
 36  18  20  ar  
 37  18  41  1   
 38  19  21  1   
 39  19  22  ar  
 40  20  22  ar  
 41  20  42  1   
 42  21  23  2   
 43  22  24  1   
 44  23  24  1   
 45  23  43  1   
@<TRIPOS>SUBSTRUCTURE
  1 ****  11 GROUP 4 **** **** 0

# MOE 2024.06 (io_trps.svl 2023.06)
