@<TRIPOS>MOLECULE
NONAME
55 58 1 0 0 
SMALL
USER_CHARGES


@<TRIPOS>ATOM
  1 O        3.4300    -5.7790     2.4730 O.2   1 <1>  -0.5700 
  2 C        2.4150    -5.7700     1.8230 C.2   1 <1>   0.5690 
  3 N        1.2350    -6.1660     2.3570 N.am  1 <1>  -0.5470 
  4 C        2.4210    -5.2980     0.3710 C.3   1 <1>   0.1810 
  5 C        0.0910    -6.3240     1.5800 C.ar  1 <1>   0.1170 
  6 O        1.3580    -5.8490    -0.4130 O.3   1 <1>  -0.3630 
  7 C        0.1790    -6.1740     0.1920 C.ar  1 <1>   0.0830 
  8 C       -1.1340    -6.6490     2.1440 C.ar  1 <1>  -0.1500 
  9 C       -0.9310    -6.3800    -0.6020 C.ar  1 <1>  -0.1500 
 10 C       -2.2410    -6.8520     1.3400 C.ar  1 <1>  -0.1500 
 11 C       -2.1580    -6.7480    -0.0500 C.ar  1 <1>   0.0860 
 12 C       -3.2880    -7.0420    -0.9070 C.2   1 <1>   0.5440 
 13 O       -3.7980    -6.1280    -1.5280 O.2   1 <1>  -0.5700 
 14 N       -3.8090    -8.3160    -1.0560 N.am  1 <1>  -0.6600 
 15 C       -3.2250    -9.5330    -0.3700 C.3   1 <1>   0.3640 
 16 C       -5.0910    -8.4940    -1.8040 C.3   1 <1>   0.1400 
 17 C       -1.7210    -9.6000    -0.6560 C.ar  1 <1>  -0.1430 
 18 C       -3.8620   -10.9100    -0.7480 C.3   1 <1>   0.2000 
 19 C       -5.2520    -9.9110    -2.3500 C.3   1 <1>   0.1200 
 20 C       -0.8160    -9.7080     0.3910 C.ar  1 <1>  -0.1500 
 21 C       -1.2340    -9.5190    -1.9520 C.ar  1 <1>  -0.1500 
 22 O       -5.1480   -10.8130    -1.2990 O.3   1 <1>  -0.5600 
 23 C       -3.9960   -11.8550     0.4580 C.3   1 <1>   0.1200 
 24 C        0.5520    -9.7030     0.1770 C.ar  1 <1>   0.0830 
 25 C        0.1280    -9.5270    -2.1900 C.ar  1 <1>  -0.1500 
 26 O       -2.8080   -11.9600     1.1750 O.3   1 <1>  -0.6800 
 27 O        1.2990    -9.7800     1.3170 O.3   1 <1>  -0.3630 
 28 C        1.0350    -9.6030    -1.1390 C.ar  1 <1>   0.0830 
 29 C        2.6600    -9.4160     1.3560 C.3   1 <1>   0.0400 
 30 O        2.3680    -9.5890    -1.4110 O.3   1 <1>  -0.3630 
 31 C        2.8610    -8.6420    -2.3340 C.3   1 <1>   0.0400 
 32 H        1.2510    -6.4720     3.3290 H     1 <1>   0.3700 
 33 H        3.3480    -5.5720    -0.0950 H     1 <1>   0.0800 
 34 H        2.3190    -4.2290     0.3500 H     1 <1>   0.0800 
 35 H       -1.2200    -6.7510     3.2110 H     1 <1>   0.1500 
 36 H       -0.8470    -6.2730    -1.6680 H     1 <1>   0.1500 
 37 H       -3.1870    -7.1050     1.7850 H     1 <1>   0.1500 
 38 H       -3.3650    -9.3940     0.6880 H     1 <1>   0.0800 
 39 H       -5.9140    -8.2720    -1.1480 H     1 <1>   0.0800 
 40 H       -5.1330    -7.8030    -2.6290 H     1 <1>   0.0800 
 41 H       -3.2490   -11.3920    -1.4890 H     1 <1>   0.0800 
 42 H       -4.5030   -10.1320    -3.0910 H     1 <1>   0.0800 
 43 H       -6.2260   -10.0280    -2.7910 H     1 <1>   0.0800 
 44 H       -1.1670    -9.7820     1.4050 H     1 <1>   0.1500 
 45 H       -1.9160    -9.4370    -2.7800 H     1 <1>   0.1500 
 46 H       -4.2780   -12.8400     0.1310 H     1 <1>   0.0800 
 47 H       -4.7440   -11.4780     1.1340 H     1 <1>   0.0800 
 48 H        0.4760    -9.4750    -3.2040 H     1 <1>   0.1500 
 49 H       -2.0900   -12.3400     0.6270 H     1 <1>   0.4000 
 50 H        2.9620    -9.3520     2.3850 H     1 <1>   0.0800 
 51 H        2.7810    -8.4620     0.8770 H     1 <1>   0.0800 
 52 H        3.2350   -10.1730     0.8520 H     1 <1>   0.0800 
 53 H        3.9240    -8.5650    -2.1980 H     1 <1>   0.0800 
 54 H        2.3950    -7.6910    -2.1420 H     1 <1>   0.0800 
 55 H        2.6460    -8.9780    -3.3320 H     1 <1>   0.0800 
@<TRIPOS>BOND
  1   1   2  2   
  2   2   3  am  
  3   2   4  1   
  4   3   5  1   
  5   3  32  1   
  6   4   6  1   
  7   4  33  1   
  8   4  34  1   
  9   5   7  ar  
 10   5   8  ar  
 11   6   7  1   
 12   7   9  ar  
 13   8  10  ar  
 14   8  35  1   
 15   9  11  ar  
 16   9  36  1   
 17  10  11  ar  
 18  10  37  1   
 19  11  12  1   
 20  12  13  2   
 21  12  14  am  
 22  14  15  1   
 23  14  16  1   
 24  15  17  1   
 25  15  18  1   
 26  15  38  1   
 27  16  19  1   
 28  16  39  1   
 29  16  40  1   
 30  17  20  ar  
 31  17  21  ar  
 32  18  22  1   
 33  18  23  1   
 34  18  41  1   
 35  19  22  1   
 36  19  42  1   
 37  19  43  1   
 38  20  24  ar  
 39  20  44  1   
 40  21  25  ar  
 41  21  45  1   
 42  23  26  1   
 43  23  46  1   
 44  23  47  1   
 45  24  27  1   
 46  24  28  ar  
 47  25  28  ar  
 48  25  48  1   
 49  26  49  1   
 50  27  29  1   
 51  28  30  1   
 52  29  50  1   
 53  29  51  1   
 54  29  52  1   
 55  30  31  1   
 56  31  53  1   
 57  31  54  1   
 58  31  55  1   
@<TRIPOS>SUBSTRUCTURE
  1 ****  20 GROUP 4 **** **** 0

# MOE 2024.06 (io_trps.svl 2023.06)
