@<TRIPOS>MOLECULE
NONAME
40 42 1 0 0 
SMALL
USER_CHARGES


@<TRIPOS>ATOM
  1 F       -0.4670     0.2060     1.8810 F     1 <1>  -0.1900 
  2 C       -1.3420     0.9960     1.3210 C.ar  1 <1>   0.1900 
  3 C       -1.2820     2.3480     1.5960 C.ar  1 <1>  -0.1500 
  4 C       -2.2880     0.4530     0.4750 C.ar  1 <1>  -0.1500 
  5 C       -2.2050     3.1930     0.9940 C.ar  1 <1>  -0.1440 
  6 C       -3.2140     1.2950    -0.1190 C.ar  1 <1>  -0.1440 
  7 C       -3.1670     2.6580     0.1440 C.ar  1 <1>  -0.1500 
  8 C       -2.1590     4.6880     1.2470 C.3   1 <1>   0.4870 
  9 C       -4.2710     0.7260    -1.0500 C.3   1 <1>  -0.0970 
 10 N       -0.9090     5.2310     0.6560 N.4   1 <1>  -0.9590 
 11 C       -0.6060     6.6330     1.1220 C.3   1 <1>   0.3430 
 12 C       -0.8090     4.9800    -0.8240 C.3   1 <1>   0.3430 
 13 C        0.8190     7.1520     0.7750 C.3   1 <1>   0.2200 
 14 C        0.6070     5.1480    -1.3930 C.3   1 <1>  -0.0190 
 15 N        0.9120     7.4850    -0.6650 N.am  1 <1>  -0.7300 
 16 C        1.9520     6.1740     1.1760 C.3   1 <1>   0.1200 
 17 C        0.8350     6.6070    -1.6800 C.2   1 <1>   0.5690 
 18 C        1.7660     4.5410    -0.5710 C.3   1 <1>   0.1200 
 19 O        1.6910     4.8450     0.7980 O.3   1 <1>  -0.5600 
 20 O        0.9130     6.9850    -2.8160 O.2   1 <1>  -0.5700 
 21 H       -0.5230     2.7060     2.2690 H     1 <1>   0.1500 
 22 H       -2.2930    -0.6070     0.2920 H     1 <1>   0.1500 
 23 H       -3.8960     3.2980    -0.3250 H     1 <1>   0.1500 
 24 H       -2.1760     4.8650     2.3110 H     1 <1>   0.0800 
 25 H       -3.0190     5.1640     0.8060 H     1 <1>   0.0800 
 26 H       -5.1750     1.3050    -0.9960 H     1 <1>   0.0800 
 27 H       -4.5060    -0.2880    -0.7780 H     1 <1>   0.0800 
 28 H       -3.9110     0.7360    -2.0630 H     1 <1>   0.0800 
 29 H       -0.1260     4.6620     1.0360 H     1 <1>   0.4500 
 30 H       -1.3300     7.3180     0.7140 H     1 <1>   0.0800 
 31 H       -0.7040     6.6610     2.1950 H     1 <1>   0.0800 
 32 H       -1.1130     3.9650    -1.0240 H     1 <1>   0.0800 
 33 H       -1.4860     5.6310    -1.3550 H     1 <1>   0.0800 
 34 H        0.9760     8.0700     1.3160 H     1 <1>   0.0800 
 35 H        0.6180     4.6580    -2.3500 H     1 <1>   0.0800 
 36 H        1.1220     8.4550    -0.9260 H     1 <1>   0.3700 
 37 H        2.0540     6.1720     2.2480 H     1 <1>   0.0800 
 38 H        2.8960     6.4820     0.7570 H     1 <1>   0.0800 
 39 H        2.7200     4.8710    -0.9490 H     1 <1>   0.0800 
 40 H        1.7340     3.4670    -0.6500 H     1 <1>   0.0800 
@<TRIPOS>BOND
  1   1   2  1   
  2   2   3  ar  
  3   2   4  ar  
  4   3   5  ar  
  5   3  21  1   
  6   4   6  ar  
  7   4  22  1   
  8   5   7  ar  
  9   5   8  1   
 10   6   7  ar  
 11   6   9  1   
 12   7  23  1   
 13   8  10  1   
 14   8  24  1   
 15   8  25  1   
 16   9  26  1   
 17   9  27  1   
 18   9  28  1   
 19  10  11  1   
 20  10  12  1   
 21  10  29  1   
 22  11  13  1   
 23  11  30  1   
 24  11  31  1   
 25  12  14  1   
 26  12  32  1   
 27  12  33  1   
 28  13  15  1   
 29  13  16  1   
 30  13  34  1   
 31  14  17  1   
 32  14  18  1   
 33  14  35  1   
 34  15  17  am  
 35  15  36  1   
 36  16  19  1   
 37  16  37  1   
 38  16  38  1   
 39  17  20  2   
 40  18  19  1   
 41  18  39  1   
 42  18  40  1   
@<TRIPOS>SUBSTRUCTURE
  1 ****  10 GROUP 4 **** **** 0

# MOE 2024.06 (io_trps.svl 2023.06)
