@<TRIPOS>MOLECULE
NONAME
56 60 1 0 0 
SMALL
USER_CHARGES


@<TRIPOS>ATOM
  1 O        3.0260    -1.1530    -3.3070 O.2   1 <1>  -0.5700 
  2 C        2.7460    -1.5840    -2.2010 C.2   1 <1>   0.5440 
  3 N        2.7560    -0.6890    -1.1440 N.am  1 <1>  -0.6600 
  4 C        2.4400    -3.0060    -2.0610 C.ar  1 <1>   0.3960 
  5 C        2.6270     0.7830    -1.3520 C.3   1 <1>   0.1400 
  6 C        2.7050    -1.0600     0.3010 C.3   1 <1>   0.1400 
  7 N        1.4410    -3.4180    -1.2640 N.ar  1 <1>  -0.6200 
  8 C        3.2110    -3.9120    -2.7920 C.ar  1 <1>   0.1600 
  9 C        1.3900     1.3120    -0.6040 C.3   1 <1>   0.1200 
 10 C        1.4480    -0.4570     0.9470 C.3   1 <1>   0.1200 
 11 C        1.2730    -4.7300    -1.2340 C.ar  1 <1>   0.4100 
 12 N        3.0760    -5.2300    -2.7720 N.ar  1 <1>  -0.6200 
 13 O        1.4140     0.9300     0.7450 O.3   1 <1>  -0.5600 
 14 N        0.2470    -5.1910    -0.4120 N.pl3 1 <1>  -0.8380 
 15 C        2.0940    -5.6010    -1.9750 C.ar  1 <1>   0.1600 
 16 C       -0.8050    -4.2700     0.1120 C.3   1 <1>   0.2090 
 17 C       -0.3140    -6.5610    -0.5360 C.3   1 <1>   0.2090 
 18 C       -2.0490    -5.1350     0.3310 C.3   1 <1>   0.2000 
 19 C       -1.5520    -6.5770     0.3590 C.3   1 <1>  -0.0800 
 20 O       -2.6870    -4.8350     1.5270 O.3   1 <1>  -0.6800 
 21 C       -2.6240    -7.5860    -0.0840 C.3   1 <1>  -0.0170 
 22 C       -2.0930    -9.0100    -0.0570 C.ar  1 <1>   0.1670 
 23 N       -1.3860    -9.4050    -1.0720 N.ar  1 <1>  -0.6200 
 24 C       -2.3820    -9.8220     1.0520 C.ar  1 <1>  -0.1500 
 25 C       -0.9100   -10.6770    -1.0540 C.ar  1 <1>   0.3100 
 26 C       -1.9150   -11.1000     1.0970 C.ar  1 <1>  -0.1500 
 27 C       -1.1480   -11.5660     0.0170 C.ar  1 <1>   0.0000 
 28 C       -0.1460   -11.1320    -2.1420 C.ar  1 <1>  -0.1500 
 29 C       -0.6130   -12.8680    -0.0410 C.ar  1 <1>  -0.1500 
 30 C        0.3650   -12.4020    -2.1790 C.ar  1 <1>  -0.1500 
 31 C        0.1280   -13.2800    -1.1160 C.ar  1 <1>  -0.1500 
 32 H        3.5090     1.2740    -0.9800 H     1 <1>   0.0800 
 33 H        2.5330     1.0150    -2.3980 H     1 <1>   0.0800 
 34 H        2.7120    -2.1250     0.4380 H     1 <1>   0.0800 
 35 H        3.5740    -0.6650     0.7960 H     1 <1>   0.0800 
 36 H        3.9840    -3.5140    -3.4270 H     1 <1>   0.1500 
 37 H        0.4900     0.9310    -1.0530 H     1 <1>   0.0800 
 38 H        1.3660     2.3870    -0.6400 H     1 <1>   0.0800 
 39 H        1.4520    -0.6350     2.0070 H     1 <1>   0.0800 
 40 H        0.5600    -0.8930     0.5230 H     1 <1>   0.0800 
 41 H        1.9170    -6.6560    -1.8910 H     1 <1>   0.1500 
 42 H       -0.4640    -3.8370     1.0360 H     1 <1>   0.0800 
 43 H       -1.0200    -3.4900    -0.5990 H     1 <1>   0.0800 
 44 H       -0.5890    -6.7450    -1.5620 H     1 <1>   0.0800 
 45 H        0.3980    -7.3040    -0.2170 H     1 <1>   0.0800 
 46 H       -2.7450    -4.9750    -0.4750 H     1 <1>   0.0800 
 47 H       -1.2180    -6.8230     1.3520 H     1 <1>   0.0800 
 48 H       -2.0720    -4.9580     2.2760 H     1 <1>   0.4000 
 49 H       -2.9510    -7.3580    -1.0830 H     1 <1>   0.0800 
 50 H       -3.4800    -7.5050     0.5620 H     1 <1>   0.0800 
 51 H       -2.9730    -9.4230     1.8570 H     1 <1>   0.1500 
 52 H       -2.1170   -11.7510     1.9290 H     1 <1>   0.1500 
 53 H        0.0230   -10.4450    -2.9500 H     1 <1>   0.1500 
 54 H       -0.7990   -13.5380     0.7800 H     1 <1>   0.1500 
 55 H        0.9480   -12.7390    -3.0190 H     1 <1>   0.1500 
 56 H        0.5350   -14.2760    -1.1580 H     1 <1>   0.1500 
@<TRIPOS>BOND
  1   1   2  2   
  2   2   3  am  
  3   2   4  1   
  4   3   5  1   
  5   3   6  1   
  6   4   7  ar  
  7   4   8  ar  
  8   5   9  1   
  9   5  32  1   
 10   5  33  1   
 11   6  10  1   
 12   6  34  1   
 13   6  35  1   
 14   7  11  ar  
 15   8  12  ar  
 16   8  36  1   
 17   9  13  1   
 18   9  37  1   
 19   9  38  1   
 20  10  13  1   
 21  10  39  1   
 22  10  40  1   
 23  11  14  1   
 24  11  15  ar  
 25  12  15  ar  
 26  14  16  1   
 27  14  17  1   
 28  15  41  1   
 29  16  18  1   
 30  16  42  1   
 31  16  43  1   
 32  17  19  1   
 33  17  44  1   
 34  17  45  1   
 35  18  19  1   
 36  18  20  1   
 37  18  46  1   
 38  19  21  1   
 39  19  47  1   
 40  20  48  1   
 41  21  22  1   
 42  21  49  1   
 43  21  50  1   
 44  22  23  ar  
 45  22  24  ar  
 46  23  25  ar  
 47  24  26  ar  
 48  24  51  1   
 49  25  27  ar  
 50  25  28  ar  
 51  26  27  ar  
 52  26  52  1   
 53  27  29  ar  
 54  28  30  ar  
 55  28  53  1   
 56  29  31  ar  
 57  29  54  1   
 58  30  31  ar  
 59  30  55  1   
 60  31  56  1   
@<TRIPOS>SUBSTRUCTURE
  1 ****  14 GROUP 4 **** **** 0

# MOE 2024.06 (io_trps.svl 2023.06)
