@<TRIPOS>MOLECULE
NONAME
51 54 1 0 0 
SMALL
USER_CHARGES


@<TRIPOS>ATOM
  1 O       -2.3810     0.2110    -1.8580 O.2   1 <1>  -0.5700 
  2 C       -2.2190     0.6450    -0.7340 C.2   1 <1>   0.7150 
  3 N       -2.3330    -0.2160     0.3110 N.am  1 <1>  -0.7300 
  4 C       -1.9300     2.0250    -0.4710 C.2   1 <1>  -0.2370 
  5 C       -2.6640    -1.6520     0.2040 C.3   1 <1>   0.2200 
  6 N       -1.8090     2.9980    -1.4150 N.pl3 1 <1>   0.3140 
  7 C       -1.7230     2.6600     0.7170 C.2   1 <1>  -0.1500 
  8 C       -4.1670    -1.8280     0.3420 C.3   1 <1>  -0.0800 
  9 C       -2.1500    -2.3930     1.4330 C.3   1 <1>   0.1200 
 10 N       -1.5410     4.1960    -0.8760 N.2   1 <1>  -0.7070 
 11 C       -1.9330     2.8690    -2.8770 C.3   1 <1>   0.0160 
 12 C       -1.4910     3.9850     0.4020 C.2   1 <1>   0.1080 
 13 C       -4.3530    -1.8650     1.8630 C.3   1 <1>   0.1200 
 14 C       -4.6460    -3.1240    -0.3410 C.3   1 <1>  -0.0160 
 15 O       -3.1190    -2.2150     2.4230 O.3   1 <1>  -0.5600 
 16 C       -1.2100     5.0880     1.4040 C.3   1 <1>   0.0210 
 17 C       -6.1640    -3.2650    -0.2810 C.ar  1 <1>  -0.1440 
 18 C       -2.5030     5.7950     1.8220 C.3   1 <1>  -0.2400 
 19 C       -7.0280    -2.5120    -1.1120 C.ar  1 <1>   0.0000 
 20 C       -6.7360    -4.1420     0.5930 C.ar  1 <1>  -0.1500 
 21 C       -8.4230    -2.7100    -0.9610 C.ar  1 <1>   0.3100 
 22 C       -6.5940    -1.5780    -2.0830 C.ar  1 <1>  -0.1500 
 23 C       -8.1290    -4.2650     0.6590 C.ar  1 <1>   0.1600 
 24 N       -8.9550    -3.5880    -0.0730 N.ar  1 <1>  -0.6200 
 25 C       -9.3050    -1.9710    -1.7640 C.ar  1 <1>  -0.1500 
 26 C       -7.4820    -0.8740    -2.8500 C.ar  1 <1>  -0.1500 
 27 C       -8.8550    -1.0700    -2.6900 C.ar  1 <1>  -0.1500 
 28 H       -2.3130     0.1550     1.2610 H     1 <1>   0.3700 
 29 H       -2.2680    -2.0580    -0.7120 H     1 <1>   0.0800 
 30 H       -1.7300     2.2500     1.7100 H     1 <1>   0.1500 
 31 H       -4.6940    -0.9920    -0.0800 H     1 <1>   0.0800 
 32 H       -1.2030    -2.0180     1.7800 H     1 <1>   0.0800 
 33 H       -2.0740    -3.4480     1.2380 H     1 <1>   0.0800 
 34 H       -1.1930     2.1780    -3.2350 H     1 <1>   0.0800 
 35 H       -1.7800     3.8300    -3.3320 H     1 <1>   0.0800 
 36 H       -2.9150     2.5090    -3.1170 H     1 <1>   0.0800 
 37 H       -5.0950    -2.5760     2.1810 H     1 <1>   0.0800 
 38 H       -4.6130    -0.8900     2.2370 H     1 <1>   0.0800 
 39 H       -4.1880    -3.9750     0.1330 H     1 <1>   0.0800 
 40 H       -4.3330    -3.1360    -1.3700 H     1 <1>   0.0800 
 41 H       -0.7270     4.6710     2.2690 H     1 <1>   0.0800 
 42 H       -0.5380     5.7980     0.9560 H     1 <1>   0.0800 
 43 H       -3.1800     5.0950     2.2790 H     1 <1>   0.0800 
 44 H       -2.9800     6.2200     0.9550 H     1 <1>   0.0800 
 45 H       -2.2880     6.5830     2.5210 H     1 <1>   0.0800 
 46 H       -6.1440    -4.7520     1.2510 H     1 <1>   0.1500 
 47 H       -5.5420    -1.4120    -2.2280 H     1 <1>   0.1500 
 48 H       -8.5390    -4.9680     1.3640 H     1 <1>   0.1500 
 49 H      -10.3570    -2.1390    -1.6240 H     1 <1>   0.1500 
 50 H       -7.1360    -0.1660    -3.5840 H     1 <1>   0.1500 
 51 H       -9.5440    -0.5100    -3.2990 H     1 <1>   0.1500 
@<TRIPOS>BOND
  1   1   2  2   
  2   2   3  am  
  3   2   4  1   
  4   3   5  1   
  5   3  28  1   
  6   4   6  1   
  7   4   7  2   
  8   5   8  1   
  9   5   9  1   
 10   5  29  1   
 11   6  10  1   
 12   6  11  1   
 13   7  12  1   
 14   7  30  1   
 15   8  13  1   
 16   8  14  1   
 17   8  31  1   
 18   9  15  1   
 19   9  32  1   
 20   9  33  1   
 21  10  12  2   
 22  11  34  1   
 23  11  35  1   
 24  11  36  1   
 25  12  16  1   
 26  13  15  1   
 27  13  37  1   
 28  13  38  1   
 29  14  17  1   
 30  14  39  1   
 31  14  40  1   
 32  16  18  1   
 33  16  41  1   
 34  16  42  1   
 35  17  19  ar  
 36  17  20  ar  
 37  18  43  1   
 38  18  44  1   
 39  18  45  1   
 40  19  21  ar  
 41  19  22  ar  
 42  20  23  ar  
 43  20  46  1   
 44  21  24  ar  
 45  21  25  ar  
 46  22  26  ar  
 47  22  47  1   
 48  23  24  ar  
 49  23  48  1   
 50  25  27  ar  
 51  25  49  1   
 52  26  27  ar  
 53  26  50  1   
 54  27  51  1   
@<TRIPOS>SUBSTRUCTURE
  1 ****   8 GROUP 4 **** **** 0

# MOE 2024.06 (io_trps.svl 2023.06)
