@<TRIPOS>MOLECULE
NONAME
56 57 1 0 0 
SMALL
USER_CHARGES


@<TRIPOS>ATOM
  1 O       -1.4390    -0.3470     0.7050 O.2   1 <1>  -0.5700 
  2 C       -1.9280     0.4020    -0.1100 C.2   1 <1>   0.5690 
  3 N       -2.7200    -0.0950    -1.1250 N.am  1 <1>  -0.6600 
  4 C       -1.6090     1.8920     0.0830 C.3   1 <1>  -0.0190 
  5 C       -2.8810    -1.5790    -1.2640 C.3   1 <1>   0.1400 
  6 C       -3.3820     0.6950    -2.2010 C.3   1 <1>   0.1400 
  7 C       -2.8430     2.7630     0.4040 C.3   1 <1>  -0.1600 
  8 C       -0.7140     2.4810    -1.0370 C.3   1 <1>  -0.1600 
  9 C       -3.8200    -2.1350    -0.1930 C.3   1 <1>   0.1200 
 10 C       -4.8950     0.7030    -1.9940 C.3   1 <1>  -0.2400 
 11 C       -2.4550     4.2040     0.7950 C.3   1 <1>   0.2000 
 12 C       -0.8930     3.9980    -1.2250 C.3   1 <1>  -0.1600 
 13 O       -4.1830    -3.4500    -0.5580 O.3   1 <1>  -0.3630 
 14 O       -3.5140     5.0510     0.4170 O.3   1 <1>  -0.5600 
 15 C       -1.1430     4.6880     0.1180 C.3   1 <1>   0.2000 
 16 C       -5.0710    -4.1700     0.1780 C.ar  1 <1>   0.0820 
 17 C       -4.5710     5.1180     1.3230 C.3   1 <1>   0.0400 
 18 O       -1.2220     6.0460    -0.1100 O.3   1 <1>  -0.6800 
 19 C       -5.4830    -5.4000    -0.3280 C.ar  1 <1>  -0.1440 
 20 C       -5.5750    -3.7280     1.3990 C.ar  1 <1>  -0.1500 
 21 C       -6.3930    -6.1650     0.3840 C.ar  1 <1>  -0.1500 
 22 C       -4.9420    -5.9100    -1.6560 C.3   1 <1>  -0.0970 
 23 C       -6.4830    -4.5010     2.1000 C.ar  1 <1>  -0.1500 
 24 C       -6.8990    -5.7220     1.5960 C.ar  1 <1>  -0.1440 
 25 C       -7.8940    -6.5730     2.3640 C.3   1 <1>  -0.0970 
 26 H       -1.0080     1.9330     0.9770 H     1 <1>   0.0800 
 27 H       -3.2750    -1.8130    -2.2370 H     1 <1>   0.0800 
 28 H       -1.9180    -2.0510    -1.1660 H     1 <1>   0.0800 
 29 H       -3.0230     1.7060    -2.2180 H     1 <1>   0.0800 
 30 H       -3.1480     0.2600    -3.1590 H     1 <1>   0.0800 
 31 H       -3.3910     2.3120     1.2120 H     1 <1>   0.0800 
 32 H       -3.4880     2.8070    -0.4520 H     1 <1>   0.0800 
 33 H        0.3120     2.2790    -0.7810 H     1 <1>   0.0800 
 34 H       -0.8920     1.9910    -1.9770 H     1 <1>   0.0800 
 35 H       -4.7170    -1.5460    -0.1340 H     1 <1>   0.0800 
 36 H       -3.3230    -2.1690     0.7600 H     1 <1>   0.0800 
 37 H       -5.1390     1.0710    -1.0130 H     1 <1>   0.0800 
 38 H       -5.3020    -0.2840    -2.1170 H     1 <1>   0.0800 
 39 H       -5.3540     1.3470    -2.7220 H     1 <1>   0.0800 
 40 H       -2.3160     4.2740     1.8610 H     1 <1>   0.0800 
 41 H       -1.7350     4.1820    -1.8700 H     1 <1>   0.0800 
 42 H       -0.0130     4.4090    -1.6890 H     1 <1>   0.0800 
 43 H       -0.3030     4.5120     0.7680 H     1 <1>   0.0800 
 44 H       -5.3080     5.7940     0.9260 H     1 <1>   0.0800 
 45 H       -4.2090     5.4920     2.2650 H     1 <1>   0.0800 
 46 H       -5.0060     4.1410     1.4430 H     1 <1>   0.0800 
 47 H       -2.1830     6.2460    -0.1920 H     1 <1>   0.4000 
 48 H       -5.2730    -2.7900     1.8210 H     1 <1>   0.1500 
 49 H       -6.7120    -7.1150    -0.0050 H     1 <1>   0.1500 
 50 H       -5.3500    -6.8750    -1.8980 H     1 <1>   0.0800 
 51 H       -3.8720    -5.9920    -1.6030 H     1 <1>   0.0800 
 52 H       -5.1980    -5.2210    -2.4410 H     1 <1>   0.0800 
 53 H       -6.8640    -4.1490     3.0420 H     1 <1>   0.1500 
 54 H       -8.5120    -5.9560     2.9920 H     1 <1>   0.0800 
 55 H       -7.3670    -7.2790     2.9800 H     1 <1>   0.0800 
 56 H       -8.5300    -7.1100     1.6850 H     1 <1>   0.0800 
@<TRIPOS>BOND
  1   1   2  2   
  2   2   3  am  
  3   2   4  1   
  4   3   5  1   
  5   3   6  1   
  6   4   7  1   
  7   4   8  1   
  8   4  26  1   
  9   5   9  1   
 10   5  27  1   
 11   5  28  1   
 12   6  10  1   
 13   6  29  1   
 14   6  30  1   
 15   7  11  1   
 16   7  31  1   
 17   7  32  1   
 18   8  12  1   
 19   8  33  1   
 20   8  34  1   
 21   9  13  1   
 22   9  35  1   
 23   9  36  1   
 24  10  37  1   
 25  10  38  1   
 26  10  39  1   
 27  11  14  1   
 28  11  15  1   
 29  11  40  1   
 30  12  15  1   
 31  12  41  1   
 32  12  42  1   
 33  13  16  1   
 34  14  17  1   
 35  15  18  1   
 36  15  43  1   
 37  16  19  ar  
 38  16  20  ar  
 39  17  44  1   
 40  17  45  1   
 41  17  46  1   
 42  18  47  1   
 43  19  21  ar  
 44  19  22  1   
 45  20  23  ar  
 46  20  48  1   
 47  21  24  ar  
 48  21  49  1   
 49  22  50  1   
 50  22  51  1   
 51  22  52  1   
 52  23  24  ar  
 53  23  53  1   
 54  24  25  1   
 55  25  54  1   
 56  25  55  1   
 57  25  56  1   
@<TRIPOS>SUBSTRUCTURE
  1 ****   3 GROUP 4 **** **** 0

# MOE 2024.06 (io_trps.svl 2023.06)
