@<TRIPOS>MOLECULE
NONAME
50 52 1 0 0 
SMALL
USER_CHARGES


@<TRIPOS>ATOM
  1 O       -1.5280    -2.8380     2.0920 O.3   1 <1>  -0.0190 
  2 N       -1.0230    -3.9380     1.6200 N.2   1 <1>  -0.4100 
  3 C       -0.8900    -1.8860     1.4520 C.2   1 <1>   0.2980 
  4 C       -0.1360    -3.6010     0.7690 C.2   1 <1>   0.3350 
  5 N       -0.0220    -2.2940     0.6090 N.2   1 <1>  -0.5650 
  6 C       -1.2530    -0.4350     1.7740 C.3   1 <1>   0.1000 
  7 C        0.6820    -4.5900    -0.0590 C.3   1 <1>   0.5240 
  8 C       -2.6570    -0.0990     1.2520 C.3   1 <1>  -0.2400 
  9 C       -0.2350     0.5680     1.2080 C.3   1 <1>  -0.2400 
 10 N       -0.2330    -5.3290    -0.9850 N.4   1 <1>  -0.9590 
 11 C        0.1760    -6.6970    -1.4070 C.3   1 <1>   0.3430 
 12 C       -0.7860    -4.5060    -2.0860 C.3   1 <1>   0.3430 
 13 C       -1.0940    -7.5580    -1.6230 C.3   1 <1>   0.2090 
 14 C       -2.3120    -4.5140    -1.9620 C.3   1 <1>  -0.1600 
 15 N       -2.3310    -6.8750    -1.0640 N.pl3 1 <1>  -0.8380 
 16 C       -2.9720    -5.9030    -2.0150 C.3   1 <1>   0.2090 
 17 C       -2.9290    -7.2260     0.1110 C.ar  1 <1>   0.1000 
 18 C       -3.5040    -6.2620     0.9530 C.ar  1 <1>  -0.1500 
 19 C       -3.0090    -8.5570     0.5470 C.ar  1 <1>  -0.1500 
 20 C       -4.0930    -6.6040     2.1450 C.ar  1 <1>   0.2180 
 21 C       -3.6090    -8.8760     1.7380 C.ar  1 <1>   0.2110 
 22 N       -4.1390    -7.9050     2.5220 N.ar  1 <1>  -0.1790 
 23 C       -4.7010    -5.5610     3.0680 C.3   1 <1>  -0.0970 
 24 H       -1.2550    -0.3310     2.8460 H     1 <1>   0.0800 
 25 H        1.1620    -5.2780     0.6150 H     1 <1>   0.0800 
 26 H        1.4380    -4.0610    -0.6140 H     1 <1>   0.0800 
 27 H       -2.6920    -0.1980     0.1810 H     1 <1>   0.0800 
 28 H       -2.9200     0.9120     1.5120 H     1 <1>   0.0800 
 29 H       -3.3870    -0.7590     1.6850 H     1 <1>   0.0800 
 30 H       -0.2080     0.5150     0.1340 H     1 <1>   0.0800 
 31 H        0.7490     0.3490     1.5860 H     1 <1>   0.0800 
 32 H       -0.4940     1.5710     1.4970 H     1 <1>   0.0800 
 33 H       -1.0810    -5.5480    -0.4220 H     1 <1>   0.4500 
 34 H        0.7650    -7.1560    -0.6290 H     1 <1>   0.0800 
 35 H        0.7730    -6.6670    -2.3040 H     1 <1>   0.0800 
 36 H       -0.4880    -4.9050    -3.0430 H     1 <1>   0.0800 
 37 H       -0.4280    -3.4910    -2.0130 H     1 <1>   0.0800 
 38 H       -0.9390    -8.5140    -1.1580 H     1 <1>   0.0800 
 39 H       -1.2260    -7.7420    -2.6760 H     1 <1>   0.0800 
 40 H       -2.7140    -3.9270    -2.7680 H     1 <1>   0.0800 
 41 H       -2.5940    -4.0100    -1.0560 H     1 <1>   0.0800 
 42 H       -2.9140    -6.2950    -3.0180 H     1 <1>   0.0800 
 43 H       -4.0190    -5.8070    -1.7790 H     1 <1>   0.0800 
 44 H       -3.4720    -5.2310     0.6590 H     1 <1>   0.1500 
 45 H       -2.6130    -9.3400    -0.0720 H     1 <1>   0.1500 
 46 H       -3.6750    -9.9010     2.0690 H     1 <1>   0.1500 
 47 H       -4.5860    -8.1530     3.4120 H     1 <1>   0.4570 
 48 H       -4.5790    -4.5740     2.6580 H     1 <1>   0.0800 
 49 H       -4.2170    -5.5830     4.0290 H     1 <1>   0.0800 
 50 H       -5.7530    -5.7410     3.1990 H     1 <1>   0.0800 
@<TRIPOS>BOND
  1   1   2  1   
  2   1   3  1   
  3   2   4  2   
  4   3   5  2   
  5   3   6  1   
  6   4   5  1   
  7   4   7  1   
  8   6   8  1   
  9   6   9  1   
 10   6  24  1   
 11   7  10  1   
 12   7  25  1   
 13   7  26  1   
 14   8  27  1   
 15   8  28  1   
 16   8  29  1   
 17   9  30  1   
 18   9  31  1   
 19   9  32  1   
 20  10  11  1   
 21  10  12  1   
 22  10  33  1   
 23  11  13  1   
 24  11  34  1   
 25  11  35  1   
 26  12  14  1   
 27  12  36  1   
 28  12  37  1   
 29  13  15  1   
 30  13  38  1   
 31  13  39  1   
 32  14  16  1   
 33  14  40  1   
 34  14  41  1   
 35  15  16  1   
 36  15  17  1   
 37  16  42  1   
 38  16  43  1   
 39  17  18  ar  
 40  17  19  ar  
 41  18  20  ar  
 42  18  44  1   
 43  19  21  ar  
 44  19  45  1   
 45  20  22  ar  
 46  20  23  1   
 47  21  22  ar  
 48  21  46  1   
 49  22  47  1   
 50  23  48  1   
 51  23  49  1   
 52  23  50  1   
@<TRIPOS>SUBSTRUCTURE
  1 ****   2 GROUP 4 **** **** 0

# MOE 2024.06 (io_trps.svl 2023.06)
