@<TRIPOS>MOLECULE
NONAME
55 57 1 0 0 
SMALL
USER_CHARGES


@<TRIPOS>ATOM
  1 CL      -0.3660    -1.6550    -1.9930 Cl    1 <1>  -0.1770 
  2 C       -1.5340    -1.8720    -0.7100 C.ar  1 <1>   0.1770 
  3 C       -2.1450    -0.7830    -0.0980 C.ar  1 <1>   0.0830 
  4 C       -1.8460    -3.1640    -0.3310 C.ar  1 <1>  -0.1500 
  5 O       -1.8800     0.4910    -0.4580 O.3   1 <1>  -0.3630 
  6 C       -3.0830    -1.0050     0.8980 C.ar  1 <1>  -0.1500 
  7 C       -2.7920    -3.3850     0.6630 C.ar  1 <1>  -0.1430 
  8 C       -0.6710     1.0480     0.0080 C.3   1 <1>   0.0400 
  9 C       -3.4010    -2.2990     1.2800 C.ar  1 <1>  -0.1500 
 10 C       -3.1530    -4.8040     1.0480 C.3   1 <1>   0.4870 
 11 N       -4.0760    -5.3190     0.0050 N.4   1 <1>  -0.9590 
 12 C       -4.0660    -6.8160    -0.0370 C.3   1 <1>   0.5660 
 13 C       -5.4630    -4.7690     0.1560 C.3   1 <1>   0.3430 
 14 C       -2.6800    -7.2440    -0.4990 C.ar  1 <1>  -0.1430 
 15 C       -5.1760    -7.4200    -0.9420 C.3   1 <1>   0.2000 
 16 C       -6.4350    -5.4120    -0.8480 C.3   1 <1>   0.1200 
 17 C       -1.8960    -8.0080     0.3540 C.ar  1 <1>  -0.1500 
 18 C       -2.1730    -6.8780    -1.7420 C.ar  1 <1>  -0.1500 
 19 O       -6.4180    -6.8010    -0.7060 O.3   1 <1>  -0.5600 
 20 C       -5.3220    -8.9270    -0.6750 C.3   1 <1>   0.1200 
 21 C       -0.6180    -8.3930    -0.0130 C.ar  1 <1>   0.0830 
 22 C       -0.8920    -7.2510    -2.1100 C.ar  1 <1>  -0.1500 
 23 O       -5.3600    -9.1680     0.6960 O.3   1 <1>  -0.6800 
 24 O        0.0710    -9.1530     0.8710 O.3   1 <1>  -0.3630 
 25 C       -0.1010    -7.9900    -1.2480 C.ar  1 <1>   0.0830 
 26 C        0.4170   -10.4580     0.4560 C.3   1 <1>   0.0400 
 27 O        1.1550    -8.2870    -1.6600 O.3   1 <1>  -0.3630 
 28 C        2.2180    -7.7170    -0.9270 C.3   1 <1>   0.0400 
 29 H       -1.3410    -3.9790    -0.8220 H     1 <1>   0.1500 
 30 H       -3.5560    -0.1590     1.3670 H     1 <1>   0.1500 
 31 H       -0.6220     2.0690    -0.3260 H     1 <1>   0.0800 
 32 H        0.1580     0.4940    -0.3960 H     1 <1>   0.0800 
 33 H       -0.6600     1.0110     1.0830 H     1 <1>   0.0800 
 34 H       -4.1280    -2.4410     2.0630 H     1 <1>   0.1500 
 35 H       -3.6190    -4.8320     2.0200 H     1 <1>   0.0800 
 36 H       -2.2510    -5.3950     1.0820 H     1 <1>   0.0800 
 37 H       -3.6950    -5.0000    -0.8900 H     1 <1>   0.4500 
 38 H       -4.2280    -7.1910     0.9600 H     1 <1>   0.0800 
 39 H       -5.8290    -4.9640     1.1510 H     1 <1>   0.0800 
 40 H       -5.4530    -3.7010     0.0090 H     1 <1>   0.0800 
 41 H       -4.9380    -7.2750    -1.9810 H     1 <1>   0.0800 
 42 H       -6.1800    -5.1580    -1.8630 H     1 <1>   0.0800 
 43 H       -7.4400    -5.0780    -0.6540 H     1 <1>   0.0800 
 44 H       -2.2630    -8.3270     1.3150 H     1 <1>   0.1500 
 45 H       -2.7550    -6.3040    -2.4430 H     1 <1>   0.1500 
 46 H       -4.4840    -9.4680    -1.0810 H     1 <1>   0.0800 
 47 H       -6.2310    -9.2970    -1.1200 H     1 <1>   0.0800 
 48 H       -0.4910    -6.9700    -3.0690 H     1 <1>   0.1500 
 49 H       -5.6890   -10.0750     0.8780 H     1 <1>   0.4000 
 50 H        0.8450   -10.9750     1.2960 H     1 <1>   0.0800 
 51 H        1.1360   -10.4030    -0.3410 H     1 <1>   0.0800 
 52 H       -0.4700   -10.9660     0.1250 H     1 <1>   0.0800 
 53 H        3.1390    -7.9740    -1.4180 H     1 <1>   0.0800 
 54 H        2.2170    -8.1100     0.0730 H     1 <1>   0.0800 
 55 H        2.0970    -6.6480    -0.9110 H     1 <1>   0.0800 
@<TRIPOS>BOND
  1   1   2  1   
  2   2   3  ar  
  3   2   4  ar  
  4   3   5  1   
  5   3   6  ar  
  6   4   7  ar  
  7   4  29  1   
  8   5   8  1   
  9   6   9  ar  
 10   6  30  1   
 11   7   9  ar  
 12   7  10  1   
 13   8  31  1   
 14   8  32  1   
 15   8  33  1   
 16   9  34  1   
 17  10  11  1   
 18  10  35  1   
 19  10  36  1   
 20  11  12  1   
 21  11  13  1   
 22  11  37  1   
 23  12  14  1   
 24  12  15  1   
 25  12  38  1   
 26  13  16  1   
 27  13  39  1   
 28  13  40  1   
 29  14  17  ar  
 30  14  18  ar  
 31  15  19  1   
 32  15  20  1   
 33  15  41  1   
 34  16  19  1   
 35  16  42  1   
 36  16  43  1   
 37  17  21  ar  
 38  17  44  1   
 39  18  22  ar  
 40  18  45  1   
 41  20  23  1   
 42  20  46  1   
 43  20  47  1   
 44  21  24  1   
 45  21  25  ar  
 46  22  25  ar  
 47  22  48  1   
 48  23  49  1   
 49  24  26  1   
 50  25  27  1   
 51  26  50  1   
 52  26  51  1   
 53  26  52  1   
 54  27  28  1   
 55  28  53  1   
 56  28  54  1   
 57  28  55  1   
@<TRIPOS>SUBSTRUCTURE
  1 ****  10 GROUP 4 **** **** 0

# MOE 2024.06 (io_trps.svl 2023.06)
