@<TRIPOS>MOLECULE
NONAME
49 51 1 0 0 
SMALL
USER_CHARGES


@<TRIPOS>ATOM
  1 CL      -0.9830    -0.7300     2.5500 Cl    1 <1>  -0.1770 
  2 C       -1.8050    -1.2370     1.0930 C.ar  1 <1>   0.1770 
  3 C       -2.0490    -0.3250     0.0770 C.ar  1 <1>  -0.1440 
  4 C       -2.1920    -2.5590     1.0000 C.ar  1 <1>  -0.1500 
  5 C       -2.7000    -0.8060    -1.0520 C.ar  1 <1>   0.1770 
  6 C       -1.6040     1.1290     0.2250 C.3   1 <1>  -0.0960 
  7 C       -2.8560    -3.0370    -0.1290 C.ar  1 <1>   0.0860 
  8 CL      -3.0540     0.2410    -2.4050 Cl    1 <1>  -0.1770 
  9 C       -3.0930    -2.1270    -1.1580 C.ar  1 <1>  -0.1500 
 10 C       -3.2690    -4.4270    -0.2210 C.2   1 <1>   0.5440 
 11 O       -2.6160    -5.3010     0.3180 O.2   1 <1>  -0.5700 
 12 N       -4.4190    -4.8120    -0.8770 N.am  1 <1>  -0.6600 
 13 C       -4.5840    -6.2390    -1.2580 C.3   1 <1>   0.1400 
 14 C       -5.7090    -4.1150    -0.6220 C.3   1 <1>   0.1400 
 15 C       -5.2580    -6.9860    -0.0850 C.3   1 <1>   0.4230 
 16 C       -6.4190    -4.8320     0.5350 C.3   1 <1>  -0.1600 
 17 N       -5.2860    -8.4990    -0.2470 N.4   1 <1>  -0.9590 
 18 C       -6.6340    -6.3570     0.2940 C.3   1 <1>   0.0000 
 19 C       -6.2690    -9.1910     0.6490 C.3   1 <1>   0.3430 
 20 C       -5.4320    -9.0000    -1.6530 C.3   1 <1>   0.2630 
 21 C       -7.1460    -7.0040     1.6150 C.3   1 <1>  -0.1600 
 22 C       -7.6590    -6.5820    -0.8540 C.3   1 <1>   0.1200 
 23 C       -6.5200    -8.3790     1.9190 C.3   1 <1>  -0.1600 
 24 O       -8.8290    -5.8710    -0.6440 O.3   1 <1>  -0.6800 
 25 H       -1.9730    -3.2290     1.8130 H     1 <1>   0.1500 
 26 H       -1.9840     1.5380     1.1440 H     1 <1>   0.0800 
 27 H       -1.9540     1.7490    -0.5790 H     1 <1>   0.0800 
 28 H       -0.5300     1.1800     0.2460 H     1 <1>   0.0800 
 29 H       -3.5860    -2.4520    -2.0570 H     1 <1>   0.1500 
 30 H       -5.1690    -6.2940    -2.1570 H     1 <1>   0.0800 
 31 H       -3.6160    -6.6670    -1.4550 H     1 <1>   0.0800 
 32 H       -5.5390    -3.0850    -0.3560 H     1 <1>   0.0800 
 33 H       -6.3160    -4.1300    -1.5120 H     1 <1>   0.0800 
 34 H       -4.6190    -6.7910     0.7620 H     1 <1>   0.0800 
 35 H       -5.8180    -4.6850     1.4160 H     1 <1>   0.0800 
 36 H       -7.3580    -4.3400     0.7220 H     1 <1>   0.0800 
 37 H       -4.3530    -8.7970     0.0780 H     1 <1>   0.4500 
 38 H       -7.2070    -9.3160     0.1340 H     1 <1>   0.0800 
 39 H       -5.9010   -10.1710     0.9090 H     1 <1>   0.0800 
 40 H       -6.3730    -8.6840    -2.0720 H     1 <1>   0.0800 
 41 H       -5.3930   -10.0770    -1.6710 H     1 <1>   0.0800 
 42 H       -4.6330    -8.6250    -2.2730 H     1 <1>   0.0800 
 43 H       -6.9370    -6.3660     2.4570 H     1 <1>   0.0800 
 44 H       -8.2170    -7.1100     1.5850 H     1 <1>   0.0800 
 45 H       -7.9270    -7.6190    -0.9470 H     1 <1>   0.0800 
 46 H       -7.2710    -6.2460    -1.7980 H     1 <1>   0.0800 
 47 H       -7.1780    -8.9300     2.5680 H     1 <1>   0.0800 
 48 H       -5.5890    -8.2550     2.4470 H     1 <1>   0.0800 
 49 H       -9.3090    -6.1710     0.1540 H     1 <1>   0.4000 
@<TRIPOS>BOND
  1   1   2  1   
  2   2   3  ar  
  3   2   4  ar  
  4   3   5  ar  
  5   3   6  1   
  6   4   7  ar  
  7   4  25  1   
  8   5   8  1   
  9   5   9  ar  
 10   6  26  1   
 11   6  27  1   
 12   6  28  1   
 13   7   9  ar  
 14   7  10  1   
 15   9  29  1   
 16  10  11  2   
 17  10  12  am  
 18  12  13  1   
 19  12  14  1   
 20  13  15  1   
 21  13  30  1   
 22  13  31  1   
 23  14  16  1   
 24  14  32  1   
 25  14  33  1   
 26  15  17  1   
 27  15  18  1   
 28  15  34  1   
 29  16  18  1   
 30  16  35  1   
 31  16  36  1   
 32  17  19  1   
 33  17  20  1   
 34  17  37  1   
 35  18  21  1   
 36  18  22  1   
 37  19  23  1   
 38  19  38  1   
 39  19  39  1   
 40  20  40  1   
 41  20  41  1   
 42  20  42  1   
 43  21  23  1   
 44  21  43  1   
 45  21  44  1   
 46  22  24  1   
 47  22  45  1   
 48  22  46  1   
 49  23  47  1   
 50  23  48  1   
 51  24  49  1   
@<TRIPOS>SUBSTRUCTURE
  1 ****  12 GROUP 4 **** **** 0

# MOE 2024.06 (io_trps.svl 2023.06)
