@<TRIPOS>MOLECULE
NONAME
49 52 1 0 0 
SMALL
USER_CHARGES


@<TRIPOS>ATOM
  1 O       -3.0530     0.7410    -1.6480 O.2   1 <1>  -0.5700 
  2 C       -2.4270     0.7010    -0.6160 C.2   1 <1>   0.5690 
  3 N       -2.1280    -0.4820    -0.0240 N.am  1 <1>  -0.7300 
  4 C       -1.9800     1.9920     0.0650 C.3   1 <1>  -0.0190 
  5 C       -2.5520    -1.7980    -0.5490 C.3   1 <1>   0.2200 
  6 C       -3.1470     2.6680     0.8040 C.3   1 <1>  -0.1600 
  7 C       -1.3570     2.9960    -0.9200 C.3   1 <1>  -0.1600 
  8 C       -3.9050    -2.1510     0.0430 C.3   1 <1>  -0.0800 
  9 C       -1.6660    -2.8980     0.0200 C.3   1 <1>   0.1200 
 10 C       -2.7070     4.0070     1.4060 C.3   1 <1>   0.1200 
 11 C       -1.0240     4.3150    -0.2140 C.3   1 <1>   0.1200 
 12 C       -3.5280    -2.8220     1.3700 C.3   1 <1>   0.1200 
 13 C       -4.6980    -3.0880    -0.8880 C.3   1 <1>  -0.0160 
 14 O       -2.1780    -3.1780     1.2870 O.3   1 <1>  -0.5600 
 15 O       -2.1710     4.8140     0.4030 O.3   1 <1>  -0.5600 
 16 C       -6.1080    -3.3360    -0.3610 C.ar  1 <1>  -0.1440 
 17 C       -7.1310    -2.3620    -0.4560 C.ar  1 <1>   0.0000 
 18 C       -6.4220    -4.5270     0.2250 C.ar  1 <1>  -0.1500 
 19 C       -8.4000    -2.6900     0.0820 C.ar  1 <1>   0.3100 
 20 C       -6.9730    -1.0890    -1.0520 C.ar  1 <1>  -0.1500 
 21 C       -7.7130    -4.7510     0.7190 C.ar  1 <1>   0.1600 
 22 N       -8.6740    -3.8840     0.6640 N.ar  1 <1>  -0.6200 
 23 C       -9.4330    -1.7400     0.0130 C.ar  1 <1>  -0.1500 
 24 C       -8.0010    -0.1870    -1.1030 C.ar  1 <1>  -0.1500 
 25 C       -9.2470    -0.5140    -0.5640 C.ar  1 <1>  -0.1500 
 26 H       -1.6890    -0.5170     0.8980 H     1 <1>   0.3700 
 27 H       -1.2290     1.7410     0.7920 H     1 <1>   0.0800 
 28 H       -2.5470    -1.7840    -1.6260 H     1 <1>   0.0800 
 29 H       -3.5120     2.0240     1.5840 H     1 <1>   0.0800 
 30 H       -3.9570     2.8470     0.1170 H     1 <1>   0.0800 
 31 H       -2.0450     3.2020    -1.7220 H     1 <1>   0.0800 
 32 H       -0.4640     2.5810    -1.3520 H     1 <1>   0.0800 
 33 H       -4.4870    -1.2650     0.2250 H     1 <1>   0.0800 
 34 H       -0.6350    -2.6040     0.1010 H     1 <1>   0.0800 
 35 H       -1.7460    -3.7940    -0.5700 H     1 <1>   0.0800 
 36 H       -1.9630     3.8700     2.1710 H     1 <1>   0.0800 
 37 H       -3.5510     4.5270     1.8260 H     1 <1>   0.0800 
 38 H       -0.6900     5.0490    -0.9260 H     1 <1>   0.0800 
 39 H       -0.2620     4.1800     0.5350 H     1 <1>   0.0800 
 40 H       -4.1090    -3.7050     1.5710 H     1 <1>   0.0800 
 41 H       -3.6330    -2.1330     2.1890 H     1 <1>   0.0800 
 42 H       -4.1790    -4.0250    -0.9900 H     1 <1>   0.0800 
 43 H       -4.7640    -2.6590    -1.8730 H     1 <1>   0.0800 
 44 H       -5.6990    -5.3160     0.3250 H     1 <1>   0.1500 
 45 H       -6.0260    -0.8120    -1.4780 H     1 <1>   0.1500 
 46 H       -7.9180    -5.7050     1.1750 H     1 <1>   0.1500 
 47 H      -10.3830    -2.0150     0.4330 H     1 <1>   0.1500 
 48 H       -7.8630     0.7790    -1.5590 H     1 <1>   0.1500 
 49 H      -10.0480     0.2040    -0.6100 H     1 <1>   0.1500 
@<TRIPOS>BOND
  1   1   2  2   
  2   2   3  am  
  3   2   4  1   
  4   3   5  1   
  5   3  26  1   
  6   4   6  1   
  7   4   7  1   
  8   4  27  1   
  9   5   8  1   
 10   5   9  1   
 11   5  28  1   
 12   6  10  1   
 13   6  29  1   
 14   6  30  1   
 15   7  11  1   
 16   7  31  1   
 17   7  32  1   
 18   8  12  1   
 19   8  13  1   
 20   8  33  1   
 21   9  14  1   
 22   9  34  1   
 23   9  35  1   
 24  10  15  1   
 25  10  36  1   
 26  10  37  1   
 27  11  15  1   
 28  11  38  1   
 29  11  39  1   
 30  12  14  1   
 31  12  40  1   
 32  12  41  1   
 33  13  16  1   
 34  13  42  1   
 35  13  43  1   
 36  16  17  ar  
 37  16  18  ar  
 38  17  19  ar  
 39  17  20  ar  
 40  18  21  ar  
 41  18  44  1   
 42  19  22  ar  
 43  19  23  ar  
 44  20  24  ar  
 45  20  45  1   
 46  21  22  ar  
 47  21  46  1   
 48  23  25  ar  
 49  23  47  1   
 50  24  25  ar  
 51  24  48  1   
 52  25  49  1   
@<TRIPOS>SUBSTRUCTURE
  1 ****   8 GROUP 4 **** **** 0

# MOE 2024.06 (io_trps.svl 2023.06)
