@<TRIPOS>MOLECULE
NONAME
46 49 1 0 0 
SMALL
USER_CHARGES


@<TRIPOS>ATOM
  1 S        2.3220     2.4230     1.9960 S.3   1 <1>  -0.2860 
  2 C        2.3670     3.0050     0.3320 C.2   1 <1>   0.2420 
  3 C        0.4790     2.5340     2.1100 C.3   1 <1>   0.0700 
  4 N        3.3590     3.2020    -0.4630 N.2   1 <1>  -0.5650 
  5 N        1.1530     3.2810    -0.1380 N.pl3 1 <1>   0.0480 
  6 C       -0.0180     3.0720     0.7430 C.3   1 <1>   0.0960 
  7 C        2.7310     3.6720    -1.5730 C.2   1 <1>   0.0460 
  8 C        1.3850     3.7200    -1.3900 C.2   1 <1>  -0.3020 
  9 C        3.5130     4.0750    -2.8250 C.3   1 <1>   0.3900 
 10 N        4.1330     5.4200    -2.6620 N.pl3 1 <1>  -0.8690 
 11 C        4.9870     5.7890    -1.6980 C.ar  1 <1>   0.4100 
 12 N        4.9900     7.0710    -1.4150 N.ar  1 <1>  -0.6200 
 13 C        5.7960     4.8660    -1.0120 C.ar  1 <1>  -0.1500 
 14 C        5.7250     7.4670    -0.3840 C.ar  1 <1>   0.7710 
 15 C        6.5320     5.2900     0.0410 C.ar  1 <1>   0.2180 
 16 N        6.4670     6.6090     0.3380 N.ar  1 <1>  -0.1790 
 17 N        5.7330     8.7800    -0.0440 N.pl3 1 <1>  -0.8380 
 18 C        7.4010     4.3690     0.8860 C.3   1 <1>  -0.0170 
 19 C        6.4150     9.4380     1.1030 C.3   1 <1>   0.2090 
 20 C        4.9570     9.7870    -0.8210 C.3   1 <1>   0.2090 
 21 C        8.8890     4.7310     0.7970 C.3   1 <1>  -0.2400 
 22 C        5.8090    10.8330     1.1750 C.3   1 <1>  -0.1600 
 23 C        5.3740    11.1370    -0.2530 C.3   1 <1>  -0.1600 
 24 H        0.2400     3.2020     2.9180 H     1 <1>   0.0800 
 25 H        0.1050     1.5470     2.3150 H     1 <1>   0.0800 
 26 H       -0.5300     4.0080     0.8720 H     1 <1>   0.0800 
 27 H       -0.6820     2.3640     0.2810 H     1 <1>   0.0800 
 28 H        0.6040     4.0380    -2.0570 H     1 <1>   0.1500 
 29 H        2.8440     4.0990    -3.6660 H     1 <1>   0.0800 
 30 H        4.2740     3.3410    -3.0240 H     1 <1>   0.0800 
 31 H        3.5770     6.1790    -3.0630 H     1 <1>   0.4000 
 32 H        5.7940     3.8390    -1.3220 H     1 <1>   0.1500 
 33 H        6.9830     7.0100     1.1070 H     1 <1>   0.4570 
 34 H        7.2700     3.3540     0.5510 H     1 <1>   0.0800 
 35 H        7.0750     4.4070     1.9120 H     1 <1>   0.0800 
 36 H        7.4700     9.5140     0.8980 H     1 <1>   0.0800 
 37 H        6.2500     8.9080     2.0260 H     1 <1>   0.0800 
 38 H        3.9040     9.6240    -0.6630 H     1 <1>   0.0800 
 39 H        5.1740     9.7220    -1.8750 H     1 <1>   0.0800 
 40 H        9.2240     4.6930    -0.2260 H     1 <1>   0.0800 
 41 H        9.4690     4.0230     1.3640 H     1 <1>   0.0800 
 42 H        9.0820     5.7130     1.1910 H     1 <1>   0.0800 
 43 H        6.5090    11.5580     1.5520 H     1 <1>   0.0800 
 44 H        4.9480    10.8110     1.8200 H     1 <1>   0.0800 
 45 H        4.5720    11.8520    -0.2960 H     1 <1>   0.0800 
 46 H        6.2070    11.5130    -0.8210 H     1 <1>   0.0800 
@<TRIPOS>BOND
  1   1   2  1   
  2   1   3  1   
  3   2   4  2   
  4   2   5  1   
  5   3   6  1   
  6   3  24  1   
  7   3  25  1   
  8   4   7  1   
  9   5   6  1   
 10   5   8  1   
 11   6  26  1   
 12   6  27  1   
 13   7   8  2   
 14   7   9  1   
 15   8  28  1   
 16   9  10  1   
 17   9  29  1   
 18   9  30  1   
 19  10  11  1   
 20  10  31  1   
 21  11  12  ar  
 22  11  13  ar  
 23  12  14  ar  
 24  13  15  ar  
 25  13  32  1   
 26  14  16  ar  
 27  14  17  1   
 28  15  16  ar  
 29  15  18  1   
 30  16  33  1   
 31  17  19  1   
 32  17  20  1   
 33  18  21  1   
 34  18  34  1   
 35  18  35  1   
 36  19  22  1   
 37  19  36  1   
 38  19  37  1   
 39  20  23  1   
 40  20  38  1   
 41  20  39  1   
 42  21  40  1   
 43  21  41  1   
 44  21  42  1   
 45  22  23  1   
 46  22  43  1   
 47  22  44  1   
 48  23  45  1   
 49  23  46  1   
@<TRIPOS>SUBSTRUCTURE
  1 ****  11 GROUP 4 **** **** 0

# MOE 2024.06 (io_trps.svl 2023.06)
