@<TRIPOS>MOLECULE
NONAME
21 21 1 0 0 
SMALL
USER_CHARGES


@<TRIPOS>ATOM
  1 BR      -0.0390    -0.0770     0.0100 Br    1 <1>  -0.0570 
  2 C        1.0620     1.5130     0.0090 C.2   1 <1>   0.2840 
  3 N        2.3850     1.4100     0.0130 N.2   1 <1>  -0.5650 
  4 C        0.6110     2.7780     0.0040 C.2   1 <1>  -0.3020 
  5 C        2.7890     2.6700     0.0110 C.2   1 <1>   0.1010 
  6 N        1.7150     3.5410     0.0060 N.pl3 1 <1>   0.0480 
  7 C        4.1820     3.0900     0.0130 C.2   1 <1>   0.8050 
  8 C        1.6770     5.0200     0.0020 C.3   1 <1>   0.0160 
  9 O        5.1270     2.3240     0.0230 O.2   1 <1>  -0.5700 
 10 O        4.4540     4.4030     0.0050 O.3   1 <1>  -0.4300 
 11 C        5.7790     4.8880     0.0060 C.3   1 <1>   0.1200 
 12 C        5.7230     6.4120    -0.0060 C.3   1 <1>  -0.2400 
 13 H       -0.3970     3.1480     0.0010 H     1 <1>   0.1500 
 14 H        0.6560     5.3570     0.0010 H     1 <1>   0.0800 
 15 H        2.1720     5.3900    -0.8770 H     1 <1>   0.0800 
 16 H        2.1720     5.3930     0.8800 H     1 <1>   0.0800 
 17 H        6.2820     4.5120    -0.8700 H     1 <1>   0.0800 
 18 H        6.2760     4.5260     0.8910 H     1 <1>   0.0800 
 19 H        5.2190     6.7600    -0.8900 H     1 <1>   0.0800 
 20 H        6.7220     6.8090    -0.0050 H     1 <1>   0.0800 
 21 H        5.2120     6.7730     0.8690 H     1 <1>   0.0800 
@<TRIPOS>BOND
  1   1   2  1   
  2   2   3  1   
  3   2   4  2   
  4   3   5  2   
  5   4   6  1   
  6   4  13  1   
  7   5   6  1   
  8   5   7  1   
  9   6   8  1   
 10   7   9  2   
 11   7  10  1   
 12   8  14  1   
 13   8  15  1   
 14   8  16  1   
 15  10  11  1   
 16  11  12  1   
 17  11  17  1   
 18  11  18  1   
 19  12  19  1   
 20  12  20  1   
 21  12  21  1   
@<TRIPOS>SUBSTRUCTURE
  1 ****   5 GROUP 4 **** **** 0

# MOE 2024.06 (io_trps.svl 2023.06)
