@<TRIPOS>MOLECULE
NONAME
49 51 1 0 0 
SMALL
USER_CHARGES


@<TRIPOS>ATOM
  1 S       -0.7640     0.3340    -1.5960 S.o2  1 <1>   1.4470 
  2 O       -0.2960     0.7540    -2.8970 O.2   1 <1>  -0.6500 
  3 O       -2.0610    -0.3110    -1.5180 O.2   1 <1>  -0.6500 
  4 N       -0.8750     1.7120    -0.6090 N.am  1 <1>  -0.8490 
  5 C        0.4740    -0.7010    -0.7860 C.ar  1 <1>  -0.0090 
  6 C       -1.3150     1.4320     0.7710 C.3   1 <1>   0.1960 
  7 C       -1.5410     2.8490    -1.2560 C.3   1 <1>   0.1960 
  8 C        1.7810    -0.2700    -0.6310 C.ar  1 <1>   0.1900 
  9 C        0.1660    -1.9600    -0.2810 C.ar  1 <1>  -0.1500 
 10 C       -2.3850     2.4090     1.2750 C.3   1 <1>  -0.1600 
 11 C       -3.0590     2.6890    -1.1690 C.3   1 <1>  -0.1600 
 12 F        2.1310     0.9050    -1.0800 F     1 <1>  -0.1900 
 13 C        2.7570    -1.0280    -0.0100 C.ar  1 <1>  -0.1500 
 14 C        1.1280    -2.7370     0.3460 C.ar  1 <1>  -0.1500 
 15 C       -3.5620     2.5690     0.2890 C.3   1 <1>   0.2800 
 16 C        2.4280    -2.2770     0.4870 C.ar  1 <1>  -0.1430 
 17 O       -4.1130     3.8310     0.6000 O.3   1 <1>  -0.5600 
 18 C       -4.6210     1.4380     0.4930 C.3   1 <1>   0.2000 
 19 C        3.4720    -3.1390     1.1730 C.3   1 <1>  -0.0970 
 20 C       -5.5010     3.9770     0.7620 C.3   1 <1>   0.1200 
 21 O       -4.1310     0.1430     0.2560 O.3   1 <1>  -0.6800 
 22 C       -5.9650     1.7080    -0.2490 C.3   1 <1>   0.2800 
 23 C       -6.2480     3.2160    -0.3350 C.3   1 <1>  -0.1600 
 24 O       -6.9590     1.1510     0.5290 O.3   1 <1>  -0.6800 
 25 C       -6.1260     1.0500    -1.6270 C.3   1 <1>  -0.2400 
 26 H       -1.7000     0.4300     0.8490 H     1 <1>   0.0800 
 27 H       -0.4570     1.4880     1.4200 H     1 <1>   0.0800 
 28 H       -1.2470     3.7600    -0.7630 H     1 <1>   0.0800 
 29 H       -1.2320     2.9320    -2.2850 H     1 <1>   0.0800 
 30 H       -0.8380    -2.3400    -0.3780 H     1 <1>   0.1500 
 31 H       -1.9140     3.3620     1.4350 H     1 <1>   0.0800 
 32 H       -2.7460     2.0700     2.2290 H     1 <1>   0.0800 
 33 H       -3.3290     1.8250    -1.7390 H     1 <1>   0.0800 
 34 H       -3.5200     3.5310    -1.6520 H     1 <1>   0.0800 
 35 H        3.7560    -0.6380     0.0770 H     1 <1>   0.1500 
 36 H        0.8590    -3.7090     0.7260 H     1 <1>   0.1500 
 37 H       -4.8490     1.4510     1.5450 H     1 <1>   0.0800 
 38 H        3.0530    -3.6090     2.0450 H     1 <1>   0.0800 
 39 H        4.3150    -2.5460     1.4800 H     1 <1>   0.0800 
 40 H        3.8150    -3.9030     0.4990 H     1 <1>   0.0800 
 41 H       -5.7730     3.6120     1.7390 H     1 <1>   0.0800 
 42 H       -5.7250     5.0290     0.7140 H     1 <1>   0.0800 
 43 H       -3.5850     0.0950    -0.5680 H     1 <1>   0.4000 
 44 H       -5.9250     3.6060    -1.2820 H     1 <1>   0.0800 
 45 H       -7.3060     3.4000    -0.2590 H     1 <1>   0.0800 
 46 H       -6.7540     0.2020     0.6460 H     1 <1>   0.4000 
 47 H       -5.4280     1.4560    -2.3330 H     1 <1>   0.0800 
 48 H       -7.1160     1.2320    -2.0060 H     1 <1>   0.0800 
 49 H       -5.9690    -0.0120    -1.5700 H     1 <1>   0.0800 
@<TRIPOS>BOND
  1   1   2  2   
  2   1   3  2   
  3   1   4  am  
  4   1   5  1   
  5   4   6  1   
  6   4   7  1   
  7   5   8  ar  
  8   5   9  ar  
  9   6  10  1   
 10   6  26  1   
 11   6  27  1   
 12   7  11  1   
 13   7  28  1   
 14   7  29  1   
 15   8  12  1   
 16   8  13  ar  
 17   9  14  ar  
 18   9  30  1   
 19  10  15  1   
 20  10  31  1   
 21  10  32  1   
 22  11  15  1   
 23  11  33  1   
 24  11  34  1   
 25  13  16  ar  
 26  13  35  1   
 27  14  16  ar  
 28  14  36  1   
 29  15  17  1   
 30  15  18  1   
 31  16  19  1   
 32  17  20  1   
 33  18  21  1   
 34  18  22  1   
 35  18  37  1   
 36  19  38  1   
 37  19  39  1   
 38  19  40  1   
 39  20  23  1   
 40  20  41  1   
 41  20  42  1   
 42  21  43  1   
 43  22  23  1   
 44  22  24  1   
 45  22  25  1   
 46  23  44  1   
 47  23  45  1   
 48  24  46  1   
 49  25  47  1   
 50  25  48  1   
 51  25  49  1   
@<TRIPOS>SUBSTRUCTURE
  1 ****   6 GROUP 4 **** **** 0

# MOE 2024.06 (io_trps.svl 2023.06)
