@<TRIPOS>MOLECULE
NONAME
53 55 1 0 0 
SMALL
USER_CHARGES


@<TRIPOS>ATOM
  1 O       -2.2870     1.6790    -2.4290 O.2   1 <1>  -0.5700 
  2 C       -2.1210     2.0320    -1.2760 C.2   1 <1>   0.5440 
  3 N       -2.9850     1.5660    -0.3000 N.am  1 <1>  -0.6600 
  4 C       -1.0140     2.9160    -0.9550 C.ar  1 <1>   0.0860 
  5 C       -4.2950     0.9540    -0.6920 C.3   1 <1>   0.2200 
  6 C       -2.4320     1.1770     1.0340 C.3   1 <1>   0.0600 
  7 C        0.2320     2.7550    -1.5590 C.ar  1 <1>  -0.1500 
  8 C       -1.1520     3.9600    -0.0360 C.ar  1 <1>  -0.1500 
  9 C       -5.1380     1.9000    -1.5460 C.3   1 <1>  -0.1600 
 10 C       -5.2260     0.6670     0.4880 C.3   1 <1>  -0.1600 
 11 C        1.2870     3.5870    -1.2430 C.ar  1 <1>   0.0820 
 12 C       -0.0980     4.8010     0.2820 C.ar  1 <1>  -0.1500 
 13 C       -6.5760     1.3770    -1.4320 C.3   1 <1>  -0.0800 
 14 C       -6.6350     0.5900    -0.1150 C.3   1 <1>  -0.0800 
 15 O        2.4790     3.4020    -1.8340 O.3   1 <1>  -0.5320 
 16 C        1.1420     4.6200    -0.3210 C.ar  1 <1>   0.0820 
 17 C       -7.6250     2.4900    -1.3310 C.3   1 <1>  -0.1600 
 18 C       -7.7130     1.2620     0.7460 C.3   1 <1>  -0.1600 
 19 O        2.2300     5.3960    -0.0650 O.3   1 <1>  -0.3630 
 20 C       -7.8330     2.6710     0.1720 C.3   1 <1>   0.4230 
 21 C        2.1620     6.4830     0.8320 C.3   1 <1>   0.0400 
 22 N       -9.1100     3.3530     0.5490 N.4   1 <1>  -0.9590 
 23 C      -10.3600     2.7040     0.0290 C.3   1 <1>   0.2630 
 24 C       -9.0740     4.7920     0.1440 C.3   1 <1>   0.2630 
 25 H       -4.1130     0.0440    -1.2410 H     1 <1>   0.0800 
 26 H       -2.9080     1.7490     1.8110 H     1 <1>   0.0800 
 27 H       -1.3710     1.3530     1.0790 H     1 <1>   0.0800 
 28 H       -2.5970     0.1280     1.2090 H     1 <1>   0.0800 
 29 H        0.3750     1.9710    -2.2820 H     1 <1>   0.1500 
 30 H       -2.1090     4.1120     0.4310 H     1 <1>   0.1500 
 31 H       -5.0570     2.8960    -1.1480 H     1 <1>   0.0800 
 32 H       -4.8150     1.8990    -2.5730 H     1 <1>   0.0800 
 33 H       -4.9660    -0.2540     0.9790 H     1 <1>   0.0800 
 34 H       -5.1700     1.4820     1.1870 H     1 <1>   0.0800 
 35 H       -0.2610     5.5860     0.9960 H     1 <1>   0.1500 
 36 H       -6.7850     0.7250    -2.2650 H     1 <1>   0.0800 
 37 H       -6.8870    -0.4410    -0.3110 H     1 <1>   0.0800 
 38 H        3.1090     4.0770    -1.5100 H     1 <1>   0.4500 
 39 H       -8.5200     2.1410    -1.8100 H     1 <1>   0.0800 
 40 H       -7.2920     3.3940    -1.8090 H     1 <1>   0.0800 
 41 H       -7.4470     1.2730     1.7880 H     1 <1>   0.0800 
 42 H       -8.6270     0.7120     0.6180 H     1 <1>   0.0800 
 43 H       -7.0000     3.2440     0.5490 H     1 <1>   0.0800 
 44 H        3.1300     6.9510     0.8650 H     1 <1>   0.0800 
 45 H        1.9010     6.1150     1.8080 H     1 <1>   0.0800 
 46 H        1.4300     7.1850     0.4750 H     1 <1>   0.0800 
 47 H       -9.1530     3.3210     1.5780 H     1 <1>   0.4500 
 48 H      -10.3790     2.7290    -1.0480 H     1 <1>   0.0800 
 49 H      -11.2290     3.2250     0.3970 H     1 <1>   0.0800 
 50 H      -10.4190     1.6780     0.3520 H     1 <1>   0.0800 
 51 H       -9.0300     4.8780    -0.9300 H     1 <1>   0.0800 
 52 H       -8.2080     5.2780     0.5630 H     1 <1>   0.0800 
 53 H       -9.9560     5.3020     0.4940 H     1 <1>   0.0800 
@<TRIPOS>BOND
  1   1   2  2   
  2   2   3  am  
  3   2   4  1   
  4   3   5  1   
  5   3   6  1   
  6   4   7  ar  
  7   4   8  ar  
  8   5   9  1   
  9   5  10  1   
 10   5  25  1   
 11   6  26  1   
 12   6  27  1   
 13   6  28  1   
 14   7  11  ar  
 15   7  29  1   
 16   8  12  ar  
 17   8  30  1   
 18   9  13  1   
 19   9  31  1   
 20   9  32  1   
 21  10  14  1   
 22  10  33  1   
 23  10  34  1   
 24  11  15  1   
 25  11  16  ar  
 26  12  16  ar  
 27  12  35  1   
 28  13  14  1   
 29  13  17  1   
 30  13  36  1   
 31  14  18  1   
 32  14  37  1   
 33  15  38  1   
 34  16  19  1   
 35  17  20  1   
 36  17  39  1   
 37  17  40  1   
 38  18  20  1   
 39  18  41  1   
 40  18  42  1   
 41  19  21  1   
 42  20  22  1   
 43  20  43  1   
 44  21  44  1   
 45  21  45  1   
 46  21  46  1   
 47  22  23  1   
 48  22  24  1   
 49  22  47  1   
 50  23  48  1   
 51  23  49  1   
 52  23  50  1   
 53  24  51  1   
 54  24  52  1   
 55  24  53  1   
@<TRIPOS>SUBSTRUCTURE
  1 ****   3 GROUP 4 **** **** 0

# MOE 2024.06 (io_trps.svl 2023.06)
