@<TRIPOS>MOLECULE
NONAME
47 49 1 0 0 
SMALL
USER_CHARGES


@<TRIPOS>ATOM
  1 O       -1.1110    -0.5850     0.4610 O.3   1 <1>  -0.5600 
  2 C       -1.5360     0.4700     1.2660 C.3   1 <1>   0.1200 
  3 C       -1.2470    -0.4450    -0.9160 C.3   1 <1>   0.1200 
  4 C       -3.0560     0.7400     1.1920 C.3   1 <1>   0.4230 
  5 C       -2.7050    -0.6690    -1.3490 C.3   1 <1>  -0.0800 
  6 N       -3.4120     1.4660    -0.0940 N.4   1 <1>  -0.9590 
  7 C       -3.8950    -0.5280     1.5380 C.3   1 <1>   0.2090 
  8 C       -3.3830    -1.8400    -0.6120 C.3   1 <1>   0.2090 
  9 C       -3.5710     0.6010    -1.3140 C.3   1 <1>   0.3430 
 10 C       -4.6730     2.2450     0.0950 C.3   1 <1>   0.2630 
 11 N       -4.3800    -1.3510     0.3830 N.pl3 1 <1>  -0.8380 
 12 C       -5.7350    -1.5850     0.2220 C.ar  1 <1>   0.4100 
 13 N       -6.4530    -0.4840     0.0240 N.ar  1 <1>  -0.6200 
 14 C       -6.2810    -2.8770     0.2680 C.ar  1 <1>   0.0730 
 15 C       -7.7570    -0.6430    -0.1440 C.ar  1 <1>   0.1670 
 16 C       -5.4550    -4.0200     0.5020 C.1   1 <1>   0.4840 
 17 C       -7.6420    -3.0190     0.0890 C.ar  1 <1>  -0.1500 
 18 C       -8.3850    -1.8780    -0.1200 C.ar  1 <1>  -0.1500 
 19 C       -8.5800     0.6280    -0.3730 C.3   1 <1>   0.0630 
 20 N       -4.7940    -4.9360     0.6610 N.1   1 <1>  -0.5570 
 21 C       -9.6080     0.8430     0.7450 C.3   1 <1>  -0.2400 
 22 C       -9.2680     0.6160    -1.7450 C.3   1 <1>  -0.2400 
 23 H       -1.2810     0.1990     2.2750 H     1 <1>   0.0800 
 24 H       -0.9720     1.3490     1.0110 H     1 <1>   0.0800 
 25 H       -0.8670     0.5150    -1.2230 H     1 <1>   0.0800 
 26 H       -0.6270    -1.2070    -1.3580 H     1 <1>   0.0800 
 27 H       -3.2400     1.4300     1.9970 H     1 <1>   0.0800 
 28 H       -2.6590    -0.9600    -2.3820 H     1 <1>   0.0800 
 29 H       -2.6490     2.1240    -0.2880 H     1 <1>   0.4500 
 30 H       -4.7510    -0.2090     2.1080 H     1 <1>   0.0800 
 31 H       -3.3180    -1.1630     2.1890 H     1 <1>   0.0800 
 32 H       -2.6560    -2.4670    -0.1220 H     1 <1>   0.0800 
 33 H       -3.8920    -2.4520    -1.3380 H     1 <1>   0.0800 
 34 H       -4.6020     0.2930    -1.3970 H     1 <1>   0.0800 
 35 H       -3.3500     1.1930    -2.1860 H     1 <1>   0.0800 
 36 H       -5.4840     1.5840     0.3520 H     1 <1>   0.0800 
 37 H       -4.9330     2.7670    -0.8110 H     1 <1>   0.0800 
 38 H       -4.5560     2.9660     0.8870 H     1 <1>   0.0800 
 39 H       -8.1120    -3.9890     0.1140 H     1 <1>   0.1500 
 40 H       -9.4480    -1.9530    -0.2620 H     1 <1>   0.1500 
 41 H       -7.9070     1.4680    -0.3580 H     1 <1>   0.0800 
 42 H      -10.3460     0.0610     0.7480 H     1 <1>   0.0800 
 43 H      -10.1110     1.7850     0.6130 H     1 <1>   0.0800 
 44 H       -9.1150     0.8520     1.7010 H     1 <1>   0.0800 
 45 H       -9.9970    -0.1710    -1.8040 H     1 <1>   0.0800 
 46 H       -8.5380     0.4660    -2.5210 H     1 <1>   0.0800 
 47 H       -9.7640     1.5540    -1.9210 H     1 <1>   0.0800 
@<TRIPOS>BOND
  1   1   2  1   
  2   1   3  1   
  3   2   4  1   
  4   2  23  1   
  5   2  24  1   
  6   3   5  1   
  7   3  25  1   
  8   3  26  1   
  9   4   6  1   
 10   4   7  1   
 11   4  27  1   
 12   5   8  1   
 13   5   9  1   
 14   5  28  1   
 15   6   9  1   
 16   6  10  1   
 17   6  29  1   
 18   7  11  1   
 19   7  30  1   
 20   7  31  1   
 21   8  11  1   
 22   8  32  1   
 23   8  33  1   
 24   9  34  1   
 25   9  35  1   
 26  10  36  1   
 27  10  37  1   
 28  10  38  1   
 29  11  12  1   
 30  12  13  ar  
 31  12  14  ar  
 32  13  15  ar  
 33  14  16  1   
 34  14  17  ar  
 35  15  18  ar  
 36  15  19  1   
 37  16  20  3   
 38  17  18  ar  
 39  17  39  1   
 40  18  40  1   
 41  19  21  1   
 42  19  22  1   
 43  19  41  1   
 44  21  42  1   
 45  21  43  1   
 46  21  44  1   
 47  22  45  1   
 48  22  46  1   
 49  22  47  1   
@<TRIPOS>SUBSTRUCTURE
  1 ****  11 GROUP 4 **** **** 0

# MOE 2024.06 (io_trps.svl 2023.06)
