@<TRIPOS>MOLECULE
NONAME
40 41 1 0 0 
SMALL
USER_CHARGES


@<TRIPOS>ATOM
  1 S       -0.6630     0.7330     0.8520 S.o2  1 <1>   1.4470 
  2 O       -0.6210    -0.4390     1.7010 O.2   1 <1>  -0.6500 
  3 O       -1.1360     1.9750     1.4300 O.2   1 <1>  -0.6500 
  4 N       -1.6410     0.3610    -0.4840 N.am  1 <1>  -0.8490 
  5 C        0.9870     0.9860     0.1460 C.ar  1 <1>  -0.0090 
  6 C       -1.3040    -0.9080    -1.1600 C.3   1 <1>   0.1960 
  7 C       -3.0870     0.5780    -0.2740 C.3   1 <1>   0.1960 
  8 C        1.2530     2.0270    -0.7390 C.ar  1 <1>   0.0820 
  9 C        2.0370     0.1330     0.4710 C.ar  1 <1>  -0.1500 
 10 C       -1.9120    -2.1750    -0.5120 C.3   1 <1>   0.2000 
 11 C       -3.9440    -0.6900    -0.4210 C.3   1 <1>  -0.1600 
 12 O        0.2770     2.8810    -1.1060 O.3   1 <1>  -0.3630 
 13 C        2.5170     2.2000    -1.2820 C.ar  1 <1>  -0.1500 
 14 C        3.3060     0.2970    -0.0620 C.ar  1 <1>  -0.1430 
 15 O       -2.1150    -3.0750    -1.5420 O.3   1 <1>  -0.6800 
 16 C       -3.2430    -1.9010     0.2220 C.3   1 <1>  -0.1860 
 17 C        0.2990     4.1590    -0.5120 C.3   1 <1>   0.0400 
 18 C        3.5420     1.3380    -0.9420 C.ar  1 <1>  -0.1500 
 19 C        4.4230    -0.6560     0.3210 C.3   1 <1>  -0.0970 
 20 C       -4.1750    -3.0930     0.4100 C.2   1 <1>   0.9060 
 21 O       -5.1040    -2.9770     1.2140 O.co2 1 <1>  -0.9000 
 22 O       -4.0040    -4.1360    -0.2380 O.co2 1 <1>  -0.9000 
 23 H       -1.6810    -0.8370    -2.1660 H     1 <1>   0.0800 
 24 H       -0.2370    -1.0230    -1.2270 H     1 <1>   0.0800 
 25 H       -3.2550     0.9770     0.7130 H     1 <1>   0.0800 
 26 H       -3.4300     1.3170    -0.9770 H     1 <1>   0.0800 
 27 H        1.8550    -0.6790     1.1560 H     1 <1>   0.1500 
 28 H       -1.2140    -2.6270     0.1710 H     1 <1>   0.0800 
 29 H       -4.8950    -0.5280     0.0570 H     1 <1>   0.0800 
 30 H       -4.1360    -0.8930    -1.4600 H     1 <1>   0.0800 
 31 H        2.6920     3.0040    -1.9730 H     1 <1>   0.1500 
 32 H       -2.8360    -3.7030    -1.2110 H     1 <1>   0.4000 
 33 H       -2.9850    -1.6060     1.2220 H     1 <1>   0.0800 
 34 H       -0.5610     4.7040    -0.8570 H     1 <1>   0.0800 
 35 H        1.2010     4.6670    -0.8010 H     1 <1>   0.0800 
 36 H        0.2540     4.0470     0.5580 H     1 <1>   0.0800 
 37 H        4.5210     1.4810    -1.3660 H     1 <1>   0.1500 
 38 H        5.1680    -0.6970    -0.4530 H     1 <1>   0.0800 
 39 H        4.0350    -1.6480     0.4700 H     1 <1>   0.0800 
 40 H        4.8880    -0.3250     1.2330 H     1 <1>   0.0800 
@<TRIPOS>BOND
  1   1   2  2   
  2   1   3  2   
  3   1   4  am  
  4   1   5  1   
  5   4   6  1   
  6   4   7  1   
  7   5   8  ar  
  8   5   9  ar  
  9   6  10  1   
 10   6  23  1   
 11   6  24  1   
 12   7  11  1   
 13   7  25  1   
 14   7  26  1   
 15   8  12  1   
 16   8  13  ar  
 17   9  14  ar  
 18   9  27  1   
 19  10  15  1   
 20  10  16  1   
 21  10  28  1   
 22  11  16  1   
 23  11  29  1   
 24  11  30  1   
 25  12  17  1   
 26  13  18  ar  
 27  13  31  1   
 28  14  18  ar  
 29  14  19  1   
 30  15  32  1   
 31  16  20  1   
 32  16  33  1   
 33  17  34  1   
 34  17  35  1   
 35  17  36  1   
 36  18  37  1   
 37  19  38  1   
 38  19  39  1   
 39  19  40  1   
 40  20  21  ar  
 41  20  22  ar  
@<TRIPOS>SUBSTRUCTURE
  1 ****   4 GROUP 4 **** **** 0

# MOE 2024.06 (io_trps.svl 2023.06)
