@<TRIPOS>MOLECULE
NONAME
48 50 1 0 0 
SMALL
USER_CHARGES


@<TRIPOS>ATOM
  1 S        0.7090     0.1740    -1.7030 S.3   1 <1>  -0.0800 
  2 C       -0.6610     0.8890    -0.8840 C.2   1 <1>   0.1980 
  3 C        1.6050     1.6360    -1.4160 C.2   1 <1>  -0.1100 
  4 N       -0.4590     2.0680    -0.4530 N.2   1 <1>  -0.5650 
  5 C       -1.9160     0.0570    -0.7740 C.3   1 <1>  -0.0600 
  6 C        0.8260     2.5040    -0.7490 C.2   1 <1>   0.0460 
  7 C        1.2060     3.9060    -0.2920 C.3   1 <1>   0.3210 
  8 N        2.6800     4.0450    -0.1700 N.am  1 <1>  -0.7300 
  9 C        3.4180     4.9740    -0.8230 C.2   1 <1>   0.5690 
 10 O        2.9150     5.7830    -1.5600 O.2   1 <1>  -0.5700 
 11 C        4.9230     4.9730    -0.6460 C.3   1 <1>  -0.0990 
 12 C        5.4850     5.9760     0.3910 C.3   1 <1>   0.1380 
 13 C        7.0290     5.7800     0.3760 C.2   1 <1>  -0.0620 
 14 C        5.1370     7.4350    -0.0030 C.3   1 <1>  -0.1600 
 15 C        4.8130     5.7810     1.7730 C.3   1 <1>  -0.1600 
 16 O        7.5790     6.3560    -0.7120 O.3   1 <1>  -0.1530 
 17 C        7.8520     5.1100     1.2410 C.2   1 <1>   0.0910 
 18 C        5.6210     8.4200     1.0670 C.3   1 <1>   0.1200 
 19 C        5.3000     6.8350     2.7820 C.3   1 <1>   0.1200 
 20 C        8.8830     6.3380    -0.9750 C.2   1 <1>  -0.0620 
 21 O        7.3810     4.4510     2.3350 O.3   1 <1>  -0.5270 
 22 C        9.2790     5.0540     1.0200 C.2   1 <1>   0.5410 
 23 O        5.0140     8.1020     2.2830 O.3   1 <1>  -0.5600 
 24 C        9.7450     5.7100    -0.1470 C.2   1 <1>  -0.1360 
 25 C        9.2690     7.0670    -2.2470 C.3   1 <1>  -0.1020 
 26 O       10.0700     4.4900     1.7610 O.2   1 <1>  -0.5700 
 27 H        2.6140     1.6910    -1.7810 H     1 <1>   0.1500 
 28 H       -1.7080    -0.8470    -0.2320 H     1 <1>   0.0800 
 29 H       -2.2760    -0.1910    -1.7550 H     1 <1>   0.0800 
 30 H       -2.6750     0.6120    -0.2520 H     1 <1>   0.0800 
 31 H        0.7610     4.0930     0.6690 H     1 <1>   0.0800 
 32 H        0.8090     4.6250    -0.9880 H     1 <1>   0.0800 
 33 H        3.1220     3.3300     0.4060 H     1 <1>   0.3700 
 34 H        5.3540     5.1880    -1.6070 H     1 <1>   0.0800 
 35 H        5.2370     3.9810    -0.3800 H     1 <1>   0.0800 
 36 H        4.0730     7.5610    -0.0960 H     1 <1>   0.0800 
 37 H        5.5580     7.7000    -0.9560 H     1 <1>   0.0800 
 38 H        4.9370     4.7850     2.1480 H     1 <1>   0.0800 
 39 H        3.7500     5.9240     1.6790 H     1 <1>   0.0800 
 40 H        5.3320     9.4250     0.8120 H     1 <1>   0.0800 
 41 H        6.6900     8.3840     1.1920 H     1 <1>   0.0800 
 42 H        6.3590     6.7780     2.9660 H     1 <1>   0.0800 
 43 H        4.7790     6.7330     3.7180 H     1 <1>   0.0800 
 44 H        6.4370     4.6110     2.4910 H     1 <1>   0.4500 
 45 H       10.8030     5.6720    -0.3210 H     1 <1>   0.1500 
 46 H        8.7720     6.6200    -3.0900 H     1 <1>   0.0800 
 47 H       10.3310     7.0180    -2.4060 H     1 <1>   0.0800 
 48 H        8.9760     8.0990    -2.1800 H     1 <1>   0.0800 
@<TRIPOS>BOND
  1   1   2  1   
  2   1   3  1   
  3   2   4  2   
  4   2   5  1   
  5   3   6  2   
  6   3  27  1   
  7   4   6  1   
  8   5  28  1   
  9   5  29  1   
 10   5  30  1   
 11   6   7  1   
 12   7   8  1   
 13   7  31  1   
 14   7  32  1   
 15   8   9  am  
 16   8  33  1   
 17   9  10  2   
 18   9  11  1   
 19  11  12  1   
 20  11  34  1   
 21  11  35  1   
 22  12  13  1   
 23  12  14  1   
 24  12  15  1   
 25  13  16  1   
 26  13  17  2   
 27  14  18  1   
 28  14  36  1   
 29  14  37  1   
 30  15  19  1   
 31  15  38  1   
 32  15  39  1   
 33  16  20  1   
 34  17  21  1   
 35  17  22  1   
 36  18  23  1   
 37  18  40  1   
 38  18  41  1   
 39  19  23  1   
 40  19  42  1   
 41  19  43  1   
 42  20  24  2   
 43  20  25  1   
 44  21  44  1   
 45  22  24  1   
 46  22  26  2   
 47  24  45  1   
 48  25  46  1   
 49  25  47  1   
 50  25  48  1   
@<TRIPOS>SUBSTRUCTURE
  1 ****  11 GROUP 4 **** **** 0

# MOE 2024.06 (io_trps.svl 2023.06)
