@<TRIPOS>MOLECULE
NONAME
58 62 1 0 0 
SMALL
USER_CHARGES


@<TRIPOS>ATOM
  1 O        0.0350     1.4680    -1.7890 O.2   1 <1>  -0.5700 
  2 C        0.0670     2.3360    -0.9350 C.2   1 <1>   0.5440 
  3 N        1.2940     2.7940    -0.5040 N.am  1 <1>  -0.6600 
  4 C       -1.1760     2.8100    -0.3640 C.ar  1 <1>   0.0860 
  5 C        1.4240     3.7360     0.7240 C.3   1 <1>   0.1400 
  6 C        2.5400     2.5880    -1.4140 C.3   1 <1>   0.1400 
  7 C       -1.6040     4.1410    -0.4740 C.ar  1 <1>   0.0830 
  8 C       -1.9820     1.9010     0.3200 C.ar  1 <1>  -0.1500 
  9 C        2.9210     3.7700     1.1590 C.3   1 <1>  -0.0800 
 10 C        3.8180     2.8480    -0.5570 C.3   1 <1>  -0.0800 
 11 O       -0.7680     4.9770    -1.1580 O.3   1 <1>  -0.3630 
 12 C       -2.8300     4.5300     0.0980 C.ar  1 <1>   0.0830 
 13 C       -3.1730     2.2850     0.8980 C.ar  1 <1>  -0.1500 
 14 C        3.3630     4.2810    -0.2260 C.3   1 <1>   0.2200 
 15 C        4.4110     3.6980     1.6150 C.3   1 <1>  -0.1600 
 16 C        5.0650     3.0250     0.3620 C.3   1 <1>  -0.1600 
 17 C       -0.8120     6.3880    -1.0770 C.3   1 <1>   0.3010 
 18 O       -3.2810     5.8110    -0.0250 O.3   1 <1>  -0.3630 
 19 C       -3.5940     3.5960     0.7900 C.ar  1 <1>  -0.1500 
 20 N        4.2950     5.4610    -0.3590 N.am  1 <1>  -0.7300 
 21 C        0.4790     6.9960    -1.6050 C.2   1 <1>   0.0460 
 22 C       -4.6650     6.0940    -0.0580 C.3   1 <1>   0.0400 
 23 C        4.8310     5.8490    -1.5420 C.2   1 <1>   0.5690 
 24 N        0.6890     7.1670    -2.9140 N.2   1 <1>  -0.2270 
 25 C        1.5270     7.4830    -0.9190 C.2   1 <1>  -0.3020 
 26 O        4.7340     5.1880    -2.5440 O.2   1 <1>  -0.5700 
 27 C        5.5880     7.1580    -1.6020 C.3   1 <1>  -0.0990 
 28 N        1.8220     7.7630    -3.0590 N.2   1 <1>  -0.4180 
 29 N        2.3620     7.9510    -1.8510 N.pl3 1 <1>   0.3140 
 30 C        4.8330     8.2720    -2.3530 C.3   1 <1>  -0.1600 
 31 C        3.5660     8.7870    -1.6400 C.3   1 <1>   0.0960 
 32 H        1.0620     4.7240     0.4930 H     1 <1>   0.0800 
 33 H        0.7970     3.3480     1.5110 H     1 <1>   0.0800 
 34 H        2.5210     1.5770    -1.7900 H     1 <1>   0.0800 
 35 H        2.4910     3.2360    -2.2760 H     1 <1>   0.0800 
 36 H       -1.6570     0.8760     0.3900 H     1 <1>   0.1500 
 37 H        2.6240     3.4490     2.1410 H     1 <1>   0.0800 
 38 H        4.1640     1.8620    -0.8120 H     1 <1>   0.0800 
 39 H       -3.7740     1.5650     1.4270 H     1 <1>   0.1500 
 40 H        2.5760     4.6800    -0.8590 H     1 <1>   0.0800 
 41 H        4.8490     4.6430     1.8900 H     1 <1>   0.0800 
 42 H        4.5370     3.0350     2.4570 H     1 <1>   0.0800 
 43 H        5.4780     2.0740     0.6600 H     1 <1>   0.0800 
 44 H        5.8650     3.5910    -0.0860 H     1 <1>   0.0800 
 45 H       -1.6460     6.7350    -1.6600 H     1 <1>   0.0800 
 46 H       -0.9400     6.6620    -0.0460 H     1 <1>   0.0800 
 47 H       -4.5210     3.8700     1.2560 H     1 <1>   0.1500 
 48 H        4.4390     6.0020     0.4890 H     1 <1>   0.3700 
 49 H       -4.7920     7.1010    -0.4110 H     1 <1>   0.0800 
 50 H       -5.0670     6.0060     0.9350 H     1 <1>   0.0800 
 51 H       -5.1480     5.4080    -0.7320 H     1 <1>   0.0800 
 52 H        1.7120     7.5370     0.1350 H     1 <1>   0.1500 
 53 H        5.8340     7.4830    -0.6080 H     1 <1>   0.0800 
 54 H        6.5130     6.9650    -2.1150 H     1 <1>   0.0800 
 55 H        4.5830     7.9400    -3.3480 H     1 <1>   0.0800 
 56 H        5.5080     9.1020    -2.4600 H     1 <1>   0.0800 
 57 H        3.3320     9.7630    -2.0250 H     1 <1>   0.0800 
 58 H        3.7440     8.8830    -0.5860 H     1 <1>   0.0800 
@<TRIPOS>BOND
  1   1   2  2   
  2   2   3  am  
  3   2   4  1   
  4   3   5  1   
  5   3   6  1   
  6   4   7  ar  
  7   4   8  ar  
  8   5   9  1   
  9   5  32  1   
 10   5  33  1   
 11   6  10  1   
 12   6  34  1   
 13   6  35  1   
 14   7  11  1   
 15   7  12  ar  
 16   8  13  ar  
 17   8  36  1   
 18   9  14  1   
 19   9  15  1   
 20   9  37  1   
 21  10  14  1   
 22  10  16  1   
 23  10  38  1   
 24  11  17  1   
 25  12  18  1   
 26  12  19  ar  
 27  13  19  ar  
 28  13  39  1   
 29  14  20  1   
 30  14  40  1   
 31  15  16  1   
 32  15  41  1   
 33  15  42  1   
 34  16  43  1   
 35  16  44  1   
 36  17  21  1   
 37  17  45  1   
 38  17  46  1   
 39  18  22  1   
 40  19  47  1   
 41  20  23  am  
 42  20  48  1   
 43  21  24  1   
 44  21  25  2   
 45  22  49  1   
 46  22  50  1   
 47  22  51  1   
 48  23  26  2   
 49  23  27  1   
 50  24  28  2   
 51  25  29  1   
 52  25  52  1   
 53  27  30  1   
 54  27  53  1   
 55  27  54  1   
 56  28  29  1   
 57  29  31  1   
 58  30  31  1   
 59  30  55  1   
 60  30  56  1   
 61  31  57  1   
 62  31  58  1   
@<TRIPOS>SUBSTRUCTURE
  1 ****   5 GROUP 4 **** **** 0

# MOE 2024.06 (io_trps.svl 2023.06)
