@<TRIPOS>MOLECULE
NONAME
42 43 1 0 0 
SMALL
USER_CHARGES


@<TRIPOS>ATOM
  1 O       -1.4770     1.4050    -2.8690 O.2   1 <1>  -0.5700 
  2 C       -2.1550     1.5820    -1.8750 C.2   1 <1>   0.5440 
  3 N       -3.4610     1.1420    -1.8680 N.am  1 <1>  -0.6600 
  4 C       -1.5910     2.2140    -0.6960 C.ar  1 <1>   0.0860 
  5 C       -3.7820    -0.2820    -2.1360 C.3   1 <1>   0.1400 
  6 C       -4.5600     1.8510    -1.1720 C.3   1 <1>   0.1400 
  7 C       -1.6930     1.5620     0.5240 C.ar  1 <1>  -0.1500 
  8 C       -0.9780     3.4680    -0.6980 C.ar  1 <1>  -0.1500 
  9 C       -3.9230    -1.0120    -0.7920 C.3   1 <1>   0.2000 
 10 C       -4.8740     1.2130     0.1910 C.3   1 <1>  -0.1600 
 11 C       -1.3460     2.1660     1.7090 C.ar  1 <1>   0.0830 
 12 C       -0.5530     4.0580     0.4840 C.ar  1 <1>  -0.1500 
 13 O       -4.2860    -2.3320    -1.0030 O.3   1 <1>  -0.6800 
 14 C       -4.8690    -0.3580     0.2660 C.3   1 <1>  -0.1060 
 15 O       -1.6520     1.5380     2.8560 O.3   1 <1>  -0.5320 
 16 C       -0.7490     3.4140     1.6970 C.ar  1 <1>  -0.1500 
 17 C       -4.2660    -0.8660     1.5990 C.2   1 <1>   0.9060 
 18 C       -6.3570    -0.8470     0.1840 C.3   1 <1>  -0.1600 
 19 O       -3.5950    -0.1220     2.3380 O.co2 1 <1>  -0.9000 
 20 O       -4.3700    -2.0730     1.8530 O.co2 1 <1>  -0.9000 
 21 C       -7.1180    -0.5460    -1.1190 C.3   1 <1>  -0.1600 
 22 C       -8.5590    -1.0550    -1.0370 C.3   1 <1>  -0.2400 
 23 H       -4.6920    -0.3430    -2.7020 H     1 <1>   0.0800 
 24 H       -2.9870    -0.7320    -2.7050 H     1 <1>   0.0800 
 25 H       -4.2940     2.8850    -1.0330 H     1 <1>   0.0800 
 26 H       -5.4310     1.8220    -1.8010 H     1 <1>   0.0800 
 27 H       -2.0800     0.5690     0.5580 H     1 <1>   0.1500 
 28 H       -0.8460     3.9750    -1.6370 H     1 <1>   0.1500 
 29 H       -2.9310    -1.0650    -0.3820 H     1 <1>   0.0800 
 30 H       -4.1820     1.6330     0.8890 H     1 <1>   0.0800 
 31 H       -5.8250     1.5870     0.5240 H     1 <1>   0.0800 
 32 H       -0.0810     5.0240     0.4640 H     1 <1>   0.1500 
 33 H       -4.3910    -2.7260    -0.0980 H     1 <1>   0.4000 
 34 H       -2.3680     0.8260     2.7260 H     1 <1>   0.4500 
 35 H       -0.4570     3.8660     2.6270 H     1 <1>   0.1500 
 36 H       -6.3920    -1.9110     0.3470 H     1 <1>   0.0800 
 37 H       -6.8960    -0.4110     1.0070 H     1 <1>   0.0800 
 38 H       -7.1380     0.5110    -1.3090 H     1 <1>   0.0800 
 39 H       -6.6300    -1.0360    -1.9420 H     1 <1>   0.0800 
 40 H       -9.0820    -0.5730    -0.2290 H     1 <1>   0.0800 
 41 H       -8.5690    -2.1180    -0.8710 H     1 <1>   0.0800 
 42 H       -9.0770    -0.8470    -1.9560 H     1 <1>   0.0800 
@<TRIPOS>BOND
  1   1   2  2   
  2   2   3  am  
  3   2   4  1   
  4   3   5  1   
  5   3   6  1   
  6   4   7  ar  
  7   4   8  ar  
  8   5   9  1   
  9   5  23  1   
 10   5  24  1   
 11   6  10  1   
 12   6  25  1   
 13   6  26  1   
 14   7  11  ar  
 15   7  27  1   
 16   8  12  ar  
 17   8  28  1   
 18   9  13  1   
 19   9  14  1   
 20   9  29  1   
 21  10  14  1   
 22  10  30  1   
 23  10  31  1   
 24  11  15  1   
 25  11  16  ar  
 26  12  16  ar  
 27  12  32  1   
 28  13  33  1   
 29  14  17  1   
 30  14  18  1   
 31  15  34  1   
 32  16  35  1   
 33  17  19  ar  
 34  17  20  ar  
 35  18  21  1   
 36  18  36  1   
 37  18  37  1   
 38  21  22  1   
 39  21  38  1   
 40  21  39  1   
 41  22  40  1   
 42  22  41  1   
 43  22  42  1   
@<TRIPOS>SUBSTRUCTURE
  1 ****  10 GROUP 4 **** **** 0

# MOE 2024.06 (io_trps.svl 2023.06)
