@<TRIPOS>MOLECULE
NONAME
50 51 1 0 0 
SMALL
USER_CHARGES


@<TRIPOS>ATOM
  1 O       -2.3220     0.6110    -2.3900 O.2   1 <1>  -0.5700 
  2 C       -2.1250     0.7510    -1.2070 C.2   1 <1>   0.5690 
  3 N       -1.9970    -0.3170    -0.3810 N.am  1 <1>  -0.7300 
  4 C       -2.0390     2.1590    -0.6200 C.3   1 <1>  -0.0190 
  5 C       -2.0500    -1.7340    -0.8040 C.3   1 <1>   0.2200 
  6 C       -0.6930     2.3650     0.1180 C.3   1 <1>  -0.1600 
  7 C       -3.2810     2.4130     0.2690 C.3   1 <1>  -0.1600 
  8 C       -3.3770    -2.3750    -0.4180 C.3   1 <1>  -0.0800 
  9 C       -1.0900    -2.5390     0.0600 C.3   1 <1>   0.1200 
 10 C       -0.0980     3.7690    -0.0780 C.3   1 <1>  -0.1600 
 11 C       -3.3940     3.8400     0.8220 C.3   1 <1>  -0.1600 
 12 C       -3.1460    -2.8010     1.0360 C.3   1 <1>   0.1200 
 13 C       -4.6320    -1.5090    -0.6340 C.3   1 <1>  -0.0170 
 14 O       -1.7670    -2.7360     1.2640 O.3   1 <1>  -0.5600 
 15 C        1.2230     3.9150     0.6830 C.3   1 <1>  -0.2400 
 16 C       -4.7320     4.0470     1.5380 C.3   1 <1>  -0.2400 
 17 C       -5.8940    -2.2950    -0.3150 C.ar  1 <1>  -0.1440 
 18 C       -6.4550    -3.1630    -1.2290 C.ar  1 <1>  -0.1500 
 19 C       -6.5420    -2.1840     0.8980 C.ar  1 <1>  -0.1500 
 20 C       -7.6010    -3.8650    -0.8920 C.ar  1 <1>   0.1600 
 21 C       -7.6840    -2.9320     1.1350 C.ar  1 <1>   0.1600 
 22 N       -8.2280    -3.7730     0.2690 N.ar  1 <1>  -0.6200 
 23 H       -1.8460    -0.1840     0.6210 H     1 <1>   0.3700 
 24 H       -2.0800     2.8370    -1.4550 H     1 <1>   0.0800 
 25 H       -1.8330    -1.8260    -1.8550 H     1 <1>   0.0800 
 26 H       -0.8130     2.1560     1.1670 H     1 <1>   0.0800 
 27 H        0.0260     1.6610    -0.2670 H     1 <1>   0.0800 
 28 H       -4.1570     2.2090    -0.3250 H     1 <1>   0.0800 
 29 H       -3.2840     1.7200     1.0920 H     1 <1>   0.0800 
 30 H       -3.4870    -3.2730    -1.0010 H     1 <1>   0.0800 
 31 H       -0.1620    -2.0280     0.2420 H     1 <1>   0.0800 
 32 H       -0.9010    -3.5050    -0.3750 H     1 <1>   0.0800 
 33 H        0.0820     3.9390    -1.1260 H     1 <1>   0.0800 
 34 H       -0.7790     4.5270     0.2630 H     1 <1>   0.0800 
 35 H       -2.6000     4.0260     1.5240 H     1 <1>   0.0800 
 36 H       -3.3120     4.5510     0.0170 H     1 <1>   0.0800 
 37 H       -3.4840    -3.8070     1.2150 H     1 <1>   0.0800 
 38 H       -3.6210    -2.1290     1.7290 H     1 <1>   0.0800 
 39 H       -4.6650    -1.1790    -1.6590 H     1 <1>   0.0800 
 40 H       -4.5940    -0.6300    -0.0150 H     1 <1>   0.0800 
 41 H        1.9400     3.1900     0.3360 H     1 <1>   0.0800 
 42 H        1.0680     3.7730     1.7380 H     1 <1>   0.0800 
 43 H        1.6300     4.8980     0.5270 H     1 <1>   0.0800 
 44 H       -4.8320     3.3570     2.3580 H     1 <1>   0.0800 
 45 H       -5.5510     3.8980     0.8570 H     1 <1>   0.0800 
 46 H       -4.7900     5.0490     1.9260 H     1 <1>   0.0800 
 47 H       -6.0130    -3.3010    -2.1990 H     1 <1>   0.1500 
 48 H       -6.1730    -1.5250     1.6620 H     1 <1>   0.1500 
 49 H       -8.0250    -4.5380    -1.6180 H     1 <1>   0.1500 
 50 H       -8.1760    -2.8340     2.0870 H     1 <1>   0.1500 
@<TRIPOS>BOND
  1   1   2  2   
  2   2   3  am  
  3   2   4  1   
  4   3   5  1   
  5   3  23  1   
  6   4   6  1   
  7   4   7  1   
  8   4  24  1   
  9   5   8  1   
 10   5   9  1   
 11   5  25  1   
 12   6  10  1   
 13   6  26  1   
 14   6  27  1   
 15   7  11  1   
 16   7  28  1   
 17   7  29  1   
 18   8  12  1   
 19   8  13  1   
 20   8  30  1   
 21   9  14  1   
 22   9  31  1   
 23   9  32  1   
 24  10  15  1   
 25  10  33  1   
 26  10  34  1   
 27  11  16  1   
 28  11  35  1   
 29  11  36  1   
 30  12  14  1   
 31  12  37  1   
 32  12  38  1   
 33  13  17  1   
 34  13  39  1   
 35  13  40  1   
 36  15  41  1   
 37  15  42  1   
 38  15  43  1   
 39  16  44  1   
 40  16  45  1   
 41  16  46  1   
 42  17  18  ar  
 43  17  19  ar  
 44  18  20  ar  
 45  18  47  1   
 46  19  21  ar  
 47  19  48  1   
 48  20  22  ar  
 49  20  49  1   
 50  21  22  ar  
 51  21  50  1   
@<TRIPOS>SUBSTRUCTURE
  1 ****   3 GROUP 4 **** **** 0

# MOE 2024.06 (io_trps.svl 2023.06)
