@<TRIPOS>MOLECULE
NONAME
49 52 1 0 0 
SMALL
USER_CHARGES


@<TRIPOS>ATOM
  1 S       -1.6390    -0.3180     2.4180 S.3   1 <1>  -0.2320 
  2 C       -1.8300     1.0240     1.3420 C.cat 1 <1>   0.8400 
  3 C       -2.3670    -1.4080     1.2360 C.2   1 <1>  -0.0490 
  4 N       -1.4240     2.2370     1.6340 N.pl3 1 <1>  -0.7940 
  5 N       -2.4160     0.6600     0.2080 N.pl3 1 <1>  -0.6850 
  6 C       -2.7170    -0.7240     0.1340 C.2   1 <1>   0.2030 
  7 C       -1.5730     3.3720     0.7030 C.3   1 <1>   0.3290 
  8 C       -2.6240     1.6530    -0.8780 C.3   1 <1>   0.3290 
  9 C       -3.3700    -1.3000    -1.1160 C.3   1 <1>   0.0390 
 10 C       -2.7060     3.0710    -0.2890 C.3   1 <1>  -0.1600 
 11 C       -3.4900    -2.8080    -1.0230 C.2   1 <1>   0.5690 
 12 O       -2.5240    -3.4530    -1.3470 O.2   1 <1>  -0.5700 
 13 N       -4.6300    -3.4080    -0.5630 N.am  1 <1>  -0.6600 
 14 C       -5.9010    -2.7580    -0.1460 C.3   1 <1>   0.1400 
 15 C       -4.7410    -4.8850    -0.4400 C.3   1 <1>   0.1400 
 16 C       -6.8840    -3.9100     0.0650 C.3   1 <1>   0.2000 
 17 C       -6.0190    -5.1290     0.3640 C.3   1 <1>  -0.0800 
 18 O       -7.7440    -3.6560     1.1200 O.3   1 <1>  -0.6800 
 19 C       -6.7100    -6.4600     0.0300 C.3   1 <1>   0.0210 
 20 C       -5.7670    -7.6280     0.2430 C.2   1 <1>   0.1080 
 21 N       -5.2370    -7.9030     1.3930 N.2   1 <1>  -0.7070 
 22 C       -5.3600    -8.5140    -0.7490 C.2   1 <1>  -0.1500 
 23 N       -4.4700    -8.9860     1.1650 N.pl3 1 <1>   0.3000 
 24 C       -4.5260    -9.3730    -0.1270 C.2   1 <1>  -0.3320 
 25 C       -3.7680   -10.5580    -0.6950 C.3   1 <1>  -0.0600 
 26 H       -2.4440    -2.4490     1.5050 H     1 <1>   0.1500 
 27 H       -0.9550     2.4170     2.5270 H     1 <1>   0.4500 
 28 H       -1.8000     4.2710     1.2540 H     1 <1>   0.0800 
 29 H       -0.6440     3.5210     0.1750 H     1 <1>   0.0800 
 30 H       -1.8020     1.5880    -1.5720 H     1 <1>   0.0800 
 31 H       -3.5360     1.4380    -1.4090 H     1 <1>   0.0800 
 32 H       -2.7590    -1.0740    -1.9700 H     1 <1>   0.0800 
 33 H       -4.3340    -0.8580    -1.2690 H     1 <1>   0.0800 
 34 H       -3.6500     3.1850     0.2140 H     1 <1>   0.0800 
 35 H       -2.6850     3.7930    -1.0870 H     1 <1>   0.0800 
 36 H       -5.7440    -2.2220     0.7740 H     1 <1>   0.0800 
 37 H       -6.2650    -2.0970    -0.9120 H     1 <1>   0.0800 
 38 H       -4.8170    -5.3130    -1.4250 H     1 <1>   0.0800 
 39 H       -3.8810    -5.3000     0.0590 H     1 <1>   0.0800 
 40 H       -7.4720    -4.0510    -0.8260 H     1 <1>   0.0800 
 41 H       -5.7390    -5.1310     1.4030 H     1 <1>   0.0800 
 42 H       -7.2890    -3.7920     1.9740 H     1 <1>   0.4000 
 43 H       -7.0490    -6.4580    -0.9890 H     1 <1>   0.0800 
 44 H       -7.5660    -6.5900     0.6680 H     1 <1>   0.0800 
 45 H       -5.6590    -8.4960    -1.7820 H     1 <1>   0.1500 
 46 H       -3.9230    -9.4350     1.9090 H     1 <1>   0.2700 
 47 H       -3.9770   -10.6620    -1.7450 H     1 <1>   0.0800 
 48 H       -4.0640   -11.4640    -0.1960 H     1 <1>   0.0800 
 49 H       -2.7090   -10.4170    -0.5700 H     1 <1>   0.0800 
@<TRIPOS>BOND
  1   1   2  1   
  2   1   3  1   
  3   2   4  ar  
  4   2   5  ar  
  5   3   6  2   
  6   3  26  1   
  7   4   7  1   
  8   4  27  1   
  9   5   6  1   
 10   5   8  1   
 11   6   9  1   
 12   7  10  1   
 13   7  28  1   
 14   7  29  1   
 15   8  10  1   
 16   8  30  1   
 17   8  31  1   
 18   9  11  1   
 19   9  32  1   
 20   9  33  1   
 21  10  34  1   
 22  10  35  1   
 23  11  12  2   
 24  11  13  am  
 25  13  14  1   
 26  13  15  1   
 27  14  16  1   
 28  14  36  1   
 29  14  37  1   
 30  15  17  1   
 31  15  38  1   
 32  15  39  1   
 33  16  17  1   
 34  16  18  1   
 35  16  40  1   
 36  17  19  1   
 37  17  41  1   
 38  18  42  1   
 39  19  20  1   
 40  19  43  1   
 41  19  44  1   
 42  20  21  2   
 43  20  22  1   
 44  21  23  1   
 45  22  24  2   
 46  22  45  1   
 47  23  24  1   
 48  23  46  1   
 49  24  25  1   
 50  25  47  1   
 51  25  48  1   
 52  25  49  1   
@<TRIPOS>SUBSTRUCTURE
  1 ****  13 GROUP 4 **** **** 0

# MOE 2024.06 (io_trps.svl 2023.06)
